#------------------------------------------------------------------------------
#$Date: 2016-06-17 02:47:30 +0300 (Fri, 17 Jun 2016) $
#$Revision: 183615 $
#$URL: file:///home/coder/svn-repositories/cod/cif/2/02/05/2020532.cif $
#------------------------------------------------------------------------------
#
# This file is available in the Crystallography Open Database (COD),
# http://www.crystallography.net/. The original data for this entry
# were provided by IUCr Journals, http://journals.iucr.org/.
#
# The file may be used within the scientific community so long as
# proper attribution is given to the journal article from which the
# data were obtained.
#
data_2020532
loop_
_publ_author_name
'Karthikeyan, Ammasai'
'Thomas Muthiah, Packianathan'
'Perdih, Franc'
_publ_section_title
;
 Supramolecular architectures in Co^II^ and Cu^II^ complexes with
 thiophene-2-carboxylate and 2-amino-4,6-dimethoxypyrimidine ligands
;
_journal_coeditor_code           KU3177
_journal_issue                   5
_journal_name_full               'Acta Crystallographica Section C'
_journal_page_first              442
_journal_page_last               450
_journal_paper_doi               10.1107/S2053229616006148
_journal_volume                  72
_journal_year                    2016
_chemical_formula_iupac
'[Co (C5 H3 O2 S) Cl (C6 H9 N3 O2) (H2 O)], H2 O'
_chemical_formula_moiety         'C11 H14 Cl Co N3 O5 S, H2 O'
_chemical_formula_sum            'C11 H16 Cl Co N3 O6 S'
_chemical_formula_weight         412.71
_chemical_name_common
;
(2-amino-4,6-dimethoxypyrimidine-N)-aqua-chlorido
-(thiophene-2-carboxylato-O)cobalt(II) hidrate
;
_chemical_name_systematic
'(2-Amino-4,6-dimethoxypyrimidine-\k<i>N</i>)aquachlorido(thiophene-2-carboxylato-\k<i>O</i>)cobalt(II) monohydrate'
_space_group_crystal_system      triclinic
_space_group_IT_number           2
_space_group_name_Hall           '-P 1'
_space_group_name_H-M_alt        'P -1'
_symmetry_space_group_name_Hall  '-P 1'
_symmetry_space_group_name_H-M   'P -1'
_atom_sites_solution_hydrogens   geom
_audit_creation_method           SHELXL-2014/7
_cell_angle_alpha                92.932(2)
_cell_angle_beta                 102.406(2)
_cell_angle_gamma                102.727(2)
_cell_formula_units_Z            2
_cell_length_a                   7.2407(2)
_cell_length_b                   7.9326(2)
_cell_length_c                   15.0550(5)
_cell_measurement_reflns_used    3665
_cell_measurement_temperature    293(2)
_cell_measurement_theta_max      27.48
_cell_measurement_theta_min      1.00
_cell_volume                     819.37(4)
_computing_cell_refinement
;
DENZO-SMN (Otwinowski & Minor, 1997)
;
_computing_data_collection
;
COLLECT (Nonius, 1998)
;
_computing_data_reduction
;
DENZO-SMN (Otwinowski & Minor, 1997)
;
_computing_molecular_graphics
;
PLATON (Spek, 2009) and Mercury (Macrae <i>et al.</i>, 2008)
;
_computing_publication_material
;
PLATON (Spek, 2009)
;
_computing_structure_refinement
;
SHELXL2014 (Sheldrick, 2015)
;
_computing_structure_solution
;
SIR92 (Altomare <i>et al.</i>, 1999
;
_diffrn_ambient_temperature      293(2)
_diffrn_detector_area_resol_mean 0.055
_diffrn_measured_fraction_theta_full 0.994
_diffrn_measured_fraction_theta_max 0.995
_diffrn_measurement_device_type
;
Nonius KappaCCD area-detector
;
_diffrn_measurement_method       '\w scans'
_diffrn_radiation_monochromator  graphite
_diffrn_radiation_source         'fine-focus sealed tube'
_diffrn_radiation_type           MoK\a
_diffrn_radiation_wavelength     0.71073
_diffrn_reflns_av_R_equivalents  0.0187
_diffrn_reflns_limit_h_max       9
_diffrn_reflns_limit_h_min       -9
_diffrn_reflns_limit_k_max       10
_diffrn_reflns_limit_k_min       -10
_diffrn_reflns_limit_l_max       19
_diffrn_reflns_limit_l_min       -19
_diffrn_reflns_number            6722
_diffrn_reflns_theta_full        25.242
_diffrn_reflns_theta_max         27.440
_diffrn_reflns_theta_min         3.475
_exptl_absorpt_coefficient_mu    1.369
_exptl_absorpt_correction_T_max  0.9347
_exptl_absorpt_correction_T_min  0.7713
_exptl_absorpt_correction_type   multi-scan
_exptl_absorpt_process_details
;
(SCALEPACK; Otwinowski & Minor, 1997)
;
_exptl_crystal_colour            blue
_exptl_crystal_density_diffrn    1.673
_exptl_crystal_description       prism
_exptl_crystal_F_000             422
_exptl_crystal_size_max          0.200
_exptl_crystal_size_mid          0.120
_exptl_crystal_size_min          0.050
_refine_diff_density_max         0.270
_refine_diff_density_min         -0.451
_refine_ls_extinction_method     none
_refine_ls_goodness_of_fit_ref   1.038
_refine_ls_hydrogen_treatment    mixed
_refine_ls_matrix_type           full
_refine_ls_number_parameters     241
_refine_ls_number_reflns         3734
_refine_ls_number_restraints     4
_refine_ls_restrained_S_all      1.038
_refine_ls_R_factor_all          0.0382
_refine_ls_R_factor_gt           0.0297
_refine_ls_shift/su_max          0.001
_refine_ls_shift/su_mean         0.000
_refine_ls_structure_factor_coef Fsqd
_refine_ls_weighting_details
'w=1/[\s^2^(Fo^2^)+(0.0392P)^2^+0.1770P] where P=(Fo^2^+2Fc^2^)/3'
_refine_ls_weighting_scheme      calc
_refine_ls_wR_factor_gt          0.0740
_refine_ls_wR_factor_ref         0.0785
_reflns_number_gt                3189
_reflns_number_total             3734
_reflns_threshold_expression     'I > 2\s(I)'
_cod_data_source_file            ku3177sup1.cif
_cod_data_source_block           I
_cod_database_code               2020532
_shelx_space_group_comment
;
The symmetry employed for this shelxl refinement is uniquely defined
by the following loop, which should always be used as a source of
symmetry information in preference to the above space-group names.
They are only intended as comments.
;
_shelx_estimated_absorpt_t_min   0.771
_shelx_estimated_absorpt_t_max   0.935
_shelx_hkl_file
;
   0   0   2   -0.20    0.30   1
   0   0  -3  444.40   16.80   1
   0   0   4 1507.50   35.70   1
   0   0  -4 1529.90   51.80   1
   0   0   5 2072.10   48.50   1
   0   0  -5 2152.90   70.80   1
   0   0   6   66.10    2.40   1
   0   0  -6   71.50    3.50   1
   0   0   7  287.70    7.80   1
   0   0  -7  278.80    7.90   1
   0   0   8  160.20    5.10   1
   0   0  -8  150.70    5.10   1
   0   0   9  724.00   18.70   1
   0   0  -9  728.10   18.90   1
   0   0  10   10.00    1.10   1
   0   0 -10   10.20    1.90   1
   0   0  11   91.80    3.40   1
   0   0 -11   92.20    3.70   1
   0   0  12  124.20    4.20   1
   0   0 -12  110.30    4.40   1
   0   0  13   18.80    1.40   1
   0   0 -13   17.50    2.00   1
   0   0  14   24.40    1.90   1
   0   0 -14   23.60    2.60   1
   0   0  15    3.70    1.20   1
   0   0 -15    1.30    1.90   1
   0   0  16    5.60    1.30   1
   0   0 -16    6.50    2.00   1
   0   0  17    0.90    1.10   1
   0   0 -17   -1.50    1.80   1
   0   0  18    0.80    1.10   1
   0   0 -18    5.60    3.50   1
   0   1 -19    9.30    5.50   1
   0   1 -18   16.90    4.00   1
   0  -1  18   21.10    4.00   1
   0   1 -17   28.00    3.20   1
   0  -1  17   25.20    2.00   1
   0   1 -16   66.00    4.10   1
   0  -1  16   69.30    3.00   1
   0   1 -15   78.50    4.30   1
   0  -1  15   89.80    3.70   1
   0   1 -14   37.30    3.00   1
   0  -1  14   37.90    2.00   1
   0   1 -13  160.40    6.30   1
   0  -1  13  179.00    6.20   1
   0   1 -12  199.10   10.10   1
   0  -1  12  199.40    6.30   1
   0   1 -11   99.40    5.80   1
   0  -1  11  101.30    3.70   1
   0   1 -10  438.40   17.00   1
   0  -1  10  418.30   11.10   1
   0   1  -9  535.70   24.50   1
   0  -1   9  530.70   14.10   1
   0   1  -8   22.60    2.20   1
   0  -1   8   21.10    1.10   1
   0   1  -7  908.40   31.70   1
   0  -1   7  903.00   22.40   1
   0   1  -6  203.40    6.00   1
   0  -1   6  204.50    5.70   1
   0   1  -5  585.00   15.10   1
   0  -1   5  589.30   14.60   1
   0   1  -4  926.60   22.30   1
   0  -1   4  916.80   31.40   1
   0   1  -2 1320.90   31.10   1
   0   1  -1   -0.10    0.50   1
   0  -1   1   -0.10    0.30   1
   0  -1   0    0.20    0.20   1
   0   1   1   75.70    4.00   1
   0   1   3   22.80    2.20   1
   0  -1  -3   18.40    1.90   1
   0   1   4  678.30   17.70   1
   0  -1  -4  675.50   17.50   1
   0   1   5 1307.00   33.10   1
   0  -1  -5 1307.80   32.40   1
   0   1   6  354.10   14.10   1
   0  -1  -6  328.30    9.00   1
   0   1   7 1356.80   47.60   1
   0  -1  -7 1296.90   32.10   1
   0   1   8  548.20   15.00   1
   0  -1  -8  563.90   14.70   1
   0   1   9    3.50    1.30   1
   0  -1  -9    2.80    1.40   1
   0   1  10  265.50    7.90   1
   0  -1 -10  268.40    8.30   1
   0   1  11  280.20    9.10   1
   0  -1 -11  279.70    8.80   1
   0   1  12   36.70    2.30   1
   0  -1 -12   41.40    2.70   1
   0   1  13  137.10    5.00   1
   0  -1 -13  122.40    5.60   1
   0   1  14    2.40    1.10   1
   0  -1 -14    2.30    1.80   1
   0   1  15   38.90    2.70   1
   0  -1 -15   33.40    3.10   1
   0   1  16   14.90    1.80   1
   0  -1 -16   10.90    2.30   1
   0   1  17   58.50    4.10   1
   0  -1 -17   53.50    4.40   1
   0   1  18   31.60    3.20   1
   0  -1 -18   26.50    5.20   1
   0   2 -18    1.20    1.90   1
   0  -2  18    3.70    3.90   1
   0   2 -17    3.00    1.90   1
   0  -2  17    2.20    2.40   1
   0   2 -16    3.40    1.80   1
   0  -2  16    6.30    3.50   1
   0   2 -15    0.00    2.30   1
   0  -2  15    4.10    2.00   1
   0   2 -14   54.80    4.50   1
   0  -2  14   67.70    5.20   1
   0   2 -13   16.00    3.50   1
   0  -2  13   14.40    2.00   1
   0   2 -12   72.80    4.90   1
   0  -2  12   76.50    4.60   1
   0   2 -11   47.10    3.70   1
   0  -2  11   58.40    3.80   1
   0   2 -10  705.20   25.40   1
   0  -2  10  696.50   27.80   1
   0   2  -9    0.20    2.30   1
   0  -2   9    0.20    1.40   1
   0   2  -8   69.70    2.30   1
   0  -2   8   64.80    3.60   1
   0   2  -7   86.90    2.80   1
   0  -2   7   85.90    3.90   1
   0   2  -6  263.90    5.90   1
   0  -2   6  258.50    9.70   1
   0   2  -5 1756.50   34.20   1
   0  -2   5 1746.00   57.20   1
   0   2  -4   10.10    1.10   1
   0  -2   4   13.30    1.40   1
   0   2  -3 1762.30   41.50   1
   0  -2   3 1790.30   41.40   1
   0   2  -2  657.00   16.50   1
   0  -2   2  650.40   23.40   1
   0   2  -1   20.00    1.40   1
   0  -2   1   13.80    1.60   1
   0   2   0 1231.50   41.40   1
   0  -2   0 1203.60   40.40   1
   0   2   1 1553.00   36.70   1
   0  -2  -1 1530.90   36.30   1
   0   2   2  165.70    4.30   1
   0  -2  -2  163.20    4.70   1
   0   2   3   24.60    1.50   1
   0  -2  -3   22.30    1.20   1
   0   2   4  147.60    4.80   1
   0  -2  -4  146.20    3.60   1
   0   2   5   52.00    2.70   1
   0  -2  -5   53.80    1.90   1
   0   2   6  635.80   17.90   1
   0  -2  -6  632.90   17.00   1
   0   2   7  752.70   19.20   1
   0  -2  -7  758.50   19.60   1
   0   2   8  140.90    4.70   1
   0  -2  -8  124.10    4.60   1
   0   2   9  950.80   37.40   1
   0  -2  -9  935.40   34.80   1
   0   2  10  901.10   24.30   1
   0  -2 -10  906.00   26.00   1
   0   2  11   17.80    1.70   1
   0  -2 -11   17.60    2.30   1
   0   2  12  424.70   14.60   1
   0  -2 -12  437.20   13.50   1
   0   2  13  158.60    6.20   1
   0  -2 -13  143.70    6.50   1
   0   2  14    2.10    1.20   1
   0  -2 -14   -1.10    1.80   1
   0   2  15  134.10    6.80   1
   0  -2 -15  121.80    7.00   1
   0   2  16    7.20    2.10   1
   0  -2 -16    8.40    2.90   1
   0   2  17    7.80    2.50   1
   0  -2 -17    4.90    2.30   1
   0   2  18    1.10    2.50   1
   0   3 -18   10.70    2.70   1
   0  -3  18   23.60    4.50   1
   0   3 -17  107.80    7.20   1
   0  -3  17  105.60    9.60   1
   0   3 -16    5.30    1.90   1
   0  -3  16    4.80    2.30   1
   0   3 -15   -0.10    1.70   1
   0  -3  15    4.20    2.80   1
   0   3 -14   55.50    3.40   1
   0  -3  14   51.80    4.30   1
   0   3 -13   -1.60    1.40   1
   0  -3  13   -0.30    1.40   1
   0   3 -12   43.00    2.70   1
   0  -3  12   41.80    3.20   1
   0   3 -11  431.10   13.00   1
   0  -3  11  416.10   16.60   1
   0   3 -10  108.40    2.80   1
   0  -3  10  109.70    5.50   1
   0   3  -9   16.20    0.80   1
   0  -3   9   16.00    1.80   1
   0   3  -8  116.20    3.00   1
   0  -3   8  115.40    5.40   1
   0   3  -7  273.10    6.20   1
   0  -3   7  263.10   10.30   1
   0   3  -6   99.30    3.60   1
   0  -3   6  101.50    4.30   1
   0   3  -5  557.30   14.80   1
   0  -3   5  544.80   18.50   1
   0   3  -4 1317.30   32.00   1
   0  -3   4 1333.50   45.90   1
   0   3  -3 3425.80   78.60   1
   0  -3   3 3462.90  111.90   1
   0   3  -2   68.60    2.50   1
   0  -3   2   69.60    3.40   1
   0   3  -1 1296.40   32.30   1
   0  -3   1 1305.00   31.40   1
   0   3   0 1004.50   25.80   1
   0  -3   0  969.80   23.90   1
   0   3   1  352.60    8.00   1
   0  -3  -1  360.40    9.60   1
   0   3   2  107.40    3.00   1
   0  -3  -2  107.40    3.40   1
   0   3   3 3361.60   64.90   1
   0  -3  -3 3363.40   77.20   1
   0   3   4   10.30    1.20   1
   0  -3  -4    8.60    1.20   1
   0   3   5 1628.80   40.70   1
   0  -3  -5 1696.40   38.90   1
   0   3   6 1075.10   28.20   1
   0  -3  -6 1059.10   25.20   1
   0   3   7    9.10    1.50   1
   0  -3  -7    7.50    1.10   1
   0   3   8  521.20   14.90   1
   0  -3  -8  530.80   11.90   1
   0   3   9    1.90    1.60   1
   0  -3  -9   -1.00    1.20   1
   0   3  10   -0.50    1.60   1
   0  -3 -10    0.20    1.30   1
   0   3  11   14.90    1.80   1
   0  -3 -11   16.40    1.60   1
   0   3  12   98.90    4.70   1
   0  -3 -12   99.50    4.00   1
   0   3  13    7.60    1.60   1
   0  -3 -13    5.50    1.40   1
   0   3  14   25.80    2.60   1
   0  -3 -14   23.40    2.50   1
   0   3  15   12.70    2.00   1
   0  -3 -15   10.00    1.90   1
   0   3  16    2.60    1.70   1
   0  -3 -16    0.30    2.20   1
   0   3  17  145.80   10.60   1
   0  -3 -17  129.80   10.10   1
   0   4 -18    3.30    2.00   1
   0  -4  18    7.90    2.80   1
   0   4 -17    4.20    2.20   1
   0  -4  17    2.40    3.10   1
   0   4 -16    3.90    1.90   1
   0  -4  16    9.40    3.00   1
   0   4 -15   96.90    5.30   1
   0  -4  15   82.20    6.40   1
   0   4 -14  108.20    5.40   1
   0  -4  14   95.20    7.30   1
   0   4 -13   76.00    3.80   1
   0  -4  13   79.70    6.00   1
   0   4 -12  348.10   11.70   1
   0  -4  12  388.50   15.40   1
   0   4 -11   23.10    1.10   1
   0  -4  11   23.50    2.30   1
   0   4 -10  403.80    9.40   1
   0  -4  10  408.10   16.50   1
   0   4  -9  235.70    5.80   1
   0  -4   9  209.10    9.30   1
   0   4  -8   33.40    1.30   1
   0  -4   8   28.30    2.20   1
   0   4  -7   57.30    2.50   1
   0   4  -6  212.70    6.20   1
   0   4  -5   97.60    3.30   1
   0  -4   5   96.10    5.10   1
   0   4  -4  105.10    2.80   1
   0  -4   4  103.40    5.70   1
   0   4  -3   18.00    0.90   1
   0  -4   3   18.40    2.40   1
   0   4  -2   13.10    1.50   1
   0  -4   2   14.70    1.60   1
   0   4  -1   76.50    2.80   1
   0  -4   1   76.20    2.70   1
   0   4   0  403.20   10.90   1
   0  -4   0  406.80   10.90   1
   0   4   1 1599.40   31.60   1
   0  -4  -1 1637.00   40.40   1
   0   4   2    4.80    0.90   1
   0  -4  -2    5.30    1.00   1
   0   4   3   18.00    1.20   1
   0  -4  -3   16.00    1.40   1
   0   4   4   33.00    1.60   1
   0  -4  -4   33.90    1.60   1
   0   4   5 1306.20   33.00   1
   0  -4  -5 1218.40   27.70   1
   0   4   6  642.90   17.50   1
   0  -4  -6  638.10   16.10   1
   0   4   7  237.60    8.20   1
   0  -4  -7  248.70    7.20   1
   0   4   8  416.80   14.00   1
   0  -4  -8  416.70   11.90   1
   0   4   9   12.10    2.00   1
   0  -4  -9    6.90    2.00   1
   0   4  10  935.70   28.50   1
   0  -4 -10  971.50   27.50   1
   0   4  11    0.80    1.50   1
   0  -4 -11    0.20    1.40   1
   0   4  12    3.80    1.30   1
   0  -4 -12    3.30    1.50   1
   0   4  13   45.60    3.60   1
   0  -4 -13   44.90    3.50   1
   0   4  14   74.30    4.90   1
   0  -4 -14   69.80    4.40   1
   0   4  15   34.50    3.50   1
   0  -4 -15   37.50    3.50   1
   0   4  16    5.10    2.40   1
   0  -4 -16    5.50    2.80   1
   0   5 -17    7.00    2.70   1
   0  -5  17    4.30    2.20   1
   0   5 -16   43.30    3.70   1
   0  -5  16   42.50    4.40   1
   0   5 -15   30.30    2.80   1
   0  -5  15   35.10    3.90   1
   0   5 -14   -2.00    1.90   1
   0  -5  14    0.80    1.50   1
   0   5 -13  120.90    6.30   1
   0  -5  13  131.90    7.30   1
   0   5 -12   43.90    1.70   1
   0  -5  12   47.60    3.10   1
   0   5 -11   13.90    0.90   1
   0   5 -10    3.60    0.90   1
   0   5  -9    7.30    0.80   1
   0   5  -8   23.10    1.70   1
   0   5  -7   82.80    3.40   1
   0   5  -6   58.10    1.90   1
   0   5  -5  213.90    5.40   1
   0  -5   5  212.60    9.60   1
   0   5  -4   42.90    1.70   1
   0  -5   4   44.50    3.80   1
   0   5  -3   33.80    2.20   1
   0  -5   3   29.90    2.60   1
   0   5  -2  262.60   11.70   1
   0  -5   2  248.10   10.50   1
   0   5  -1   -2.90    1.30   1
   0  -5   1    1.00    1.10   1
   0   5   0  246.70    6.00   1
   0  -5   0  236.60    6.50   1
   0   5   1    2.30    0.90   1
   0  -5  -1    5.00    1.30   1
   0   5   2   31.30    1.60   1
   0  -5  -2   29.90    1.80   1
   0   5   3  463.30   10.70   1
   0  -5  -3  470.00   13.50   1
   0   5   4   23.20    1.50   1
   0  -5  -4   21.30    1.90   1
   0   5   5   68.40    2.60   1
   0  -5  -5   70.60    3.00   1
   0   5   6  156.40    5.90   1
   0  -5  -6  158.40    5.60   1
   0   5   7  616.40   18.30   1
   0  -5  -7  649.50   18.80   1
   0   5   8    2.60    1.90   1
   0  -5  -8    2.80    1.50   1
   0   5   9  113.10    5.00   1
   0  -5  -9  114.80    4.80   1
   0   5  10  135.00    6.30   1
   0  -5 -10  131.70    5.70   1
   0   5  11   -0.60    1.50   1
   0  -5 -11   -1.10    1.70   1
   0   5  12  317.90   13.60   1
   0  -5 -12  323.30   13.90   1
   0   5  13   39.70    2.90   1
   0  -5 -13   36.10    3.60   1
   0   5  14   29.90    3.20   1
   0  -5 -14   21.10    2.60   1
   0   5  15   94.60    8.40   1
   0  -5 -15   94.40    8.20   1
   0   6 -16   -0.20    2.10   1
   0   6 -15    2.50    1.60   1
   0   6 -14   36.70    3.20   1
   0   6 -13   30.80    1.50   1
   0   6 -12    7.70    0.90   1
   0   6 -11   25.10    1.40   1
   0   6 -10    1.80    0.80   1
   0   6  -9   35.30    1.60   1
   0   6  -8   10.80    1.10   1
   0   6  -7   36.80    1.70   1
   0   6  -6    9.90    1.10   1
   0   6  -5   50.80    1.90   1
   0  -6   5   52.30    4.50   1
   0   6  -4   73.20    2.60   1
   0  -6   4   71.90    4.60   1
   0   6  -3  245.60    8.40   1
   0  -6   3  238.60   12.40   1
   0   6  -2  388.50   12.80   1
   0  -6   2  386.70   15.10   1
   0   6  -1   92.80    3.20   1
   0  -6   1   97.80    5.80   1
   0   6   0  845.90   18.80   1
   0  -6   0  849.70   22.00   1
   0   6   1    9.30    1.30   1
   0  -6  -1    8.50    1.50   1
   0   6   2  674.90   15.20   1
   0  -6  -2  664.90   17.80   1
   0   6   3  148.10    4.70   1
   0  -6  -3  148.10    5.00   1
   0   6   4   16.30    1.50   1
   0  -6  -4   18.10    2.10   1
   0   6   5  165.20    5.30   1
   0  -6  -5  158.80    5.90   1
   0   6   6    5.20    1.50   1
   0  -6  -6    5.00    1.40   1
   0   6   7    4.70    1.60   1
   0  -6  -7    6.60    1.60   1
   0   6   8    0.80    1.50   1
   0  -6  -8    4.90    1.50   1
   0   6   9   81.80    4.30   1
   0  -6  -9   85.60    4.80   1
   0   6  10   12.20    2.10   1
   0  -6 -10   11.60    2.00   1
   0   6  11   75.40    4.90   1
   0  -6 -11   72.10    4.70   1
   0   6  12   -1.40    1.80   1
   0  -6 -12   -1.30    2.10   1
   0   6  13   12.10    2.60   1
   0  -6 -13    7.20    2.80   1
   0   6  14   25.40    3.00   1
   0  -6 -14   24.80    4.50   1
   0   7 -14   15.20    2.30   1
   0   7 -13    7.00    0.90   1
   0   7 -12  130.10    4.90   1
   0   7 -11    8.60    1.00   1
   0   7 -10    2.60    0.90   1
   0   7  -9  176.20    6.20   1
   0   7  -8    5.40    1.10   1
   0   7  -7  161.90    5.20   1
   0   7  -6    9.10    1.10   1
   0  -7   6   12.50    2.70   1
   0   7  -5   33.70    1.70   1
   0  -7   5   34.40    3.60   1
   0   7  -4  210.90    5.80   1
   0  -7   4  206.70   10.80   1
   0   7  -3    5.50    1.60   1
   0  -7   3    9.70    2.00   1
   0   7  -2    8.50    1.30   1
   0  -7   2    3.40    1.80   1
   0   7  -1  215.20    6.20   1
   0  -7   1  201.90   10.30   1
   0   7   0    6.10    1.00   1
   0  -7   0   10.70    1.60   1
   0   7   1    6.00    1.20   1
   0  -7  -1    6.90    1.50   1
   0   7   2   12.40    1.30   1
   0  -7  -2   11.90    1.60   1
   0   7   3    2.80    1.30   1
   0  -7  -3    3.50    2.00   1
   0   7   4  105.20    4.00   1
   0  -7  -4  103.50    5.00   1
   0   7   5  188.30    6.50   1
   0  -7  -5  184.40    7.40   1
   0   7   6   32.70    3.00   1
   0  -7  -6   37.90    2.90   1
   0   7   7  169.90    8.00   1
   0  -7  -7  173.00    8.30   1
   0   7   8   33.80    3.10   1
   0  -7  -8   37.60    3.10   1
   0   7   9   21.50    2.80   1
   0  -7  -9   30.80    3.00   1
   0   7  10   24.20    2.80   1
   0  -7 -10   23.70    2.70   1
   0   7  11   -0.40    2.00   1
   0  -7 -11   -5.20    2.60   1
   0   7  12   16.50    3.60   1
   0  -7 -12   13.60    4.30   1
   0   8 -13   36.80    4.30   1
   0   8 -12   24.00    3.00   1
   0   8 -11    5.90    1.30   1
   0   8 -10  111.30    4.30   1
   0   8  -9    7.90    1.20   1
   0   8  -8   87.60    3.80   1
   0   8  -7   40.50    2.20   1
   0   8  -6    4.80    1.00   1
   0   8  -5   20.80    1.50   1
   0  -8   5   17.60    3.40   1
   0   8  -4    7.20    0.90   1
   0  -8   4    6.60    2.30   1
   0   8  -3   12.30    0.90   1
   0  -8   3   13.30    3.70   1
   0   8  -2   13.60    1.40   1
   0  -8   2   15.20    2.70   1
   0   8  -1    1.00    1.20   1
   0  -8   1    5.30    2.30   1
   0   8   0    2.50    1.20   1
   0  -8   0    2.80    2.70   1
   0   8   1    5.70    1.20   1
   0  -8  -1    5.80    1.70   1
   0   8   2    7.10    1.40   1
   0  -8  -2    9.40    2.20   1
   0   8   3    7.80    1.60   1
   0  -8  -3    8.20    1.90   1
   0   8   4   11.10    1.50   1
   0  -8  -4   11.80    2.30   1
   0   8   5   15.40    1.80   1
   0  -8  -5   15.60    2.30   1
   0   8   6   54.50    4.20   1
   0  -8  -6   57.80    4.10   1
   0   8   7    4.40    1.80   1
   0  -8  -7    1.80    2.10   1
   0   8   8    5.30    2.30   1
   0  -8  -8    3.40    3.50   1
   0   8   9   36.30    3.30   1
   0  -8  -9   36.80    5.70   1
   0   9 -10    0.60    1.30   1
   0   9  -9    1.50    2.10   1
   0   9  -8   36.40    3.70   1
   0   9  -7    9.20    0.90   1
   0   9  -6   50.90    2.20   1
   0   9  -5   55.40    2.50   1
   0  -9   5   60.80    6.90   1
   0   9  -4    1.50    0.70   1
   0  -9   4   -0.30    2.30   1
   0   9  -3   57.90    2.40   1
   0  -9   3   59.00    7.10   1
   0   9  -2   42.60    2.60   1
   0  -9   2   34.50    4.40   1
   0   9  -1    8.20    1.40   1
   0  -9   1    4.80    2.60   1
   0   9   0   29.80    2.20   1
   0  -9   0   22.70    3.90   1
   0   9   1    1.40    1.50   1
   0  -9  -1   -1.70    2.20   1
   0   9   2   24.60    2.20   1
   0  -9  -2   24.30    3.20   1
   0   9   3   92.40    4.90   1
   0  -9  -3   86.00    7.90   1
   0   9   4    1.40    1.40   1
   0  -9  -4   -3.00    2.30   1
   0   9   5   32.80    2.60   1
   0  -9  -5   31.70    4.20   1
   0   9   6    1.40    2.20   1
   0  -9  -6   10.60    4.10   1
   0  10  -3    8.20    2.30   1
   0  10  -2    3.10    2.00   1
   0  10  -1   17.10    2.70   1
   0 -10   1   23.70    4.30   1
   1 -10  -2    3.70    3.10   1
  -1  10   2    0.80    1.50   1
   1 -10  -1   22.50    3.70   1
  -1  10   1   29.90    2.50   1
   1 -10   0   23.80    4.30   1
  -1  10   0   25.10    2.40   1
   1 -10   1   11.20    3.50   1
  -1  10  -1   18.10    2.00   1
   1 -10   2   82.30    8.70   1
  -1  10  -2   67.70    3.00   1
  -1  10  -3   41.60    2.90   1
  -1  10  -4   26.50    3.00   1
  -1  10  -5   22.70    3.20   1
   1  -9  -7   14.70    2.70   1
  -1   9   7   20.50    3.40   1
   1  -9  -6    9.70    3.40   1
  -1   9   6    5.10    2.00   1
   1  -9  -5   43.00    5.30   1
  -1   9   5   34.90    2.50   1
   1  -9  -4   60.20    4.20   1
  -1   9   4   60.80    3.30   1
   1  -9  -3   24.80    2.80   1
  -1   9   3   21.00    2.00   1
   1  -9  -2  137.80    7.90   1
  -1   9   2  130.20    5.90   1
   1  -9  -1   83.30    7.00   1
  -1   9   1   77.80    3.90   1
   1  -9   0   11.70    3.30   1
  -1   9   0   10.20    1.70   1
   1  -9   1   81.00    7.10   1
  -1   9  -1   81.80    4.10   1
   1  -9   2   30.40    4.80   1
  -1   9  -2   31.80    2.10   1
   1  -9   3    3.80    2.50   1
  -1   9  -3    5.60    1.20   1
  -1   9  -4  117.00    5.20   1
  -1   9  -5   42.00    2.60   1
  -1   9  -6    1.80    1.20   1
  -1   9  -7   55.10    3.10   1
  -1   9  -8   18.70    1.90   1
  -1   9  -9    2.30    1.30   1
  -1   9 -10   40.90    3.80   1
   1  -8 -10   17.60    3.80   1
  -1   8  10   15.40    2.50   1
   1  -8  -9    6.90    3.30   1
  -1   8   9    7.10    2.20   1
   1  -8  -8   23.00    2.70   1
  -1   8   8   24.60    2.90   1
   1  -8  -7    4.20    1.70   1
  -1   8   7    2.10    1.90   1
   1  -8  -6   62.40    4.20   1
  -1   8   6   46.40    4.00   1
   1  -8  -5    5.30    1.70   1
  -1   8   5    7.40    1.40   1
   1  -8  -4   11.10    2.20   1
  -1   8   4    9.10    1.40   1
   1  -8  -3   36.00    2.80   1
  -1   8   3   33.10    2.20   1
   1  -8  -2   66.50    4.20   1
  -1   8   2   76.60    3.60   1
   1  -8  -1   44.10    3.10   1
  -1   8   1   39.00    2.30   1
   1  -8   0   16.10    2.80   1
  -1   8   0   19.20    1.60   1
   1  -8   1   25.30    3.30   1
  -1   8  -1   22.30    2.30   1
   1  -8   2    0.50    2.60   1
  -1   8  -2   -0.60    1.90   1
   1  -8   3  218.80   13.50   1
  -1   8  -3  235.10    7.60   1
  -1   8  -4    7.20    1.20   1
  -1   8  -5   43.90    2.30   1
  -1   8  -6  347.40   10.20   1
  -1   8  -7   21.10    1.60   1
  -1   8  -8  210.90    7.30   1
  -1   8  -9  153.60    5.90   1
  -1   8 -10   20.30    1.50   1
  -1   8 -11   12.70    1.00   1
  -1   8 -12   57.70    3.40   1
   1  -7 -12    6.60    2.40   1
  -1   7  12    4.90    2.30   1
   1  -7 -11   23.20    4.00   1
  -1   7  11   18.70    2.20   1
   1  -7 -10    1.70    1.60   1
  -1   7  10   -1.30    1.60   1
   1  -7  -9    5.60    1.60   1
  -1   7   9    8.00    1.80   1
   1  -7  -8   10.00    1.90   1
  -1   7   8    6.50    2.00   1
   1  -7  -7    5.30    1.50   1
  -1   7   7    1.20    2.20   1
   1  -7  -6   28.90    2.50   1
  -1   7   6   23.70    2.50   1
   1  -7  -5   -1.40    1.10   1
  -1   7   5    2.90    1.10   1
   1  -7  -4   40.20    2.70   1
  -1   7   4   41.10    2.20   1
   1  -7  -3    3.00    1.30   1
  -1   7   3   -0.40    0.90   1
   1  -7  -2   28.60    2.20   1
  -1   7   2   28.00    1.60   1
   1  -7  -1  179.30    7.00   1
  -1   7   1  176.40    6.80   1
   1  -7   0  213.70    7.70   1
  -1   7   0  213.50    7.80   1
   1  -7   1  119.00    6.60   1
  -1   7  -1  118.80    5.30   1
   1  -7   2   19.80    2.70   1
  -1   7  -2   13.20    1.90   1
   1  -7   3  152.40    8.00   1
  -1   7  -3  157.40    5.80   1
  -1   7  -4   51.80    2.20   1
  -1   7  -5  623.40   15.50   1
  -1   7  -6   29.90    1.70   1
  -1   7  -7   25.70    1.70   1
  -1   7  -8  318.50    9.60   1
  -1   7  -9    7.00    1.30   1
  -1   7 -10  153.40    4.00   1
  -1   7 -11  103.60    3.30   1
  -1   7 -12    4.00    1.50   1
  -1   7 -13   41.70    3.40   1
  -1   7 -14   87.50    5.80   1
   1  -6 -14   19.40    3.30   1
  -1   6  14   16.60    2.80   1
   1  -6 -13    9.10    2.40   1
  -1   6  13    8.90    1.80   1
   1  -6 -12   60.80    4.20   1
  -1   6  12   68.10    4.00   1
   1  -6 -11   -1.00    1.20   1
  -1   6  11   -2.20    1.20   1
   1  -6 -10    5.40    1.70   1
  -1   6  10    3.00    1.30   1
   1  -6  -9    2.70    1.60   1
  -1   6   9    3.60    1.80   1
   1  -6  -8    3.60    1.30   1
  -1   6   8    4.00    1.60   1
   1  -6  -7   79.30    4.00   1
  -1   6   7   76.20    4.00   1
   1  -6  -6    2.00    1.20   1
  -1   6   6    1.50    1.40   1
   1  -6  -5  196.70    7.10   1
  -1   6   5  209.70    5.80   1
   1  -6  -4   72.50    3.40   1
  -1   6   4   69.10    2.60   1
   1  -6  -3   75.10    3.30   1
  -1   6   3   71.70    2.70   1
   1  -6  -2  271.70    8.20   1
  -1   6   2  276.10    9.20   1
   1  -6  -1  233.10    6.90   1
  -1   6   1  230.00    7.50   1
   1  -6   0  101.20    3.80   1
  -1   6   0  103.90    4.00   1
   1  -6   1   99.40    5.60   1
  -1   6  -1   88.30    3.40   1
   1  -6   2   78.10    4.60   1
  -1   6  -2   77.70    3.50   1
   1  -6   3  460.80   19.10   1
  -1   6  -3  464.70   13.50   1
  -1   6  -4  259.20    6.50   1
  -1   6  -5    0.60    0.90   1
  -1   6  -6    5.10    1.20   1
  -1   6  -7  230.50    6.40   1
  -1   6  -8   32.20    1.80   1
  -1   6  -9   44.10    2.60   1
  -1   6 -10   88.00    2.50   1
  -1   6 -11   69.50    3.90   1
  -1   6 -12   52.40    3.70   1
  -1   6 -13   68.10    4.10   1
  -1   6 -14   22.80    2.60   1
  -1   6 -15   26.40    2.90   1
  -1   6 -16   74.10    5.10   1
   1  -5 -16   52.60    5.20   1
  -1   5  16   57.30    6.70   1
   1  -5 -15    2.10    2.20   1
  -1   5  15    1.70    2.50   1
   1  -5 -14   44.50    3.80   1
  -1   5  14   52.20    4.50   1
   1  -5 -13   20.20    2.20   1
  -1   5  13   20.60    2.20   1
   1  -5 -12   22.80    2.40   1
  -1   5  12   25.90    2.20   1
   1  -5 -11  234.20    9.50   1
  -1   5  11  238.70    8.40   1
   1  -5 -10   76.80    3.90   1
  -1   5  10   69.00    3.20   1
   1  -5  -9   28.60    2.40   1
  -1   5   9   25.70    2.60   1
   1  -5  -8   -0.10    1.30   1
  -1   5   8    6.00    2.20   1
   1  -5  -7  134.00    5.00   1
  -1   5   7  138.20    5.60   1
   1  -5  -6    7.70    1.50   1
  -1   5   6   10.70    1.60   1
   1  -5  -5  154.50    5.50   1
  -1   5   5  167.40    4.80   1
   1  -5  -4  232.20    6.80   1
  -1   5   4  238.10    6.00   1
   1  -5  -3   91.20    3.20   1
  -1   5   3   89.40    3.30   1
   1  -5  -2    0.00    0.80   1
  -1   5   2    1.40    1.10   1
   1  -5  -1    8.50    1.30   1
  -1   5   1    9.20    1.10   1
   1  -5   0  213.40    6.50   1
  -1   5   0  217.30    6.50   1
   1  -5   1   16.00    1.50   1
  -1   5  -1   16.60    1.60   1
   1  -5   2  486.00   19.70   1
  -1   5  -2  476.80   13.20   1
   1  -5   3   49.40    3.30   1
  -1   5  -3   43.40    2.40   1
  -1   5  -4    0.80    0.70   1
  -1   5  -5  339.10    8.00   1
  -1   5  -6  258.00    6.40   1
  -1   5  -7   -0.40    1.00   1
  -1   5  -8   33.30    2.30   1
  -1   5  -9  365.70    7.20   1
  -1   5 -10   13.20    1.70   1
  -1   5 -11  425.60   14.10   1
   1  -5  12  302.50   16.20   1
  -1   5 -12  305.90   11.60   1
   1  -5  13    0.80    1.50   1
  -1   5 -13   -0.30    1.50   1
   1  -5  14  159.20   10.30   1
  -1   5 -14  158.80    7.40   1
   1  -5  15  178.30   13.10   1
  -1   5 -15  176.60    9.50   1
   1  -5  16   -1.70    2.00   1
  -1   5 -16    1.00    2.20   1
   1  -5  17   29.70    3.90   1
  -1   5 -17   32.50    3.40   1
   1  -4 -17   61.80    5.20   1
  -1   4  17   65.00    5.60   1
   1  -4 -16   -0.90    2.10   1
  -1   4  16    0.60    2.00   1
   1  -4 -15   20.60    2.30   1
  -1   4  15   22.00    2.80   1
   1  -4 -14   70.20    4.40   1
  -1   4  14   70.50    4.60   1
   1  -4 -13   32.80    2.70   1
  -1   4  13   30.10    2.80   1
   1  -4 -12    3.30    1.30   1
  -1   4  12    1.40    1.10   1
   1  -4 -11   26.40    2.20   1
  -1   4  11   27.60    1.90   1
   1  -4 -10   97.40    4.50   1
  -1   4  10  101.50    3.60   1
   1  -4  -9  129.40    4.80   1
  -1   4   9  123.30    4.40   1
   1  -4  -8   22.80    1.80   1
  -1   4   8   23.20    2.40   1
   1  -4  -7   43.20    2.30   1
  -1   4   7   38.20    2.50   1
   1  -4  -6  191.00    5.10   1
  -1   4   6  186.50    6.30   1
   1  -4  -5  108.20    3.50   1
  -1   4   5  112.10    4.00   1
   1  -4  -4  167.80    4.60   1
  -1   4   4  173.20    4.50   1
   1  -4  -3   96.40    3.20   1
  -1   4   3   87.40    3.20   1
   1  -4  -2   22.70    1.30   1
  -1   4   2   23.20    1.50   1
   1  -4  -1   59.30    2.40   1
  -1   4   1   59.70    2.40   1
   1  -4   0    2.50    0.90   1
  -1   4   0    1.50    0.80   1
   1  -4   1  150.90    4.60   1
  -1   4  -1  149.20    4.50   1
   1  -4   2  160.30    6.70   1
  -1   4  -2  165.20    5.10   1
  -1   4  -3  274.30    6.40   1
  -1   4  -4  548.90   11.90   1
  -1   4  -5  191.70    6.00   1
  -1   4  -6  518.00   14.60   1
  -1   4  -7  265.80    7.80   1
   1  -4   8  376.60   14.30   1
  -1   4  -8  361.80    6.50   1
   1  -4   9   99.60    5.00   1
  -1   4  -9  111.20    4.30   1
   1  -4  10   71.60    4.60   1
  -1   4 -10   68.30    3.20   1
   1  -4  11  546.30   22.90   1
  -1   4 -11  555.60   16.70   1
   1  -4  12    1.00    1.60   1
  -1   4 -12    1.20    1.60   1
   1  -4  13  279.60   14.80   1
  -1   4 -13  288.10    9.10   1
   1  -4  14   13.00    2.50   1
  -1   4 -14    6.40    2.00   1
   1  -4  15    5.70    2.40   1
  -1   4 -15    2.90    1.90   1
   1  -4  16   80.70    7.70   1
  -1   4 -16   97.10    6.20   1
   1  -4  17   57.80    5.70   1
  -1   4 -17   43.10    4.20   1
   1  -3 -18   29.40    4.30   1
  -1   3  18   28.90    3.60   1
   1  -3 -17    7.00    3.90   1
  -1   3  17    1.30    2.80   1
   1  -3 -16    2.30    1.60   1
  -1   3  16    2.40    1.80   1
   1  -3 -15  201.60    8.90   1
  -1   3  15  196.10    9.20   1
   1  -3 -14    1.20    1.50   1
  -1   3  14    2.30    1.40   1
   1  -3 -13   19.30    2.10   1
  -1   3  13   19.90    2.00   1
   1  -3 -12   38.10    2.60   1
  -1   3  12   37.00    2.60   1
   1  -3 -11   81.30    3.80   1
  -1   3  11   80.20    3.80   1
   1  -3 -10  455.80   13.30   1
  -1   3  10  464.60   12.50   1
   1  -3  -9  410.80   11.00   1
  -1   3   9  410.30   10.40   1
   1  -3  -8   20.60    1.50   1
  -1   3   8   19.20    1.90   1
   1  -3  -7  473.20   12.00   1
  -1   3   7  474.20   10.30   1
   1  -3  -6  328.70    8.40   1
  -1   3   6  319.00    9.80   1
   1  -3  -5  416.20   10.30   1
  -1   3   5  410.00   12.60   1
   1  -3  -4  374.20    9.30   1
  -1   3   4  378.90   10.90   1
   1  -3  -3    3.70    0.90   1
  -1   3   3    2.50    0.70   1
   1  -3  -2   16.90    1.10   1
  -1   3   2   15.30    1.20   1
   1  -3  -1    2.30    0.60   1
  -1   3   1    1.70    0.80   1
   1  -3   0  359.90    9.50   1
  -1   3   0  363.50   10.00   1
   1  -3   1  453.60   11.50   1
  -1   3  -1  444.90   11.60   1
  -1   3  -2  202.30    5.70   1
  -1   3  -3  411.30   11.20   1
  -1   3  -4  537.70   13.80   1
   1  -3   5  482.00   17.50   1
  -1   3  -5  485.40   13.10   1
   1  -3   6  183.10    7.60   1
  -1   3  -6  184.90    5.00   1
   1  -3   7    4.00    1.40   1
  -1   3  -7    3.70    2.10   1
   1  -3   8    8.00    2.00   1
  -1   3  -8    8.90    1.80   1
   1  -3   9  233.50    9.20   1
  -1   3  -9  234.00    9.80   1
   1  -3  10    2.20    2.30   1
  -1   3 -10    2.90    2.70   1
   1  -3  11  102.10    5.80   1
  -1   3 -11  103.70    5.80   1
   1  -3  12    5.00    1.90   1
  -1   3 -12    2.30    2.10   1
   1  -3  13  201.20   10.90   1
  -1   3 -13  203.40   11.50   1
   1  -3  14    9.00    2.90   1
  -1   3 -14   10.90    2.90   1
   1  -3  15  119.50    9.10   1
  -1   3 -15  125.60    7.70   1
   1  -3  16   70.60    6.50   1
  -1   3 -16   63.80    6.70   1
   1  -3  17   -1.20    2.20   1
  -1   3 -17    1.70    2.00   1
   1  -3  18  104.30    8.80   1
  -1   3 -18  116.30    6.80   1
  -1   2  18   -0.20    1.70   1
   1  -2 -17   40.60    6.40   1
  -1   2  17   38.70    3.50   1
   1  -2 -16  172.50   12.10   1
  -1   2  16  194.00    8.60   1
   1  -2 -15    0.40    2.40   1
  -1   2  15    2.00    1.70   1
   1  -2 -14  231.80   14.10   1
  -1   2  14  249.30    9.70   1
   1  -2 -13  322.40   16.50   1
  -1   2  13  320.60   11.60   1
   1  -2 -12    2.40    2.10   1
  -1   2  12   -2.20    1.50   1
   1  -2 -11  344.70   15.20   1
  -1   2  11  354.90   10.60   1
   1  -2 -10  152.40    7.50   1
  -1   2  10  136.40    4.90   1
   1  -2  -9   13.70    2.20   1
  -1   2   9   16.70    1.60   1
   1  -2  -8  661.80   25.50   1
  -1   2   8  663.50   14.50   1
   1  -2  -7  976.30   35.50   1
  -1   2   7  952.90   20.20   1
   1  -2  -6   15.80    2.40   1
  -1   2   6   17.40    1.10   1
   1  -2  -5  439.10   11.00   1
  -1   2   5  431.30    9.50   1
   1  -2  -4  738.80   18.00   1
  -1   2   4  738.60   15.60   1
   1  -2  -3 1068.00   25.10   1
  -1   2   3 1049.70   26.50   1
   1  -2  -2  127.10    3.70   1
  -1   2   2  133.70    3.90   1
   1  -2  -1   77.80    2.40   1
  -1   2   1   84.20    2.60   1
   1  -2   0    3.80    0.60   1
  -1   2   0    9.40    1.00   1
  -1   2  -1  128.00    3.70   1
  -1   2  -2  538.70   13.50   1
   1  -2   3  294.10   11.10   1
  -1   2  -3  287.20    7.70   1
   1  -2   4  165.30    6.60   1
  -1   2  -4  163.80    4.50   1
   1  -2   5  643.00   22.90   1
  -1   2  -5  641.30   23.90   1
   1  -2   6   42.10    2.70   1
  -1   2  -6   39.60    2.30   1
   1  -2   7  209.00    8.40   1
  -1   2  -7  212.70    8.60   1
   1  -2   8  829.70   30.60   1
  -1   2  -8  822.90   33.90   1
   1  -2   9  152.10    7.60   1
  -1   2  -9  162.50    7.00   1
   1  -2  10  119.40    5.90   1
  -1   2 -10  119.20    6.00   1
   1  -2  11  113.80    6.60   1
  -1   2 -11  120.30    6.40   1
   1  -2  12  443.00   19.60   1
  -1   2 -12  452.20   19.60   1
   1  -2  13   -1.00    1.80   1
  -1   2 -13   -1.80    2.10   1
   1  -2  14   97.60    7.60   1
  -1   2 -14   95.70    6.80   1
   1  -2  15   51.90    5.20   1
  -1   2 -15   52.60    3.60   1
   1  -2  16   -0.80    2.30   1
  -1   2 -16   -3.50    2.10   1
   1  -2  17  142.30   12.90   1
  -1   2 -17  130.70    7.50   1
  -1   2 -18   38.10    6.20   1
  -1   1  19   21.50    2.60   1
  -1   1  18   56.30    3.90   1
   1  -1 -17   31.90    4.50   1
  -1   1  17   23.60    2.30   1
   1  -1 -16   39.60    5.40   1
  -1   1  16   34.40    2.70   1
   1  -1 -15    6.10    2.00   1
  -1   1  15   10.10    1.50   1
   1  -1 -14  384.10   13.90   1
  -1   1  14  367.10   12.60   1
   1  -1 -13   11.10    1.90   1
  -1   1  13    8.50    1.70   1
   1  -1 -12   97.00    4.10   1
  -1   1  12   93.70    3.90   1
   1  -1 -11   69.40    3.10   1
  -1   1  11   68.60    3.20   1
   1  -1 -10  300.20    8.40   1
  -1   1  10  284.00    8.80   1
   1  -1  -9  554.70   14.30   1
  -1   1   9  538.70   14.80   1
   1  -1  -8   67.90    2.70   1
  -1   1   8   65.80    2.60   1
   1  -1  -7  364.00    9.30   1
  -1   1   7  357.60   10.30   1
   1  -1  -6  626.00   21.90   1
  -1   1   6  608.00   16.20   1
   1  -1  -5  423.20   15.80   1
  -1   1   5  426.00    9.40   1
   1  -1  -4   58.40    2.50   1
  -1   1   4   54.00    1.80   1
  -1   1   2 1416.30   34.30   1
  -1   1   1  905.60   22.10   1
  -1   1   0  829.20   20.20   1
  -1   1  -1   19.50    0.90   1
   1  -1   3 1228.80   42.10   1
  -1   1  -3 1273.10   42.80   1
   1  -1   4  123.70    5.60   1
  -1   1  -4  120.10    5.70   1
   1  -1   5    0.20    1.20   1
  -1   1  -5    1.20    1.90   1
   1  -1   6   55.50    1.80   1
  -1   1  -6   55.50    3.30   1
   1  -1   7   13.40    0.70   1
  -1   1  -7   17.70    2.00   1
   1  -1   8    2.60    0.40   1
  -1   1  -8    2.70    1.90   1
   1  -1   9   16.20    0.90   1
  -1   1  -9   18.10    2.40   1
   1  -1  10  406.90   11.20   1
  -1   1 -10  414.00   15.90   1
   1  -1  11  138.00    4.30   1
  -1   1 -11  138.10    5.00   1
   1  -1  12   60.90    2.60   1
  -1   1 -12   59.50    3.20   1
   1  -1  13   37.60    1.60   1
  -1   1 -13   28.30    2.40   1
   1  -1  14  117.80    3.90   1
  -1   1 -14  115.50    5.60   1
   1  -1  15   12.00    0.90   1
  -1   1 -15   12.60    2.20   1
   1  -1  16  121.50    8.90   1
  -1   1 -16  113.90    6.00   1
   1  -1  17    1.40    2.60   1
  -1   1 -17    2.90    2.10   1
  -1   1 -18   -3.90    3.30   1
  -1   0  19    9.70    1.90   1
  -1   0  18   74.60    4.90   1
   1   0 -17    5.40    2.50   1
  -1   0  17    8.80    1.30   1
   1   0 -16  174.80    7.90   1
  -1   0  16  179.20    7.00   1
   1   0 -15   45.40    3.10   1
  -1   0  15   51.70    3.10   1
   1   0 -14    0.50    1.80   1
  -1   0  14    1.30    1.00   1
   1   0 -13  173.20    6.50   1
  -1   0  13  177.30    6.70   1
   1   0 -12  583.50   16.40   1
  -1   0  12  555.90   15.10   1
   1   0 -11  130.30    4.60   1
  -1   0  11  131.70    4.80   1
   1   0 -10  515.10   13.60   1
  -1   0  10  523.40   14.90   1
   1   0  -9  298.20    8.40   1
  -1   0   9  302.00    9.30   1
   1   0  -8   44.50    2.10   1
  -1   0   8   46.80    2.20   1
   1   0  -7  991.90   24.50   1
  -1   0   7 1010.60   25.50   1
   1   0  -6  522.90   13.40   1
  -1   0   6  513.00   13.40   1
   1   0  -5  115.50    3.90   1
  -1   0   5  107.00    3.60   1
  -1   0   4 2576.50   59.90   1
   1   0  -2  404.80   15.00   1
  -1   0   2  427.20   15.40   1
  -1   0   1  305.00   14.90   1
   1   0   0   -0.30    0.30   1
  -1   0   0    1.90    0.80   1
  -1   0  -1 1162.80   39.40   1
  -1   0  -2  497.00   12.20   1
   1   0   3 1016.00   35.40   1
  -1   0  -3 1020.60   24.80   1
   1   0   4   10.70    1.40   1
  -1   0  -4    9.50    1.20   1
   1   0   5  194.50    8.80   1
  -1   0  -5  181.70    5.20   1
   1   0   6  111.20    5.90   1
  -1   0  -6  118.30    3.80   1
   1   0   7    1.50    1.50   1
  -1   0  -7    1.20    1.00   1
   1   0   8  529.70   21.00   1
  -1   0  -8  540.70   14.10   1
   1   0   9   21.30    1.30   1
  -1   0  -9   23.40    1.60   1
   1   0  10   16.10    1.20   1
  -1   0 -10   14.40    1.60   1
   1   0  11   35.50    1.90   1
  -1   0 -11   31.10    2.30   1
   1   0  12  194.00    6.70   1
  -1   0 -12  194.00    7.30   1
   1   0  13    9.20    1.20   1
  -1   0 -13    7.30    1.70   1
   1   0  14  118.90    4.90   1
  -1   0 -14  108.00    5.40   1
   1   0  15   -0.30    0.90   1
  -1   0 -15    1.60    1.70   1
   1   0  16    7.90    1.40   1
  -1   0 -16    8.60    2.30   1
   1   0  17   55.30    3.80   1
  -1   0 -17   53.30    4.70   1
  -1   0 -18   50.90    6.90   1
   1   1 -19   73.10    7.40   1
  -1  -1  19   75.90    8.00   1
   1   1 -18   -2.80    1.70   1
  -1  -1  18    3.00    1.20   1
   1   1 -17   58.60    3.50   1
  -1  -1  17   62.80    3.30   1
   1   1 -16   24.60    2.50   1
  -1  -1  16   24.80    2.00   1
   1   1 -15    6.30    1.70   1
  -1  -1  15    4.90    1.10   1
   1   1 -14  405.40   14.40   1
  -1  -1  14  420.80   12.70   1
   1   1 -13   54.40    4.60   1
  -1  -1  13   56.20    2.70   1
   1   1 -12   32.00    3.30   1
  -1  -1  12   30.40    1.80   1
   1   1 -11  423.80   17.00   1
  -1  -1  11  411.70   11.70   1
   1   1 -10 1222.60   29.80   1
  -1  -1  10 1240.40   32.00   1
   1   1  -9  527.20   13.40   1
  -1  -1   9  526.90   13.40   1
   1   1  -8 1634.60   31.80   1
  -1  -1   8 1694.80   40.90   1
   1   1  -7 1549.30   30.80   1
  -1  -1   7 1541.10   37.10   1
   1   1  -6  522.70   11.20   1
  -1  -1   6  538.70   13.50   1
   1   1  -5 1638.70   32.10   1
  -1  -1   5 1648.70   39.00   1
   1   1  -4    1.40    0.50   1
  -1  -1   4    0.00    0.50   1
   1   1  -3    6.70    0.90   1
  -1  -1   3    6.70    0.80   1
   1   1  -1  650.30   23.60   1
   1   1   1   31.90    1.90   1
   1   1   2  190.70    5.60   1
  -1  -1  -2  197.20    4.60   1
   1   1   3    0.40    0.90   1
  -1  -1  -3   -1.30    0.70   1
   1   1   4  548.70   14.50   1
  -1  -1  -4  558.80   14.50   1
   1   1   5    1.70    0.90   1
  -1  -1  -5    0.40    0.90   1
   1   1   6  157.50    4.90   1
  -1  -1  -6  166.10    5.40   1
   1   1   7   39.10    3.00   1
  -1  -1  -7   36.80    2.10   1
   1   1   8   27.30    2.70   1
  -1  -1  -8   21.60    1.90   1
   1   1   9  180.20    9.60   1
  -1  -1  -9  193.70    6.00   1
   1   1  10   43.30    3.80   1
  -1  -1 -10   37.80    2.80   1
   1   1  11  215.00    7.20   1
  -1  -1 -11  215.30    7.50   1
   1   1  12  177.70    6.70   1
  -1  -1 -12  175.70    6.70   1
   1   1  13   19.80    1.70   1
  -1  -1 -13   17.40    2.10   1
   1   1  14  112.50    5.30   1
  -1  -1 -14  120.50    6.40   1
   1   1  15   20.70    1.90   1
  -1  -1 -15   21.20    2.70   1
   1   1  16    0.20    1.30   1
  -1  -1 -16    1.90    2.70   1
   1   1  17   24.60    2.90   1
  -1  -1 -17   21.00    3.30   1
  -1  -1 -18   15.20    4.50   1
   1   2 -19    1.50    1.90   1
  -1  -2  19    0.30    2.40   1
   1   2 -18   55.60    4.20   1
  -1  -2  18   54.90    5.80   1
   1   2 -17   29.70    2.50   1
  -1  -2  17   34.40    4.60   1
   1   2 -16    2.00    1.70   1
  -1  -2  16    5.30    2.10   1
   1   2 -15  165.20    7.40   1
  -1  -2  15  159.90   10.20   1
   1   2 -14    3.00    1.30   1
  -1  -2  14   -0.20    2.40   1
   1   2 -13   14.00    1.70   1
  -1  -2  13   13.60    2.20   1
   1   2 -12   21.10    1.40   1
  -1  -2  12   21.30    2.80   1
   1   2 -11  293.80    7.30   1
  -1  -2  11  332.70   13.40   1
   1   2 -10  136.80    3.50   1
  -1  -2  10  136.10    7.00   1
   1   2  -9  269.80    6.20   1
  -1  -2   9  281.40   11.20   1
   1   2  -8  413.10    8.90   1
  -1  -2   8  421.10   15.90   1
   1   2  -7  268.80    6.20   1
  -1  -2   7  262.50   10.50   1
   1   2  -6 1545.00   30.90   1
  -1  -2   6 1561.30   51.20   1
   1   2  -5  289.70    6.60   1
  -1  -2   5  284.70    7.80   1
   1   2  -4  862.10   21.00   1
  -1  -2   4  885.60   21.60   1
   1   2  -3 1637.30   57.60   1
  -1  -2   3 1648.10   54.50   1
   1   2  -2 1002.00   25.00   1
  -1  -2   2 1003.30   35.30   1
   1   2  -1  698.20   14.10   1
  -1  -2   1  697.70   25.40   1
   1   2   0 1875.60   36.10   1
  -1  -2   0 1857.80   36.20   1
   1   2   1  919.90   18.70   1
  -1  -2  -1  908.20   17.90   1
   1   2   2  240.30    5.90   1
  -1  -2  -2  240.80    5.80   1
   1   2   3 2908.90   70.20   1
  -1  -2  -3 2864.90   54.30   1
   1   2   4   79.50    3.20   1
  -1  -2  -4   81.70    2.60   1
   1   2   5  363.80   11.20   1
  -1  -2  -5  366.80    7.80   1
   1   2   6   79.70    3.10   1
  -1  -2  -6   75.90    2.50   1
   1   2   7  123.50    4.50   1
  -1  -2  -7  119.80    3.30   1
   1   2   8  699.60   19.40   1
  -1  -2  -8  686.20   17.60   1
   1   2   9   -1.30    2.10   1
  -1  -2  -9    1.50    1.40   1
   1   2  10    0.10    2.80   1
  -1  -2 -10    0.50    1.60   1
   1   2  11    0.70    2.20   1
  -1  -2 -11    1.90    1.90   1
   1   2  12   52.40    4.50   1
  -1  -2 -12   47.50    3.10   1
   1   2  13   42.40    3.00   1
  -1  -2 -13   44.90    3.10   1
   1   2  14    1.90    1.20   1
  -1  -2 -14   -1.80    1.90   1
   1   2  15    5.40    1.80   1
  -1  -2 -15    4.30    1.90   1
   1   2  16    2.30    1.70   1
  -1  -2 -16    1.00    2.20   1
   1   2  17   23.00    3.40   1
  -1  -2 -17   11.80    4.30   1
   1   3 -18   30.30    3.40   1
  -1  -3  18   42.50    5.10   1
   1   3 -17    3.00    1.70   1
  -1  -3  17   -1.40    1.90   1
   1   3 -16   -0.30    1.40   1
  -1  -3  16    3.30    2.70   1
   1   3 -15   34.90    2.90   1
  -1  -3  15   44.90    3.90   1
   1   3 -14    6.70    1.40   1
  -1  -3  14    2.90    1.80   1
   1   3 -13  732.80   16.20   1
  -1  -3  13  711.70   29.80   1
   1   3 -12   19.00    1.40   1
  -1  -3  12   16.20    2.60   1
   1   3 -11   24.10    1.30   1
  -1  -3  11   31.00    2.50   1
   1   3 -10  437.70   10.40   1
  -1  -3  10  429.10   16.70   1
   1   3  -9  505.00   10.80   1
  -1  -3   9  510.70   19.30   1
   1   3  -8  974.30   19.70   1
  -1  -3   8  964.80   32.70   1
   1   3  -7  444.40    9.80   1
  -1  -3   7  443.50   16.70   1
   1   3  -6  298.90    6.50   1
  -1  -3   6  298.00    8.60   1
   1   3  -5  399.70   10.70   1
  -1  -3   5  391.00   16.80   1
   1   3  -4 1001.60   24.00   1
  -1  -3   4  983.40   34.30   1
   1   3  -3  391.10    6.90   1
  -1  -3   3  385.30   14.40   1
   1   3  -2  635.60   13.20   1
  -1  -3   2  614.80   21.90   1
   1   3  -1 1519.40   29.50   1
  -1  -3   1 1476.20   35.40   1
   1   3   0  252.20    5.80   1
  -1  -3   0  246.80    6.90   1
   1   3   1  287.50    6.70   1
  -1  -3  -1  290.80    8.00   1
   1   3   2 1765.10   35.50   1
  -1  -3  -2 1768.80   34.00   1
   1   3   3  112.70    3.10   1
  -1  -3  -3  115.90    3.10   1
   1   3   4  333.20   10.10   1
  -1  -3  -4  333.40    7.60   1
   1   3   5  288.60    8.80   1
  -1  -3  -5  291.60    6.30   1
   1   3   6   74.90    3.20   1
  -1  -3  -6   75.00    2.50   1
   1   3   7  372.30   11.00   1
  -1  -3  -7  365.60    8.90   1
   1   3   8    6.00    1.50   1
  -1  -3  -8    5.70    1.20   1
   1   3   9    2.70    1.60   1
  -1  -3  -9    1.10    1.10   1
   1   3  10    5.00    1.50   1
  -1  -3 -10    1.10    1.60   1
   1   3  11   18.30    2.90   1
  -1  -3 -11   19.20    1.80   1
   1   3  12    6.00    2.50   1
  -1  -3 -12    6.70    1.50   1
   1   3  13    3.20    3.50   1
  -1  -3 -13    6.80    1.80   1
   1   3  14   18.30    2.30   1
  -1  -3 -14   14.80    2.20   1
   1   3  15   20.30    2.30   1
  -1  -3 -15   13.60    2.40   1
   1   3  16   19.90    3.00   1
  -1  -3 -16   17.60    2.40   1
   1   4 -18   -2.50    2.00   1
  -1  -4  18   -0.80    2.80   1
   1   4 -17   51.40    4.20   1
  -1  -4  17   57.90    5.10   1
   1   4 -16   24.10    2.40   1
  -1  -4  16   25.30    3.10   1
   1   4 -15   13.10    1.90   1
  -1  -4  15   10.30    2.10   1
   1   4 -14  184.10    6.30   1
  -1  -4  14  190.60   10.30   1
   1   4 -13  145.00    4.90   1
  -1  -4  13  150.30    7.00   1
   1   4 -12   73.40    2.50   1
  -1  -4  12   73.90    4.40   1
   1   4 -11  542.20   12.40   1
  -1  -4  11  519.60   20.80   1
   1   4 -10   17.40    1.20   1
  -1  -4  10   13.40    1.70   1
   1   4  -9   66.40    2.30   1
  -1  -4   9   66.50    3.50   1
   1   4  -8  214.70    5.20   1
  -1  -4   8  215.20    8.60   1
   1   4  -7  221.40    5.90   1
  -1  -4   7  223.40   10.50   1
   1   4  -6  144.90    4.50   1
  -1  -4   6  143.20    7.80   1
   1   4  -5  253.50    7.10   1
  -1  -4   5  261.80   11.20   1
   1   4  -4  207.80    4.70   1
  -1  -4   4  216.30    8.40   1
   1   4  -3  434.30    7.80   1
  -1  -4   3  449.70   16.80   1
   1   4  -2 1892.20   36.90   1
  -1  -4   2 1920.90   63.70   1
   1   4  -1   31.70    1.30   1
  -1  -4   1   29.20    1.80   1
   1   4   0  122.30    3.20   1
  -1  -4   0  120.60    3.90   1
   1   4   1   58.30    2.10   1
  -1  -4  -1   53.10    2.20   1
   1   4   2   17.50    1.40   1
  -1  -4  -2   19.40    1.50   1
   1   4   3  178.40    4.90   1
  -1  -4  -3  175.40    5.80   1
   1   4   4   40.60    1.90   1
  -1  -4  -4   39.20    2.00   1
   1   4   5  116.40    4.10   1
  -1  -4  -5  114.50    4.00   1
   1   4   6   20.90    1.80   1
  -1  -4  -6   16.50    1.50   1
   1   4   7  182.40    6.60   1
  -1  -4  -7  181.10    5.40   1
   1   4   8    4.10    1.60   1
  -1  -4  -8    0.50    1.50   1
   1   4   9  814.40   24.10   1
  -1  -4  -9  822.00   19.60   1
   1   4  10   25.60    2.50   1
  -1  -4 -10   20.70    1.90   1
   1   4  11    0.50    2.00   1
  -1  -4 -11    0.60    1.40   1
   1   4  12   59.10    3.70   1
  -1  -4 -12   54.90    3.20   1
   1   4  13   34.00    4.40   1
  -1  -4 -13   25.00    2.30   1
   1   4  14   60.00    4.60   1
  -1  -4 -14   59.00    4.40   1
   1   4  15    1.70    2.30   1
  -1  -4 -15    1.00    2.50   1
   1   5 -17   -1.30    1.60   1
  -1  -5  17    1.10    2.40   1
   1   5 -16   15.30    2.40   1
  -1  -5  16   14.50    2.90   1
   1   5 -15    2.50    0.80   1
  -1  -5  15    2.80    1.50   1
   1   5 -14   11.90    1.10   1
  -1  -5  14   11.20    2.10   1
   1   5 -13   92.40    3.30   1
  -1  -5  13  101.60    5.50   1
   1   5 -12   47.30    2.10   1
  -1  -5  12   47.10    3.40   1
   1   5 -11    2.60    0.90   1
   1   5 -10   12.40    1.00   1
   1   5  -9  118.10    3.60   1
   1   5  -8   99.50    2.90   1
   1   5  -7  120.70    4.10   1
  -1  -5   7  117.00    6.40   1
   1   5  -6  116.50    3.30   1
  -1  -5   6  114.70    6.50   1
   1   5  -5  245.80    5.80   1
  -1  -5   5  257.20   11.60   1
   1   5  -4  696.00   12.20   1
  -1  -5   4  731.20   27.70   1
   1   5  -3  593.60   10.80   1
  -1  -5   3  612.10   24.50   1
   1   5  -2   36.30    1.40   1
  -1  -5   2   38.50    2.80   1
   1   5  -1  726.40   14.90   1
  -1  -5   1  745.50   26.30   1
   1   5   0 1556.90   30.50   1
  -1  -5   0 1586.60   37.80   1
   1   5   1   49.70    2.00   1
  -1  -5  -1   55.10    2.70   1
   1   5   2  335.80    8.20   1
  -1  -5  -2  336.30    9.90   1
   1   5   3  455.20   10.90   1
  -1  -5  -3  461.80   13.40   1
   1   5   4    3.60    1.10   1
  -1  -5  -4    2.00    1.20   1
   1   5   5  466.60   13.70   1
  -1  -5  -5  470.90   13.20   1
   1   5   6   64.80    3.10   1
  -1  -5  -6   56.50    3.00   1
   1   5   7    2.80    1.50   1
  -1  -5  -7    3.10    1.60   1
   1   5   8   71.00    3.70   1
  -1  -5  -8   63.20    3.40   1
   1   5   9  120.40    6.00   1
  -1  -5  -9  111.10    5.50   1
   1   5  10    8.30    2.00   1
  -1  -5 -10    8.70    2.30   1
   1   5  11   48.90    3.70   1
  -1  -5 -11   49.00    3.30   1
   1   5  12    2.70    1.90   1
  -1  -5 -12    3.50    1.80   1
   1   5  13    5.70    2.00   1
  -1  -5 -13    8.50    2.20   1
   1   5  14   23.10    3.70   1
  -1  -5 -14   13.70    4.50   1
   1   6 -16   39.30    3.20   1
   1   6 -15    6.70    1.90   1
   1   6 -14    1.20    0.90   1
   1   6 -13   42.10    2.10   1
   1   6 -12   69.90    2.90   1
   1   6 -11    0.30    0.80   1
   1   6 -10  171.80    5.30   1
   1   6  -9    2.60    0.60   1
   1   6  -8   74.10    2.50   1
   1   6  -7  314.70    7.90   1
  -1  -6   7  303.00   15.00   1
   1   6  -6    0.20    0.30   1
  -1  -6   6   -0.40    1.90   1
   1   6  -5  725.40   13.20   1
  -1  -6   5  778.00   30.50   1
   1   6  -4   26.40    0.90   1
  -1  -6   4   25.90    3.70   1
   1   6  -3   19.40    0.80   1
  -1  -6   3   22.00    3.40   1
   1   6  -2  408.90    9.20   1
  -1  -6   2  420.90   17.50   1
   1   6  -1  697.20   15.50   1
  -1  -6   1  710.00   27.60   1
   1   6   0   71.80    2.40   1
  -1  -6   0   64.50    3.40   1
   1   6   1   12.20    1.30   1
  -1  -6  -1   13.00    1.90   1
   1   6   2   82.00    2.90   1
  -1  -6  -2   79.10    3.70   1
   1   6   3    0.90    1.00   1
  -1  -6  -3    1.20    1.50   1
   1   6   4  284.20    7.90   1
  -1  -6  -4  296.60   10.50   1
   1   6   5   84.10    3.40   1
  -1  -6  -5   89.00    4.40   1
   1   6   6    3.10    1.70   1
  -1  -6  -6    2.00    1.70   1
   1   6   7  146.50    6.70   1
  -1  -6  -7  138.80    6.40   1
   1   6   8  127.90    6.30   1
  -1  -6  -8  131.00    6.50   1
   1   6   9   14.30    2.20   1
  -1  -6  -9   12.50    2.10   1
   1   6  10   59.70    4.30   1
  -1  -6 -10   66.30    4.70   1
   1   6  11    9.10    2.50   1
  -1  -6 -11   16.00    2.50   1
   1   6  12    8.00    2.20   1
  -1  -6 -12    3.50    2.90   1
   1   6  13    7.60    3.50   1
  -1  -6 -13    1.80    2.90   1
   1   7 -14   10.80    3.40   1
   1   7 -13    4.20    1.00   1
   1   7 -12    1.30    0.70   1
   1   7 -11   29.60    1.50   1
   1   7 -10   82.40    2.60   1
   1   7  -9    4.30    2.00   1
   1   7  -8  219.40    9.10   1
   1   7  -7    5.10    1.80   1
  -1  -7   7    3.20    2.50   1
   1   7  -6   86.70    4.30   1
  -1  -7   6   77.60    6.40   1
   1   7  -5  227.60    9.20   1
  -1  -7   5  214.60   12.90   1
   1   7  -4    1.60    0.40   1
  -1  -7   4    5.50    2.00   1
   1   7  -3  186.40    4.60   1
  -1  -7   3  188.90   11.10   1
   1   7  -2   28.80    1.50   1
  -1  -7   2   27.40    3.70   1
   1   7  -1   17.40    1.30   1
  -1  -7   1   16.00    2.80   1
   1   7   0   66.20    2.60   1
  -1  -7   0   64.10    4.80   1
   1   7   1   77.50    3.10   1
  -1  -7  -1   80.10    4.20   1
   1   7   2  102.70    3.60   1
  -1  -7  -2  100.60    5.00   1
   1   7   3   62.60    2.80   1
  -1  -7  -3   61.50    3.80   1
   1   7   4   93.20    3.80   1
  -1  -7  -4   83.60    4.50   1
   1   7   5   24.50    1.90   1
  -1  -7  -5   23.10    2.20   1
   1   7   6  197.40    9.00   1
  -1  -7  -6  189.00    8.90   1
   1   7   7    6.20    1.80   1
  -1  -7  -7    6.70    1.90   1
   1   7   8   32.80    3.30   1
  -1  -7  -8   35.50    3.30   1
   1   7   9   24.40    2.80   1
  -1  -7  -9   33.70    3.40   1
   1   7  10   21.10    2.80   1
  -1  -7 -10   17.70    3.70   1
   1   7  11   -0.90    1.90   1
  -1  -7 -11    2.50    4.40   1
   1   8 -12    3.10    1.60   1
   1   8 -11   -0.90    1.40   1
   1   8 -10   -0.30    1.50   1
   1   8  -9    0.60    2.50   1
   1   8  -8   12.20    2.20   1
   1   8  -7   42.60    3.40   1
  -1  -8   7   43.30    5.00   1
   1   8  -6   58.80    4.00   1
  -1  -8   6   53.90    6.10   1
   1   8  -5   -1.40    1.60   1
  -1  -8   5    1.40    2.60   1
   1   8  -4   71.40    1.90   1
  -1  -8   4   77.50    6.50   1
   1   8  -3   72.90    2.30   1
  -1  -8   3   63.50    6.30   1
   1   8  -2    7.40    1.00   1
  -1  -8   2   12.60    3.00   1
   1   8  -1  142.50    5.00   1
  -1  -8   1  141.20    9.00   1
   1   8   0  123.90    4.70   1
  -1  -8   0  115.50    8.90   1
   1   8   1    1.10    1.20   1
  -1  -8  -1    1.40    3.20   1
   1   8   2  154.80    5.90   1
  -1  -8  -2  156.30    8.20   1
   1   8   3   86.70    3.70   1
  -1  -8  -3   81.40    5.10   1
   1   8   4   87.20    4.20   1
  -1  -8  -4   81.70    5.10   1
   1   8   5  146.10    7.20   1
  -1  -8  -5  119.70    7.30   1
   1   8   6   25.40    2.80   1
  -1  -8  -6   22.70    2.80   1
   1   8   7    7.70    2.10   1
  -1  -8  -7   11.10    3.30   1
   1   8   8   67.70    5.00   1
  -1  -8  -8   61.80    6.50   1
   1   9  -9    2.50    2.10   1
   1   9  -8   39.60    3.90   1
   1   9  -7    2.00    2.40   1
   1   9  -6    8.80    2.30   1
   1   9  -5   22.20    2.70   1
  -1  -9   5   19.10    3.70   1
   1   9  -4   63.70    5.10   1
  -1  -9   4   76.20    8.00   1
   1   9  -3   13.70    1.10   1
  -1  -9   3   22.50    4.10   1
   1   9  -2   17.00    1.20   1
  -1  -9   2   20.20    4.80   1
   1   9  -1    1.20    1.10   1
  -1  -9   1    3.50    3.00   1
   1   9   0    0.00    0.90   1
  -1  -9   0    4.00    2.90   1
   1   9   1   60.30    3.30   1
  -1  -9  -1   73.80    8.10   1
   1   9   2    7.10    1.40   1
  -1  -9  -2    8.40    3.40   1
   1   9   3    4.60    1.80   1
  -1  -9  -3    4.90    3.20   1
   1   9   4   54.40    3.30   1
  -1  -9  -4   58.40    6.40   1
   2 -10  -3    1.00    2.00   1
  -2  10   3    3.00    1.40   1
   2 -10  -2   42.90    5.20   1
  -2  10   2   49.60    2.80   1
   2 -10  -1   37.30    5.40   1
  -2  10   1   39.50    2.50   1
  -2  10   0   10.20    1.60   1
  -2  10  -1  101.30    4.90   1
  -2  10  -2   27.80    2.10   1
  -2  10  -3    2.70    1.20   1
  -2  10  -4   38.70    2.30   1
  -2  10  -5    4.50    1.20   1
   2  -9  -8   42.40    4.20   1
  -2   9   8   41.30    3.20   1
   2  -9  -7   -0.40    1.70   1
  -2   9   7    0.40    1.80   1
   2  -9  -6   21.20    3.80   1
  -2   9   6   20.50    2.30   1
   2  -9  -5    7.80    2.20   1
  -2   9   5    8.60    1.50   1
   2  -9  -4   -0.80    1.50   1
  -2   9   4    0.10    1.10   1
   2  -9  -3   56.50    4.90   1
  -2   9   3   45.90    2.60   1
   2  -9  -2   47.90    3.70   1
  -2   9   2   47.20    2.50   1
   2  -9  -1    3.80    2.00   1
  -2   9   1    1.50    2.00   1
   2  -9   0   96.60    7.20   1
  -2   9   0   95.70    5.30   1
  -2   9  -1  135.00    6.70   1
  -2   9  -2    0.80    1.40   1
  -2   9  -3   51.40    2.60   1
  -2   9  -4   27.60    1.90   1
  -2   9  -5    4.70    1.20   1
  -2   9  -6   87.70    3.80   1
  -2   9  -7   11.30    1.30   1
  -2   9  -8   47.60    2.60   1
  -2   9  -9    1.60    0.90   1
   2  -8 -11    6.20    2.00   1
  -2   8  11    7.80    2.90   1
   2  -8 -10   24.30    3.00   1
  -2   8  10   26.30    2.60   1
   2  -8  -9   88.30    7.20   1
  -2   8   9   94.60    4.80   1
   2  -8  -8    6.80    1.90   1
  -2   8   8    7.00    1.80   1
   2  -8  -7  119.80    6.10   1
  -2   8   7  116.30    5.50   1
   2  -8  -6   54.60    3.50   1
  -2   8   6   46.30    3.00   1
   2  -8  -5   40.00    2.80   1
  -2   8   5   38.10    2.10   1
   2  -8  -4   87.80    4.60   1
  -2   8   4   81.70    3.30   1
   2  -8  -3   54.30    3.40   1
  -2   8   3   52.10    2.90   1
   2  -8  -2   25.50    2.50   1
  -2   8   2   24.00    2.20   1
   2  -8  -1   -1.40    1.20   1
  -2   8   1    0.90    1.70   1
   2  -8   0   65.40    4.80   1
  -2   8   0   57.00    3.50   1
  -2   8  -1   59.90    3.50   1
  -2   8  -2  347.30   13.20   1
  -2   8  -3   22.60    1.80   1
  -2   8  -4    7.10    1.10   1
  -2   8  -5  173.00    5.50   1
  -2   8  -6   58.30    2.50   1
  -2   8  -7  170.10    5.50   1
  -2   8  -8   31.70    1.80   1
  -2   8  -9   18.80    1.40   1
  -2   8 -10   31.70    1.90   1
  -2   8 -11   58.90    3.40   1
  -2   8 -12   -1.30    1.40   1
   2  -7 -13   17.50    3.30   1
  -2   7  13   16.90    2.80   1
   2  -7 -12    5.80    2.40   1
  -2   7  12    6.40    2.20   1
   2  -7 -11   34.20    3.00   1
  -2   7  11   32.70    2.80   1
   2  -7 -10    0.40    1.30   1
  -2   7  10    4.60    1.50   1
   2  -7  -9   -0.20    1.30   1
  -2   7   9    2.80    1.70   1
   2  -7  -8   -0.10    1.10   1
  -2   7   8   -0.50    1.20   1
   2  -7  -7   35.40    2.40   1
  -2   7   7   33.30    2.30   1
   2  -7  -6    5.30    1.30   1
  -2   7   6    4.70    1.50   1
   2  -7  -5  236.80    8.60   1
  -2   7   5  218.40    6.40   1
   2  -7  -4  304.70   10.40   1
  -2   7   4  304.60    8.90   1
   2  -7  -3   15.70    1.70   1
  -2   7   3   17.00    1.90   1
   2  -7  -2 1122.90   31.80   1
  -2   7   2 1122.30   31.90   1
   2  -7  -1  220.60    8.60   1
  -2   7   1  217.10    7.70   1
   2  -7   0  397.00   13.10   1
  -2   7   0  386.40   12.60   1
  -2   7  -1  382.90   12.90   1
  -2   7  -2   90.60    4.30   1
  -2   7  -3   39.80    1.90   1
  -2   7  -4  171.40    4.70   1
  -2   7  -5   -0.40    0.70   1
  -2   7  -6    1.70    0.80   1
  -2   7  -7  217.70    5.70   1
  -2   7  -8  133.20    3.80   1
  -2   7  -9   27.10    1.50   1
  -2   7 -10   31.00    1.20   1
  -2   7 -11   16.50    1.80   1
  -2   7 -12    3.80    1.50   1
  -2   7 -13   10.60    1.70   1
  -2   7 -14   19.00    2.80   1
   2  -6 -15   11.20    2.20   1
  -2   6  15   12.00    3.40   1
   2  -6 -14   70.50    6.20   1
  -2   6  14   80.00    5.80   1
   2  -6 -13   -0.80    2.00   1
  -2   6  13    0.70    1.60   1
   2  -6 -12   77.90    4.60   1
  -2   6  12   61.70    3.80   1
   2  -6 -11    7.30    1.80   1
  -2   6  11    3.40    1.60   1
   2  -6 -10    1.00    1.30   1
  -2   6  10   -0.60    1.60   1
   2  -6  -9  185.20    7.60   1
  -2   6   9  186.50    7.20   1
   2  -6  -8   20.00    1.70   1
  -2   6   8   21.80    2.00   1
   2  -6  -7   32.70    2.20   1
  -2   6   7   34.10    2.10   1
   2  -6  -6   20.00    1.50   1
  -2   6   6   19.30    1.80   1
   2  -6  -5  160.20    6.00   1
  -2   6   5  153.40    4.10   1
   2  -6  -4   17.70    1.50   1
  -2   6   4   19.60    1.20   1
   2  -6  -3  203.70    7.30   1
  -2   6   3  217.20    7.10   1
   2  -6  -2  218.00    7.60   1
  -2   6   2  215.40    6.90   1
   2  -6  -1    0.10    1.10   1
  -2   6   1    1.80    1.40   1
   2  -6   0  370.40   11.60   1
  -2   6   0  385.10   11.00   1
  -2   6  -1   66.10    3.10   1
  -2   6  -2  179.30    5.80   1
  -2   6  -3  431.60    8.70   1
  -2   6  -4   66.70    2.10   1
  -2   6  -5  270.50    5.90   1
  -2   6  -6  427.40    9.00   1
  -2   6  -7   15.10    1.10   1
  -2   6  -8   10.50    0.90   1
  -2   6  -9  190.90    4.80   1
  -2   6 -10   35.60    2.70   1
  -2   6 -11  111.70    5.50   1
  -2   6 -12   37.50    3.00   1
  -2   6 -13    1.20    1.90   1
  -2   6 -14   26.30    2.90   1
  -2   6 -15    7.00    2.30   1
   2  -5 -16    2.60    2.80   1
  -2   5  16    4.00    3.10   1
   2  -5 -15   19.30    3.20   1
  -2   5  15   19.90    3.10   1
   2  -5 -14    0.50    1.30   1
  -2   5  14   -0.20    1.70   1
   2  -5 -13   23.00    2.20   1
  -2   5  13   26.90    2.30   1
   2  -5 -12  247.20    9.30   1
  -2   5  12  246.60    9.00   1
   2  -5 -11   11.30    1.40   1
  -2   5  11   11.80    1.60   1
   2  -5 -10  177.90    6.90   1
  -2   5  10  182.60    6.10   1
   2  -5  -9   10.50    1.60   1
  -2   5   9    8.70    1.50   1
   2  -5  -8   77.90    3.50   1
  -2   5   8   79.30    3.20   1
   2  -5  -7  381.10   11.50   1
  -2   5   7  399.30   10.70   1
   2  -5  -6   25.60    1.50   1
  -2   5   6   27.10    1.80   1
   2  -5  -5  514.60   14.00   1
  -2   5   5  524.40   11.90   1
   2  -5  -4   28.30    1.70   1
  -2   5   4   27.00    1.50   1
   2  -5  -3  682.70   17.60   1
  -2   5   3  680.80   14.70   1
   2  -5  -2  140.30    4.80   1
  -2   5   2  144.00    3.90   1
   2  -5  -1  346.30    9.70   1
  -2   5   1  344.20    8.10   1
   2  -5   0   55.00    2.40   1
  -2   5   0   52.20    1.90   1
  -2   5  -1   77.00    2.40   1
  -2   5  -2  235.60    5.70   1
  -2   5  -3   16.90    1.00   1
  -2   5  -4   13.30    0.90   1
  -2   5  -5  464.10    8.90   1
  -2   5  -6  115.20    2.70   1
  -2   5  -7  469.40   10.90   1
  -2   5  -8 1059.50   21.30   1
  -2   5  -9   14.80    1.80   1
  -2   5 -10  461.50   15.10   1
  -2   5 -11  279.20   10.90   1
  -2   5 -12   17.10    2.20   1
   2  -5  13  170.60   12.10   1
  -2   5 -13  178.00    8.50   1
   2  -5  14   29.20    4.10   1
  -2   5 -14   18.90    2.80   1
   2  -5  15    2.00    3.30   1
  -2   5 -15    1.60    2.10   1
   2  -5  16    8.90    3.00   1
  -2   5 -16   11.90    2.80   1
   2  -4 -17   -1.50    2.00   1
  -2   4  17    3.50    2.80   1
   2  -4 -16    1.20    1.70   1
  -2   4  16    2.50    2.30   1
   2  -4 -15    5.00    1.40   1
  -2   4  15    3.50    1.70   1
   2  -4 -14    3.00    1.30   1
  -2   4  14    3.10    1.60   1
   2  -4 -13   16.50    2.00   1
  -2   4  13   14.90    2.10   1
   2  -4 -12    5.00    1.20   1
  -2   4  12    7.20    1.90   1
   2  -4 -11  183.90    6.90   1
  -2   4  11  179.20    6.00   1
   2  -4 -10   26.20    2.00   1
  -2   4  10   27.10    1.80   1
   2  -4  -9    0.70    1.20   1
  -2   4   9    0.00    1.20   1
   2  -4  -8  281.20    8.10   1
  -2   4   8  278.90    7.40   1
   2  -4  -7  170.40    5.00   1
  -2   4   7  165.40    4.80   1
   2  -4  -6   28.00    1.50   1
  -2   4   6   32.40    1.60   1
   2  -4  -5 1611.50   38.80   1
  -2   4   5 1616.90   40.00   1
   2  -4  -4   41.50    1.70   1
  -2   4   4   41.80    1.50   1
   2  -4  -3  635.20   15.50   1
  -2   4   3  635.00   13.10   1
   2  -4  -2  321.30    8.70   1
  -2   4   2  326.30    7.10   1
   2  -4  -1  214.30    5.70   1
  -2   4   1  214.40    5.10   1
   2  -4   0  297.70   11.40   1
  -2   4   0  294.50    6.40   1
  -2   4  -1 1649.40   32.90   1
  -2   4  -2  162.50    4.20   1
  -2   4  -3 1880.80   31.70   1
  -2   4  -4  755.70   14.00   1
  -2   4  -5   79.40    2.30   1
  -2   4  -6  376.40    8.30   1
  -2   4  -7  651.30   15.60   1
  -2   4  -8   31.50    3.30   1
   2  -4   9  144.70    7.40   1
  -2   4  -9  150.50    8.60   1
   2  -4  10  155.20    7.90   1
  -2   4 -10  138.00    8.00   1
   2  -4  11   79.80    5.30   1
  -2   4 -11   93.00    5.90   1
   2  -4  12  231.80   12.90   1
  -2   4 -12  250.90   14.10   1
   2  -4  13   30.30    3.80   1
  -2   4 -13   27.70    3.40   1
   2  -4  14   35.60    4.00   1
  -2   4 -14   32.70    4.70   1
   2  -4  15  154.80   12.20   1
  -2   4 -15  156.90   12.00   1
   2  -4  16   36.60    4.60   1
  -2   4 -16   29.40    3.40   1
   2  -4  17   42.40    5.20   1
  -2   4 -17   46.40    4.30   1
   2  -3 -18    3.60    2.30   1
  -2   3  18    3.40    2.90   1
  -2   3  17   49.20    5.10   1
   2  -3 -16   11.70    3.30   1
  -2   3  16   14.10    2.50   1
   2  -3 -15   11.80    3.70   1
  -2   3  15   14.30    1.90   1
   2  -3 -14  124.60    8.30   1
  -2   3  14  127.40    6.50   1
   2  -3 -13   68.50    5.50   1
  -2   3  13   65.50    3.70   1
   2  -3 -12  104.70    6.70   1
  -2   3  12   99.40    4.50   1
   2  -3 -11  164.10    8.70   1
  -2   3  11  166.40    6.70   1
   2  -3 -10   49.50    2.40   1
  -2   3  10   45.10    2.40   1
   2  -3  -9   81.40    3.40   1
  -2   3   9   92.70    3.20   1
   2  -3  -8   11.30    1.20   1
  -2   3   8   12.60    1.30   1
   2  -3  -7    0.80    0.90   1
  -2   3   7    2.80    1.10   1
   2  -3  -6   79.50    2.50   1
  -2   3   6   71.90    2.80   1
   2  -3  -5   10.20    0.80   1
  -2   3   5    7.20    1.30   1
   2  -3  -4    4.80    0.60   1
  -2   3   4    3.10    1.10   1
   2  -3  -3  172.60    4.70   1
  -2   3   3  167.60    4.00   1
   2  -3  -2  245.40    6.70   1
  -2   3   2  248.30    5.70   1
   2  -3  -1   10.50    1.30   1
  -2   3   1   11.00    0.70   1
   2  -3   0   14.00    1.70   1
  -2   3   0   19.10    0.90   1
  -2   3  -1   15.20    0.90   1
  -2   3  -2  563.90   14.30   1
  -2   3  -3 1898.90   36.20   1
  -2   3  -4   30.10    1.30   1
  -2   3  -5  890.70   21.90   1
   2  -3   6  341.70   13.70   1
  -2   3  -6  335.80   16.80   1
   2  -3   7    1.90    1.50   1
  -2   3  -7    2.90    1.60   1
   2  -3   8  929.60   34.00   1
  -2   3  -8  978.90   34.00   1
   2  -3   9  360.10   15.30   1
  -2   3  -9  360.50   15.60   1
   2  -3  10  152.40    8.50   1
  -2   3 -10  170.80    9.90   1
   2  -3  11   26.00    3.30   1
  -2   3 -11   21.70    3.00   1
   2  -3  12  186.50   10.80   1
  -2   3 -12  185.80    9.50   1
   2  -3  13    2.20    2.50   1
  -2   3 -13    3.20    2.30   1
   2  -3  14  139.20   10.60   1
  -2   3 -14  146.30    9.30   1
   2  -3  15   43.00    4.70   1
  -2   3 -15   34.50    4.00   1
   2  -3  16   12.90    3.40   1
  -2   3 -16   16.20    2.60   1
  -2   3 -17  111.60    7.40   1
  -2   2  18   21.60    3.30   1
   2  -2 -17   53.10    6.60   1
  -2   2  17   52.60    4.00   1
   2  -2 -16   31.80    4.10   1
  -2   2  16   33.80    3.00   1
   2  -2 -15  102.70    8.10   1
  -2   2  15  104.90    5.60   1
   2  -2 -14   45.10    4.60   1
  -2   2  14   29.30    2.40   1
   2  -2 -13   -1.10    2.10   1
  -2   2  13   -0.60    1.20   1
   2  -2 -12   24.50    3.30   1
  -2   2  12   28.00    2.20   1
   2  -2 -11   67.30    4.90   1
  -2   2  11   64.40    3.50   1
   2  -2 -10   -0.30    1.80   1
  -2   2  10    1.60    1.20   1
   2  -2  -9  210.90    9.40   1
  -2   2   9  211.40    6.80   1
   2  -2  -8  105.80    5.40   1
  -2   2   8  106.20    3.60   1
   2  -2  -7  529.00   20.40   1
  -2   2   7  535.20   11.50   1
   2  -2  -6   75.50    4.10   1
  -2   2   6   69.20    2.80   1
   2  -2  -5  233.10    5.50   1
  -2   2   5  241.20    7.20   1
   2  -2  -4  402.00   10.80   1
  -2   2   4  402.20   11.70   1
   2  -2  -3   48.20    1.80   1
  -2   2   3   49.60    2.30   1
   2  -2  -2  323.70    8.60   1
  -2   2   2  318.10    6.90   1
   2  -2  -1  844.30   20.80   1
  -2   2   1  838.80   21.00   1
   2  -2   0   13.40    0.80   1
  -2   2   0   13.20    1.00   1
   2  -2   1  458.90   17.20   1
  -2   2  -1  475.50   12.80   1
   2  -2   2  744.00   25.90   1
  -2   2  -2  726.80   15.20   1
   2  -2   3    3.70    0.70   1
  -2   2  -3    3.00    0.60   1
   2  -2   4  700.60   17.60   1
  -2   2  -4  705.30   17.40   1
   2  -2   5 1212.40   28.70   1
  -2   2  -5 1190.80   40.10   1
   2  -2   6   18.10    2.20   1
  -2   2  -6   22.00    2.10   1
   2  -2   7  997.30   37.00   1
  -2   2  -7  993.60   39.30   1
   2  -2   8  421.60   19.10   1
  -2   2  -8  412.90   17.40   1
   2  -2   9    0.80    1.50   1
  -2   2  -9    3.00    2.20   1
   2  -2  10  477.20   22.60   1
  -2   2 -10  514.50   21.20   1
   2  -2  11  427.90   19.30   1
  -2   2 -11  420.30   18.70   1
   2  -2  12  141.90    8.50   1
  -2   2 -12  132.90    8.40   1
   2  -2  13  400.90   21.20   1
  -2   2 -13  406.50   15.00   1
   2  -2  14  199.50   12.80   1
  -2   2 -14  196.20    8.20   1
   2  -2  15   11.00    2.90   1
  -2   2 -15   11.70    2.70   1
   2  -2  16  150.40   12.60   1
  -2   2 -16  142.20    8.20   1
  -2   2 -17   -0.80    2.20   1
   2  -1 -19    0.10    2.20   1
  -2   1  19    4.10    2.50   1
  -2   1  18   27.60    2.70   1
   2  -1 -17    9.70    3.10   1
  -2   1  17    8.60    1.50   1
   2  -1 -16   36.90    5.10   1
  -2   1  16   41.40    3.00   1
   2  -1 -15   51.40    4.80   1
  -2   1  15   62.60    3.50   1
   2  -1 -14   -1.20    3.10   1
  -2   1  14    5.00    1.50   1
   2  -1 -13   20.10    2.80   1
  -2   1  13   23.60    1.90   1
   2  -1 -12  122.10    7.20   1
  -2   1  12  115.20    4.80   1
   2  -1 -11   22.60    2.80   1
  -2   1  11   21.60    2.00   1
   2  -1 -10   24.70    2.40   1
  -2   1  10   25.60    2.00   1
   2  -1  -9   91.00    3.70   1
  -2   1   9   92.70    3.50   1
   2  -1  -8  307.50    8.60   1
  -2   1   8  296.20    8.40   1
   2  -1  -7 1084.60   26.80   1
  -2   1   7 1044.30   26.10   1
   2  -1  -6   24.60    1.10   1
  -2   1   6   26.10    1.80   1
   2  -1  -5  117.10    2.90   1
  -2   1   5  131.40    5.70   1
   2  -1  -4   13.70    0.70   1
  -2   1   4   15.20    1.50   1
   2  -1  -3  721.90   18.00   1
  -2   1   3  713.80   14.60   1
   2  -1  -1   51.30    1.70   1
  -2   1   1   55.80    1.60   1
   2  -1   1  136.90    6.00   1
  -2   1  -1  137.80    3.20   1
   2  -1   2  140.80    4.10   1
  -2   1  -2  136.40    4.20   1
   2  -1   3 2715.00   62.40   1
  -2   1  -3 2830.90   91.40   1
   2  -1   4   44.80    1.70   1
  -2   1  -4   44.10    2.90   1
   2  -1   5    0.90    0.60   1
  -2   1  -5    3.20    1.50   1
   2  -1   6  328.00    8.80   1
  -2   1  -6  328.40   12.90   1
   2  -1   7  486.20   12.30   1
  -2   1  -7  523.10   20.50   1
   2  -1   8    3.30    0.50   1
  -2   1  -8    4.40    1.20   1
   2  -1   9  430.30   18.00   1
  -2   1  -9  409.90   11.60   1
   2  -1  10  133.10    4.10   1
  -2   1 -10  130.60    5.00   1
   2  -1  11    4.60    0.70   1
  -2   1 -11    5.10    1.50   1
   2  -1  12  210.40    5.20   1
  -2   1 -12  214.50    8.00   1
   2  -1  13   66.60    2.10   1
  -2   1 -13   56.20    3.70   1
   2  -1  14   18.60    0.70   1
  -2   1 -14   17.60    2.40   1
   2  -1  15   50.00    5.30   1
  -2   1 -15   46.80    3.90   1
   2  -1  16   16.00    3.50   1
  -2   1 -16   14.60    2.40   1
  -2   1 -17    5.60    2.50   1
   2   0 -19   72.00    6.80   1
  -2   0  19   67.50    4.50   1
   2   0 -18   24.10    3.10   1
  -2   0  18   22.70    2.50   1
   2   0 -17  136.50    7.30   1
  -2   0  17  147.20    7.70   1
   2   0 -16  137.40    6.60   1
  -2   0  16  134.80    6.60   1
   2   0 -15    4.90    1.80   1
  -2   0  15    2.30    1.10   1
   2   0 -14  204.50    8.40   1
  -2   0  14  210.50    7.70   1
   2   0 -13    7.20    1.60   1
  -2   0  13    4.90    1.30   1
   2   0 -12   43.60    2.70   1
  -2   0  12   48.20    2.60   1
   2   0 -11  220.70    6.10   1
  -2   0  11  220.90    7.50   1
   2   0 -10  171.40    4.80   1
  -2   0  10  172.20    5.90   1
   2   0  -9  236.50    7.90   1
  -2   0   9  234.90    7.30   1
   2   0  -8  530.80   14.50   1
  -2   0   8  500.30   13.30   1
   2   0  -7    5.50    0.80   1
  -2   0   7    6.00    1.00   1
   2   0  -6   21.50    1.30   1
  -2   0   6   17.60    1.30   1
   2   0  -5  357.80    9.80   1
  -2   0   5  354.90   13.00   1
   2   0  -4  135.00    4.00   1
  -2   0   4  131.60    4.00   1
   2   0  -3  969.50   24.30   1
  -2   0   3  960.30   23.20   1
   2   0  -2  298.50    8.10   1
  -2   0   2  288.90    7.70   1
   2   0  -1  723.10   17.90   1
  -2   0   1  725.50   18.00   1
   2   0   0  535.80   20.20   1
  -2   0   0  528.20   13.80   1
   2   0   1  150.10    4.30   1
  -2   0  -1  145.80    3.50   1
   2   0   2 1157.00   40.00   1
  -2   0  -2 1192.20   28.10   1
   2   0   3  340.80   13.50   1
  -2   0  -3  353.70    9.80   1
   2   0   4  199.30    8.50   1
  -2   0  -4  191.10    6.00   1
   2   0   5  855.80   30.70   1
  -2   0  -5  867.90   21.30   1
   2   0   6  193.20    8.80   1
  -2   0  -6  182.70    5.40   1
   2   0   7  273.70   12.20   1
  -2   0  -7  282.50    8.10   1
   2   0   8  458.00   18.00   1
  -2   0  -8  436.50   16.50   1
   2   0   9  115.50    7.60   1
  -2   0  -9  107.90    4.40   1
   2   0  10    5.90    3.00   1
  -2   0 -10    8.80    1.90   1
   2   0  11  373.90   16.70   1
  -2   0 -11  361.40   11.50   1
   2   0  12   34.90    2.10   1
  -2   0 -12   37.40    2.90   1
   2   0  13  185.60    6.30   1
  -2   0 -13  177.00    8.30   1
   2   0  14   72.50    3.70   1
  -2   0 -14   67.30    4.20   1
   2   0  15  121.40    6.20   1
  -2   0 -15  113.00    6.40   1
   2   0  16   37.60    2.60   1
  -2   0 -16   34.10    3.40   1
  -2   0 -17   52.60    4.70   1
   2   1 -19    3.60    3.30   1
  -2  -1  19    0.00    1.40   1
   2   1 -18   17.90    3.50   1
  -2  -1  18   14.50    1.90   1
   2   1 -17   97.60    5.40   1
  -2  -1  17   99.50    5.20   1
   2   1 -16    5.20    2.20   1
  -2  -1  16    9.00    1.40   1
   2   1 -15    5.10    2.10   1
  -2  -1  15    3.90    1.00   1
   2   1 -14  158.70    7.80   1
  -2  -1  14  176.90    6.00   1
   2   1 -13   10.60    1.60   1
  -2  -1  13   10.50    1.30   1
   2   1 -12  743.90   22.40   1
  -2  -1  12  753.70   20.70   1
   2   1 -11  100.30    3.80   1
  -2  -1  11   99.30    3.80   1
   2   1 -10   49.80    2.30   1
  -2  -1  10   54.20    2.40   1
   2   1  -9  345.00   10.00   1
  -2  -1   9  360.00   10.30   1
   2   1  -8  174.40    5.80   1
  -2  -1   8  177.10    5.50   1
   2   1  -7  384.60   10.40   1
  -2  -1   7  383.90   10.30   1
   2   1  -6  418.70   11.00   1
  -2  -1   6  408.40    8.90   1
   2   1  -5    2.00    0.90   1
  -2  -1   5    0.70    0.50   1
   2   1  -4  259.40    7.40   1
  -2  -1   4  265.60    7.20   1
   2   1  -3  238.50    6.70   1
  -2  -1   3  248.00   10.00   1
   2   1  -2  113.90    3.70   1
  -2  -1   2  115.40    3.40   1
   2   1  -1  209.40    5.80   1
  -2  -1   1  208.00    5.60   1
   2   1   0   11.20    0.80   1
  -2  -1   0   10.40    0.70   1
   2   1   1  153.00    3.70   1
  -2  -1  -1  156.40    3.70   1
   2   1   2    1.80    0.60   1
  -2  -1  -2   -0.50    0.60   1
   2   1   3    4.60    0.90   1
  -2  -1  -3    5.40    0.80   1
   2   1   4  137.60    4.60   1
  -2  -1  -4  141.60    4.00   1
   2   1   5   77.80    3.20   1
  -2  -1  -5   76.40    2.50   1
   2   1   6    2.70    2.20   1
  -2  -1  -6    6.30    1.30   1
   2   1   7  633.80   26.40   1
  -2  -1  -7  640.50   17.10   1
   2   1   8  417.00   20.60   1
  -2  -1  -8  384.10   11.10   1
   2   1   9  322.20   14.80   1
  -2  -1  -9  318.40    9.90   1
   2   1  10  902.70   35.20   1
  -2  -1 -10  877.50   24.80   1
   2   1  11  108.00    7.00   1
  -2  -1 -11  109.20    4.80   1
   2   1  12   46.90    4.50   1
  -2  -1 -12   45.00    3.20   1
   2   1  13  263.50    9.60   1
  -2  -1 -13  256.20   10.60   1
   2   1  14   37.60    2.50   1
  -2  -1 -14   31.30    2.90   1
   2   1  15   37.70    3.00   1
  -2  -1 -15   32.60    3.10   1
   2   1  16   10.90    2.00   1
  -2  -1 -16   10.80    2.30   1
  -2  -1 -17   13.30    2.60   1
   2   2 -19  162.70   13.50   1
  -2  -2  19  154.60   10.60   1
   2   2 -18   14.60    3.90   1
  -2  -2  18   13.70    3.00   1
   2   2 -17    0.30    1.90   1
  -2  -2  17   -2.10    2.00   1
   2   2 -16   61.00    5.60   1
  -2  -2  16   72.30    5.50   1
   2   2 -15  144.70    6.50   1
  -2  -2  15  147.00    9.40   1
   2   2 -14   27.80    2.00   1
  -2  -2  14   29.10    2.80   1
   2   2 -13   64.60    3.10   1
  -2  -2  13   62.90    4.70   1
   2   2 -12  136.20    5.30   1
  -2  -2  12  146.60    7.20   1
   2   2 -11   13.90    1.30   1
  -2  -2  11   13.20    1.80   1
   2   2 -10  858.00   22.80   1
  -2  -2  10  829.30   32.40   1
   2   2  -9   29.60    1.70   1
  -2  -2   9   30.10    2.10   1
   2   2  -8    6.30    1.20   1
  -2  -2   8    5.80    1.10   1
   2   2  -7  950.60   24.00   1
  -2  -2   7  960.70   25.00   1
   2   2  -6   31.40    1.60   1
  -2  -2   6   28.40    1.40   1
   2   2  -5  974.00   24.20   1
  -2  -2   5  981.50   24.00   1
   2   2  -4   67.40    2.60   1
  -2  -2   4   71.80    3.80   1
   2   2  -3  190.30    8.00   1
  -2  -2   3  197.10    8.20   1
   2   2  -2  220.10    6.70   1
  -2  -2   2  209.80    5.70   1
   2   2  -1   48.70    1.50   1
  -2  -2   1   44.50    1.60   1
   2   2   0   27.60    1.10   1
  -2  -2   0   27.00    1.20   1
   2   2   1 2128.00   41.20   1
  -2  -2  -1 2147.80   41.00   1
   2   2   2  124.70    3.40   1
  -2  -2  -2  127.70    3.30   1
   2   2   3  824.00   21.90   1
  -2  -2  -3  845.70   17.40   1
   2   2   4  213.60    6.90   1
  -2  -2  -4  208.30    5.30   1
   2   2   5   18.80    1.50   1
  -2  -2  -5   20.60    1.20   1
   2   2   6  168.00    5.60   1
  -2  -2  -6  163.40    4.60   1
   2   2   7   95.90    4.00   1
  -2  -2  -7   96.40    3.10   1
   2   2   8  121.50    4.80   1
  -2  -2  -8  120.20    3.70   1
   2   2   9   50.00    4.80   1
  -2  -2  -9   49.30    2.30   1
   2   2  10   38.60    3.60   1
  -2  -2 -10   36.40    2.30   1
   2   2  11   10.80    2.80   1
  -2  -2 -11   10.20    1.50   1
   2   2  12   47.30    4.70   1
  -2  -2 -12   50.30    2.70   1
   2   2  13    0.90    2.50   1
  -2  -2 -13    0.20    1.40   1
   2   2  14   13.10    1.80   1
  -2  -2 -14   12.50    2.00   1
   2   2  15  154.30    9.20   1
  -2  -2 -15  156.40    7.60   1
   2   2  16   21.30    3.00   1
  -2  -2 -16   18.40    3.30   1
   2   3 -18   -0.10    2.30   1
  -2  -3  18   -0.90    2.30   1
   2   3 -17   81.90    7.80   1
  -2  -3  17   92.50    7.90   1
   2   3 -16  138.90    5.60   1
  -2  -3  16  126.20    9.40   1
   2   3 -15   80.60    3.90   1
  -2  -3  15   81.50    5.90   1
   2   3 -14  417.00   15.00   1
  -2  -3  14  407.00   18.60   1
   2   3 -13   41.30    2.40   1
  -2  -3  13   39.50    3.10   1
   2   3 -12  503.80   14.90   1
  -2  -3  12  506.70   20.90   1
   2   3 -11  781.40   21.80   1
  -2  -3  11  761.50   28.60   1
   2   3 -10   55.30    2.50   1
  -2  -3  10   59.20    3.60   1
   2   3  -9   87.20    3.20   1
  -2  -3   9   90.10    4.80   1
   2   3  -8   63.80    2.60   1
  -2  -3   8   59.00    2.30   1
   2   3  -7  235.30    6.90   1
  -2  -3   7  233.80    6.90   1
   2   3  -6   29.00    1.60   1
  -2  -3   6   27.60    2.20   1
   2   3  -5  344.20    9.60   1
  -2  -3   5  353.90   13.60   1
   2   3  -4  384.90   15.20   1
  -2  -3   4  384.60   14.80   1
   2   3  -3   48.40    2.30   1
  -2  -3   3   47.80    3.30   1
   2   3  -2  921.80   24.00   1
  -2  -3   2  925.00   34.40   1
   2   3  -1  414.00    9.10   1
  -2  -3   1  409.50   10.40   1
   2   3   0  134.00    3.60   1
  -2  -3   0  136.30    3.50   1
   2   3   1   46.40    1.60   1
  -2  -3  -1   45.50    1.70   1
   2   3   2  730.20   15.50   1
  -2  -3  -2  733.90   15.90   1
   2   3   3  558.90   12.60   1
  -2  -3  -3  555.00   12.00   1
   2   3   4  299.50    9.20   1
  -2  -3  -4  298.00    7.50   1
   2   3   5   94.90    3.80   1
  -2  -3  -5   93.10    3.10   1
   2   3   6    1.80    1.30   1
  -2  -3  -6    2.60    1.00   1
   2   3   7   24.10    1.80   1
  -2  -3  -7   20.50    1.60   1
   2   3   8  900.60   25.80   1
  -2  -3  -8  895.50   19.80   1
   2   3   9    5.60    1.50   1
  -2  -3  -9    6.80    1.80   1
   2   3  10   91.20    4.20   1
  -2  -3 -10   96.90    3.80   1
   2   3  11    7.60    2.50   1
  -2  -3 -11    8.80    1.90   1
   2   3  12   92.10    7.60   1
  -2  -3 -12   75.70    3.90   1
   2   3  13   47.80    5.30   1
  -2  -3 -13   45.20    2.90   1
   2   3  14    2.80    2.60   1
  -2  -3 -14    6.30    1.80   1
   2   3  15    1.20    2.60   1
  -2  -3 -15    2.30    1.90   1
   2   4 -18   51.20    5.90   1
  -2  -4  18   68.50    5.20   1
   2   4 -17   31.10    2.60   1
  -2  -4  17   30.90    3.40   1
   2   4 -16    7.20    1.30   1
  -2  -4  16    5.80    1.60   1
   2   4 -15  136.90    6.30   1
  -2  -4  15  141.60    9.40   1
   2   4 -14   64.90    3.40   1
  -2  -4  14   69.20    4.80   1
   2   4 -13   88.00    4.10   1
  -2  -4  13   95.40    5.40   1
   2   4 -12   85.30    3.70   1
  -2  -4  12   77.80    4.10   1
   2   4 -11   46.30    2.60   1
  -2  -4  11   51.90    3.10   1
   2   4 -10   49.00    2.60   1
  -2  -4  10   53.80    2.90   1
   2   4  -9  606.40   17.00   1
  -2  -4   9  624.20   22.10   1
   2   4  -8   79.50    3.60   1
  -2  -4   8   80.70    5.10   1
   2   4  -7  128.50    4.70   1
  -2  -4   7  134.00    7.30   1
   2   4  -6  220.40   10.10   1
  -2  -4   6  253.60   10.40   1
   2   4  -5   53.10    2.30   1
  -2  -4   5   58.20    3.90   1
   2   4  -4  181.90    8.00   1
  -2  -4   4  174.30    7.90   1
   2   4  -3  228.10    6.80   1
  -2  -4   3  224.60   10.00   1
   2   4  -2   19.50    0.80   1
  -2  -4   2   16.60    2.90   1
   2   4  -1   12.40    0.90   1
  -2  -4   1   13.00    2.10   1
   2   4   0  164.70    4.20   1
  -2  -4   0  157.80    5.40   1
   2   4   1    2.60    0.80   1
  -2  -4  -1    3.20    1.10   1
   2   4   2   12.40    1.00   1
  -2  -4  -2   15.20    1.30   1
   2   4   3    6.90    1.00   1
  -2  -4  -3    6.40    1.30   1
   2   4   4   31.70    1.80   1
  -2  -4  -4   29.20    1.70   1
   2   4   5  254.90    9.30   1
  -2  -4  -5  260.80    7.10   1
   2   4   6   11.30    1.80   1
  -2  -4  -6    9.60    1.70   1
   2   4   7   72.10    3.60   1
  -2  -4  -7   74.90    2.90   1
   2   4   8   25.30    2.30   1
  -2  -4  -8   23.80    2.00   1
   2   4   9    2.40    1.90   1
  -2  -4  -9    3.20    1.30   1
   2   4  10  273.90   11.10   1
  -2  -4 -10  257.00    8.70   1
   2   4  11   40.70    3.10   1
  -2  -4 -11   39.40    2.70   1
   2   4  12   52.50    5.60   1
  -2  -4 -12   46.80    3.00   1
   2   4  13   60.60    6.30   1
  -2  -4 -13   51.70    3.80   1
  -2  -4 -14    0.80    1.80   1
   2   5 -17    3.00    4.10   1
  -2  -5  17    2.20    1.90   1
   2   5 -16   31.40    2.50   1
  -2  -5  16   34.60    3.40   1
   2   5 -15   16.70    1.90   1
  -2  -5  15   17.00    2.40   1
   2   5 -14   14.60    1.70   1
  -2  -5  14   16.10    1.90   1
   2   5 -13   96.00    5.00   1
  -2  -5  13  113.00    6.00   1
   2   5 -12   33.00    2.30   1
   2   5 -11  178.00    7.00   1
   2   5 -10   98.30    4.40   1
   2   5  -9  150.50    5.90   1
  -2  -5   9  145.60    8.10   1
   2   5  -8    0.90    1.20   1
  -2  -5   8    1.00    2.10   1
   2   5  -7  332.80   10.10   1
  -2  -5   7  320.70   15.10   1
   2   5  -6    6.60    1.60   1
  -2  -5   6    5.10    2.90   1
   2   5  -5  360.20   12.50   1
  -2  -5   5  338.00   15.60   1
   2   5  -4  636.40   18.00   1
  -2  -5   4  637.40   23.90   1
   2   5  -3    6.40    1.80   1
  -2  -5   3    7.60    2.60   1
   2   5  -2 1274.70   26.00   1
  -2  -5   2 1302.90   47.40   1
   2   5  -1  190.80    4.90   1
  -2  -5   1  194.00    9.40   1
   2   5   0  262.10    6.80   1
  -2  -5   0  272.80    8.50   1
   2   5   1  179.80    5.10   1
  -2  -5  -1  181.70    5.90   1
   2   5   2   68.90    2.60   1
  -2  -5  -2   68.50    3.40   1
   2   5   3    6.70    1.10   1
  -2  -5  -3    5.60    1.40   1
   2   5   4    0.80    0.90   1
  -2  -5  -4    2.20    1.30   1
   2   5   5   -1.80    1.10   1
  -2  -5  -5    0.70    1.30   1
   2   5   6   30.60    2.10   1
  -2  -5  -6   33.10    2.50   1
   2   5   7   74.50    3.70   1
  -2  -5  -7   63.80    3.70   1
   2   5   8    9.20    1.80   1
  -2  -5  -8   11.10    1.40   1
   2   5   9   37.20    3.10   1
  -2  -5  -9   38.00    2.60   1
   2   5  10    1.30    1.50   1
  -2  -5 -10    2.50    1.90   1
   2   5  11   -1.20    1.80   1
  -2  -5 -11   -0.50    1.70   1
   2   5  12    1.40    2.00   1
  -2  -5 -12    1.50    2.00   1
  -2  -5 -13   -0.70    2.60   1
   2   6 -16    1.20    3.00   1
   2   6 -15   40.20    3.20   1
   2   6 -14  180.80    8.90   1
   2   6 -13    0.10    1.50   1
   2   6 -12   30.30    2.60   1
   2   6 -11  273.70   11.20   1
   2   6 -10   64.80    2.90   1
   2   6  -9  349.50   10.10   1
  -2  -6   9  329.70   18.20   1
   2   6  -8   98.70    3.60   1
  -2  -6   8  100.00    7.30   1
   2   6  -7   53.00    3.20   1
  -2  -6   7   51.80    5.10   1
   2   6  -6  257.40    9.30   1
  -2  -6   6  259.20   13.00   1
   2   6  -5  139.60    5.70   1
  -2  -6   5  126.40    7.90   1
   2   6  -4   25.60    2.10   1
  -2  -6   4   23.90    3.20   1
   2   6  -3   47.70    2.90   1
  -2  -6   3   41.40    3.60   1
   2   6  -2  268.20    7.10   1
  -2  -6   2  269.30   14.00   1
   2   6  -1   83.80    3.00   1
  -2  -6   1   86.80    5.40   1
   2   6   0   74.80    2.70   1
  -2  -6   0   69.60    5.20   1
   2   6   1  165.90    4.90   1
  -2  -6  -1  163.70    6.50   1
   2   6   2    1.50    0.90   1
  -2  -6  -2    0.10    1.60   1
   2   6   3  193.70    5.60   1
  -2  -6  -3  193.10    7.60   1
   2   6   4    1.90    1.00   1
  -2  -6  -4    0.30    1.90   1
   2   6   5   94.70    4.50   1
  -2  -6  -5  108.80    5.60   1
   2   6   6   56.30    3.40   1
  -2  -6  -6   51.20    3.60   1
   2   6   7    1.60    1.50   1
  -2  -6  -7    0.30    1.70   1
   2   6   8    5.90    1.60   1
  -2  -6  -8    5.60    2.10   1
   2   6   9   -1.30    1.80   1
  -2  -6  -9    0.50    2.00   1
   2   6  10    1.10    2.00   1
  -2  -6 -10   -0.50    2.00   1
   2   6  11   19.60    3.20   1
  -2  -6 -11   20.70    2.80   1
   2   7 -14    6.20    3.00   1
   2   7 -13    4.40    1.60   1
   2   7 -12  141.70    6.40   1
   2   7 -11   18.60    2.10   1
   2   7 -10  175.40    6.80   1
   2   7  -9   72.20    3.50   1
  -2  -7   9   67.60    6.70   1
   2   7  -8    1.40    2.00   1
  -2  -7   8    0.30    2.20   1
   2   7  -7   64.50    3.80   1
  -2  -7   7   56.30    5.60   1
   2   7  -6   46.80    3.20   1
  -2  -7   6   52.50    5.60   1
   2   7  -5   24.20    2.30   1
  -2  -7   5   24.90    4.00   1
   2   7  -4  160.50    7.00   1
  -2  -7   4  147.80    9.60   1
   2   7  -3   82.10    4.50   1
  -2  -7   3   82.50    6.40   1
   2   7  -2    4.30    0.50   1
  -2  -7   2    6.80    2.60   1
   2   7  -1   68.00    2.70   1
  -2  -7   1   52.60    5.10   1
   2   7   0   71.00    2.80   1
  -2  -7   0   68.40    5.70   1
   2   7   1    4.20    1.10   1
  -2  -7  -1    6.50    3.20   1
   2   7   2   22.30    1.70   1
  -2  -7  -2   18.90    2.30   1
   2   7   3  128.20    5.10   1
  -2  -7  -3  146.30    7.20   1
   2   7   4   18.30    1.80   1
  -2  -7  -4   24.20    2.60   1
   2   7   5   48.70    3.30   1
  -2  -7  -5   54.10    3.90   1
   2   7   6    1.00    1.40   1
  -2  -7  -6    3.90    2.00   1
   2   7   7   16.90    2.30   1
  -2  -7  -7    8.00    2.10   1
   2   7   8   91.90    6.30   1
  -2  -7  -8   97.70    6.20   1
   2   7   9    9.60    2.10   1
  -2  -7  -9   14.20    5.40   1
   2   8 -11    4.90    1.60   1
   2   8 -10   22.00    2.40   1
   2   8  -9    5.00    1.80   1
   2   8  -8  102.90    6.40   1
  -2  -8   8  113.30    8.80   1
   2   8  -7   77.10    5.00   1
  -2  -8   7   76.80    7.80   1
   2   8  -6   11.30    2.20   1
  -2  -8   6    6.20    3.00   1
   2   8  -5  212.70   10.00   1
  -2  -8   5  191.10   13.60   1
   2   8  -4  161.70    7.60   1
  -2  -8   4  171.70   12.00   1
   2   8  -3    9.80    2.10   1
  -2  -8   3   14.50    4.00   1
   2   8  -2  156.00    7.60   1
  -2  -8   2  156.60   11.40   1
   2   8  -1   43.90    2.10   1
  -2  -8   1   36.80    5.50   1
   2   8   0    9.90    1.20   1
  -2  -8   0   10.80    3.30   1
   2   8   1  151.00    6.60   1
  -2  -8  -1  145.80   12.50   1
   2   8   2   20.40    1.80   1
  -2  -8  -2   26.30    4.50   1
   2   8   3   45.30    2.90   1
  -2  -8  -3   41.00    4.20   1
   2   8   4   21.80    2.00   1
  -2  -8  -4   22.20    2.80   1
   2   8   5    6.40    1.90   1
  -2  -8  -5    9.30    2.70   1
   2   8   6    9.30    2.00   1
  -2  -8  -6   16.10    4.50   1
   2   9  -7   15.10    3.00   1
   2   9  -6   10.40    2.50   1
   2   9  -5   41.60    3.90   1
   2   9  -4   -3.50    1.90   1
   2   9  -3   61.20    5.10   1
   2   9  -2   61.70    5.20   1
   2   9  -1   13.70    3.10   1
   2   9   0   21.00    2.80   1
   2   9   1    5.50    2.20   1
  -3  10   3    5.70    1.30   1
  -3  10   2    1.80    1.30   1
  -3  10   1    7.80    1.80   1
  -3  10   0    7.40    1.50   1
  -3  10  -1    0.10    1.70   1
  -3  10  -2   11.50    1.50   1
  -3  10  -3   14.30    1.80   1
  -3  10  -4    1.50    1.20   1
  -3   9   8    1.40    2.00   1
   3  -9  -7   12.20    2.20   1
  -3   9   7   10.40    2.10   1
   3  -9  -6   32.90    3.80   1
  -3   9   6   35.60    3.00   1
   3  -9  -5    4.20    1.70   1
  -3   9   5    5.20    1.10   1
   3  -9  -4   42.40    3.40   1
  -3   9   4   42.20    2.50   1
   3  -9  -3    0.40    2.70   1
  -3   9   3    0.10    1.30   1
   3  -9  -2   14.40    4.40   1
  -3   9   2   17.10    1.70   1
  -3   9   1    6.40    1.40   1
  -3   9   0   87.40    3.90   1
  -3   9  -1   20.60    1.90   1
  -3   9  -2    2.70    1.50   1
  -3   9  -3    0.60    1.00   1
  -3   9  -4   17.40    1.70   1
  -3   9  -5    1.20    1.00   1
  -3   9  -6   73.60    3.30   1
  -3   9  -7   15.40    1.50   1
  -3   9  -8    0.10    1.10   1
  -3   9  -9   10.60    1.80   1
  -3   8  11   25.80    3.50   1
   3  -8 -10   10.90    1.60   1
  -3   8  10   13.30    2.10   1
   3  -8  -9    2.40    1.40   1
  -3   8   9    1.90    1.80   1
   3  -8  -8   24.60    2.40   1
  -3   8   8   22.00    2.30   1
   3  -8  -7   61.10    3.80   1
  -3   8   7   59.60    3.80   1
   3  -8  -6   -0.80    1.40   1
  -3   8   6   -2.70    1.60   1
   3  -8  -5    3.70    1.40   1
  -3   8   5    2.70    1.20   1
   3  -8  -4   56.70    3.30   1
  -3   8   4   57.80    2.80   1
   3  -8  -3   14.70    2.80   1
  -3   8   3   10.70    1.40   1
   3  -8  -2  257.90   15.20   1
  -3   8   2  244.90    8.40   1
   3  -8  -1   -1.80    2.10   1
  -3   8   1   -0.70    1.10   1
  -3   8   0    0.90    1.00   1
  -3   8  -1   78.20    3.20   1
  -3   8  -2   48.80    2.70   1
  -3   8  -3   99.80    3.50   1
  -3   8  -4    8.90    1.10   1
  -3   8  -5    3.60    1.10   1
  -3   8  -6   19.40    1.50   1
  -3   8  -7    1.30    1.00   1
  -3   8  -8   56.60    2.60   1
  -3   8  -9   11.80    1.20   1
  -3   8 -10    2.60    1.40   1
  -3   8 -11    9.10    1.80   1
  -3   7  13    6.30    2.40   1
   3  -7 -12   48.50    4.30   1
  -3   7  12   47.20    4.10   1
   3  -7 -11   30.20    2.70   1
  -3   7  11   29.50    2.80   1
   3  -7 -10    4.70    1.40   1
  -3   7  10    7.30    1.80   1
   3  -7  -9   74.20    4.00   1
  -3   7   9   70.20    3.80   1
   3  -7  -8   76.20    3.70   1
  -3   7   8   78.10    4.00   1
   3  -7  -7   42.20    2.70   1
  -3   7   7   41.20    2.60   1
   3  -7  -6   65.70    3.40   1
  -3   7   6   65.40    4.30   1
   3  -7  -5   75.90    3.50   1
  -3   7   5   75.90    3.00   1
   3  -7  -4   39.30    2.30   1
  -3   7   4   46.80    2.30   1
   3  -7  -3  360.10   17.50   1
  -3   7   3  353.10    9.90   1
   3  -7  -2    8.20    2.30   1
  -3   7   2    9.80    1.30   1
   3  -7  -1    8.80    2.30   1
  -3   7   1    9.90    1.30   1
  -3   7   0  157.70    5.00   1
  -3   7  -1    8.80    1.10   1
  -3   7  -2   16.20    1.40   1
  -3   7  -3    0.10    0.80   1
  -3   7  -4  106.60    3.20   1
  -3   7  -5    3.00    0.90   1
  -3   7  -6   42.20    1.90   1
  -3   7  -7    0.10    0.60   1
  -3   7  -8    5.80    0.90   1
  -3   7  -9   48.70    2.00   1
  -3   7 -10    1.30    1.30   1
  -3   7 -11    9.80    1.50   1
  -3   7 -12   26.70    2.60   1
  -3   7 -13    4.00    1.80   1
  -3   6  15    5.30    3.20   1
   3  -6 -14    2.30    1.30   1
  -3   6  14    4.80    2.90   1
   3  -6 -13  156.50    8.00   1
  -3   6  13  156.10    7.30   1
   3  -6 -12  114.70    5.90   1
  -3   6  12  117.10    5.10   1
   3  -6 -11   37.80    2.40   1
  -3   6  11   32.20    2.40   1
   3  -6 -10   36.00    2.40   1
  -3   6  10   34.20    2.40   1
   3  -6  -9  116.00    5.20   1
  -3   6   9  127.30    4.80   1
   3  -6  -8    9.50    1.20   1
  -3   6   8    7.70    1.50   1
   3  -6  -7  206.80    7.00   1
  -3   6   7  188.10    6.60   1
   3  -6  -6  181.80    6.30   1
  -3   6   6  175.30    7.10   1
   3  -6  -5    2.60    0.90   1
  -3   6   5    1.90    0.90   1
   3  -6  -4  156.10    5.40   1
  -3   6   4  153.50    4.20   1
   3  -6  -3  163.20    8.10   1
  -3   6   3  166.30    4.60   1
   3  -6  -2   73.50    4.60   1
  -3   6   2   69.90    2.50   1
   3  -6  -1  398.80   16.40   1
  -3   6   1  417.10    9.80   1
   3  -6   0   12.10    2.40   1
  -3   6   0   14.10    1.20   1
  -3   6  -1    7.20    0.90   1
  -3   6  -2   26.20    1.50   1
  -3   6  -3   18.80    1.10   1
  -3   6  -4   31.70    1.40   1
  -3   6  -5    7.70    0.90   1
  -3   6  -6   32.50    1.50   1
  -3   6  -7   44.10    1.80   1
  -3   6  -8   73.50    2.40   1
  -3   6  -9   58.10    2.80   1
  -3   6 -10   73.00    3.40   1
  -3   6 -11    1.90    2.30   1
  -3   6 -12   27.60    2.80   1
  -3   6 -13   36.70    3.50   1
  -3   6 -14   -1.70    1.90   1
   3  -5 -16    8.40    1.80   1
  -3   5  16    9.40    3.20   1
   3  -5 -15    1.20    1.90   1
  -3   5  15    0.50    2.40   1
   3  -5 -14    9.50    1.70   1
  -3   5  14    9.10    2.60   1
   3  -5 -13   22.30    2.10   1
  -3   5  13   28.80    3.40   1
   3  -5 -12   17.70    1.80   1
  -3   5  12   18.50    1.90   1
   3  -5 -11  110.00    4.20   1
  -3   5  11  111.40    4.80   1
   3  -5 -10   87.10    3.80   1
  -3   5  10   85.30    3.70   1
   3  -5  -9   23.50    1.50   1
  -3   5   9   20.40    1.70   1
   3  -5  -8  118.30    4.00   1
  -3   5   8  123.60    4.10   1
   3  -5  -7   50.00    2.00   1
  -3   5   7   48.60    2.80   1
   3  -5  -6  200.70    5.90   1
  -3   5   6  196.40    6.90   1
   3  -5  -5  416.20   11.80   1
  -3   5   5  398.90   11.20   1
   3  -5  -4  108.80    6.40   1
  -3   5   4  115.60    3.20   1
   3  -5  -3  191.40    9.00   1
  -3   5   3  186.30    4.50   1
   3  -5  -2  480.30   19.40   1
  -3   5   2  490.70   10.80   1
   3  -5  -1  548.60   22.10   1
  -3   5   1  511.40   11.30   1
   3  -5   0   10.20    2.20   1
  -3   5   0   14.10    1.00   1
  -3   5  -1  875.80   18.00   1
  -3   5  -2    6.00    0.80   1
  -3   5  -3   86.70    2.30   1
  -3   5  -4  425.20    8.40   1
  -3   5  -5   10.60    0.90   1
  -3   5  -6  303.20    6.80   1
  -3   5  -7    0.20    0.50   1
  -3   5  -8   29.70    2.20   1
  -3   5  -9   97.90    4.60   1
  -3   5 -10   68.00    3.80   1
  -3   5 -11   25.60    2.60   1
  -3   5 -12   12.00    2.00   1
  -3   5 -13    0.90    1.70   1
  -3   5 -14    5.60    2.10   1
  -3   5 -15   11.10    3.10   1
   3  -4 -17   31.00    3.70   1
  -3   4  17   22.80    4.00   1
   3  -4 -16    0.30    1.50   1
  -3   4  16   -0.50    1.90   1
   3  -4 -15   51.70    3.50   1
  -3   4  15   52.60    3.90   1
   3  -4 -14    2.20    1.10   1
  -3   4  14    2.00    1.70   1
   3  -4 -13    4.40    1.10   1
  -3   4  13    2.20    2.30   1
   3  -4 -12  213.50    8.10   1
  -3   4  12  201.70    8.70   1
   3  -4 -11  221.60    7.40   1
  -3   4  11  234.40    7.30   1
   3  -4 -10   51.00    2.20   1
  -3   4  10   54.80    2.60   1
   3  -4  -9  209.80    6.40   1
  -3   4   9  216.40    5.90   1
   3  -4  -8   51.20    1.90   1
  -3   4   8   47.80    2.20   1
   3  -4  -7  390.00   10.20   1
  -3   4   7  376.30   10.50   1
   3  -4  -6  711.20   24.70   1
  -3   4   6  713.40   18.70   1
   3  -4  -5    5.20    1.60   1
  -3   4   5    4.70    1.20   1
   3  -4  -4  192.50    9.10   1
  -3   4   4  182.90    5.40   1
   3  -4  -3  434.30   16.50   1
  -3   4   3  456.30    9.80   1
   3  -4  -2   71.00    3.70   1
  -3   4   2   71.60    2.10   1
   3  -4  -1  302.40   12.30   1
  -3   4   1  301.90    7.00   1
   3  -4   0  660.00   22.70   1
  -3   4   0  695.50   14.60   1
  -3   4  -1  571.50   12.50   1
  -3   4  -2  181.20    4.40   1
  -3   4  -3 1009.00   20.90   1
  -3   4  -4    0.20    0.60   1
  -3   4  -5  110.40    3.00   1
  -3   4  -6  337.60    8.90   1
  -3   4  -7   19.20    2.50   1
  -3   4  -8    9.70    2.20   1
  -3   4  -9    1.40    2.70   1
   3  -4  10  127.20    8.10   1
  -3   4 -10  132.60    8.40   1
   3  -4  11   38.20    3.80   1
  -3   4 -11   25.00    3.90   1
   3  -4  12    8.10    3.10   1
  -3   4 -12   11.80    3.40   1
   3  -4  13   12.00    2.50   1
  -3   4 -13   12.90    3.20   1
   3  -4  14   15.60    3.20   1
  -3   4 -14   10.60    3.10   1
   3  -4  15    5.00    3.80   1
  -3   4 -15   -1.10    4.00   1
  -3   4 -16   38.90    5.30   1
   3  -3 -18   19.20    3.30   1
  -3   3  18   17.50    4.20   1
  -3   3  17    6.70    2.30   1
   3  -3 -16  107.10    9.80   1
  -3   3  16  102.90    6.00   1
   3  -3 -15   44.60    4.80   1
  -3   3  15   52.00    3.80   1
   3  -3 -14    7.40    2.50   1
  -3   3  14    1.20    1.70   1
   3  -3 -13  139.80    9.60   1
  -3   3  13  166.30    6.80   1
   3  -3 -12   25.40    3.10   1
  -3   3  12   24.60    2.20   1
   3  -3 -11   -1.30    1.80   1
  -3   3  11    2.90    1.50   1
   3  -3 -10  170.30    5.90   1
  -3   3  10  161.10    6.20   1
   3  -3  -9  178.50    5.50   1
  -3   3   9  182.10    5.10   1
   3  -3  -8  187.50    5.20   1
  -3   3   8  193.40    5.10   1
   3  -3  -7  508.40   12.80   1
  -3   3   7  523.20   13.80   1
   3  -3  -6   82.60    4.40   1
  -3   3   6   86.70    3.30   1
   3  -3  -5   43.50    2.10   1
  -3   3   5   47.50    2.30   1
   3  -3  -4  944.80   22.90   1
  -3   3   4  941.00   24.60   1
   3  -3  -3  414.20   11.20   1
  -3   3   3  427.10   12.40   1
   3  -3  -2  204.50    5.80   1
  -3   3   2  208.80    4.80   1
   3  -3  -1  192.40    5.30   1
  -3   3   1  201.20    4.70   1
   3  -3   0  461.00   11.50   1
  -3   3   0  480.40   12.90   1
   3  -3   1  126.30    5.50   1
  -3   3  -1  141.30    4.50   1
   3  -3   2  173.30    7.00   1
  -3   3  -2  185.40    4.60   1
   3  -3   3  221.90    9.10   1
  -3   3  -3  230.90    5.40   1
   3  -3   4  189.00    7.60   1
  -3   3  -4  186.50    5.40   1
   3  -3   5  889.90   29.80   1
  -3   3  -5  939.20   22.50   1
  -3   3  -6   17.60    2.20   1
   3  -3   7  396.70   17.30   1
  -3   3  -7  400.90   16.50   1
   3  -3   8   16.30    2.50   1
  -3   3  -8   11.70    2.50   1
   3  -3   9   14.60    2.20   1
  -3   3  -9   12.60    2.60   1
   3  -3  10  233.90   11.70   1
  -3   3 -10  236.00   11.70   1
   3  -3  11  114.30    7.30   1
  -3   3 -11  126.70    8.00   1
   3  -3  12    7.90    3.20   1
  -3   3 -12   12.70    2.90   1
   3  -3  13   24.50    3.50   1
  -3   3 -13   15.20    4.10   1
   3  -3  14   21.00    3.20   1
  -3   3 -14   21.20    2.60   1
   3  -3  15   25.80    4.10   1
  -3   3 -15   34.90    3.70   1
  -3   3 -16   36.30    3.50   1
   3  -2 -18    1.90    1.90   1
  -3   2  18    1.50    2.70   1
   3  -2 -17    4.20    2.00   1
  -3   2  17    8.10    2.30   1
   3  -2 -16   94.60    5.70   1
  -3   2  16   93.80    5.80   1
   3  -2 -15   -1.10    1.00   1
  -3   2  15    0.00    1.30   1
   3  -2 -14   39.60    2.60   1
  -3   2  14   32.50    2.60   1
   3  -2 -13    2.50    1.20   1
  -3   2  13    2.10    1.30   1
   3  -2 -12   37.70    2.30   1
  -3   2  12   42.40    2.60   1
   3  -2 -11   89.70    4.00   1
  -3   2  11   91.10    4.10   1
   3  -2 -10   26.10    1.60   1
  -3   2  10   27.80    2.00   1
   3  -2  -9    1.90    0.70   1
  -3   2   9    4.60    1.80   1
   3  -2  -8  142.90    3.90   1
  -3   2   8  140.60    5.20   1
   3  -2  -7   14.60    0.80   1
  -3   2   7   15.90    2.50   1
   3  -2  -6  507.40   14.00   1
  -3   2   6  491.10   13.00   1
   3  -2  -5 1216.60   31.40   1
  -3   2   5 1241.70   30.60   1
   3  -2  -4  798.40   19.70   1
  -3   2   4  800.20   20.50   1
   3  -2  -3 1025.30   24.60   1
  -3   2   3 1009.30   19.70   1
   3  -2  -2 1269.80   30.30   1
  -3   2   2 1266.70   24.90   1
   3  -2  -1    1.40    0.60   1
  -3   2   1    1.40    0.50   1
   3  -2   0 1925.40   44.40   1
  -3   2   0 1938.60   45.10   1
   3  -2   1 1339.50   45.60   1
  -3   2  -1 1332.20   26.10   1
   3  -2   2    8.60    1.10   1
  -3   2  -2    9.60    0.70   1
   3  -2   3  552.00   20.70   1
  -3   2  -3  535.20   13.60   1
   3  -2   4  941.00   23.30   1
  -3   2  -4  879.80   29.40   1
   3  -2   5    4.30    0.70   1
  -3   2  -5    3.40    1.70   1
   3  -2   6  183.00    5.50   1
  -3   2  -6  181.50    8.00   1
   3  -2   7  536.20   13.60   1
  -3   2  -7  536.60   19.70   1
   3  -2   8    0.70    0.50   1
  -3   2  -8    2.90    2.90   1
   3  -2   9  246.00    6.80   1
  -3   2  -9  258.50   12.40   1
   3  -2  10    6.80    2.30   1
  -3   2 -10    5.10    2.00   1
   3  -2  11    3.30    2.30   1
  -3   2 -11    2.70    1.20   1
   3  -2  12   79.40    6.20   1
  -3   2 -12   85.90    4.40   1
   3  -2  13   40.50    5.00   1
  -3   2 -13   30.40    2.60   1
   3  -2  14   42.90    5.40   1
  -3   2 -14   36.80    3.40   1
   3  -2  15    8.00    4.20   1
  -3   2 -15    9.10    2.00   1
  -3   2 -16    4.70    2.20   1
   3  -1 -19   14.90    3.50   1
  -3   1  19   12.10    3.00   1
   3  -1 -18   29.30    4.00   1
  -3   1  18   33.70    3.00   1
   3  -1 -17    9.80    1.80   1
  -3   1  17   11.10    2.00   1
   3  -1 -16    1.80    1.60   1
  -3   1  16    1.50    1.80   1
   3  -1 -15   13.00    2.00   1
  -3   1  15    6.90    1.50   1
   3  -1 -14  199.80    7.40   1
  -3   1  14  200.40    8.30   1
   3  -1 -13    5.70    1.20   1
  -3   1  13    4.60    1.60   1
   3  -1 -12   82.90    2.90   1
  -3   1  12   82.40    3.90   1
   3  -1 -11   -0.30    0.80   1
  -3   1  11   -0.80    1.10   1
   3  -1 -10   47.20    1.90   1
  -3   1  10   46.80    2.70   1
   3  -1  -9  250.20    6.00   1
  -3   1   9  248.80    7.70   1
   3  -1  -8    0.20    0.70   1
  -3   1   8    0.70    1.00   1
   3  -1  -7  541.00   11.50   1
  -3   1   7  583.70   23.50   1
   3  -1  -6 1124.60   22.80   1
  -3   1   6 1139.40   41.50   1
   3  -1  -5   53.30    1.60   1
  -3   1   5   52.10    2.00   1
   3  -1  -4  562.50   11.50   1
  -3   1   4  576.00   14.50   1
   3  -1  -3 1281.50   25.00   1
  -3   1   3 1315.30   31.20   1
   3  -1  -2   45.30    1.70   1
  -3   1   2   46.30    1.80   1
   3  -1  -1 1388.70   47.40   1
  -3   1   1 1380.90   33.60   1
   3  -1   0  240.70    9.70   1
  -3   1   0  242.00    5.70   1
   3  -1   1   81.80    4.00   1
  -3   1  -1   80.70    2.80   1
   3  -1   2  970.00   34.20   1
  -3   1  -2  953.70   23.20   1
   3  -1   3  264.80    7.10   1
  -3   1  -3  277.90    7.40   1
   3  -1   4   -2.00    0.80   1
  -3   1  -4   -0.50    0.50   1
   3  -1   5  213.00    6.40   1
  -3   1  -5  223.50    6.50   1
   3  -1   6 1938.00   45.40   1
  -3   1  -6 1981.90   65.70   1
   3  -1   7   17.70    1.30   1
  -3   1  -7   18.70    1.60   1
   3  -1   8  174.40    5.80   1
  -3   1  -8  174.30    5.70   1
   3  -1   9  224.70    6.90   1
  -3   1  -9  233.20    8.10   1
   3  -1  10   18.60    1.50   1
  -3   1 -10   23.20    2.20   1
   3  -1  11  165.80    5.40   1
  -3   1 -11  153.50    6.40   1
   3  -1  12    4.70    0.50   1
  -3   1 -12    2.10    1.60   1
   3  -1  13   19.50    1.00   1
  -3   1 -13   17.50    2.40   1
   3  -1  14   19.90    0.80   1
  -3   1 -14   20.50    2.70   1
   3  -1  15   -4.10    3.70   1
  -3   1 -15    1.00    1.80   1
  -3   1 -16   26.80    3.00   1
   3   0 -19    2.90    3.00   1
  -3   0  19    4.60    1.70   1
   3   0 -18    4.30    2.20   1
  -3   0  18    3.20    1.50   1
   3   0 -17    0.20    1.50   1
  -3   0  17    2.90    1.20   1
   3   0 -16   51.20    3.70   1
  -3   0  16   45.20    3.00   1
   3   0 -15   26.40    2.30   1
  -3   0  15   26.10    2.30   1
   3   0 -14    1.10    1.00   1
  -3   0  14    0.70    1.30   1
   3   0 -13   -0.20    0.80   1
  -3   0  13   -0.40    1.00   1
   3   0 -12  200.80    5.70   1
  -3   0  12  206.20    7.20   1
   3   0 -11  133.80    4.20   1
  -3   0  11  149.50    5.80   1
   3   0 -10  543.30   12.40   1
  -3   0  10  540.00   15.40   1
   3   0  -9   25.10    1.70   1
  -3   0   9   21.30    1.60   1
   3   0  -8    5.20    0.90   1
  -3   0   8    4.50    1.10   1
   3   0  -7  802.20   21.20   1
  -3   0   7  842.50   31.40   1
   3   0  -6   10.80    1.10   1
  -3   0   6   10.60    0.90   1
   3   0  -5  260.10    7.80   1
  -3   0   5  272.20    7.40   1
   3   0  -4   68.00    2.40   1
  -3   0   4   66.90    2.70   1
   3   0  -3  179.50    5.10   1
  -3   0   3  179.00    5.30   1
   3   0  -2  212.60    5.90   1
  -3   0   2  215.30    6.80   1
   3   0  -1    1.80    0.40   1
  -3   0   1    0.40    0.70   1
   3   0   0  240.40    9.00   1
  -3   0   0  244.40    7.10   1
   3   0   1  519.30   13.50   1
  -3   0  -1  530.40   11.30   1
   3   0   2  721.70   18.60   1
  -3   0  -2  732.80   15.20   1
   3   0   3   16.60    1.40   1
  -3   0  -3   16.60    1.00   1
   3   0   4 1025.40   25.00   1
  -3   0  -4 1020.60   25.10   1
   3   0   5  178.10    8.00   1
  -3   0  -5  185.70    5.40   1
   3   0   6   15.10    2.10   1
  -3   0  -6   15.10    1.40   1
   3   0   7  334.60   14.00   1
  -3   0  -7  315.20    8.90   1
   3   0   8  273.90   12.40   1
  -3   0  -8  282.40    9.20   1
   3   0   9  182.20    9.10   1
  -3   0  -9  174.50    6.50   1
   3   0  10  466.40   20.40   1
  -3   0 -10  451.10   14.20   1
   3   0  11  137.80    8.60   1
  -3   0 -11  132.40    5.50   1
   3   0  12   95.00    6.80   1
  -3   0 -12   92.20    4.90   1
   3   0  13  177.40   11.20   1
  -3   0 -13  174.80    8.20   1
   3   0  14   20.70    1.80   1
  -3   0 -14   13.70    2.70   1
   3   0  15    7.50    1.00   1
  -3   0 -15    9.70    2.50   1
  -3   0 -16   47.90    4.40   1
   3   1 -19   17.00    4.00   1
  -3  -1  19   16.50    2.00   1
   3   1 -18   27.40    4.30   1
  -3  -1  18   21.20    2.20   1
   3   1 -17   19.50    2.60   1
  -3  -1  17   25.30    2.20   1
   3   1 -16    5.30    1.30   1
  -3  -1  16    4.00    1.40   1
   3   1 -15    6.70    1.30   1
  -3  -1  15    5.60    1.40   1
   3   1 -14   85.30    4.20   1
  -3  -1  14   82.30    4.10   1
   3   1 -13   79.90    3.60   1
  -3  -1  13   80.40    3.90   1
   3   1 -12    2.10    1.00   1
  -3  -1  12   -1.00    1.20   1
   3   1 -11    1.00    1.00   1
  -3  -1  11    0.50    1.00   1
   3   1 -10    2.50    1.10   1
  -3  -1  10    1.10    1.10   1
   3   1  -9   33.90    2.00   1
  -3  -1   9   40.00    2.10   1
   3   1  -8  568.30   15.60   1
  -3  -1   8  567.70   14.50   1
   3   1  -7  151.40    5.10   1
  -3  -1   7  152.20    3.90   1
   3   1  -6  399.60   10.90   1
  -3  -1   6  418.40   11.30   1
   3   1  -5  224.20    7.10   1
  -3  -1   5  223.00    6.30   1
   3   1  -4  101.60    3.80   1
  -3  -1   4  112.10    5.10   1
   3   1  -3  405.40   10.90   1
  -3  -1   3  425.70   16.50   1
   3   1  -2  416.50    8.90   1
  -3  -1   2  404.70   11.30   1
   3   1  -1   24.90    1.10   1
  -3  -1   1   23.50    1.40   1
   3   1   0 1152.40   23.50   1
  -3  -1   0 1133.10   27.60   1
   3   1   1 2057.90   47.60   1
  -3  -1  -1 1970.10   38.10   1
   3   1   2   25.60    1.40   1
  -3  -1  -2   24.30    1.10   1
   3   1   3 1445.20   35.00   1
  -3  -1  -3 1494.70   29.90   1
   3   1   4  294.60    8.60   1
  -3  -1  -4  280.40    6.40   1
   3   1   5  141.20    6.90   1
  -3  -1  -5  139.40    3.80   1
   3   1   6 1041.50   41.50   1
  -3  -1  -6 1008.50   20.90   1
   3   1   7   59.10    3.90   1
  -3  -1  -7   64.70    2.40   1
   3   1   8   44.00    3.60   1
  -3  -1  -8   48.50    2.90   1
   3   1   9   15.20    3.20   1
  -3  -1  -9   13.30    1.60   1
   3   1  10  176.60    9.10   1
  -3  -1 -10  167.50    6.70   1
   3   1  11   35.00    4.50   1
  -3  -1 -11   30.00    2.60   1
   3   1  12   98.30    7.60   1
  -3  -1 -12  116.10    5.80   1
   3   1  13   10.90    3.00   1
  -3  -1 -13    8.80    2.30   1
   3   1  14    0.10    2.50   1
  -3  -1 -14    0.30    1.80   1
   3   1  15   77.30    6.10   1
  -3  -1 -15   73.30    5.30   1
   3   2 -19   18.10    4.30   1
  -3  -2  19   15.60    3.40   1
   3   2 -18   -1.50    3.20   1
  -3  -2  18    6.20    2.50   1
   3   2 -17   46.20    3.10   1
  -3  -2  17   40.20    4.70   1
   3   2 -16   63.30    3.90   1
  -3  -2  16   61.40    5.30   1
   3   2 -15  113.40    5.60   1
  -3  -2  15  122.80    8.50   1
   3   2 -14   11.80    1.60   1
  -3  -2  14   15.20    2.20   1
   3   2 -13    2.00    1.20   1
  -3  -2  13    2.20    2.00   1
   3   2 -12    1.80    1.20   1
  -3  -2  12    2.60    1.70   1
   3   2 -11  147.70    5.40   1
  -3  -2  11  147.70    7.40   1
   3   2 -10  347.20   11.60   1
  -3  -2  10  373.00   15.60   1
   3   2  -9  199.20    7.10   1
  -3  -2   9  194.00    8.50   1
   3   2  -8   62.20    2.80   1
  -3  -2   8   66.00    2.60   1
   3   2  -7    1.60    1.00   1
  -3  -2   7    0.30    1.00   1
   3   2  -6  252.30    7.60   1
  -3  -2   6  258.10    7.20   1
   3   2  -5  272.20    7.90   1
  -3  -2   5  278.50   12.00   1
   3   2  -4   90.70    3.30   1
  -3  -2   4   90.00    3.10   1
   3   2  -3   27.70    1.20   1
  -3  -2   3   26.00    1.10   1
   3   2  -2   16.40    1.00   1
  -3  -2   2   17.50    1.10   1
   3   2  -1  420.20   11.70   1
  -3  -2   1  455.00   12.30   1
   3   2   0  536.40   12.30   1
  -3  -2   0  551.50   15.30   1
   3   2   1   37.90    1.50   1
  -3  -2  -1   38.60    1.60   1
   3   2   2 1065.30   28.10   1
  -3  -2  -2 1082.10   22.20   1
   3   2   3  360.10   10.30   1
  -3  -2  -3  364.70    8.20   1
   3   2   4   20.80    1.50   1
  -3  -2  -4   16.90    1.10   1
   3   2   5  595.70   16.00   1
  -3  -2  -5  608.20   13.40   1
   3   2   6   51.70    2.50   1
  -3  -2  -6   53.10    2.00   1
   3   2   7   67.10    3.10   1
  -3  -2  -7   66.80    2.60   1
   3   2   8   20.90    2.80   1
  -3  -2  -8   13.80    1.40   1
   3   2   9   68.90    4.80   1
  -3  -2  -9   57.60    2.50   1
   3   2  10   52.80    4.70   1
  -3  -2 -10   52.80    2.60   1
   3   2  11  122.00    8.90   1
  -3  -2 -11  116.30    4.60   1
   3   2  12   56.20    5.70   1
  -3  -2 -12   52.30    3.10   1
   3   2  13   16.20    3.60   1
  -3  -2 -13   11.20    1.80   1
  -3  -2 -14  105.90    5.60   1
  -3  -2 -15    0.00    2.40   1
   3   3 -18   51.70    3.70   1
  -3  -3  18   50.40    4.40   1
   3   3 -17   18.10    2.00   1
  -3  -3  17   19.10    3.20   1
   3   3 -16   13.30    1.80   1
  -3  -3  16    9.80    2.50   1
   3   3 -15  102.30    5.50   1
  -3  -3  15  102.60    6.80   1
   3   3 -14    5.50    1.20   1
  -3  -3  14    7.70    2.00   1
   3   3 -13  111.80    4.80   1
  -3  -3  13  108.10    6.40   1
   3   3 -12   12.90    1.40   1
  -3  -3  12   12.40    1.50   1
   3   3 -11    4.00    1.30   1
  -3  -3  11    5.20    1.40   1
   3   3 -10   18.40    1.70   1
  -3  -3  10   20.40    1.70   1
   3   3  -9  242.80    8.30   1
  -3  -3   9  247.40    7.40   1
   3   3  -8    1.10    1.50   1
  -3  -3   8    0.10    0.60   1
   3   3  -7   40.80    2.20   1
  -3  -3   7   41.40    1.60   1
   3   3  -6   71.90    3.30   1
  -3  -3   6   70.40    4.60   1
   3   3  -5    0.70    1.10   1
  -3  -3   5    0.60    2.30   1
   3   3  -4  402.50    9.00   1
  -3  -3   4  379.50   15.70   1
   3   3  -3   22.90    1.50   1
  -3  -3   3   21.00    1.00   1
   3   3  -2  143.80    4.70   1
  -3  -3   2  143.30    4.50   1
   3   3  -1   38.20    1.50   1
  -3  -3   1   33.10    1.80   1
   3   3   0  146.00    3.80   1
  -3  -3   0  152.60    4.90   1
   3   3   1  177.60    5.60   1
  -3  -3  -1  179.10    4.70   1
   3   3   2   31.10    1.50   1
  -3  -3  -2   33.50    1.70   1
   3   3   3  158.70    5.80   1
  -3  -3  -3  162.40    4.70   1
   3   3   4   23.20    1.60   1
  -3  -3  -4   20.70    1.40   1
   3   3   5   14.30    1.60   1
  -3  -3  -5   14.40    1.50   1
   3   3   6   10.60    1.40   1
  -3  -3  -6    7.20    1.20   1
   3   3   7 1104.50   31.10   1
  -3  -3  -7 1101.50   24.90   1
   3   3   8   25.40    2.10   1
  -3  -3  -8   22.50    1.80   1
   3   3   9  123.80    5.70   1
  -3  -3  -9  126.10    4.50   1
   3   3  10  140.50    8.80   1
  -3  -3 -10  154.00    5.50   1
   3   3  11   95.00    7.50   1
  -3  -3 -11   86.30    4.20   1
   3   3  12  166.10   13.60   1
  -3  -3 -12  164.90    7.20   1
   3   3  13   37.50    4.90   1
  -3  -3 -13   46.70    3.40   1
  -3  -3 -14    6.60    2.70   1
   3   4 -17    6.90    1.40   1
  -3  -4  17    8.80    2.30   1
   3   4 -16   46.10    3.50   1
  -3  -4  16   48.50    4.30   1
   3   4 -15    1.00    1.60   1
  -3  -4  15   -0.30    1.10   1
   3   4 -14    3.80    1.50   1
  -3  -4  14    1.20    1.00   1
   3   4 -13    4.20    1.40   1
  -3  -4  13    3.60    1.20   1
   3   4 -12   30.20    2.30   1
  -3  -4  12   32.10    2.20   1
   3   4 -11   21.10    1.90   1
  -3  -4  11   24.70    1.60   1
   3   4 -10    2.00    1.20   1
  -3  -4  10    2.00    0.50   1
   3   4  -9   -2.70    1.30   1
  -3  -4   9    0.60    1.70   1
   3   4  -8    4.80    1.50   1
  -3  -4   8    2.30    2.70   1
   3   4  -7  378.60   11.20   1
  -3  -4   7  365.30   17.30   1
   3   4  -6    4.40    1.20   1
  -3  -4   6    3.80    2.50   1
   3   4  -5   88.00    4.00   1
  -3  -4   5   79.40    5.00   1
   3   4  -4   22.00    1.80   1
  -3  -4   4   22.70    2.50   1
   3   4  -3  203.80    7.30   1
  -3  -4   3  189.70    9.40   1
   3   4  -2  604.10   18.10   1
  -3  -4   2  603.30   24.00   1
   3   4  -1  141.10    3.90   1
  -3  -4   1  149.90    5.00   1
   3   4   0  438.60   10.10   1
  -3  -4   0  447.40   12.80   1
   3   4   1  134.20    4.00   1
  -3  -4  -1  137.10    4.00   1
   3   4   2    0.30    0.90   1
  -3  -4  -2   -0.50    0.90   1
   3   4   3  371.20    9.30   1
  -3  -4  -3  374.10    9.20   1
   3   4   4   17.50    1.40   1
  -3  -4  -4   17.00    1.60   1
   3   4   5   47.00    3.00   1
  -3  -4  -5   48.50    2.30   1
   3   4   6   38.20    2.40   1
  -3  -4  -6   35.30    2.00   1
   3   4   7   32.80    2.40   1
  -3  -4  -7   32.20    2.10   1
   3   4   8   41.70    3.00   1
  -3  -4  -8   42.40    2.60   1
   3   4   9  132.20    6.20   1
  -3  -4  -9  131.80    5.40   1
   3   4  10    1.00    1.70   1
  -3  -4 -10    4.30    1.60   1
   3   4  11   45.50    5.20   1
  -3  -4 -11   43.60    3.10   1
   3   4  12   42.80    5.70   1
  -3  -4 -12   41.50    3.40   1
  -3  -4 -13   11.40    2.40   1
   3   5 -16    8.50    1.90   1
   3   5 -15   11.50    2.00   1
  -3  -5  15   13.00    1.60   1
   3   5 -14   87.00    5.10   1
   3   5 -13   20.10    2.00   1
   3   5 -12  132.60    6.00   1
   3   5 -11   43.90    2.90   1
   3   5 -10    0.70    1.20   1
  -3  -5  10    1.30    2.70   1
   3   5  -9   71.80    3.80   1
  -3  -5   9   65.90    5.50   1
   3   5  -8  126.90    4.30   1
  -3  -5   8  123.10    7.50   1
   3   5  -7   97.20    3.50   1
  -3  -5   7   94.30    5.90   1
   3   5  -6   25.40    1.70   1
  -3  -5   6   22.40    2.90   1
   3   5  -5    1.50    1.30   1
  -3  -5   5    4.40    2.00   1
   3   5  -4    7.30    1.40   1
  -3  -5   4   10.80    3.00   1
   3   5  -3  317.40   10.10   1
  -3  -5   3  332.10   15.30   1
   3   5  -2   71.40    3.40   1
  -3  -5   2   61.90    4.50   1
   3   5  -1    0.20    0.60   1
  -3  -5   1    3.80    2.30   1
   3   5   0    1.50    0.70   1
  -3  -5   0    7.10    2.50   1
   3   5   1   15.20    1.10   1
  -3  -5  -1   16.00    2.40   1
   3   5   2  133.00    4.10   1
  -3  -5  -2  136.10    5.40   1
   3   5   3   17.70    1.50   1
  -3  -5  -3   16.90    1.60   1
   3   5   4   -1.00    1.30   1
  -3  -5  -4    0.80    1.10   1
   3   5   5   56.30    2.80   1
  -3  -5  -5   54.40    2.60   1
   3   5   6   40.40    2.70   1
  -3  -5  -6   36.60    2.30   1
   3   5   7   84.30    4.50   1
  -3  -5  -7   77.00    3.70   1
   3   5   8  104.10    5.90   1
  -3  -5  -8  105.20    5.00   1
   3   5   9    3.10    1.60   1
  -3  -5  -9    2.80    1.50   1
   3   5  10   17.80    2.20   1
  -3  -5 -10   15.40    2.10   1
   3   5  11   14.10    2.60   1
  -3  -5 -11   18.70    3.00   1
   3   6 -15   14.90    2.30   1
   3   6 -14    3.70    2.00   1
   3   6 -13   37.00    3.00   1
   3   6 -12  185.10    9.30   1
   3   6 -11   26.60    2.00   1
   3   6 -10  200.00    7.10   1
  -3  -6  10  186.00   12.60   1
   3   6  -9   71.10    3.30   1
  -3  -6   9   65.20    6.30   1
   3   6  -8    1.00    1.00   1
  -3  -6   8   -2.70    3.00   1
   3   6  -7   47.10    2.50   1
  -3  -6   7   49.00    5.10   1
   3   6  -6   41.70    2.70   1
  -3  -6   6   32.70    4.30   1
   3   6  -5   28.60    2.20   1
  -3  -6   5   30.00    3.80   1
   3   6  -4   95.10    4.50   1
  -3  -6   4   90.00    6.50   1
   3   6  -3   12.10    1.90   1
  -3  -6   3   15.00    2.90   1
   3   6  -2    8.10    1.50   1
  -3  -6   2    8.80    2.50   1
   3   6  -1   87.20    3.00   1
  -3  -6   1   88.40    6.00   1
   3   6   0   19.90    1.30   1
  -3  -6   0   22.00    4.20   1
   3   6   1    0.10    0.70   1
  -3  -6  -1    0.00    2.00   1
   3   6   2    9.20    1.40   1
  -3  -6  -2    8.40    1.90   1
   3   6   3    1.10    1.00   1
  -3  -6  -3    2.50    1.70   1
   3   6   4   68.40    3.60   1
  -3  -6  -4   69.80    4.10   1
   3   6   5    4.10    1.30   1
  -3  -6  -5    0.40    1.60   1
   3   6   6   66.80    4.20   1
  -3  -6  -6   70.80    4.50   1
   3   6   7   15.80    2.00   1
  -3  -6  -7   12.40    2.30   1
   3   6   8    1.10    1.60   1
  -3  -6  -8    2.50    1.80   1
   3   6   9    6.10    2.00   1
  -3  -6  -9    2.50    2.80   1
   3   6  10   98.90    6.60   1
  -3  -6 -10   85.10    7.90   1
   3   7 -13   22.30    2.30   1
   3   7 -12   15.50    2.10   1
   3   7 -11    2.90    1.40   1
   3   7 -10   24.90    2.10   1
  -3  -7  10   23.20    4.30   1
   3   7  -9    6.00    1.50   1
  -3  -7   9    6.20    4.10   1
   3   7  -8   20.80    1.90   1
  -3  -7   8   20.90    3.80   1
   3   7  -7   31.20    2.90   1
  -3  -7   7   31.90    3.90   1
   3   7  -6    6.90    1.90   1
  -3  -7   6    1.90    3.90   1
   3   7  -5   27.10    2.50   1
  -3  -7   5   32.60    4.20   1
   3   7  -4   31.00    2.80   1
  -3  -7   4   30.60    4.20   1
   3   7  -3   61.40    3.90   1
  -3  -7   3   58.80    6.10   1
   3   7  -2  158.80    7.60   1
  -3  -7   2  157.40   10.60   1
   3   7  -1   24.10    1.40   1
  -3  -7   1   19.20    3.80   1
   3   7   0   20.20    1.50   1
  -3  -7   0   23.90    4.20   1
   3   7   1   63.30    3.00   1
  -3  -7  -1   56.90    6.00   1
   3   7   2   28.60    2.00   1
  -3  -7  -2   31.50    4.60   1
   3   7   3   40.10    2.60   1
  -3  -7  -3   42.40    3.40   1
   3   7   4    4.20    1.80   1
  -3  -7  -4   -0.20    1.80   1
   3   7   5    6.20    1.60   1
  -3  -7  -5    4.70    2.30   1
   3   7   6   26.70    2.80   1
  -3  -7  -6   32.80    3.60   1
   3   7   7   -0.90    1.90   1
  -3  -7  -7    4.40    2.80   1
   3   8 -10    6.20    1.80   1
   3   8  -9    1.30    1.80   1
   3   8  -8   25.00    2.70   1
   3   8  -7    2.20    1.90   1
   3   8  -6   67.30    5.30   1
   3   8  -5    2.30    2.00   1
   3   8  -4    6.10    2.00   1
  -3  -8   4    4.20    4.40   1
   3   8  -3   -0.20    2.40   1
  -3  -8   3    2.80    3.00   1
   3   8  -2   28.30    3.20   1
  -3  -8   2   28.30    5.50   1
   3   8  -1    6.30    2.10   1
  -3  -8   1    8.10    3.40   1
   3   8   0   17.60    2.50   1
  -3  -8   0   18.70    4.10   1
   3   8   1    4.20    2.00   1
   3   8   2    2.90    1.10   1
   3   8   3   19.80    2.90   1
   3   8   4    0.10    2.50   1
  -4  10   1   15.50    2.00   1
  -4  10   0    4.00    1.80   1
  -4  10  -1   38.20    2.70   1
  -4   9   8   13.80    2.90   1
  -4   9   7    8.00    2.40   1
   4  -9  -6   -1.90    3.10   1
  -4   9   6    3.80    1.90   1
   4  -9  -5    1.10    4.10   1
  -4   9   5    3.00    1.90   1
   4  -9  -4    5.30    3.20   1
  -4   9   4    6.00    1.30   1
   4  -9  -3   11.60    4.00   1
  -4   9   3    6.30    1.20   1
   4  -9  -2    5.40    3.00   1
  -4   9   2    2.90    1.10   1
  -4   9   1   13.50    1.60   1
  -4   9   0  107.70    4.90   1
  -4   9  -1    6.60    1.40   1
  -4   9  -2   37.50    2.20   1
  -4   9  -3   45.80    2.40   1
  -4   9  -4   16.80    1.60   1
  -4   9  -5  143.30    5.30   1
  -4   9  -6   29.20    2.10   1
  -4   9  -7   -0.60    1.40   1
  -4   8  11    1.70    2.20   1
  -4   8  10    5.60    2.60   1
   4  -8  -9   10.30    3.60   1
  -4   8   9   11.00    2.00   1
   4  -8  -8   20.30    3.60   1
  -4   8   8   22.90    2.40   1
   4  -8  -7    5.90    3.80   1
  -4   8   7    6.90    2.40   1
   4  -8  -6   39.50    4.70   1
  -4   8   6   35.20    3.20   1
   4  -8  -5   -0.20    2.20   1
  -4   8   5    0.70    1.50   1
   4  -8  -4  166.00   11.40   1
  -4   8   4  149.80    5.90   1
   4  -8  -3   13.00    2.80   1
  -4   8   3   10.50    1.20   1
   4  -8  -2  237.40   14.20   1
  -4   8   2  238.80    6.80   1
  -4   8   1   70.30    3.20   1
  -4   8   0    1.00    0.90   1
  -4   8  -1   12.40    1.30   1
  -4   8  -2   35.00    1.80   1
  -4   8  -3   15.80    1.30   1
  -4   8  -4    2.30    0.90   1
  -4   8  -5   25.70    1.70   1
  -4   8  -6   22.40    1.60   1
  -4   8  -7   77.60    3.30   1
  -4   8  -8   28.90    1.80   1
  -4   8  -9    0.40    1.60   1
  -4   8 -10   38.20    3.20   1
  -4   7  13    4.90    2.50   1
  -4   7  12    3.10    2.00   1
   4  -7 -11   17.70    4.00   1
  -4   7  11   15.00    2.30   1
   4  -7 -10   49.40    5.60   1
  -4   7  10   44.60    3.30   1
   4  -7  -9    4.50    2.60   1
  -4   7   9    3.00    2.00   1
   4  -7  -8   17.70    3.60   1
  -4   7   8   15.20    1.80   1
   4  -7  -7   22.00    3.20   1
  -4   7   7   19.20    2.30   1
   4  -7  -6   28.40    3.60   1
  -4   7   6   30.70    2.70   1
   4  -7  -5    4.30    2.10   1
  -4   7   5    1.40    1.40   1
   4  -7  -4   12.20    2.10   1
  -4   7   4   12.50    1.10   1
   4  -7  -3   14.60    2.60   1
  -4   7   3   16.90    1.30   1
   4  -7  -2   29.20    3.30   1
  -4   7   2   27.80    1.60   1
   4  -7  -1   17.70    2.80   1
  -4   7   1   17.00    1.40   1
  -4   7   0   34.30    1.90   1
  -4   7  -1   57.30    2.50   1
  -4   7  -2    2.00    0.80   1
  -4   7  -3   71.30    2.80   1
  -4   7  -4   51.80    2.10   1
  -4   7  -5   26.80    1.40   1
  -4   7  -6   34.80    1.80   1
  -4   7  -7   20.90    1.50   1
  -4   7  -8    0.30    0.60   1
  -4   7  -9  148.40    6.80   1
  -4   7 -10   33.80    2.60   1
  -4   7 -11   10.00    1.70   1
  -4   7 -12   45.90    3.30   1
  -4   6  15   12.40    3.40   1
  -4   6  14   67.80    7.10   1
   4  -6 -13   74.80    2.70   1
  -4   6  13   82.40    4.80   1
   4  -6 -12   75.50    7.50   1
  -4   6  12   84.70    4.70   1
   4  -6 -11    8.80    2.90   1
  -4   6  11    5.10    1.70   1
   4  -6 -10  111.50    8.90   1
  -4   6  10  111.10    4.80   1
   4  -6  -9    1.00    2.30   1
  -4   6   9    0.00    1.20   1
   4  -6  -8   85.80    6.60   1
  -4   6   8   82.00    4.60   1
   4  -6  -7   30.10    3.30   1
  -4   6   7   33.40    2.40   1
   4  -6  -6   42.30    3.80   1
  -4   6   6   45.20    2.80   1
   4  -6  -5   63.20    4.20   1
  -4   6   5   58.60    3.60   1
   4  -6  -4    9.80    2.50   1
  -4   6   4   11.20    0.90   1
   4  -6  -3   78.50    4.80   1
  -4   6   3   80.30    2.80   1
   4  -6  -2   11.70    2.40   1
  -4   6   2   13.30    1.10   1
   4  -6  -1    3.90    1.60   1
  -4   6   1    1.90    0.70   1
  -4   6   0    2.70    0.90   1
  -4   6  -1   17.20    1.20   1
  -4   6  -2   20.50    1.20   1
  -4   6  -3    7.00    0.80   1
  -4   6  -4    3.40    0.80   1
  -4   6  -5  169.20    4.50   1
  -4   6  -6  219.10    5.30   1
  -4   6  -7   11.40    1.00   1
  -4   6  -8  370.20    8.60   1
  -4   6  -9   85.10    3.90   1
  -4   6 -10   78.40    3.70   1
  -4   6 -11  176.00    7.20   1
  -4   6 -12    9.90    2.10   1
  -4   6 -13   12.00    3.00   1
  -4   5  16    0.00    2.60   1
   4  -5 -15    1.80    0.80   1
  -4   5  15    9.00    4.00   1
   4  -5 -14   11.80    1.00   1
  -4   5  14   13.10    2.70   1
   4  -5 -13   67.40    2.50   1
  -4   5  13   63.40    4.40   1
   4  -5 -12   71.70    2.10   1
  -4   5  12   68.40    4.20   1
   4  -5 -11  137.00   10.10   1
  -4   5  11  147.80    5.90   1
   4  -5 -10   40.40    4.10   1
  -4   5  10   44.10    2.60   1
   4  -5  -9  168.40    8.60   1
  -4   5   9  158.50    6.80   1
   4  -5  -8   96.50    6.10   1
  -4   5   8   94.70    4.30   1
   4  -5  -7  122.70    6.70   1
  -4   5   7  131.20    5.70   1
   4  -5  -6   71.30    4.40   1
  -4   5   6   68.20    3.40   1
   4  -5  -5   83.90    4.50   1
  -4   5   5   89.10    3.80   1
   4  -5  -4   24.80    2.80   1
  -4   5   4   19.30    1.70   1
   4  -5  -3  103.30    5.40   1
  -4   5   3   98.00    2.80   1
   4  -5  -2    7.00    2.10   1
  -4   5   2    5.10    0.80   1
   4  -5  -1  249.30   10.30   1
  -4   5   1  258.20    6.40   1
  -4   5   0  104.80    3.10   1
  -4   5  -1  172.90    4.30   1
  -4   5  -2   27.60    1.20   1
  -4   5  -3    1.60    0.70   1
  -4   5  -4   12.80    1.00   1
  -4   5  -5   78.70    2.70   1
  -4   5  -6  101.10    3.30   1
  -4   5  -7   46.90    1.80   1
  -4   5  -8    2.00    1.30   1
  -4   5  -9   71.60    5.60   1
  -4   5 -10  179.70   11.30   1
  -4   5 -11   12.70    4.00   1
  -4   5 -12    1.00    2.50   1
  -4   5 -13   76.70    8.40   1
  -4   5 -14   18.90    4.50   1
   4  -4 -17   11.20    2.20   1
  -4   4  17    6.80    3.20   1
   4  -4 -16   64.20    3.10   1
  -4   4  16   59.10    6.00   1
   4  -4 -15   34.70    1.90   1
  -4   4  15   28.70    3.00   1
   4  -4 -14   72.60    2.80   1
  -4   4  14   67.40    4.90   1
   4  -4 -13  226.00    6.30   1
  -4   4  13  216.70   10.20   1
   4  -4 -12    8.30    0.60   1
  -4   4  12    9.10    2.10   1
   4  -4 -11   25.00    0.80   1
  -4   4  11   19.20    2.20   1
   4  -4 -10   66.70    4.70   1
  -4   4  10   70.10    3.00   1
   4  -4  -9  158.20    8.30   1
  -4   4   9  168.80    6.10   1
   4  -4  -8    2.30    2.20   1
  -4   4   8    2.30    1.20   1
   4  -4  -7   47.50    3.40   1
  -4   4   7   44.70    2.50   1
   4  -4  -6   68.70    4.10   1
  -4   4   6   63.40    3.10   1
   4  -4  -5   15.70    1.90   1
  -4   4   5   17.60    1.70   1
   4  -4  -4  459.20   12.80   1
  -4   4   4  476.70   13.10   1
   4  -4  -3  100.90    3.80   1
  -4   4   3  103.30    2.70   1
   4  -4  -2    4.80    1.10   1
  -4   4   2    6.40    0.70   1
   4  -4  -1  197.90    6.00   1
  -4   4   1  215.60    5.10   1
   4  -4   0   76.50    4.30   1
  -4   4   0   81.00    3.00   1
   4  -4   1  146.90    6.90   1
  -4   4  -1  162.70    5.00   1
   4  -4   2   50.70    3.20   1
  -4   4  -2   48.70    1.70   1
   4  -4   3   58.20    3.60   1
  -4   4  -3   58.10    2.00   1
  -4   4  -4   -0.10    0.70   1
  -4   4  -5   21.90    1.20   1
  -4   4  -6  202.20    5.30   1
  -4   4  -7   85.30    6.00   1
  -4   4  -8  170.00    9.20   1
  -4   4  -9   -0.80    2.20   1
  -4   4 -10    3.20    2.50   1
  -4   4 -11    4.70    2.50   1
   4  -4  12   94.40    7.80   1
  -4   4 -12   90.00    7.10   1
   4  -4  13   -1.90    2.30   1
  -4   4 -13    2.20    3.00   1
  -4   4 -14    2.30    1.70   1
   4  -3 -18    6.30    1.90   1
  -4   3  18    3.80    2.60   1
   4  -3 -17   60.50    4.90   1
  -4   3  17   58.20    4.60   1
   4  -3 -16   25.30    2.40   1
  -4   3  16   21.50    2.90   1
   4  -3 -15   23.40    2.10   1
  -4   3  15   22.90    2.70   1
   4  -3 -14   94.80    4.30   1
  -4   3  14   81.60    5.00   1
   4  -3 -13   95.70    3.90   1
  -4   3  13   91.00    5.20   1
   4  -3 -12    0.80    0.60   1
  -4   3  12    0.20    1.40   1
   4  -3 -11  312.40    7.30   1
  -4   3  11  288.50   10.40   1
   4  -3 -10   41.50    1.30   1
  -4   3  10   37.90    2.60   1
   4  -3  -9  178.30    6.20   1
  -4   3   9  179.80   10.00   1
   4  -3  -8   82.00    3.50   1
  -4   3   8   89.30    5.70   1
   4  -3  -7  195.20    6.30   1
  -4   3   7  197.90    6.60   1
   4  -3  -6  124.40    4.40   1
  -4   3   6  127.30    4.00   1
   4  -3  -5  275.10    8.50   1
  -4   3   5  275.00    7.60   1
   4  -3  -4   11.90    1.40   1
  -4   3   4   11.50    1.30   1
   4  -3  -3   73.30    2.80   1
  -4   3   3   73.80    1.60   1
   4  -3  -2  373.70    9.80   1
  -4   3   2  373.10    8.70   1
   4  -3  -1  358.60    9.40   1
  -4   3   1  358.70   10.30   1
   4  -3   0  110.20    5.70   1
  -4   3   0  108.40    3.50   1
   4  -3   1   64.90    3.60   1
  -4   3  -1   67.40    2.10   1
   4  -3   2    9.30    1.20   1
  -4   3  -2   12.40    0.90   1
   4  -3   3  101.80    4.90   1
  -4   3  -3  100.40    2.70   1
   4  -3   4    9.90    1.30   1
  -4   3  -4   10.60    0.80   1
   4  -3   5  196.70    7.90   1
  -4   3  -5  182.20    8.40   1
   4  -3   6   74.70    3.60   1
  -4   3  -6   64.70    4.20   1
   4  -3   7    2.90    0.70   1
  -4   3  -7    5.40    2.90   1
   4  -3   8   44.20    2.00   1
  -4   3  -8   39.90    4.50   1
   4  -3   9   83.40    5.40   1
  -4   3  -9   91.60    6.20   1
   4  -3  10  103.30    7.30   1
  -4   3 -10   96.70    6.50   1
   4  -3  11  146.00   10.50   1
  -4   3 -11  143.10    6.60   1
   4  -3  12    4.80    3.70   1
  -4   3 -12   11.60    1.90   1
   4  -3  13   18.60    3.80   1
  -4   3 -13   27.90    2.90   1
   4  -3  14   76.80    7.60   1
  -4   3 -14   84.40    5.60   1
  -4   3 -15    4.90    2.10   1
   4  -2 -18   17.50    2.90   1
  -4   2  18   12.90    3.00   1
   4  -2 -17   17.80    2.20   1
  -4   2  17   15.00    2.80   1
   4  -2 -16    8.00    1.80   1
  -4   2  16    9.10    2.30   1
   4  -2 -15   68.50    4.00   1
  -4   2  15   65.20    4.20   1
   4  -2 -14   99.30    4.30   1
  -4   2  14   85.80    4.70   1
   4  -2 -13   27.00    1.90   1
  -4   2  13   30.00    2.60   1
   4  -2 -12  114.60    3.80   1
  -4   2  12  112.30    5.50   1
   4  -2 -11    0.80    0.60   1
  -4   2  11    1.20    1.80   1
   4  -2 -10   71.60    2.50   1
  -4   2  10   68.70    3.50   1
   4  -2  -9  458.70   10.60   1
  -4   2   9  471.40   21.90   1
   4  -2  -8  181.40    4.60   1
  -4   2   8  183.80    9.20   1
   4  -2  -7  441.50    9.40   1
  -4   2   7  434.90   16.10   1
   4  -2  -6  141.40    4.70   1
  -4   2   6  145.00    7.20   1
   4  -2  -5  379.40    9.80   1
  -4   2   5  391.80   16.80   1
   4  -2  -4 4009.80  128.90   1
  -4   2   4 4091.20  132.20   1
   4  -2  -3 1371.20   32.50   1
  -4   2   3 1339.80   32.20   1
   4  -2  -2 1313.10   31.70   1
  -4   2   2 1349.30   26.20   1
   4  -2  -1   96.60    3.00   1
  -4   2   1   95.50    2.50   1
   4  -2   0  235.90   10.40   1
  -4   2   0  241.30    5.70   1
   4  -2   1   16.70    1.80   1
  -4   2  -1   20.20    0.80   1
   4  -2   2   48.90    3.20   1
  -4   2  -2   50.20    1.60   1
   4  -2   3   -1.20    1.30   1
  -4   2  -3    1.10    0.50   1
   4  -2   4  594.30   22.50   1
   4  -2   5  143.00    6.00   1
  -4   2  -5  143.20    7.00   1
   4  -2   6  163.10    5.30   1
  -4   2  -6  158.50    5.80   1
   4  -2   7   40.70    2.00   1
  -4   2  -7   37.10    2.10   1
   4  -2   8   21.60    1.30   1
  -4   2  -8   21.90    1.60   1
   4  -2   9    8.80    1.00   1
  -4   2  -9    8.80    1.50   1
   4  -2  10    3.30    0.70   1
  -4   2 -10    3.30    1.40   1
   4  -2  11    2.20    0.50   1
  -4   2 -11    0.80    1.20   1
   4  -2  12   10.80    3.00   1
  -4   2 -12    9.20    1.90   1
   4  -2  13    4.60    2.50   1
  -4   2 -13    6.20    1.80   1
   4  -2  14   -0.90    3.10   1
  -4   2 -14   -1.30    1.70   1
  -4   2 -15    3.00    2.40   1
   4  -1 -18    7.40    2.30   1
  -4   1  18    5.70    2.10   1
   4  -1 -17   19.50    2.30   1
  -4   1  17   19.90    2.40   1
   4  -1 -16  140.30    7.30   1
  -4   1  16  136.70    6.40   1
   4  -1 -15    3.50    1.60   1
  -4   1  15    4.00    1.70   1
   4  -1 -14   89.30    3.60   1
  -4   1  14   92.90    4.50   1
   4  -1 -13  162.60    5.20   1
  -4   1  13  153.80    6.50   1
   4  -1 -12  102.50    3.30   1
  -4   1  12  103.70    4.30   1
   4  -1 -11  104.10    3.30   1
  -4   1  11  107.10    4.70   1
   4  -1 -10  343.00    8.20   1
  -4   1  10  358.10   11.20   1
   4  -1  -9    3.80    0.90   1
  -4   1   9    2.40    1.90   1
   4  -1  -8  198.30    5.00   1
  -4   1   8  207.50    8.50   1
   4  -1  -7  566.00   12.00   1
  -4   1   7  587.80   22.40   1
   4  -1  -6  100.50    2.80   1
  -4   1   6  103.70    3.40   1
   4  -1  -5   75.70    2.30   1
  -4   1   5   77.20    2.80   1
   4  -1  -4  346.70    7.50   1
  -4   1   4  345.40    9.40   1
   4  -1  -3 1248.30   30.70   1
  -4   1   3 1282.70   30.90   1
   4  -1  -2  253.20    6.60   1
  -4   1   2  267.30    7.40   1
   4  -1  -1  649.30   23.60   1
  -4   1   1  651.70   13.40   1
   4  -1   0   31.20    2.50   1
  -4   1   0   34.60    1.50   1
   4  -1   1   49.90    2.60   1
  -4   1  -1   40.40    2.00   1
   4  -1   2  360.00   13.90   1
  -4   1  -2  365.10   13.10   1
   4  -1   3   55.50    3.50   1
  -4   1  -3   61.60    2.10   1
   4  -1   4  248.60    7.20   1
  -4   1  -4  239.30    6.60   1
   4  -1   5    2.70    0.90   1
  -4   1  -5    3.60    0.70   1
   4  -1   6   10.10    1.40   1
  -4   1  -6   12.50    1.10   1
   4  -1   7   30.80    1.90   1
  -4   1  -7   28.90    2.10   1
   4  -1   8   54.90    2.50   1
  -4   1  -8   57.90    3.00   1
   4  -1   9    6.20    1.10   1
  -4   1  -9    5.40    1.30   1
   4  -1  10    5.90    1.10   1
  -4   1 -10    2.60    1.10   1
   4  -1  11   96.00    3.90   1
  -4   1 -11   98.70    4.70   1
   4  -1  12    2.80    1.00   1
  -4   1 -12    1.90    1.60   1
   4  -1  13   21.50    1.80   1
  -4   1 -13   23.40    2.70   1
   4  -1  14    3.90    0.50   1
  -4   1 -14    3.60    1.60   1
  -4   1 -15   34.40    3.60   1
   4   0 -19   13.50    3.30   1
  -4   0  19   15.20    2.20   1
   4   0 -18    8.80    2.80   1
  -4   0  18   12.90    2.10   1
   4   0 -17   19.20    2.40   1
  -4   0  17   18.20    2.50   1
   4   0 -16   16.00    1.70   1
  -4   0  16   15.50    2.00   1
   4   0 -15   -0.20    1.10   1
  -4   0  15    2.50    1.80   1
   4   0 -14  401.50   12.20   1
  -4   0  14  388.00   14.70   1
   4   0 -13   49.20    2.30   1
  -4   0  13   47.40    3.00   1
   4   0 -12   93.00    3.30   1
  -4   0  12   88.10    4.20   1
   4   0 -11  104.80    3.30   1
  -4   0  11  104.60    4.40   1
   4   0 -10   19.70    1.30   1
  -4   0  10   18.10    1.80   1
   4   0  -9  398.40    9.60   1
  -4   0   9  397.30   12.60   1
   4   0  -8  472.30   13.50   1
  -4   0   8  498.30   13.40   1
   4   0  -7   27.10    1.70   1
  -4   0   7   23.30    1.60   1
   4   0  -6  132.70    4.50   1
  -4   0   6  133.90    4.20   1
   4   0  -5  200.40    6.00   1
  -4   0   5  210.40    6.70   1
   4   0  -4   56.80    2.50   1
  -4   0   4   59.80    2.40   1
   4   0  -3  429.90   11.90   1
  -4   0   3  426.80   11.10   1
   4   0  -2  471.60   10.00   1
  -4   0   2  474.20   10.40   1
   4   0  -1  282.90   11.20   1
  -4   0   1  282.20    8.40   1
   4   0   0   25.90    2.10   1
  -4   0   0   29.20    1.60   1
   4   0   1  408.70   15.30   1
  -4   0  -1  414.10   11.50   1
   4   0   2   12.90    1.60   1
  -4   0  -2   11.20    0.60   1
   4   0   3  329.30    9.70   1
  -4   0  -3  327.60    7.40   1
   4   0   4  344.20   10.20   1
  -4   0  -4  342.20    7.80   1
   4   0   5   24.70    1.80   1
  -4   0  -5   24.50    1.30   1
   4   0   6  392.40   11.90   1
  -4   0  -6  400.10   12.10   1
   4   0   7    0.10    1.30   1
  -4   0  -7    1.60    1.30   1
   4   0   8  196.80    6.90   1
  -4   0  -8  195.10    6.80   1
   4   0   9   31.00    1.90   1
  -4   0  -9   28.30    2.10   1
   4   0  10    2.00    1.20   1
  -4   0 -10    0.10    1.10   1
   4   0  11   40.60    2.80   1
  -4   0 -11   42.80    3.40   1
   4   0  12   21.10    1.90   1
  -4   0 -12   19.90    2.30   1
   4   0  13   12.90    1.70   1
  -4   0 -13    7.40    1.90   1
   4   0  14    1.50    1.40   1
  -4   0 -14    1.50    1.70   1
  -4   0 -15    1.40    2.80   1
   4   1 -18    9.10    1.80   1
  -4  -1  18   15.70    2.00   1
   4   1 -17   47.80    2.90   1
  -4  -1  17   45.60    3.40   1
   4   1 -16   26.90    2.00   1
  -4  -1  16   26.80    2.50   1
   4   1 -15    4.50    1.30   1
  -4  -1  15    4.50    1.50   1
   4   1 -14    8.30    1.50   1
  -4  -1  14    8.40    1.40   1
   4   1 -13   39.60    2.60   1
  -4  -1  13   45.00    2.80   1
   4   1 -12  316.80   11.00   1
  -4  -1  12  299.70   10.80   1
   4   1 -11    1.20    1.30   1
  -4  -1  11   -0.30    1.30   1
   4   1 -10  146.40    5.10   1
  -4  -1  10  154.40    5.20   1
   4   1  -9  331.00   10.10   1
  -4  -1   9  323.10    8.50   1
   4   1  -8    2.40    1.10   1
  -4  -1   8    1.20    1.00   1
   4   1  -7 1383.80   35.40   1
  -4  -1   7 1452.50   35.10   1
   4   1  -6  543.30   15.30   1
  -4  -1   6  572.50   14.90   1
   4   1  -5   49.90    2.10   1
  -4  -1   5   46.80    3.50   1
   4   1  -4  545.40   14.40   1
  -4  -1   4  550.30   21.30   1
   4   1  -3  232.40    6.70   1
  -4  -1   3  238.50    7.10   1
   4   1  -2   63.90    2.00   1
  -4  -1   2   65.40    2.60   1
   4   1  -1 1053.40   20.80   1
  -4  -1   1 1070.40   27.90   1
   4   1   0  494.10   13.10   1
  -4  -1   0  508.70   13.60   1
   4   1   1  614.80   15.80   1
  -4  -1  -1  625.90   17.30   1
   4   1   2  467.20   10.00   1
  -4  -1  -2  469.00   10.40   1
   4   1   3  341.10    7.90   1
  -4  -1  -3  336.40    8.10   1
   4   1   4    9.60    2.00   1
  -4  -1  -4    9.80    1.00   1
   4   1   5   39.60    3.10   1
  -4  -1  -5   45.80    2.00   1
   4   1   6   19.70    2.60   1
  -4  -1  -6   17.10    1.50   1
   4   1   7  236.50   12.20   1
  -4  -1  -7  236.50    6.50   1
   4   1   8   38.90    3.90   1
  -4  -1  -8   39.80    2.10   1
   4   1   9  247.40   12.80   1
  -4  -1  -9  254.30    7.70   1
   4   1  10    0.00    2.10   1
  -4  -1 -10    0.80    1.20   1
   4   1  11    0.40    2.10   1
  -4  -1 -11    4.80    1.60   1
   4   1  12   -0.40    2.30   1
  -4  -1 -12    1.10    1.50   1
   4   1  13   25.40    4.40   1
  -4  -1 -13   36.00    2.70   1
   4   1  14   33.20    3.60   1
  -4  -1 -14   41.20    4.10   1
   4   2 -18   36.30    3.20   1
  -4  -2  18   30.30    4.40   1
   4   2 -17   25.50    2.50   1
  -4  -2  17   24.90    3.40   1
   4   2 -16  131.30    6.50   1
  -4  -2  16  128.10    9.50   1
   4   2 -15    2.70    1.20   1
  -4  -2  15    4.20    2.20   1
   4   2 -14  164.40    7.60   1
  -4  -2  14  166.70   10.80   1
   4   2 -13  160.30    7.10   1
  -4  -2  13  172.30    8.60   1
   4   2 -12    6.90    1.30   1
  -4  -2  12    8.70    1.90   1
   4   2 -11  146.60    5.60   1
  -4  -2  11  149.30    7.50   1
   4   2 -10   14.60    1.70   1
  -4  -2  10   16.60    1.50   1
   4   2  -9    0.30    1.00   1
  -4  -2   9    0.00    1.00   1
   4   2  -8   68.30    3.50   1
  -4  -2   8   67.50    2.90   1
   4   2  -7  562.10   16.90   1
  -4  -2   7  589.10   15.60   1
   4   2  -6  129.30    5.30   1
  -4  -2   6  134.80    6.10   1
   4   2  -5   43.60    2.10   1
  -4  -2   5   44.10    1.80   1
   4   2  -4  782.10   16.60   1
  -4  -2   4  775.60   20.40   1
   4   2  -3   65.70    2.10   1
  -4  -2   3   69.20    2.70   1
   4   2  -2  658.50   14.20   1
  -4  -2   2  662.60   17.20   1
   4   2  -1   30.80    1.40   1
  -4  -2   1   25.90    1.60   1
   4   2   0  237.00    5.70   1
  -4  -2   0  241.80    7.30   1
   4   2   1  788.40   20.20   1
  -4  -2  -1  817.40   20.60   1
   4   2   2   64.30    2.80   1
  -4  -2  -2   66.60    2.40   1
   4   2   3  187.90    6.20   1
  -4  -2  -3  192.50    5.30   1
   4   2   4   28.00    1.70   1
  -4  -2  -4   25.00    1.60   1
   4   2   5  405.90   12.00   1
  -4  -2  -5  405.30    9.60   1
   4   2   6  247.00    8.00   1
  -4  -2  -6  241.40    7.20   1
   4   2   7   63.20    4.60   1
  -4  -2  -7   55.80    2.50   1
   4   2   8   34.60    4.00   1
  -4  -2  -8   28.90    1.90   1
   4   2   9   10.50    2.50   1
  -4  -2  -9    9.60    1.60   1
   4   2  10  126.10    9.80   1
  -4  -2 -10  129.00    5.20   1
   4   2  11   -1.90    2.40   1
  -4  -2 -11    0.90    1.40   1
   4   2  12    8.20    3.00   1
  -4  -2 -12    7.40    2.00   1
  -4  -2 -13    6.10    2.30   1
   4   3 -17   24.50    2.40   1
  -4  -3  17   23.20    3.00   1
   4   3 -16   34.50    3.20   1
  -4  -3  16   30.40    3.40   1
   4   3 -15    5.60    1.50   1
  -4  -3  15    5.60    1.50   1
   4   3 -14    2.10    1.80   1
  -4  -3  14    2.00    1.20   1
   4   3 -13    0.10    1.30   1
  -4  -3  13    2.40    1.50   1
   4   3 -12   10.90    1.60   1
  -4  -3  12    8.30    1.40   1
   4   3 -11  137.90    5.40   1
  -4  -3  11  144.30    6.90   1
   4   3 -10    4.50    1.30   1
  -4  -3  10    1.30    0.90   1
   4   3  -9  316.40   10.10   1
  -4  -3   9  303.90    9.30   1
   4   3  -8  142.90    5.30   1
  -4  -3   8  133.40    3.40   1
   4   3  -7   -1.00    1.10   1
  -4  -3   7    0.80    0.30   1
   4   3  -6  238.70    7.70   1
  -4  -3   6  223.70    4.90   1
   4   3  -5  251.40    6.50   1
  -4  -3   5  249.70    6.80   1
   4   3  -4   36.50    1.70   1
  -4  -3   4   34.40    1.60   1
   4   3  -3   75.30    2.80   1
  -4  -3   3   75.00    2.70   1
   4   3  -2  115.10    3.70   1
  -4  -3   2  116.80    4.40   1
   4   3  -1   13.40    1.30   1
  -4  -3   1   12.70    1.40   1
   4   3   0  345.70    8.60   1
  -4  -3   0  352.40   10.60   1
   4   3   1   20.50    1.30   1
  -4  -3  -1   18.50    1.90   1
   4   3   2    1.20    1.00   1
  -4  -3  -2    0.10    0.90   1
   4   3   3  578.10   16.80   1
  -4  -3  -3  560.00   13.70   1
   4   3   4  284.80    8.50   1
  -4  -3  -4  284.80    8.00   1
   4   3   5   81.90    3.30   1
  -4  -3  -5   80.20    3.00   1
   4   3   6  104.50    4.90   1
  -4  -3  -6  103.40    3.90   1
   4   3   7   67.90    3.60   1
  -4  -3  -7   67.90    3.10   1
   4   3   8  132.90    6.10   1
  -4  -3  -8  128.90    5.00   1
   4   3   9  158.50   11.10   1
  -4  -3  -9  154.50    5.80   1
   4   3  10    5.80    2.70   1
  -4  -3 -10    3.70    1.60   1
   4   3  11   31.30    4.40   1
  -4  -3 -11   31.50    2.60   1
  -4  -3 -12   12.30    3.00   1
   4   4 -17   19.80    2.60   1
   4   4 -16   -1.10    1.90   1
  -4  -4  16    0.90    1.50   1
   4   4 -15    2.90    1.40   1
  -4  -4  15    1.70    1.30   1
   4   4 -14    5.50    2.00   1
  -4  -4  14    8.50    1.30   1
   4   4 -13   49.40    3.30   1
  -4  -4  13   53.50    3.10   1
   4   4 -12    9.90    1.60   1
  -4  -4  12    9.70    0.90   1
   4   4 -11    0.30    1.40   1
  -4  -4  11   -0.20    2.00   1
   4   4 -10    2.10    1.80   1
  -4  -4  10    1.40    2.50   1
   4   4  -9  166.60    6.40   1
  -4  -4   9  158.80   10.20   1
   4   4  -8   14.20    1.70   1
  -4  -4   8   11.00    2.30   1
   4   4  -7  268.00    7.40   1
  -4  -4   7  253.80   13.80   1
   4   4  -6  187.30    5.80   1
  -4  -4   6  180.10    9.20   1
   4   4  -5   11.40    1.40   1
  -4  -4   5   10.10    2.40   1
   4   4  -4  787.00   17.70   1
  -4  -4   4  814.80   34.80   1
   4   4  -3   58.90    3.10   1
  -4  -4   3   56.70    2.20   1
   4   4  -2  671.50   18.50   1
  -4  -4   2  653.00   18.00   1
   4   4  -1  414.80   13.00   1
  -4  -4   1  397.90   11.60   1
   4   4   0   53.00    2.10   1
  -4  -4   0   53.70    2.60   1
   4   4   1   14.50    1.00   1
  -4  -4  -1   15.90    1.70   1
   4   4   2  133.20    4.20   1
  -4  -4  -2  133.80    4.40   1
   4   4   3   40.70    2.30   1
  -4  -4  -3   40.60    2.10   1
   4   4   4   14.30    1.40   1
  -4  -4  -4   15.30    1.60   1
   4   4   5  165.80    6.60   1
  -4  -4  -5  158.20    5.30   1
   4   4   6  130.00    4.80   1
  -4  -4  -6  122.10    4.80   1
   4   4   7   56.00    3.60   1
  -4  -4  -7   55.60    3.10   1
   4   4   8   33.60    2.70   1
  -4  -4  -8   33.40    2.40   1
   4   4   9   10.70    1.90   1
  -4  -4  -9    8.30    1.70   1
   4   4  10   -2.40    2.40   1
  -4  -4 -10    5.40    1.90   1
   4   4  11   22.90    3.90   1
  -4  -4 -11   23.50    2.90   1
   4   5 -15    0.20    2.00   1
   4   5 -14    3.40    1.50   1
   4   5 -13   17.40    2.30   1
   4   5 -12   11.20    2.10   1
   4   5 -11  196.80    8.80   1
  -4  -5  11  203.20   13.10   1
   4   5 -10   41.90    2.90   1
  -4  -5  10   35.70    4.50   1
   4   5  -9    1.10    1.00   1
  -4  -5   9    5.40    2.10   1
   4   5  -8   77.50    3.20   1
  -4  -5   8   60.30    5.40   1
   4   5  -7   91.00    3.60   1
  -4  -5   7  100.40    7.60   1
   4   5  -6   57.70    2.70   1
  -4  -5   6   56.80    4.80   1
   4   5  -5   29.80    2.00   1
  -4  -5   5   27.40    3.50   1
   4   5  -4   29.60    2.20   1
  -4  -5   4   29.60    3.40   1
   4   5  -3   14.70    1.90   1
  -4  -5   3   18.40    2.70   1
   4   5  -2  150.80    6.40   1
  -4  -5   2  144.40    8.70   1
   4   5  -1   77.90    4.40   1
  -4  -5   1   71.80    5.80   1
   4   5   0   16.40    1.30   1
  -4  -5   0    8.20    2.50   1
   4   5   1  362.60   10.30   1
  -4  -5  -1  375.00   12.70   1
   4   5   2    4.00    1.10   1
  -4  -5  -2    0.90    1.10   1
   4   5   3  165.00    6.50   1
  -4  -5  -3  159.10    5.50   1
   4   5   4  113.20    5.20   1
  -4  -5  -4  105.50    4.40   1
   4   5   5    1.20    1.40   1
  -4  -5  -5    0.10    1.30   1
   4   5   6   24.80    2.30   1
  -4  -5  -6   31.10    2.40   1
   4   5   7    9.70    1.60   1
  -4  -5  -7    9.60    1.60   1
   4   5   8    8.00    1.80   1
  -4  -5  -8    8.30    1.90   1
   4   5   9   28.90    3.00   1
  -4  -5  -9   35.50    3.60   1
   4   6 -14    8.40    2.10   1
   4   6 -13   12.00    1.80   1
   4   6 -12   65.10    3.90   1
   4   6 -11   23.30    2.40   1
  -4  -6  11   15.90    3.60   1
   4   6 -10   -0.60    1.40   1
  -4  -6  10    1.60    2.60   1
   4   6  -9    4.30    1.40   1
  -4  -6   9    3.00    3.70   1
   4   6  -8    3.00    1.20   1
  -4  -6   8    8.60    2.90   1
   4   6  -7   13.70    1.80   1
  -4  -6   7   11.70    3.30   1
   4   6  -6   37.50    2.30   1
  -4  -6   6   38.10    5.00   1
   4   6  -5    0.70    1.40   1
  -4  -6   5    1.20    2.40   1
   4   6  -4    8.80    2.00   1
  -4  -6   4    7.80    3.40   1
   4   6  -3   46.00    3.40   1
  -4  -6   3   50.40    5.40   1
   4   6  -2   20.10    2.20   1
  -4  -6   2   19.20    3.40   1
   4   6  -1   22.50    2.40   1
  -4  -6   1   25.50    4.30   1
   4   6   0   68.00    3.00   1
  -4  -6   0   66.10    6.60   1
   4   6   1  116.20    4.30   1
  -4  -6  -1  115.70    8.90   1
   4   6   2   17.10    1.40   1
  -4  -6  -2   13.90    3.60   1
   4   6   3  118.90    6.10   1
  -4  -6  -3  116.40    6.20   1
   4   6   4   -0.40    1.20   1
  -4  -6  -4    0.20    2.00   1
   4   6   5   25.90    2.50   1
  -4  -6  -5   22.80    2.70   1
   4   6   6  120.30    6.70   1
  -4  -6  -6  119.50   10.50   1
   4   6   7    4.50    1.60   1
  -4  -6  -7    2.50    3.50   1
   4   7 -11   16.90    2.00   1
   4   7 -10   18.20    2.30   1
   4   7  -9   29.80    2.50   1
   4   7  -8    2.50    1.50   1
   4   7  -7   37.10    2.80   1
  -4  -7   7   29.00    4.80   1
   4   7  -6   22.80    2.10   1
  -4  -7   6   26.90    4.60   1
   4   7  -5   24.50    2.70   1
  -4  -7   5   33.50    5.40   1
   4   7  -4   76.30    5.00   1
  -4  -7   4   82.00    7.70   1
   4   7  -3   -1.00    2.00   1
  -4  -7   3   -2.10    2.70   1
   4   7  -2   37.80    3.40   1
  -4  -7   2   35.10    4.80   1
   4   7  -1  101.50    6.00   1
  -4  -7   1  103.70    8.60   1
   4   7   0   18.00    2.30   1
  -4  -7   0   16.10    3.90   1
   4   7   1   63.80    3.30   1
  -4  -7  -1   60.70    6.50   1
   4   7   2   20.60    1.80   1
   4   7   3    0.10    1.10   1
   4   7   4   16.50    2.20   1
  -4  -7  -4   14.40    3.30   1
   4   8  -6    0.10    2.00   1
   4   8  -5    7.50    2.50   1
   4   8  -4   26.40    3.30   1
   4   8  -3   12.90    2.80   1
   4   8  -2   16.70    2.80   1
   4   8  -1    0.80    1.90   1
  -5   9   7   16.80    3.40   1
   5  -9  -6   16.50    4.10   1
  -5   9   6    8.30    2.70   1
   5  -9  -5   14.30    4.30   1
  -5   9   5    6.70    2.90   1
   5  -9  -4  116.60   10.50   1
  -5   9   4  100.70    6.80   1
   5  -9  -3    2.00    2.60   1
  -5   9   3    0.30    0.80   1
  -5   9   2   24.40    1.90   1
  -5   9   1   37.90    2.60   1
  -5   9   0   17.60    1.80   1
  -5   9  -1  104.90    4.40   1
  -5   9  -2   67.70    3.20   1
  -5   9  -3    4.70    1.20   1
  -5   9  -4   22.10    1.60   1
  -5   9  -5   52.30    2.80   1
  -5   8  10    9.90    2.50   1
   5  -8  -9   25.80    4.40   1
  -5   8   9   35.50    3.60   1
   5  -8  -8   40.30    5.20   1
  -5   8   8   28.50    3.30   1
   5  -8  -7    9.50    3.10   1
  -5   8   7    6.90    1.80   1
   5  -8  -6    9.30    2.90   1
  -5   8   6    9.80    2.30   1
   5  -8  -5   93.70    8.50   1
  -5   8   5   90.90    5.70   1
   5  -8  -4    0.00    2.20   1
  -5   8   4    0.10    0.60   1
   5  -8  -3   39.90    4.30   1
  -5   8   3   38.60    2.10   1
   5  -8  -2   53.00    5.60   1
  -5   8   2   59.90    2.80   1
  -5   8   1    0.50    1.10   1
  -5   8   0   90.20    3.90   1
  -5   8  -1   34.70    2.10   1
  -5   8  -2   23.10    1.70   1
  -5   8  -3   27.10    1.90   1
  -5   8  -4  138.50    5.40   1
  -5   8  -5    0.90    1.00   1
  -5   8  -6   39.60    2.20   1
  -5   8  -7   88.50    3.90   1
  -5   8  -8    4.10    1.60   1
  -5   7  12    3.00    2.60   1
   5  -7 -11   13.00    3.30   1
  -5   7  11   -0.90    1.90   1
   5  -7 -10   -0.10    2.50   1
  -5   7  10    1.90    2.00   1
   5  -7  -9   46.50    5.70   1
  -5   7   9   44.90    3.80   1
   5  -7  -8   29.40    4.30   1
  -5   7   8   30.10    3.10   1
   5  -7  -7   -2.90    2.50   1
  -5   7   7   -0.70    1.60   1
   5  -7  -6   11.00    2.50   1
  -5   7   6   17.60    2.10   1
   5  -7  -5    6.70    2.30   1
  -5   7   5    7.40    1.90   1
   5  -7  -4   39.40    3.80   1
  -5   7   4   41.80    3.20   1
   5  -7  -3  118.00    8.50   1
  -5   7   3  118.50    4.50   1
   5  -7  -2    7.60    2.10   1
  -5   7   2    5.40    1.00   1
  -5   7   1   58.30    2.70   1
  -5   7   0   37.50    2.00   1
  -5   7  -1    4.60    1.10   1
  -5   7  -2  116.60    4.00   1
  -5   7  -3   62.70    2.70   1
  -5   7  -4    5.50    0.90   1
  -5   7  -5   59.40    2.40   1
  -5   7  -6  139.70    4.70   1
  -5   7  -7   25.30    1.60   1
  -5   7  -8  162.40    5.40   1
  -5   7  -9   24.00    2.10   1
  -5   7 -10    7.10    1.70   1
  -5   6  14    6.20    4.80   1
   5  -6 -13    6.60    3.20   1
  -5   6  13    1.10    2.90   1
   5  -6 -12   13.90    3.10   1
  -5   6  12   13.50    2.10   1
   5  -6 -11    0.20    2.40   1
  -5   6  11    2.40    1.50   1
   5  -6 -10    7.80    2.60   1
  -5   6  10    9.80    2.00   1
   5  -6  -9    7.20    2.40   1
  -5   6   9    8.90    1.90   1
   5  -6  -8   14.30    2.80   1
  -5   6   8   17.20    2.10   1
   5  -6  -7   32.30    3.70   1
  -5   6   7   35.40    2.90   1
   5  -6  -6   -2.50    2.20   1
  -5   6   6    1.30    1.40   1
   5  -6  -5   47.00    4.10   1
  -5   6   5   46.00    3.00   1
   5  -6  -4   54.60    4.40   1
  -5   6   4   55.50    3.20   1
   5  -6  -3    5.40    2.20   1
  -5   6   3    3.40    0.60   1
   5  -6  -2   78.40    4.80   1
  -5   6   2   73.10    2.50   1
  -5   6   1  352.60    9.10   1
  -5   6   0   31.70    1.70   1
  -5   6  -1  222.00    6.60   1
  -5   6  -2  132.70    4.00   1
  -5   6  -3    1.00    0.70   1
  -5   6  -4  325.90    8.20   1
  -5   6  -5    9.20    1.00   1
  -5   6  -6    4.20    0.80   1
  -5   6  -7  119.70    3.90   1
  -5   6  -8  178.60    6.90   1
  -5   6  -9   27.70    2.20   1
  -5   6 -10   24.40    2.20   1
  -5   6 -11   15.60    2.00   1
  -5   5  15    2.00    3.90   1
   5  -5 -14    2.80    3.90   1
  -5   5  14    4.80    2.20   1
   5  -5 -13   47.90    5.60   1
  -5   5  13   48.70    4.30   1
   5  -5 -12    4.80    3.40   1
  -5   5  12    3.60    1.90   1
   5  -5 -11   26.90    3.40   1
  -5   5  11   23.60    2.70   1
   5  -5 -10   10.90    2.40   1
  -5   5  10    7.90    2.10   1
   5  -5  -9    6.10    2.00   1
  -5   5   9    8.00    1.70   1
   5  -5  -8   43.20    3.90   1
  -5   5   8   47.80    3.20   1
   5  -5  -7    2.80    2.30   1
  -5   5   7    0.00    1.30   1
   5  -5  -6   13.10    2.50   1
  -5   5   6   11.50    1.70   1
   5  -5  -5    1.60    1.50   1
  -5   5   5    0.00    1.10   1
   5  -5  -4   13.60    2.20   1
  -5   5   4   14.40    1.70   1
   5  -5  -3  153.30    7.90   1
  -5   5   3  152.50    3.30   1
   5  -5  -2  108.50    5.70   1
  -5   5   2  105.10    3.40   1
   5  -5  -1   14.40    1.70   1
  -5   5   1   15.60    1.10   1
  -5   5   0  121.90    3.50   1
  -5   5  -1  347.80    7.70   1
  -5   5  -2   21.80    1.50   1
  -5   5  -3  173.50    5.20   1
  -5   5  -4   90.20    3.10   1
  -5   5  -5    8.00    1.00   1
  -5   5  -6  133.40    4.20   1
  -5   5  -7    7.70    1.50   1
  -5   5  -8    4.90    1.40   1
  -5   5  -9  119.30    6.00   1
  -5   5 -10   84.50    5.20   1
  -5   5 -11   22.70    2.40   1
  -5   5 -12   66.10    7.20   1
  -5   4  16    2.60    2.70   1
   5  -4 -15   11.60    3.30   1
  -5   4  15    8.30    2.80   1
   5  -4 -14   11.80    3.20   1
  -5   4  14   11.10    2.30   1
   5  -4 -13    3.90    3.40   1
  -5   4  13    2.50    2.10   1
   5  -4 -12    7.00    2.40   1
  -5   4  12   10.60    1.90   1
   5  -4 -11  107.60    6.80   1
  -5   4  11   97.50    5.50   1
   5  -4 -10    1.60    1.60   1
  -5   4  10    2.90    2.00   1
   5  -4  -9   23.30    2.50   1
  -5   4   9   28.00    3.50   1
   5  -4  -8    6.60    1.60   1
  -5   4   8    6.60    1.30   1
   5  -4  -7    7.20    1.40   1
  -5   4   7    4.90    1.50   1
   5  -4  -6   27.50    2.10   1
  -5   4   6   23.40    1.80   1
   5  -4  -5    7.40    1.20   1
  -5   4   5    7.80    1.20   1
   5  -4  -4   66.10    3.10   1
  -5   4   4   74.20    3.30   1
   5  -4  -3    6.60    1.20   1
  -5   4   3    4.80    0.40   1
   5  -4  -2    9.60    1.00   1
  -5   4   2   12.90    0.70   1
   5  -4  -1   19.10    2.80   1
  -5   4   1   20.70    1.40   1
   5  -4   0   58.60    3.90   1
  -5   4   0   52.60    2.30   1
   5  -4   1  130.40    7.30   1
  -5   4  -1  133.60    3.80   1
   5  -4   2   59.00    4.30   1
  -5   4  -2   58.90    2.00   1
   5  -4   3  104.30    5.50   1
  -5   4  -3  112.90    3.40   1
   5  -4   4   46.30    3.50   1
  -5   4  -4   46.50    1.90   1
   5  -4   5  421.20   19.80   1
  -5   4  -5  446.30   10.70   1
   5  -4   6    0.70    0.80   1
  -5   4  -6   -0.90    0.80   1
   5  -4   7   40.10    2.90   1
  -5   4  -7   49.40    2.60   1
  -5   4  -8  283.10   10.50   1
  -5   4  -9  131.80    8.80   1
  -5   4 -10   46.50    4.80   1
  -5   4 -11   82.80    8.40   1
  -5   4 -12   27.70    2.70   1
  -5   4 -13   31.30    3.20   1
  -5   3  17   19.50    3.30   1
   5  -3 -16    4.60    0.80   1
  -5   3  16    4.90    2.60   1
   5  -3 -15    3.20    0.70   1
  -5   3  15    5.90    2.00   1
   5  -3 -14    1.80    0.50   1
  -5   3  14    2.90    2.00   1
   5  -3 -13   11.90    0.70   1
  -5   3  13   13.00    2.00   1
   5  -3 -12   13.60    1.90   1
  -5   3  12   13.40    2.00   1
   5  -3 -11   70.90    3.90   1
  -5   3  11   69.40    4.00   1
   5  -3 -10    2.60    1.40   1
  -5   3  10    2.60    2.10   1
   5  -3  -9   62.20    3.00   1
  -5   3   9   62.20    4.80   1
   5  -3  -8    2.30    1.30   1
  -5   3   8    5.10    2.10   1
   5  -3  -7   27.10    2.20   1
  -5   3   7   27.60    3.60   1
   5  -3  -6   81.40    3.60   1
  -5   3   6   80.20    5.10   1
   5  -3  -5  100.70    3.80   1
  -5   3   5   99.80    6.30   1
   5  -3  -4  136.90    4.90   1
  -5   3   4  134.50    3.30   1
   5  -3  -3   23.50    1.50   1
  -5   3   3   22.70    1.00   1
   5  -3  -2  387.30   10.50   1
  -5   3   2  389.40    8.70   1
   5  -3  -1  210.80    9.50   1
  -5   3   1  206.50    4.90   1
   5  -3   0   41.80    3.00   1
  -5   3   0   38.30    1.60   1
   5  -3   1   89.10    5.10   1
  -5   3  -1   76.70    2.20   1
   5  -3   2   62.50    3.80   1
  -5   3  -2   62.10    2.00   1
   5  -3   3   56.70    4.00   1
  -5   3  -3   59.30    1.90   1
   5  -3   4  130.00    6.90   1
  -5   3  -4  124.50    4.50   1
   5  -3   5   49.10    3.20   1
  -5   3  -5   45.80    2.40   1
   5  -3   6   40.70    2.80   1
  -5   3  -6   37.80    2.00   1
   5  -3   7  320.50   14.50   1
  -5   3  -7  308.60   15.20   1
   5  -3   8    1.30    1.00   1
  -5   3  -8    0.90    1.00   1
   5  -3   9   25.90    2.00   1
  -5   3  -9   28.90    2.50   1
   5  -3  10   89.00    4.50   1
  -5   3 -10   87.00    4.20   1
   5  -3  11   40.20    5.00   1
  -5   3 -11   40.30    3.10   1
   5  -3  12   64.20    6.70   1
  -5   3 -12   67.60    4.80   1
  -5   3 -13   49.70    3.60   1
  -5   2  18    1.80    2.40   1
   5  -2 -17   -3.30    1.40   1
  -5   2  17    1.80    1.90   1
   5  -2 -16   86.50    5.10   1
  -5   2  16   77.30    5.60   1
   5  -2 -15   11.90    1.50   1
  -5   2  15   11.10    2.10   1
   5  -2 -14   57.10    2.80   1
  -5   2  14   49.70    3.60   1
   5  -2 -13   32.40    1.70   1
  -5   2  13   33.30    2.90   1
   5  -2 -12   20.00    1.30   1
  -5   2  12   20.00    2.20   1
   5  -2 -11   19.00    1.30   1
  -5   2  11   17.20    2.10   1
   5  -2 -10   60.80    2.20   1
  -5   2  10   62.30    4.90   1
   5  -2  -9   -0.30    0.50   1
  -5   2   9   -1.60    2.60   1
   5  -2  -8   20.30    1.00   1
  -5   2   8   22.40    2.60   1
   5  -2  -7    9.10    1.30   1
  -5   2   7   11.40    2.40   1
   5  -2  -6    7.20    1.40   1
  -5   2   6    5.20    0.70   1
   5  -2  -5  121.50    4.00   1
  -5   2   5  124.20    3.80   1
   5  -2  -4   -0.70    0.80   1
  -5   2   4    2.00    0.80   1
   5  -2  -3  148.40    4.40   1
  -5   2   3  141.60    4.50   1
   5  -2  -2    7.00    0.70   1
  -5   2   2    7.20    1.00   1
   5  -2  -1   65.80    4.40   1
  -5   2   1   74.10    2.40   1
   5  -2   0   24.50    2.80   1
  -5   2   0   28.80    1.40   1
   5  -2   1    6.60    1.60   1
  -5   2  -1    5.60    0.90   1
   5  -2   2   73.90    4.20   1
  -5   2  -2   75.60    5.00   1
   5  -2   3   16.00    2.10   1
  -5   2  -3   10.30    2.10   1
   5  -2   4  285.60   12.90   1
  -5   2  -4  291.60    6.60   1
   5  -2   5   18.90    1.90   1
  -5   2  -5   20.90    1.30   1
   5  -2   6  210.20    9.90   1
  -5   2  -6  206.70    6.60   1
   5  -2   7   20.60    2.10   1
  -5   2  -7   18.20    1.60   1
   5  -2   8   49.40    2.80   1
  -5   2  -8   49.80    2.80   1
   5  -2   9  201.70    7.90   1
  -5   2  -9  198.50    8.50   1
   5  -2  10    8.00    1.20   1
  -5   2 -10   11.60    1.80   1
   5  -2  11    2.70    0.80   1
  -5   2 -11    0.40    1.20   1
   5  -2  12   16.40    1.30   1
  -5   2 -12   16.10    2.20   1
  -5   2 -13    4.70    2.10   1
   5  -1 -18    1.80    2.10   1
  -5   1  18    7.50    2.10   1
   5  -1 -17   41.70    3.20   1
  -5   1  17   41.40    3.80   1
   5  -1 -16    1.90    1.00   1
  -5   1  16   -0.90    1.60   1
   5  -1 -15    3.10    1.10   1
  -5   1  15    4.00    1.80   1
   5  -1 -14  176.00    6.50   1
  -5   1  14  176.80    8.30   1
   5  -1 -13   13.10    1.30   1
  -5   1  13    9.80    1.80   1
   5  -1 -12  224.70    6.40   1
  -5   1  12  212.60    8.50   1
   5  -1 -11   83.70    2.90   1
  -5   1  11   79.50    3.90   1
   5  -1 -10  116.90    3.60   1
  -5   1  10  112.30    6.90   1
   5  -1  -9   42.50    1.70   1
  -5   1   9   42.40    3.70   1
   5  -1  -8   95.90    2.90   1
  -5   1   8   94.10    6.50   1
   5  -1  -7   15.90    1.00   1
  -5   1   7   12.80    1.30   1
   5  -1  -6    2.00    0.60   1
  -5   1   6    1.80    0.80   1
   5  -1  -5  152.40    4.10   1
  -5   1   5  158.50    4.80   1
   5  -1  -4   24.90    1.50   1
  -5   1   4   25.90    1.60   1
   5  -1  -3    7.10    0.60   1
  -5   1   3   10.10    1.10   1
   5  -1  -2    1.30    1.40   1
  -5   1   2    0.40    0.90   1
   5  -1  -1    7.50    2.10   1
  -5   1   1    8.80    1.10   1
   5  -1   0   12.80    2.40   1
  -5   1   0   10.50    1.50   1
   5  -1   1    3.10    1.80   1
  -5   1  -1    1.30    1.30   1
   5  -1   2   90.00    4.70   1
  -5   1  -2   90.30    3.50   1
   5  -1   3    1.90    1.40   1
  -5   1  -3    0.70    1.30   1
   5  -1   4   88.70    5.40   1
  -5   1  -4   87.50    2.50   1
   5  -1   5   60.90    4.00   1
  -5   1  -5   60.10    2.60   1
   5  -1   6   39.90    2.70   1
  -5   1  -6   38.00    2.00   1
   5  -1   7  138.80    5.40   1
  -5   1  -7  128.10    4.90   1
   5  -1   8  245.80    9.30   1
  -5   1  -8  246.00    9.00   1
   5  -1   9   10.20    1.50   1
  -5   1  -9    7.80    1.30   1
   5  -1  10  146.00    6.50   1
  -5   1 -10  130.90    6.10   1
   5  -1  11  135.00    6.10   1
  -5   1 -11  130.30    6.40   1
   5  -1  12    1.10    1.20   1
  -5   1 -12    0.70    1.60   1
  -5   1 -13   38.70    3.70   1
   5   0 -18   12.50    2.10   1
  -5   0  18   10.50    2.00   1
   5   0 -17    0.50    1.10   1
  -5   0  17    2.80    2.20   1
   5   0 -16    3.90    1.30   1
  -5   0  16    5.90    1.70   1
   5   0 -15  139.80    5.50   1
  -5   0  15  143.20    6.90   1
   5   0 -14   68.90    2.90   1
  -5   0  14   69.50    4.10   1
   5   0 -13    8.80    1.30   1
  -5   0  13    7.80    1.70   1
   5   0 -12   74.60    3.00   1
  -5   0  12   69.70    4.00   1
   5   0 -11  109.10    3.70   1
  -5   0  11  107.80    4.80   1
   5   0 -10  105.80    3.50   1
  -5   0  10  112.80    4.40   1
   5   0  -9   10.80    1.20   1
  -5   0   9   12.00    1.40   1
   5   0  -8   21.90    1.40   1
  -5   0   8   22.70    1.70   1
   5   0  -7   39.30    1.60   1
  -5   0   7   40.20    2.40   1
   5   0  -6  208.60    5.40   1
  -5   0   6  209.70    6.40   1
   5   0  -5   11.90    1.00   1
  -5   0   5   11.10    1.20   1
   5   0  -4  215.30    5.70   1
  -5   0   4  216.30    6.90   1
   5   0  -3   90.50    2.20   1
  -5   0   3   87.20    3.40   1
   5   0  -2   19.50    0.70   1
  -5   0   2   17.10    1.50   1
   5   0  -1  315.90   13.70   1
  -5   0   1  322.10   10.10   1
   5   0   0   11.80    2.60   1
  -5   0   0   10.10    1.30   1
   5   0   1  127.60    6.60   1
  -5   0  -1  139.90    4.90   1
   5   0   2    0.90    2.00   1
  -5   0  -2   -0.90    1.10   1
   5   0   3   82.40    4.90   1
  -5   0  -3   86.40    3.80   1
   5   0   4  219.60    7.10   1
  -5   0  -4  211.20    5.50   1
   5   0   5    3.80    1.50   1
  -5   0  -5    3.50    0.70   1
   5   0   6   46.80    2.80   1
  -5   0  -6   44.50    2.10   1
   5   0   7    9.90    1.50   1
  -5   0  -7    9.00    1.10   1
   5   0   8   14.90    1.60   1
  -5   0  -8   15.60    1.40   1
   5   0   9    9.20    1.50   1
  -5   0  -9   10.30    1.40   1
   5   0  10   62.30    3.90   1
  -5   0 -10   57.70    2.90   1
   5   0  11    4.40    1.30   1
  -5   0 -11    2.20    1.20   1
   5   0  12    4.20    1.50   1
  -5   0 -12    3.60    1.80   1
   5   0  13   40.40    3.50   1
  -5   0 -13   43.40    4.00   1
   5   1 -18   13.40    2.20   1
  -5  -1  18   18.60    2.30   1
   5   1 -17   91.30    4.60   1
  -5  -1  17   97.30    5.70   1
   5   1 -16   75.60    3.90   1
  -5  -1  16   75.50    4.90   1
   5   1 -15    0.90    1.10   1
  -5  -1  15    3.10    1.50   1
   5   1 -14    7.70    1.20   1
  -5  -1  14    6.60    1.40   1
   5   1 -13  211.80    8.30   1
  -5  -1  13  193.70    8.30   1
   5   1 -12    4.70    1.80   1
  -5  -1  12    4.10    1.40   1
   5   1 -11  124.20    5.40   1
  -5  -1  11  120.70    5.40   1
   5   1 -10   52.00    2.80   1
  -5  -1  10   51.70    2.30   1
   5   1  -9   49.40    2.60   1
  -5  -1   9   45.50    2.10   1
   5   1  -8  191.40    6.80   1
  -5  -1   8  190.70    9.60   1
   5   1  -7   16.00    1.80   1
  -5  -1   7   18.90    2.40   1
   5   1  -6    2.20    1.10   1
  -5  -1   6    3.30    1.50   1
   5   1  -5   34.20    2.30   1
  -5  -1   5   35.60    1.80   1
   5   1  -4  275.10    6.90   1
  -5  -1   4  277.00    8.90   1
   5   1  -3   16.50    1.00   1
  -5  -1   3   15.80    1.40   1
   5   1  -2  109.80    3.40   1
  -5  -1   2  113.70    4.00   1
   5   1  -1   37.70    1.50   1
  -5  -1   1   39.30    2.20   1
   5   1   0   59.90    2.40   1
  -5  -1   0   59.80    2.90   1
   5   1   1   42.60    1.80   1
  -5  -1  -1   39.50    2.40   1
   5   1   2   33.80    3.30   1
  -5  -1  -2   36.10    2.50   1
   5   1   3   91.70    4.00   1
  -5  -1  -3  100.20    2.90   1
   5   1   4   26.70    1.90   1
  -5  -1  -4   27.30    1.50   1
   5   1   5   29.00    2.20   1
  -5  -1  -5   31.20    1.60   1
   5   1   6   16.30    1.70   1
  -5  -1  -6   10.80    1.20   1
   5   1   7    6.20    1.40   1
  -5  -1  -7    3.90    1.10   1
   5   1   8    9.40    1.70   1
  -5  -1  -8    7.20    1.40   1
   5   1   9   21.30    2.30   1
  -5  -1  -9   21.30    1.90   1
   5   1  10    1.30    1.60   1
  -5  -1 -10   -0.80    1.20   1
   5   1  11   10.90    2.00   1
  -5  -1 -11   10.10    1.90   1
   5   1  12   59.00    5.50   1
  -5  -1 -12   51.20    3.90   1
   5   2 -17   71.90    4.60   1
  -5  -2  17   73.60    7.00   1
   5   2 -16    4.30    1.50   1
  -5  -2  16    4.90    1.80   1
   5   2 -15  106.00    6.10   1
  -5  -2  15  109.10    8.20   1
   5   2 -14   87.30    4.60   1
  -5  -2  14   87.10    6.00   1
   5   2 -13    1.20    1.30   1
  -5  -2  13    0.40    1.60   1
   5   2 -12    9.80    1.80   1
  -5  -2  12    8.90    2.10   1
   5   2 -11  174.20    7.30   1
  -5  -2  11  168.90    6.40   1
   5   2 -10    1.10    1.40   1
  -5  -2  10    1.40    1.20   1
   5   2  -9  149.30    6.00   1
  -5  -2   9  150.60    5.20   1
   5   2  -8  117.50    4.80   1
  -5  -2   8  117.10    4.60   1
   5   2  -7    9.20    1.50   1
  -5  -2   7    9.40    1.10   1
   5   2  -6  404.00   13.50   1
  -5  -2   6  424.60   12.40   1
   5   2  -5  247.30    6.30   1
  -5  -2   5  245.10    8.00   1
   5   2  -4    0.10    0.90   1
  -5  -2   4    0.90    1.00   1
   5   2  -3    1.50    0.80   1
  -5  -2   3    1.80    1.10   1
   5   2  -2   30.90    1.50   1
  -5  -2   2   31.60    1.90   1
   5   2  -1   31.00    1.40   1
  -5  -2   1   32.00    2.10   1
   5   2   0   19.90    1.30   1
  -5  -2   0   20.20    1.70   1
   5   2   1    3.80    1.00   1
  -5  -2  -1   -0.90    1.30   1
   5   2   2   14.30    1.10   1
  -5  -2  -2   14.60    1.80   1
   5   2   3    1.00    0.80   1
  -5  -2  -3    0.40    0.90   1
   5   2   4   49.70    2.10   1
  -5  -2  -4   54.20    2.30   1
   5   2   5  322.50   10.50   1
  -5  -2  -5  326.30    8.70   1
   5   2   6   38.20    4.20   1
  -5  -2  -6   31.80    2.00   1
   5   2   7   64.40    5.40   1
  -5  -2  -7   68.20    3.20   1
   5   2   8    6.00    2.40   1
  -5  -2  -8    2.80    1.10   1
   5   2   9   24.80    3.90   1
  -5  -2  -9   24.50    2.00   1
   5   2  10   90.30    8.80   1
  -5  -2 -10   89.50    4.30   1
   5   2  11   19.30    3.00   1
  -5  -2 -11   22.00    2.70   1
   5   2  12    5.00    2.90   1
  -5  -2 -12    7.90    2.00   1
   5   3 -16   23.90    2.70   1
  -5  -3  16   20.10    2.80   1
   5   3 -15   17.20    2.50   1
  -5  -3  15   16.40    2.30   1
   5   3 -14   29.20    2.70   1
  -5  -3  14   27.70    2.70   1
   5   3 -13   10.70    1.90   1
  -5  -3  13   12.60    1.50   1
   5   3 -12   32.90    2.70   1
  -5  -3  12   34.50    2.70   1
   5   3 -11    5.40    1.50   1
  -5  -3  11    7.30    1.00   1
   5   3 -10   23.30    2.20   1
  -5  -3  10   18.50    1.30   1
   5   3  -9  298.80    9.20   1
  -5  -3   9  302.40    7.40   1
   5   3  -8    2.10    1.20   1
  -5  -3   8    2.80    0.50   1
   5   3  -7  357.80    9.50   1
  -5  -3   7  364.70    8.80   1
   5   3  -6   76.90    2.80   1
  -5  -3   6   68.20    2.70   1
   5   3  -5    9.30    1.30   1
  -5  -3   5    5.70    0.90   1
   5   3  -4  393.80    9.80   1
  -5  -3   4  392.60   11.90   1
   5   3  -3   27.10    1.70   1
  -5  -3   3   26.30    1.70   1
   5   3  -2  122.50    4.00   1
  -5  -3   2  117.90    4.70   1
   5   3  -1   55.80    2.40   1
  -5  -3   1   53.30    2.60   1
   5   3   0   22.70    1.40   1
  -5  -3   0   20.80    1.70   1
   5   3   1   78.00    3.30   1
  -5  -3  -1   82.90    3.90   1
   5   3   2   65.90    2.90   1
  -5  -3  -2   66.10    3.50   1
   5   3   3   -0.20    1.00   1
  -5  -3  -3    0.30    0.80   1
   5   3   4    0.00    1.00   1
  -5  -3  -4    1.10    0.90   1
   5   3   5   25.90    2.00   1
  -5  -3  -5   25.60    1.90   1
   5   3   6   13.10    1.60   1
  -5  -3  -6   15.50    1.60   1
   5   3   7   14.40    2.90   1
  -5  -3  -7   11.00    1.60   1
   5   3   8   -1.80    3.10   1
  -5  -3  -8    1.00    1.50   1
   5   3   9    9.70    3.00   1
  -5  -3  -9    8.60    1.90   1
   5   3  10    7.20    3.20   1
  -5  -3 -10    3.90    1.70   1
   5   4 -15    7.20    1.90   1
   5   4 -14   68.40    4.80   1
  -5  -4  14   76.30    4.10   1
   5   4 -13   27.30    2.70   1
   5   4 -12   11.30    2.00   1
  -5  -4  12   10.10    2.80   1
   5   4 -11   62.20    3.80   1
  -5  -4  11   62.00    5.70   1
   5   4 -10  104.30    5.20   1
  -5  -4  10  100.00    8.20   1
   5   4  -9   93.90    3.90   1
  -5  -4   9   93.10    6.80   1
   5   4  -8   50.10    2.60   1
  -5  -4   8   47.30    4.40   1
   5   4  -7   34.80    2.10   1
  -5  -4   7   34.60    3.80   1
   5   4  -6   15.70    1.50   1
  -5  -4   6   14.60    2.80   1
   5   4  -5  391.70   10.10   1
  -5  -4   5  402.90   21.00   1
   5   4  -4   31.40    1.90   1
  -5  -4   4   28.90    1.50   1
   5   4  -3    0.70    1.00   1
  -5  -4   3   -0.60    0.80   1
   5   4  -2    9.00    1.20   1
  -5  -4   2    6.20    1.20   1
   5   4  -1  130.80    4.70   1
  -5  -4   1  133.00    5.40   1
   5   4   0   50.50    2.90   1
  -5  -4   0   45.70    2.90   1
   5   4   1   97.90    4.70   1
  -5  -4  -1  103.10    4.80   1
   5   4   2   24.10    2.00   1
  -5  -4  -2   25.10    2.40   1
   5   4   3    4.30    1.50   1
  -5  -4  -3    6.30    2.00   1
   5   4   4   81.40    4.00   1
  -5  -4  -4   82.20    3.80   1
   5   4   5   -1.90    1.10   1
  -5  -4  -5    2.60    1.50   1
   5   4   6   28.70    2.30   1
  -5  -4  -6   28.50    2.30   1
   5   4   7    4.50    1.60   1
  -5  -4  -7    2.30    1.70   1
   5   4   8    0.90    1.40   1
  -5  -4  -8    0.30    1.40   1
   5   4   9   -1.20    2.40   1
  -5  -4  -9    2.10    1.60   1
   5   5 -14   44.00    3.60   1
   5   5 -13    2.40    1.70   1
   5   5 -12  132.50    7.30   1
  -5  -5  12  135.80   10.30   1
   5   5 -11   37.70    2.60   1
  -5  -5  11   36.90    4.70   1
   5   5 -10   31.90    2.30   1
  -5  -5  10   34.00    4.90   1
   5   5  -9  114.10    5.10   1
  -5  -5   9  114.90    9.30   1
   5   5  -8  118.20    5.00   1
  -5  -5   8  101.50    8.40   1
   5   5  -7   21.00    2.00   1
  -5  -5   7   24.10    3.40   1
   5   5  -6    1.10    1.10   1
  -5  -5   6    1.50    2.30   1
   5   5  -5   26.70    2.00   1
  -5  -5   5   31.00    3.50   1
   5   5  -4   39.30    2.40   1
  -5  -5   4   28.90    3.90   1
   5   5  -3  154.00    5.20   1
  -5  -5   3  153.70   10.50   1
   5   5  -2    4.70    1.20   1
  -5  -5   2    1.90    2.40   1
   5   5  -1    4.00    1.50   1
  -5  -5   1    5.90    1.00   1
   5   5   0   39.10    2.90   1
  -5  -5   0   39.20    2.60   1
   5   5   1   49.30    3.40   1
  -5  -5  -1   46.90    3.00   1
   5   5   2   39.80    2.50   1
  -5  -5  -2   42.50    3.20   1
   5   5   3   28.70    2.30   1
  -5  -5  -3   31.00    2.70   1
   5   5   4    1.20    1.10   1
  -5  -5  -4    0.20    1.30   1
   5   5   5    0.70    1.30   1
  -5  -5  -5    1.70    2.10   1
   5   5   6    8.50    1.80   1
  -5  -5  -6    5.40    1.90   1
   5   5   7    6.60    1.80   1
  -5  -5  -7    6.40    1.90   1
   5   6 -12    2.30    1.80   1
   5   6 -11    3.70    1.70   1
   5   6 -10   49.30    3.20   1
   5   6  -9   47.20    3.00   1
  -5  -6   9   41.00    5.10   1
   5   6  -8   13.50    2.00   1
  -5  -6   8   10.40    4.40   1
   5   6  -7   66.00    3.70   1
  -5  -6   7   68.00    6.80   1
   5   6  -6   38.30    2.80   1
  -5  -6   6   30.00    4.80   1
   5   6  -5   41.90    2.90   1
  -5  -6   5   41.50    4.80   1
   5   6  -4  184.40    7.80   1
  -5  -6   4  181.40   14.30   1
   5   6  -3   14.60    1.80   1
  -5  -6   3   12.30    3.50   1
   5   6  -2   35.10    3.00   1
  -5  -6   2   37.60    5.20   1
   5   6  -1  132.90    7.20   1
  -5  -6   1  119.70   10.20   1
   5   6   0    5.00    2.00   1
  -5  -6   0   -2.50    3.10   1
   5   6   1   65.40    4.40   1
   5   6   2   11.70    2.60   1
   5   6   3    6.90    1.50   1
   5   6   4    8.70    1.90   1
   5   7  -7   15.40    2.60   1
   5   7  -6    9.20    2.10   1
   5   7  -5    4.60    2.00   1
   5   7  -4   13.10    2.60   1
   5   7  -3    9.10    2.10   1
   5   7  -2   65.20    4.60   1
   5   7  -1    0.80    1.90   1
   5   7   0   12.60    2.60   1
   6  -9  -4   15.40    4.70   1
  -6   9   4   15.60    2.60   1
  -6   9   3   10.80    2.60   1
  -6   9   2    3.30    2.10   1
  -6   9   1    5.70    2.30   1
  -6   9   0    3.70    1.60   1
  -6   9  -1    3.40    1.60   1
   6  -8  -9   23.10    4.50   1
  -6   8   9   18.80    2.80   1
   6  -8  -8   17.40    4.10   1
  -6   8   8   21.80    3.30   1
   6  -8  -7    6.40    4.10   1
  -6   8   7    6.80    2.20   1
   6  -8  -6   59.40    5.90   1
  -6   8   6   53.00    4.40   1
   6  -8  -5   43.90    5.20   1
  -6   8   5   45.70    3.80   1
   6  -8  -4    6.10    2.40   1
  -6   8   4    4.70    2.30   1
   6  -8  -3   64.00    6.10   1
  -6   8   3   64.40    4.80   1
  -6   8   2    0.50    0.70   1
  -6   8   1   28.20    2.00   1
  -6   8   0   29.90    2.20   1
  -6   8  -1    0.10    1.10   1
  -6   8  -2   20.80    1.60   1
  -6   8  -3    5.70    1.30   1
  -6   8  -4    1.90    1.10   1
  -6   8  -5    1.70    1.00   1
  -6   8  -6   20.40    2.30   1
   6  -7 -11    0.90    2.60   1
  -6   7  11    2.10    2.00   1
   6  -7 -10   68.10    6.80   1
  -6   7  10   75.60    5.50   1
   6  -7  -9    8.20    2.80   1
  -6   7   9    9.10    2.50   1
   6  -7  -8    0.20    2.90   1
  -6   7   8    0.70    1.70   1
   6  -7  -7   41.80    4.50   1
  -6   7   7   47.50    4.00   1
   6  -7  -6   54.00    5.00   1
  -6   7   6   48.80    3.50   1
   6  -7  -5   60.10    5.60   1
  -6   7   5   59.90    4.20   1
   6  -7  -4   19.90    2.80   1
  -6   7   4   18.80    2.30   1
   6  -7  -3    1.20    2.30   1
  -6   7   3    4.30    1.50   1
  -6   7   2    8.00    0.90   1
  -6   7   1   94.80    4.00   1
  -6   7   0   30.30    1.80   1
  -6   7  -1   26.70    1.60   1
  -6   7  -2  100.30    3.90   1
  -6   7  -3    1.00    0.90   1
  -6   7  -4   86.60    3.70   1
  -6   7  -5   26.20    1.60   1
  -6   7  -6   21.60    1.50   1
  -6   7  -7   21.50    1.60   1
  -6   7  -8    5.10    1.50   1
   6  -6 -13   30.00    5.60   1
  -6   6  13   28.80    5.20   1
   6  -6 -12   46.30    5.10   1
  -6   6  12   41.90    5.70   1
   6  -6 -11   66.10    6.90   1
  -6   6  11   62.00    6.20   1
   6  -6 -10    8.90    2.50   1
  -6   6  10    7.60    2.10   1
   6  -6  -9   80.60    7.00   1
  -6   6   9   86.70    5.00   1
   6  -6  -8   93.80    7.40   1
  -6   6   8  106.00    6.00   1
   6  -6  -7   21.10    3.00   1
  -6   6   7   16.50    2.10   1
   6  -6  -6   41.00    3.90   1
  -6   6   6   38.30    3.10   1
   6  -6  -5   46.00    4.30   1
  -6   6   5   49.90    3.20   1
   6  -6  -4    9.00    2.30   1
  -6   6   4    9.40    1.70   1
   6  -6  -3  141.30    7.70   1
  -6   6   3  145.20    6.10   1
  -6   6   2  120.50    3.80   1
  -6   6   1   48.80    2.00   1
  -6   6   0  102.90    3.70   1
  -6   6  -1   45.80    2.10   1
  -6   6  -2    7.50    1.00   1
  -6   6  -3   90.90    3.40   1
  -6   6  -4   16.50    1.30   1
  -6   6  -5   55.50    2.50   1
  -6   6  -6   -0.60    1.10   1
  -6   6  -7  221.00   10.60   1
  -6   6  -8    5.40    1.70   1
  -6   6  -9   19.40    2.30   1
   6  -5 -14    5.50    4.40   1
  -6   5  14    6.60    3.40   1
   6  -5 -13   26.90    4.10   1
  -6   5  13   19.40    2.90   1
   6  -5 -12    0.80    3.00   1
  -6   5  12    6.10    2.80   1
   6  -5 -11    6.90    3.00   1
  -6   5  11    4.20    3.40   1
   6  -5 -10   12.30    3.00   1
  -6   5  10    4.00    3.30   1
   6  -5  -9   51.30    5.10   1
  -6   5   9   52.60    5.40   1
   6  -5  -8   14.00    2.70   1
  -6   5   8    8.90    1.70   1
   6  -5  -7   28.70    3.20   1
  -6   5   7   23.20    2.20   1
   6  -5  -6  174.50    7.50   1
  -6   5   6  167.80    7.50   1
   6  -5  -5    6.00    1.60   1
  -6   5   5    4.20    1.60   1
   6  -5  -4   87.90    4.20   1
  -6   5   4   90.10    4.10   1
   6  -5  -3  108.10    4.70   1
  -6   5   3  109.10    2.60   1
   6  -5  -2    6.10    2.60   1
  -6   5   2    1.60    0.50   1
   6  -5  -1  228.10   12.40   1
  -6   5   1  236.00    6.70   1
   6  -5   0  210.80   11.90   1
  -6   5   0  228.60    6.40   1
   6  -5   1    9.60    2.50   1
  -6   5  -1    8.30    1.00   1
   6  -5   2   49.40    4.20   1
  -6   5  -2   55.80    2.30   1
   6  -5   3   39.80    3.80   1
  -6   5  -3   41.40    2.10   1
   6  -5   4    7.50    1.50   1
  -6   5  -4    6.10    0.90   1
  -6   5  -5  121.20    4.30   1
  -6   5  -6    0.20    0.90   1
  -6   5  -7    2.60    1.30   1
  -6   5  -8    2.00    1.40   1
  -6   5  -9   78.10    4.70   1
  -6   5 -10    6.30    1.50   1
   6  -4 -15    5.90    3.90   1
  -6   4  15    6.40    4.10   1
   6  -4 -14   -3.20    2.60   1
  -6   4  14    0.60    2.00   1
   6  -4 -13   38.70    4.40   1
  -6   4  13   29.20    3.10   1
   6  -4 -12   -2.60    2.00   1
  -6   4  12    0.80    1.70   1
   6  -4 -11  114.00    6.00   1
  -6   4  11  109.70    9.10   1
   6  -4 -10   28.00    2.50   1
  -6   4  10   31.00    4.10   1
   6  -4  -9    9.80    1.70   1
  -6   4   9    8.30    2.40   1
   6  -4  -8   27.60    2.30   1
  -6   4   8   32.10    3.70   1
   6  -4  -7   85.00    4.10   1
  -6   4   7   96.20    6.80   1
   6  -4  -6   38.00    2.20   1
  -6   4   6   40.50    3.70   1
   6  -4  -5    4.50    1.30   1
  -6   4   5    2.90    2.70   1
   6  -4  -4   56.50    2.80   1
  -6   4   4   53.60    2.70   1
   6  -4  -3   29.70    1.70   1
  -6   4   3   35.80    1.40   1
   6  -4  -2  281.80   14.60   1
  -6   4   2  287.30    7.30   1
   6  -4  -1  137.50    8.70   1
  -6   4   1  136.20    3.80   1
   6  -4   0    4.60    1.80   1
  -6   4   0    2.80    0.60   1
   6  -4   1  228.20   12.30   1
  -6   4  -1  240.40    6.00   1
   6  -4   2  178.60    9.80   1
  -6   4  -2  184.90    5.20   1
   6  -4   3   50.50    4.00   1
  -6   4  -3   56.80    2.10   1
   6  -4   4  169.40    8.40   1
  -6   4  -4  171.10    5.00   1
   6  -4   5   48.40    4.00   1
  -6   4  -5   49.90    2.70   1
   6  -4   6    4.90    1.10   1
  -6   4  -6    5.70    1.10   1
   6  -4   7  149.50    8.20   1
  -6   4  -7  147.40    5.00   1
   6  -4   8    1.70    1.10   1
  -6   4  -8    1.80    0.90   1
  -6   4  -9   46.30    2.50   1
  -6   4 -10   20.30    2.40   1
  -6   4 -11    7.00    1.50   1
   6  -3 -16   11.10    3.70   1
  -6   3  16    1.30    3.70   1
   6  -3 -15    2.60    2.80   1
  -6   3  15    3.70    2.10   1
   6  -3 -14   15.50    2.40   1
  -6   3  14   14.50    2.40   1
   6  -3 -13    7.60    2.10   1
  -6   3  13    8.80    2.30   1
   6  -3 -12    4.20    1.80   1
  -6   3  12    6.00    2.20   1
   6  -3 -11   50.40    3.60   1
  -6   3  11   53.60    5.50   1
   6  -3 -10   64.30    3.80   1
  -6   3  10   73.20    5.70   1
   6  -3  -9  140.30    5.90   1
  -6   3   9  130.10    7.50   1
   6  -3  -8    6.40    1.40   1
  -6   3   8    7.60    2.30   1
   6  -3  -7    6.80    1.20   1
  -6   3   7    4.70    2.90   1
   6  -3  -6  572.30   17.50   1
  -6   3   6  577.00   25.50   1
   6  -3  -5  377.50   11.20   1
  -6   3   5  371.00   10.50   1
   6  -3  -4  912.30   24.00   1
  -6   3   4  930.60   23.30   1
   6  -3  -3   53.10    2.30   1
  -6   3   3   53.60    2.40   1
   6  -3  -2    7.50    2.70   1
  -6   3   2   14.00    1.40   1
   6  -3  -1    9.00    2.20   1
  -6   3   1    8.50    1.20   1
   6  -3   0  336.30   16.00   1
  -6   3   0  331.50    8.60   1
   6  -3   1   23.10    2.60   1
  -6   3  -1   23.60    1.50   1
   6  -3   2   90.50    5.70   1
  -6   3  -2   88.50    3.10   1
   6  -3   3  121.80    7.40   1
  -6   3  -3  119.30    7.00   1
   6  -3   4  280.90   14.20   1
  -6   3  -4  287.30   15.30   1
   6  -3   5   54.10    4.20   1
  -6   3  -5   55.20    1.80   1
   6  -3   6  166.20    9.10   1
  -6   3  -6  161.60    4.60   1
   6  -3   7   60.20    4.30   1
  -6   3  -7   56.00    2.10   1
   6  -3   8   -0.90    1.30   1
  -6   3  -8    2.00    0.80   1
   6  -3   9   65.40    5.10   1
  -6   3  -9   66.20    4.20   1
   6  -3  10   27.70    2.40   1
  -6   3 -10   19.10    2.30   1
  -6   3 -11    0.70    1.10   1
  -6   2  17    0.70    2.20   1
   6  -2 -16   10.00    1.50   1
  -6   2  16    7.60    2.40   1
   6  -2 -15    1.80    0.90   1
  -6   2  15    4.90    2.10   1
   6  -2 -14    4.90    1.00   1
  -6   2  14    2.60    1.70   1
   6  -2 -13    9.50    1.00   1
  -6   2  13    6.50    2.20   1
   6  -2 -12   61.80    2.40   1
  -6   2  12   57.60    4.20   1
   6  -2 -11    3.50    0.70   1
  -6   2  11    7.20    3.20   1
   6  -2 -10   19.80    2.00   1
  -6   2  10   19.10    2.70   1
   6  -2  -9   26.00    2.20   1
  -6   2   9   22.60    3.10   1
   6  -2  -8    8.10    1.30   1
  -6   2   8   11.30    3.30   1
   6  -2  -7   19.60    1.60   1
  -6   2   7   20.50    1.30   1
   6  -2  -6    4.90    0.90   1
  -6   2   6    3.80    0.80   1
   6  -2  -5   45.10    2.30   1
  -6   2   5   44.20    2.30   1
   6  -2  -4  136.70    4.40   1
  -6   2   4  144.00    5.40   1
   6  -2  -3  315.00    8.30   1
  -6   2   3  310.20    9.50   1
   6  -2  -2  145.10    8.50   1
  -6   2   2  147.40    4.30   1
   6  -2  -1  178.80    9.50   1
  -6   2   1  189.70    5.50   1
   6  -2   0   98.60    6.00   1
  -6   2   0   94.00    3.30   1
   6  -2   1   51.20    3.90   1
  -6   2  -1   47.30    2.60   1
   6  -2   2  295.30   14.20   1
  -6   2  -2  297.40   10.20   1
   6  -2   3    0.20    1.40   1
  -6   2  -3    0.70    1.40   1
   6  -2   4   60.50    4.60   1
  -6   2  -4   61.80    3.30   1
   6  -2   5   90.70    5.90   1
  -6   2  -5   87.80    4.50   1
   6  -2   6   89.70    5.80   1
  -6   2  -6   83.50    2.20   1
   6  -2   7   16.30    2.10   1
  -6   2  -7   15.80    1.00   1
   6  -2   8  132.50    7.80   1
  -6   2  -8  129.50    5.90   1
   6  -2   9    2.60    1.50   1
  -6   2  -9    1.20    1.10   1
   6  -2  10    6.30    1.50   1
  -6   2 -10    6.90    1.60   1
   6  -2  11   48.00    3.80   1
  -6   2 -11   48.10    3.50   1
   6  -1 -17   13.60    1.60   1
  -6   1  17   14.60    2.40   1
   6  -1 -16   40.30    2.50   1
  -6   1  16   37.80    3.60   1
   6  -1 -15   24.00    1.90   1
  -6   1  15   19.80    2.60   1
   6  -1 -14   22.60    1.80   1
  -6   1  14   27.00    2.60   1
   6  -1 -13    5.90    1.00   1
  -6   1  13    6.00    1.70   1
   6  -1 -12   13.40    1.30   1
  -6   1  12   14.00    2.20   1
   6  -1 -11    6.10    1.10   1
  -6   1  11    8.00    2.40   1
   6  -1 -10   46.00    2.10   1
  -6   1  10   39.00    4.40   1
   6  -1  -9    9.50    1.00   1
  -6   1   9   14.20    2.70   1
   6  -1  -8    3.00    0.90   1
  -6   1   8    2.60    0.80   1
   6  -1  -7    6.70    0.90   1
  -6   1   7    7.00    1.00   1
   6  -1  -6    9.50    1.30   1
  -6   1   6    5.80    0.90   1
   6  -1  -5  146.60    5.30   1
  -6   1   5  146.90    5.80   1
   6  -1  -4   56.00    2.30   1
  -6   1   4   59.10    2.70   1
   6  -1  -3    2.30    1.70   1
  -6   1   3    1.20    1.00   1
   6  -1  -2   62.70    4.40   1
  -6   1   2   56.90    2.30   1
   6  -1  -1  144.50    7.60   1
  -6   1   1  147.70    5.30   1
   6  -1   0   35.40    3.40   1
  -6   1   0   33.10    2.10   1
   6  -1   1  266.70   13.00   1
  -6   1  -1  263.20    9.00   1
   6  -1   2   69.80    4.70   1
  -6   1  -2   67.80    3.50   1
   6  -1   3   69.80    5.10   1
  -6   1  -3   72.90    3.60   1
   6  -1   4  365.90   17.10   1
  -6   1  -4  342.40   11.00   1
   6  -1   5    0.80    1.60   1
  -6   1  -5    1.90    1.50   1
   6  -1   6  291.50   15.30   1
  -6   1  -6  266.40   10.70   1
   6  -1   7  119.10    7.30   1
  -6   1  -7  119.90    4.20   1
   6  -1   8    3.40    1.40   1
  -6   1  -8    1.60    0.80   1
   6  -1   9   41.80    3.00   1
  -6   1  -9   39.30    2.40   1
   6  -1  10   80.90    4.60   1
  -6   1 -10   76.40    3.80   1
   6  -1  11    1.80    1.70   1
  -6   1 -11   -8.50    3.30   1
   6   0 -17    4.30    1.80   1
  -6   0  17    2.70    2.10   1
   6   0 -16    0.90    1.40   1
  -6   0  16   -2.40    1.60   1
   6   0 -15   52.70    3.20   1
  -6   0  15   50.90    3.90   1
   6   0 -14   61.40    3.20   1
  -6   0  14   57.90    3.90   1
   6   0 -13   39.00    2.40   1
  -6   0  13   40.20    3.20   1
   6   0 -12    2.80    1.00   1
  -6   0  12    4.70    1.60   1
   6   0 -11   15.70    1.50   1
  -6   0  11   13.60    2.00   1
   6   0 -10    7.00    1.20   1
  -6   0  10    7.40    1.20   1
   6   0  -9  122.30    4.00   1
  -6   0   9  121.20    5.30   1
   6   0  -8   23.20    1.30   1
  -6   0   8   21.50    1.80   1
   6   0  -7   82.10    3.10   1
  -6   0   7   87.90    3.50   1
   6   0  -6   97.10    3.30   1
  -6   0   6  100.00    4.00   1
   6   0  -5    0.00    0.70   1
  -6   0   5    0.90    1.00   1
   6   0  -4    2.30    0.40   1
  -6   0   4    2.30    1.10   1
   6   0  -3  202.70   11.40   1
  -6   0   3  206.10    7.30   1
   6   0  -2  116.60    7.00   1
  -6   0   2  118.70    4.80   1
   6   0  -1  333.80   15.30   1
  -6   0   1  330.70    9.90   1
   6   0   0  129.80    7.40   1
  -6   0   0  132.10    5.40   1
   6   0   1    4.90    1.90   1
  -6   0  -1    6.20    1.50   1
   6   0   2   55.70    4.20   1
  -6   0  -2   48.40    2.90   1
   6   0   3  102.10    6.70   1
  -6   0  -3   98.60    4.30   1
   6   0   4    3.10    1.70   1
  -6   0  -4    3.90    1.70   1
   6   0   5    3.80    2.30   1
  -6   0  -5    5.00    1.60   1
   6   0   6   74.70    5.20   1
  -6   0  -6   80.90    2.90   1
   6   0   7  204.10    8.80   1
  -6   0  -7  204.90    6.70   1
   6   0   8   29.20    2.50   1
  -6   0  -8   35.30    1.90   1
   6   0   9   62.80    4.30   1
  -6   0  -9   60.90    3.30   1
   6   0  10    1.10    1.60   1
  -6   0 -10    1.70    1.40   1
   6   0  11   31.80    3.70   1
  -6   0 -11   36.10    5.40   1
   6   1 -16   21.90    2.00   1
  -6  -1  16   23.40    3.50   1
   6   1 -15   44.50    3.00   1
  -6  -1  15   46.40    4.80   1
   6   1 -14    4.60    1.40   1
  -6  -1  14    8.10    2.90   1
   6   1 -13    2.60    1.40   1
  -6  -1  13    2.40    2.30   1
   6   1 -12    0.10    1.10   1
  -6  -1  12    0.40    1.60   1
   6   1 -11   11.80    1.90   1
  -6  -1  11   11.90    1.60   1
   6   1 -10   28.40    2.20   1
  -6  -1  10   24.80    1.90   1
   6   1  -9   34.80    2.40   1
  -6  -1   9   34.70    3.50   1
   6   1  -8   27.30    2.10   1
  -6  -1   8   27.50    2.80   1
   6   1  -7   -0.80    1.10   1
  -6  -1   7   -0.90    1.90   1
   6   1  -6   94.70    4.40   1
  -6  -1   6   98.50    3.80   1
   6   1  -5    9.30    1.00   1
  -6  -1   5   10.00    1.40   1
   6   1  -4  238.30    6.20   1
  -6  -1   4  237.10    8.10   1
   6   1  -3    3.60    0.70   1
  -6  -1   3    2.20    1.00   1
   6   1  -2   39.20    1.80   1
  -6  -1   2   39.00    2.30   1
   6   1  -1   62.30    4.60   1
  -6  -1   1   59.40    3.20   1
   6   1   0   20.00    3.20   1
  -6  -1   0   15.30    1.70   1
   6   1   1  238.40   12.40   1
  -6  -1  -1  236.30    8.40   1
   6   1   2    5.60    2.10   1
  -6  -1  -2    1.50    1.50   1
   6   1   3   35.80    3.50   1
  -6  -1  -3   40.20    2.90   1
   6   1   4  155.30   10.10   1
  -6  -1  -4  145.30    6.30   1
   6   1   5  135.90    6.60   1
  -6  -1  -5  124.40    5.80   1
   6   1   6   70.90    4.50   1
  -6  -1  -6   76.90    3.30   1
   6   1   7    3.40    1.70   1
  -6  -1  -7    6.60    1.20   1
   6   1   8   81.60    5.30   1
  -6  -1  -8   86.00    4.00   1
   6   1   9    5.60    1.80   1
  -6  -1  -9    7.60    1.60   1
   6   1  10   48.10    4.80   1
  -6  -1 -10   43.40    5.50   1
   6   2 -16    6.80    1.60   1
  -6  -2  16   10.00    2.00   1
   6   2 -15   15.90    2.20   1
  -6  -2  15   13.20    2.70   1
   6   2 -14   11.60    2.20   1
  -6  -2  14   12.30    2.10   1
   6   2 -13   31.00    2.80   1
  -6  -2  13   28.70    3.00   1
   6   2 -12   32.80    2.70   1
  -6  -2  12   35.90    3.00   1
   6   2 -11    9.10    1.60   1
  -6  -2  11    6.30    1.40   1
   6   2 -10    0.10    1.30   1
  -6  -2  10    2.30    1.40   1
   6   2  -9    1.20    1.30   1
  -6  -2   9    1.10    0.80   1
   6   2  -8    3.30    1.50   1
  -6  -2   8    3.60    0.90   1
   6   2  -7   40.90    2.70   1
  -6  -2   7   44.80    2.30   1
   6   2  -6    1.00    0.80   1
  -6  -2   6    2.40    1.00   1
   6   2  -5    1.50    0.90   1
  -6  -2   5    0.30    1.00   1
   6   2  -4   12.80    1.20   1
  -6  -2   4   11.70    1.30   1
   6   2  -3    9.10    1.10   1
  -6  -2   3   10.60    1.40   1
   6   2  -2   41.50    1.90   1
  -6  -2   2   40.70    2.20   1
   6   2  -1    6.40    1.00   1
  -6  -2   1    8.70    1.50   1
   6   2   0    6.00    1.00   1
  -6  -2   0    8.80    1.70   1
   6   2   1   86.60    3.40   1
  -6  -2  -1   87.70    4.60   1
   6   2   2   44.90    2.30   1
  -6  -2  -2   44.40    3.10   1
   6   2   3  124.30    8.30   1
  -6  -2  -3  130.90    6.00   1
   6   2   4   44.90    4.50   1
  -6  -2  -4   51.00    3.40   1
   6   2   5    0.40    1.60   1
  -6  -2  -5    0.80    0.70   1
   6   2   6  101.70    5.50   1
  -6  -2  -6   95.30    4.10   1
   6   2   7  110.10    6.80   1
  -6  -2  -7  115.50    5.00   1
   6   2   8   15.90    2.30   1
  -6  -2  -8   15.50    1.90   1
   6   2   9   49.10    4.00   1
  -6  -2  -9   42.60    3.50   1
   6   3 -15    2.30    2.50   1
   6   3 -14   16.20    2.40   1
  -6  -3  14   17.10    2.20   1
   6   3 -13   16.30    2.20   1
  -6  -3  13   17.60    2.10   1
   6   3 -12   33.80    3.00   1
  -6  -3  12   35.00    1.90   1
   6   3 -11   28.30    2.60   1
  -6  -3  11   25.60    1.30   1
   6   3 -10    8.40    1.70   1
  -6  -3  10    8.50    0.80   1
   6   3  -9   33.00    2.90   1
  -6  -3   9   30.30    1.50   1
   6   3  -8   27.70    2.00   1
  -6  -3   8   27.90    1.30   1
   6   3  -7    9.10    1.30   1
  -6  -3   7    8.40    1.10   1
   6   3  -6  111.20    4.30   1
  -6  -3   6  116.60    4.50   1
   6   3  -5   31.30    2.00   1
  -6  -3   5   28.40    2.00   1
   6   3  -4  151.00    4.60   1
  -6  -3   4  147.40    5.80   1
   6   3  -3   27.20    1.70   1
  -6  -3   3   27.60    2.00   1
   6   3  -2    2.00    1.10   1
  -6  -3   2    0.00    1.30   1
   6   3  -1    0.40    0.80   1
  -6  -3   1    0.20    1.40   1
   6   3   0    5.70    1.20   1
  -6  -3   0    4.70    1.30   1
   6   3   1    0.20    1.10   1
  -6  -3  -1    1.70    1.40   1
   6   3   2   -1.60    1.20   1
  -6  -3  -2    1.80    1.70   1
   6   3   3   27.80    2.10   1
  -6  -3  -3   28.20    4.80   1
   6   3   4   43.90    2.40   1
  -6  -3  -4   47.10    3.50   1
   6   3   5   45.00    3.70   1
  -6  -3  -5   36.30    3.80   1
   6   3   6   23.90    2.70   1
  -6  -3  -6   21.00    2.10   1
   6   3   7   -1.10    1.60   1
  -6  -3  -7    1.10    1.60   1
   6   3   8    7.10    2.70   1
  -6  -3  -8    7.30    4.70   1
   6   4 -14   43.70    3.70   1
   6   4 -13    8.60    2.20   1
   6   4 -12   26.80    2.90   1
  -6  -4  12   23.30    3.80   1
   6   4 -11    4.70    1.50   1
  -6  -4  11    0.50    3.50   1
   6   4 -10    1.00    1.20   1
  -6  -4  10    2.50    3.30   1
   6   4  -9   66.00    3.50   1
  -6  -4   9   49.10    6.00   1
   6   4  -8    2.10    1.20   1
  -6  -4   8    4.60    2.20   1
   6   4  -7   16.70    1.60   1
  -6  -4   7   20.40    3.10   1
   6   4  -6   11.70    1.60   1
  -6  -4   6   12.30    2.90   1
   6   4  -5  135.00    4.80   1
  -6  -4   5  134.80    5.10   1
   6   4  -4    5.10    1.40   1
  -6  -4   4    2.90    1.00   1
   6   4  -3   28.90    2.20   1
  -6  -4   3   27.40    2.00   1
   6   4  -2    1.40    1.00   1
  -6  -4   2    5.00    1.40   1
   6   4  -1   40.70    2.30   1
  -6  -4   1   41.90    2.60   1
   6   4   0    2.30    1.00   1
  -6  -4   0   -0.60    1.60   1
   6   4   1   77.50    4.60   1
  -6  -4  -1   79.20    4.50   1
   6   4   2    9.90    1.60   1
  -6  -4  -2   14.10    2.30   1
   6   4   3    4.70    1.40   1
  -6  -4  -3    1.20    1.70   1
   6   4   4    8.30    1.60   1
  -6  -4  -4    8.30    3.50   1
   6   4   5    0.00    1.10   1
  -6  -4  -5   -0.70    2.20   1
   6   4   6   -0.10    1.60   1
  -6  -4  -6   -0.30    1.30   1
   6   5 -11    1.30    1.40   1
   6   5 -10   11.70    2.10   1
  -6  -5  10    8.30    3.30   1
   6   5  -9    8.60    1.60   1
  -6  -5   9    2.90    3.00   1
   6   5  -8    8.10    1.60   1
  -6  -5   8    8.40    3.30   1
   6   5  -7   20.60    2.40   1
  -6  -5   7   23.40    3.50   1
   6   5  -6    9.50    1.60   1
  -6  -5   6   13.00    3.70   1
   6   5  -5   -0.20    1.50   1
  -6  -5   5   -3.50    3.60   1
   6   5  -4   18.90    1.80   1
  -6  -5   4   14.10    3.20   1
   6   5  -3    1.30    1.30   1
  -6  -5   3   -1.30    2.70   1
   6   5  -2    1.00    1.30   1
  -6  -5   2    1.80    1.10   1
   6   5  -1   34.60    2.50   1
  -6  -5   1   33.30    2.50   1
   6   5   0    1.60    2.10   1
  -6  -5   0    3.00    1.60   1
   6   5   1   35.00    3.70   1
  -6  -5  -1   42.70    4.30   1
   6   5   2    1.80    1.50   1
  -6  -5  -2    1.20    2.40   1
   6   5   3    4.90    2.40   1
  -6  -5  -3    5.30    2.80   1
   6   5   4   21.60    2.20   1
  -6  -5  -4   18.10    3.80   1
   6   6  -7    6.20    2.30   1
   6   6  -6   13.20    2.50   1
   6   6  -5    5.70    1.90   1
   6   6  -4    1.70    1.70   1
   6   6  -3    7.50    2.30   1
   6   6  -2   10.60    2.10   1
   6   6  -1    9.30    2.00   1
   7  -8  -6   -0.60    3.70   1
  -7   8   6    2.50    3.40   1
   7  -8  -5    7.20    3.40   1
  -7   8   5    9.80    2.20   1
  -7   8   4    4.20    1.80   1
  -7   8   3   -1.50    1.50   1
  -7   8   2    1.80    1.50   1
  -7   8   1    1.80    1.30   1
  -7   8   0    1.60    1.50   1
  -7   8  -1    1.30    1.30   1
  -7   8  -2    1.80    1.20   1
   7  -7  -9    8.70    3.00   1
  -7   7   9    9.20    2.80   1
   7  -7  -8   11.80    4.10   1
  -7   7   8   15.80    2.50   1
   7  -7  -7    2.00    2.80   1
  -7   7   7    3.70    1.80   1
   7  -7  -6    3.00    2.90   1
  -7   7   6    7.30    2.20   1
   7  -7  -5   19.90    3.00   1
  -7   7   5   21.60    2.70   1
   7  -7  -4    2.10    2.50   1
  -7   7   4    2.60    1.80   1
  -7   7   3   29.70    2.50   1
  -7   7   2    0.20    0.40   1
  -7   7   1    8.50    0.90   1
  -7   7   0   -0.20    0.90   1
  -7   7  -1    0.50    0.90   1
  -7   7  -2   19.00    1.60   1
  -7   7  -3    2.80    1.00   1
  -7   7  -4    3.30    1.00   1
  -7   7  -5   -0.70    1.20   1
   7  -6 -11   -1.40    3.70   1
  -7   6  11    1.80    3.10   1
   7  -6 -10   21.10    3.40   1
  -7   6  10   28.20    4.60   1
   7  -6  -9   19.50    3.10   1
  -7   6   9   27.90    4.60   1
   7  -6  -8   -0.30    1.80   1
  -7   6   8    6.00    2.80   1
   7  -6  -7    1.60    1.70   1
  -7   6   7    1.20    2.00   1
   7  -6  -6   17.20    3.00   1
  -7   6   6   20.30    2.30   1
   7  -6  -5    3.70    1.50   1
  -7   6   5    0.60    1.20   1
   7  -6  -4    9.10    1.90   1
  -7   6   4   13.70    1.80   1
  -7   6   3   26.20    2.20   1
  -7   6   2    2.30    0.50   1
  -7   6   1   38.00    1.60   1
  -7   6   0    2.50    0.70   1
  -7   6  -1    4.60    1.00   1
  -7   6  -2    4.20    0.90   1
  -7   6  -3    1.30    0.80   1
  -7   6  -4    0.70    0.80   1
  -7   6  -5    4.20    1.10   1
  -7   6  -6   -1.50    4.10   1
  -7   6  -7    0.10    3.70   1
   7  -5 -13   31.80    5.60   1
  -7   5  13   38.50    5.60   1
   7  -5 -12    3.60    2.40   1
  -7   5  12   -0.40    2.70   1
   7  -5 -11   27.70    3.80   1
  -7   5  11   33.10    4.90   1
   7  -5 -10   23.70    3.90   1
  -7   5  10   23.80    3.90   1
   7  -5  -9    2.00    1.40   1
  -7   5   9    0.60    2.30   1
   7  -5  -8   26.40    2.70   1
  -7   5   8   32.00    4.50   1
   7  -5  -7   68.70    4.30   1
  -7   5   7   70.10    6.90   1
   7  -5  -6    2.80    1.30   1
  -7   5   6    1.00    2.30   1
   7  -5  -5    3.90    1.30   1
  -7   5   5    6.70    2.30   1
   7  -5  -4   50.60    2.90   1
  -7   5   4   51.80    3.40   1
   7  -5  -3   28.90    3.80   1
  -7   5   3   23.70    1.00   1
   7  -5  -2   19.10    3.00   1
  -7   5   2   19.80    1.10   1
   7  -5  -1    3.80    2.10   1
  -7   5   1    3.20    0.70   1
   7  -5   0    0.20    1.70   1
  -7   5   0    1.50    0.60   1
   7  -5   1   15.90    2.80   1
  -7   5  -1   16.20    1.10   1
   7  -5   2   20.60    2.80   1
  -7   5  -2   18.10    1.40   1
   7  -5   3   23.00    3.20   1
  -7   5  -3   19.50    1.40   1
   7  -5   4    0.30    1.40   1
  -7   5  -4    0.60    0.70   1
   7  -5   5    6.10    1.60   1
  -7   5  -5    2.80    1.00   1
   7  -5   6    7.20    1.70   1
  -7   5  -6    2.30    0.70   1
  -7   5  -7   13.60    3.40   1
  -7   5  -8   11.70    3.90   1
   7  -4 -14    6.30    4.10   1
  -7   4  14   12.00    3.80   1
   7  -4 -13    5.20    2.70   1
  -7   4  13    9.40    2.90   1
   7  -4 -12    9.10    2.30   1
  -7   4  12    4.80    2.90   1
   7  -4 -11   69.40    4.80   1
  -7   4  11   56.50    6.30   1
   7  -4 -10    3.80    1.60   1
  -7   4  10    1.80    2.60   1
   7  -4  -9   60.50    3.70   1
  -7   4   9   63.50    6.20   1
   7  -4  -8  132.40    6.00   1
  -7   4   8  127.00    9.50   1
   7  -4  -7    1.10    1.00   1
  -7   4   7   -1.20    2.10   1
   7  -4  -6   71.70    3.50   1
  -7   4   6   67.50    6.00   1
   7  -4  -5   15.70    1.50   1
  -7   4   5   16.20    3.40   1
   7  -4  -4   17.70    1.50   1
  -7   4   4   17.60    1.10   1
   7  -4  -3   87.60    6.70   1
  -7   4   3   80.50    3.30   1
   7  -4  -2    8.80    2.40   1
  -7   4   2    7.10    1.00   1
   7  -4  -1   -1.60    1.90   1
  -7   4   1    0.60    0.80   1
   7  -4   0   29.50    3.50   1
  -7   4   0   29.10    1.80   1
   7  -4   1   17.30    2.70   1
  -7   4  -1   19.40    1.60   1
   7  -4   2   -0.10    1.50   1
  -7   4  -2    0.00    1.00   1
   7  -4   3   16.50    2.40   1
  -7   4  -3   12.30    2.10   1
   7  -4   4   16.70    2.50   1
  -7   4  -4   22.50    4.00   1
   7  -4   5    5.40    1.70   1
   7  -4   6   -3.00    1.70   1
  -7   4  -6    2.90    2.70   1
   7  -4   7    2.40    1.40   1
  -7   4  -7   -1.70    4.20   1
   7  -4   8    0.10    1.60   1
  -7   4  -8   -0.60    3.00   1
  -7   4  -9   10.20    4.10   1
   7  -3 -15    5.00    4.00   1
  -7   3  15    1.70    2.80   1
   7  -3 -14   -2.20    2.30   1
  -7   3  14    3.20    2.50   1
   7  -3 -13   18.40    2.60   1
  -7   3  13   18.60    3.00   1
   7  -3 -12   36.80    3.20   1
  -7   3  12   21.40    3.90   1
   7  -3 -11   -0.40    1.70   1
  -7   3  11    0.20    2.30   1
   7  -3 -10   52.60    3.50   1
  -7   3  10   49.70    5.20   1
   7  -3  -9   38.70    2.80   1
  -7   3   9   43.10    5.00   1
   7  -3  -8    3.80    1.30   1
  -7   3   8    3.50    3.10   1
   7  -3  -7   82.50    4.10   1
  -7   3   7   87.50    7.10   1
   7  -3  -6   70.20    3.40   1
  -7   3   6   68.00    3.00   1
   7  -3  -5   13.30    1.10   1
  -7   3   5   12.00    1.20   1
   7  -3  -4   35.00    1.80   1
  -7   3   4   39.00    2.30   1
   7  -3  -3  114.70    7.30   1
  -7   3   3  102.00    3.90   1
   7  -3  -2   -1.80    1.70   1
  -7   3   2    0.10    0.80   1
   7  -3  -1   79.70    5.80   1
  -7   3   1   91.50    3.90   1
   7  -3   0   13.00    2.50   1
  -7   3   0   12.30    1.40   1
   7  -3   1    5.60    1.90   1
  -7   3  -1    1.90    1.60   1
   7  -3   2  139.00    9.80   1
  -7   3  -2  122.60    6.10   1
   7  -3   3   47.10    4.80   1
  -7   3  -3   46.90    3.30   1
   7  -3   4    9.40    1.90   1
  -7   3  -4    9.40    2.10   1
   7  -3   5    5.60    2.10   1
  -7   3  -5    9.10    1.80   1
   7  -3   6    2.20    2.00   1
  -7   3  -6    2.30    2.00   1
   7  -3   7   12.40    2.00   1
  -7   3  -7   11.60    2.60   1
   7  -3   8    2.60    1.10   1
  -7   3  -8    0.40    2.90   1
  -7   3  -9   10.70    4.90   1
   7  -2 -15    1.10    2.60   1
  -7   2  15   -0.30    2.00   1
   7  -2 -14   87.40    5.30   1
  -7   2  14   96.00    6.70   1
   7  -2 -13   17.00    2.70   1
  -7   2  13   19.50    2.90   1
   7  -2 -12   -0.90    1.50   1
  -7   2  12   -2.10    3.20   1
   7  -2 -11   41.80    3.10   1
  -7   2  11   40.50    4.70   1
   7  -2 -10   86.70    4.90   1
  -7   2  10   91.90    7.10   1
   7  -2  -9    8.50    1.70   1
  -7   2   9    5.50    2.50   1
   7  -2  -8   28.50    2.30   1
  -7   2   8   30.70    2.00   1
   7  -2  -7   58.10    3.20   1
  -7   2   7   61.80    3.10   1
   7  -2  -6   11.30    1.00   1
  -7   2   6    9.50    1.20   1
   7  -2  -5   73.30    3.20   1
  -7   2   5   72.80    3.70   1
   7  -2  -4   26.00    3.20   1
  -7   2   4   29.00    1.70   1
   7  -2  -3    0.40    1.80   1
  -7   2   3    2.00    0.90   1
   7  -2  -2   84.50    6.80   1
  -7   2   2   80.60    3.20   1
   7  -2  -1  122.10    8.20   1
  -7   2   1  126.40    5.40   1
   7  -2   0    7.10    2.80   1
  -7   2   0    7.40    1.60   1
   7  -2   1   64.80    5.30   1
  -7   2  -1   64.60    3.80   1
   7  -2   2   13.80    2.40   1
  -7   2  -2   18.40    2.20   1
   7  -2   3   -3.60    2.20   1
  -7   2  -3   -0.60    1.60   1
   7  -2   4   50.10    4.70   1
  -7   2  -4   46.10    3.30   1
   7  -2   5    1.60    2.00   1
  -7   2  -5    1.90    1.80   1
   7  -2   6   34.10    3.80   1
  -7   2  -6   36.70    3.50   1
   7  -2   7   15.00    2.20   1
  -7   2  -7   15.50    2.50   1
   7  -2   8    3.80    2.10   1
  -7   2  -8    3.10    2.20   1
   7  -2   9   18.30    2.80   1
  -7   2  -9   16.70    4.10   1
   7  -1 -15    9.70    1.70   1
  -7   1  15   16.80    3.00   1
   7  -1 -14   11.10    1.60   1
  -7   1  14    8.80    2.40   1
   7  -1 -13    5.10    1.20   1
  -7   1  13    4.90    2.20   1
   7  -1 -12   66.80    3.00   1
  -7   1  12   50.60    3.70   1
   7  -1 -11   36.80    2.20   1
  -7   1  11   32.50    4.00   1
   7  -1 -10   17.00    1.30   1
  -7   1  10   14.40    2.90   1
   7  -1  -9   28.40    1.70   1
  -7   1   9   28.90    2.30   1
   7  -1  -8   66.90    3.40   1
  -7   1   8   62.70    3.80   1
   7  -1  -7   16.40    1.50   1
  -7   1   7   12.50    1.70   1
   7  -1  -6  164.00    6.40   1
  -7   1   6  174.80    6.50   1
   7  -1  -5   24.70    1.00   1
  -7   1   5   24.90    1.70   1
   7  -1  -4   39.40    4.30   1
  -7   1   4   40.10    2.50   1
   7  -1  -3  262.30   14.40   1
  -7   1   3  274.20    8.70   1
   7  -1  -2   47.00    4.10   1
  -7   1   2   63.20    3.30   1
   7  -1  -1   56.20    5.10   1
  -7   1   1   61.70    3.50   1
   7  -1   0   63.60    5.60   1
  -7   1   0   59.90    3.60   1
   7  -1   1    7.80    1.90   1
  -7   1  -1    5.30    1.40   1
   7  -1   2   27.30    3.60   1
  -7   1  -2   27.80    2.60   1
   7  -1   3   62.80    5.00   1
  -7   1  -3   47.00    3.40   1
   7  -1   4    7.00    2.00   1
  -7   1  -4    3.50    1.90   1
   7  -1   5    5.50    1.80   1
  -7   1  -5   12.40    2.00   1
   7  -1   6   30.10    3.70   1
  -7   1  -6   32.10    3.00   1
   7  -1   7   29.30    3.70   1
  -7   1  -7   26.60    3.40   1
   7  -1   8   16.90    3.00   1
  -7   1  -8   16.80    3.00   1
   7  -1   9   15.30    2.30   1
  -7   1  -9    5.90    3.60   1
   7   0 -15   12.60    1.90   1
  -7   0  15   12.50    2.30   1
   7   0 -14    5.20    1.60   1
  -7   0  14    4.50    2.00   1
   7   0 -13   78.70    4.00   1
  -7   0  13   69.80    6.70   1
   7   0 -12    7.30    1.30   1
  -7   0  12    7.80    2.10   1
   7   0 -11    5.70    1.20   1
  -7   0  11   -4.10    3.30   1
   7   0 -10   47.40    2.60   1
  -7   0  10   47.30    3.30   1
   7   0  -9   17.10    1.50   1
  -7   0   9   14.20    1.90   1
   7   0  -8   29.80    1.80   1
  -7   0   8   29.90    3.50   1
   7   0  -7   21.20    1.30   1
  -7   0   7   19.50    2.50   1
   7   0  -6   44.20    1.90   1
  -7   0   6   41.60    2.80   1
   7   0  -5    3.70    0.50   1
  -7   0   5    7.10    1.60   1
   7   0  -4  179.00   11.90   1
  -7   0   4  186.10    7.10   1
   7   0  -3   45.20    4.50   1
  -7   0   3   43.10    2.70   1
   7   0  -2   75.90    6.10   1
  -7   0   2   67.40    3.80   1
   7   0  -1  150.50    8.90   1
  -7   0   1  136.50    6.40   1
   7   0   0   69.20    5.30   1
  -7   0   0   72.40    4.20   1
   7   0   1   36.60    3.50   1
  -7   0  -1   37.30    3.00   1
   7   0   2  121.20    7.90   1
  -7   0  -2  111.50    5.40   1
   7   0   3    0.30    2.80   1
  -7   0  -3    1.70    1.60   1
   7   0   4   -0.80    1.90   1
  -7   0  -4   -1.10    2.30   1
   7   0   5   27.00    3.40   1
  -7   0  -5   22.50    2.80   1
   7   0   6   22.50    3.00   1
  -7   0  -6   18.40    2.80   1
   7   0   7   19.60    3.10   1
  -7   0  -7   13.90    2.60   1
   7   0   8   18.70    3.40   1
  -7   0  -8    5.10    4.90   1
   7   1 -15    5.60    2.10   1
  -7  -1  15    2.00    2.10   1
   7   1 -14    4.20    1.50   1
  -7  -1  14    6.50    2.50   1
   7   1 -13   23.30    2.20   1
  -7  -1  13   31.10    4.00   1
   7   1 -12   -0.50    1.10   1
  -7  -1  12   -1.70    1.40   1
   7   1 -11   38.60    2.40   1
  -7  -1  11   48.40    3.00   1
   7   1 -10    7.50    1.30   1
  -7  -1  10    7.60    2.50   1
   7   1  -9    0.60    0.90   1
  -7  -1   9    0.90    2.10   1
   7   1  -8   76.60    3.40   1
  -7  -1   8   85.40    4.30   1
   7   1  -7   31.10    1.60   1
  -7  -1   7   34.50    2.30   1
   7   1  -6   56.70    2.00   1
  -7  -1   6   60.90    3.20   1
   7   1  -5   24.20    1.10   1
  -7  -1   5   18.50    1.80   1
   7   1  -4    7.70    0.80   1
  -7  -1   4    7.50    1.70   1
   7   1  -3    3.30    2.30   1
  -7  -1   3    0.00    1.40   1
   7   1  -2  110.40    8.40   1
  -7  -1   2   99.00    4.90   1
   7   1  -1   22.80    3.80   1
  -7  -1   1   22.70    2.00   1
   7   1   0    0.10    2.10   1
  -7  -1   0    4.00    1.60   1
   7   1   1   18.90    3.30   1
  -7  -1  -1   14.80    2.20   1
   7   1   2   68.90    5.70   1
  -7  -1  -2   66.80    4.00   1
   7   1   3  157.00   10.00   1
  -7  -1  -3  150.60    7.50   1
   7   1   4  141.60   10.30   1
  -7  -1  -4  144.50    7.80   1
   7   1   5   21.50    3.30   1
  -7  -1  -5   21.80    3.10   1
   7   1   6   11.90    2.90   1
  -7  -1  -6    7.60    2.50   1
   7   1   7   52.50    4.50   1
  -7  -1  -7   51.90    5.90   1
   7   2 -14    9.70    2.10   1
   7   2 -13   -2.10    1.60   1
  -7  -2  13    1.90    1.50   1
   7   2 -12    0.00    1.50   1
  -7  -2  12    1.90    1.70   1
   7   2 -11   26.90    2.90   1
  -7  -2  11   29.30    1.90   1
   7   2 -10    6.90    2.10   1
  -7  -2  10    4.20    1.00   1
   7   2  -9   76.80    4.70   1
  -7  -2   9   74.20    4.10   1
   7   2  -8    1.20    0.90   1
  -7  -2   8    0.30    0.90   1
   7   2  -7   47.40    2.50   1
  -7  -2   7   51.80    3.10   1
   7   2  -6  129.00    4.70   1
  -7  -2   6  132.50    5.30   1
   7   2  -5    9.90    1.20   1
  -7  -2   5    6.60    1.50   1
   7   2  -4  152.20    5.20   1
  -7  -2   4  152.10    6.70   1
   7   2  -3   56.90    3.20   1
  -7  -2   3   57.40    3.40   1
   7   2  -2    0.90    0.80   1
  -7  -2   2    1.80    1.50   1
   7   2  -1   54.40    2.60   1
  -7  -2   1   49.40    3.30   1
   7   2   0   80.20    6.90   1
  -7  -2   0   82.00    4.70   1
   7   2   1   -1.00    2.00   1
  -7  -2  -1    1.10    1.60   1
   7   2   2   17.40    4.00   1
  -7  -2  -2    8.30    2.20   1
   7   2   3   38.20    4.90   1
  -7  -2  -3   37.70    3.60   1
   7   2   4   17.50    3.10   1
  -7  -2  -4   21.80    2.80   1
   7   2   5   31.70    4.60   1
  -7  -2  -5   29.70    4.80   1
   7   2   6   20.90    4.30   1
  -7  -2  -6   26.70    4.00   1
   7   3 -13   -2.80    2.30   1
   7   3 -12   16.20    3.30   1
  -7  -3  12   13.10    3.30   1
   7   3 -11   12.50    2.20   1
  -7  -3  11    9.20    1.30   1
   7   3 -10    4.80    1.50   1
  -7  -3  10    3.50    0.80   1
   7   3  -9    5.40    1.60   1
  -7  -3   9    5.70    0.80   1
   7   3  -8    1.40    1.10   1
  -7  -3   8    1.10    0.70   1
   7   3  -7  114.70    5.10   1
  -7  -3   7  111.10    6.00   1
   7   3  -6    8.20    1.40   1
  -7  -3   6    8.90    1.50   1
   7   3  -5   23.10    1.80   1
  -7  -3   5   25.80    2.20   1
   7   3  -4    4.60    1.30   1
  -7  -3   4    3.20    1.20   1
   7   3  -3   40.30    2.40   1
  -7  -3   3   42.10    3.00   1
   7   3  -2   31.90    2.30   1
  -7  -3   2   37.20    2.90   1
   7   3  -1   73.80    4.50   1
  -7  -3   1   76.50    4.70   1
   7   3   0   -0.30    1.00   1
  -7  -3   0    1.80    1.70   1
   7   3   1   14.80    1.70   1
  -7  -3  -1   15.50    2.10   1
   7   3   2   55.90    3.40   1
  -7  -3  -2   59.90    4.10   1
   7   3   3    0.70    2.60   1
  -7  -3  -3    0.60    2.20   1
  -7  -3  -4   60.90    5.70   1
   7   4 -10    7.40    1.80   1
  -7  -4  10    9.70    3.10   1
   7   4  -9   11.20    2.10   1
  -7  -4   9    7.90    3.20   1
   7   4  -8    0.80    1.40   1
  -7  -4   8    0.50    2.60   1
   7   4  -7    1.90    1.60   1
  -7  -4   7    1.20    2.80   1
   7   4  -6   15.90    1.90   1
  -7  -4   6   10.40    3.10   1
   7   4  -5   46.70    3.70   1
  -7  -4   5   45.10    3.00   1
   7   4  -4    4.00    1.60   1
  -7  -4   4    3.90    1.30   1
   7   4  -3   12.10    1.90   1
  -7  -4   3   11.50    1.70   1
   7   4  -2    3.90    1.80   1
  -7  -4   2    6.80    1.50   1
   7   4  -1   11.50    2.20   1
  -7  -4   1    7.70    2.40   1
   7   4   0   29.20    3.00   1
  -7  -4   0   32.20    4.00   1
   7   4   1   21.00    2.60   1
  -7  -4  -1   27.40    3.30   1
  -7  -4  -2    2.30    3.20   1
  -8   7   5    8.30    1.80   1
  -8   7   4    1.30    2.70   1
  -8   7   3   19.10    3.70   1
  -8   7   2   10.70    2.90   1
  -8   7   1   -1.60    1.90   1
  -8   7   0    1.70    2.20   1
   8  -6  -9   -1.40    2.10   1
  -8   6   9   -0.40    2.80   1
   8  -6  -8   12.80    3.00   1
  -8   6   8    6.00    3.30   1
   8  -6  -7   -0.10    2.10   1
  -8   6   7   -0.40    4.30   1
   8  -6  -6    7.50    2.30   1
  -8   6   6    3.80    2.60   1
   8  -6  -5    0.70    1.10   1
  -8   6   5    3.70    3.80   1
   8  -6  -4    1.70    2.70   1
  -8   6   4   -2.00    2.50   1
   8  -6  -3   15.00    3.40   1
  -8   6   3    7.00    3.00   1
   8  -6  -2   10.80    3.30   1
  -8   6   2    7.80    2.10   1
   8  -6  -1    8.80    3.00   1
  -8   6   1    9.80    1.00   1
   8  -6   0    7.60    2.70   1
  -8   6   0    9.10    1.20   1
  -8   6  -1    0.40    0.90   1
  -8   6  -2   13.90    1.40   1
  -8   6  -3   38.00    2.50   1
   8  -5 -11   -0.20    1.80   1
  -8   5  11   -3.60    3.10   1
   8  -5 -10    0.70    2.50   1
  -8   5  10    8.10    4.20   1
   8  -5  -9   11.30    2.70   1
  -8   5   9    6.30    3.20   1
   8  -5  -8    0.20    1.30   1
  -8   5   8    3.30    3.10   1
   8  -5  -7    1.80    1.70   1
  -8   5   7   -0.10    3.80   1
   8  -5  -6   -0.50    1.20   1
  -8   5   6    0.90    2.50   1
   8  -5  -5   32.40    2.50   1
  -8   5   5   30.10    5.20   1
   8  -5  -4    4.40    2.70   1
  -8   5   4    1.90    3.40   1
   8  -5  -3    1.90    2.40   1
  -8   5   3    4.50    0.70   1
   8  -5  -2    2.70    2.30   1
  -8   5   2    5.90    1.00   1
   8  -5  -1   15.00    3.00   1
  -8   5   1   13.70    1.70   1
   8  -5   0    8.40    2.70   1
  -8   5   0    5.70    1.50   1
   8  -5   1   33.90    4.20   1
  -8   5  -1   32.90    2.30   1
   8  -5   2   36.80    4.40   1
  -8   5  -2   35.20    2.70   1
   8  -5   3   -4.20    2.60   1
  -8   5  -3   -0.20    1.60   1
   8  -5   4   11.60    2.50   1
  -8   5  -4   13.50    2.20   1
   8  -5   5   30.10    3.40   1
  -8   5  -5   28.30    2.90   1
   8  -4 -12   34.40    4.10   1
  -8   4  12   35.70    5.40   1
   8  -4 -11    1.40    2.70   1
  -8   4  11    4.00    4.40   1
   8  -4 -10    4.50    1.80   1
  -8   4  10    3.80    4.00   1
   8  -4  -9    9.10    2.20   1
  -8   4   9    9.10    3.20   1
   8  -4  -8   13.20    1.80   1
  -8   4   8   13.90    3.10   1
   8  -4  -7   85.70    4.80   1
  -8   4   7   85.70    8.50   1
   8  -4  -6   85.20    4.70   1
  -8   4   6   75.90    7.60   1
   8  -4  -5    0.80    2.30   1
  -8   4   5   -2.10    2.40   1
   8  -4  -4   29.90    4.50   1
  -8   4   4   30.80    2.00   1
   8  -4  -3    7.70    2.50   1
  -8   4   3    5.60    1.10   1
   8  -4  -2   13.50    2.80   1
  -8   4   2   12.70    1.50   1
   8  -4  -1   -1.90    2.90   1
  -8   4   1   -0.20    1.10   1
   8  -4   0   11.00    3.10   1
  -8   4   0    5.50    1.40   1
   8  -4   1    0.70    2.80   1
  -8   4  -1    1.10    1.30   1
   8  -4   2   35.70    4.50   1
  -8   4  -2   40.00    3.80   1
   8  -4   3   16.90    3.50   1
  -8   4  -3   23.20    2.50   1
   8  -4   4   40.20    4.40   1
  -8   4  -4   30.40    3.10   1
   8  -4   5   -2.00    2.20   1
  -8   4  -5   -0.90    2.10   1
   8  -3 -13    1.00    3.10   1
  -8   3  13   -1.80    4.20   1
   8  -3 -12    3.50    2.70   1
  -8   3  12    2.00    3.10   1
   8  -3 -11    6.90    2.00   1
  -8   3  11    8.90    3.40   1
   8  -3 -10   32.80    3.50   1
  -8   3  10   31.40    4.40   1
   8  -3  -9    1.10    1.40   1
  -8   3   9    1.40    3.50   1
   8  -3  -8    6.50    1.50   1
  -8   3   8    4.40    2.50   1
   8  -3  -7   58.40    3.30   1
  -8   3   7   66.00    6.50   1
   8  -3  -6    2.10    0.70   1
  -8   3   6    3.00    0.80   1
   8  -3  -5   55.70    6.10   1
  -8   3   5   65.70    3.60   1
   8  -3  -4    3.90    2.40   1
  -8   3   4    1.20    1.10   1
   8  -3  -3    5.60    2.50   1
  -8   3   3    8.00    1.30   1
   8  -3  -2   -2.20    2.10   1
  -8   3   2   -1.10    1.20   1
   8  -3  -1    4.10    3.00   1
  -8   3   1   -0.70    1.20   1
   8  -3   0   16.20    3.30   1
  -8   3   0   21.10    2.30   1
   8  -3   1    7.50    2.30   1
  -8   3  -1    9.10    2.50   1
   8  -3   2    5.40    2.20   1
  -8   3  -2    7.70    1.90   1
   8  -3   3   -0.40    1.80   1
  -8   3  -3   -2.40    2.00   1
   8  -3   4    4.60    2.10   1
  -8   3  -4    4.00    2.10   1
   8  -3   5    5.80    2.90   1
  -8   3  -5    3.40    2.30   1
   8  -3   6   12.70    2.60   1
  -8   3  -6   16.70    2.70   1
   8  -2 -13   -1.30    1.80   1
  -8   2  13    0.60    2.10   1
   8  -2 -12   29.50    3.60   1
  -8   2  12   34.50    5.50   1
   8  -2 -11    9.60    2.50   1
  -8   2  11    9.00    4.50   1
   8  -2 -10   -1.50    1.20   1
  -8   2  10   -0.40    2.70   1
   8  -2  -9    2.20    1.00   1
  -8   2   9    2.80    2.60   1
   8  -2  -8   24.40    2.10   1
  -8   2   8   26.70    2.00   1
   8  -2  -7   -0.50    0.80   1
  -8   2   7   -0.50    1.10   1
   8  -2  -6   14.20    3.20   1
  -8   2   6   23.40    2.10   1
   8  -2  -5   13.70    3.40   1
  -8   2   5   12.50    1.40   1
   8  -2  -4    1.10    2.30   1
  -8   2   4    2.50    1.10   1
   8  -2  -3   23.80    3.70   1
  -8   2   3   15.80    1.80   1
   8  -2  -2    1.70    2.00   1
  -8   2   2    4.00    1.40   1
   8  -2  -1   17.50    3.30   1
  -8   2   1   17.70    2.10   1
   8  -2   0    9.30    2.70   1
  -8   2   0   11.50    1.90   1
   8  -2   1   -2.10    1.90   1
  -8   2  -1   -1.40    1.80   1
   8  -2   2   21.80    3.00   1
  -8   2  -2   23.50    2.70   1
   8  -2   3    5.70    2.20   1
  -8   2  -3    2.90    2.00   1
   8  -2   4   50.90    5.40   1
  -8   2  -4   54.00    4.40   1
   8  -2   5    7.00    2.30   1
  -8   2  -5    5.10    2.10   1
   8  -2   6    7.60    2.30   1
  -8   2  -6    5.50    2.40   1
   8  -1 -13   19.40    3.00   1
  -8   1  13   21.80    3.00   1
   8  -1 -12   18.60    3.10   1
  -8   1  12   15.60    3.70   1
   8  -1 -11   15.90    2.40   1
  -8   1  11   14.10    4.80   1
   8  -1 -10   50.20    3.40   1
  -8   1  10   48.40    3.50   1
   8  -1  -9    2.80    1.30   1
  -8   1   9    0.80    1.00   1
   8  -1  -8    1.50    1.10   1
  -8   1   8    1.50    1.10   1
   8  -1  -7    0.50    0.70   1
  -8   1   7    1.30    1.20   1
   8  -1  -6   10.80    3.70   1
  -8   1   6   18.20    2.00   1
   8  -1  -5    0.00    2.40   1
  -8   1   5    1.50    1.20   1
   8  -1  -4   49.30    5.20   1
  -8   1   4   52.20    3.50   1
   8  -1  -3   12.00    2.80   1
  -8   1   3    9.30    1.70   1
   8  -1  -2    7.10    2.60   1
  -8   1   2    6.80    1.70   1
   8  -1  -1    1.10    2.20   1
  -8   1   1   -1.30    1.30   1
   8  -1   0    5.10    2.50   1
  -8   1   0    7.10    1.80   1
   8  -1   1    3.20    2.40   1
  -8   1  -1    5.20    2.00   1
   8  -1   2    0.70    2.10   1
  -8   1  -2    3.70    1.70   1
   8  -1   3    8.80    2.50   1
  -8   1  -3   11.00    2.40   1
   8  -1   4   -1.40    1.90   1
  -8   1  -4   -0.30    2.00   1
   8  -1   5   50.50    5.20   1
  -8   1  -5   53.80    4.70   1
   8  -1   6    2.10    2.10   1
  -8   1  -6    4.80    3.20   1
   8   0 -13    6.70    1.80   1
  -8   0  13   11.60    3.70   1
   8   0 -12   -1.50    1.40   1
  -8   0  12    3.00    2.30   1
   8   0 -11   55.10    3.40   1
  -8   0  11   43.90    4.60   1
   8   0 -10   58.00    3.50   1
  -8   0  10   66.10    5.20   1
   8   0  -9   -0.90    1.00   1
  -8   0   9    0.30    1.40   1
   8   0  -8   53.20    2.70   1
  -8   0   8   51.80    3.60   1
   8   0  -7   16.20    1.10   1
  -8   0   7   16.80    2.00   1
   8   0  -6   31.50    5.10   1
  -8   0   6   33.10    2.70   1
   8   0  -5    5.40    2.70   1
  -8   0   5    3.90    1.30   1
   8   0  -4   30.50    4.00   1
  -8   0   4   37.90    3.00   1
   8   0  -3   -1.30    2.70   1
  -8   0   3    0.00    1.30   1
   8   0  -2   52.20    6.20   1
  -8   0   2   55.90    3.70   1
   8   0  -1    2.10    2.40   1
  -8   0   1   -0.10    1.60   1
   8   0   0    3.30    3.40   1
  -8   0   0    1.90    1.50   1
   8   0   1   17.90    3.40   1
  -8   0  -1   14.90    2.70   1
   8   0   2    3.20    2.60   1
  -8   0  -2    1.30    1.80   1
   8   0   3   11.90    3.90   1
  -8   0  -3   22.80    2.80   1
   8   0   4   39.40    5.10   1
  -8   0  -4   28.80    3.30   1
   8   0   5   -3.20    3.10   1
  -8   0  -5    0.90    3.00   1
   8   1 -12   19.50    2.00   1
  -8  -1  12   15.20    2.00   1
   8   1 -11    5.80    1.50   1
  -8  -1  11    5.00    1.30   1
   8   1 -10   -0.20    1.20   1
  -8  -1  10    1.50    1.80   1
   8   1  -9   43.10    2.40   1
  -8  -1   9   40.10    2.90   1
   8   1  -8    9.40    1.00   1
  -8  -1   8    8.20    1.60   1
   8   1  -7    1.00    0.70   1
  -8  -1   7   -0.80    1.30   1
   8   1  -6   17.60    1.10   1
  -8  -1   6   18.00    2.00   1
   8   1  -5   32.00    4.70   1
  -8  -1   5   35.30    3.10   1
   8   1  -4   13.10    4.20   1
  -8  -1   4   15.00    2.00   1
   8   1  -3   19.40    3.60   1
  -8  -1   3   20.10    2.30   1
   8   1  -2   10.10    3.00   1
  -8  -1   2    6.50    2.10   1
   8   1  -1    7.90    3.90   1
  -8  -1   1    4.40    1.70   1
   8   1   0   58.80    6.00   1
  -8  -1   0   51.40    4.10   1
   8   1   1    0.20    3.70   1
  -8  -1  -1    1.00    1.70   1
   8   1   2    6.80    2.60   1
  -8  -1  -2    8.20    2.90   1
   8   1   3   -0.20    2.40   1
  -8  -1  -3   -1.40    2.70   1
   8   1   4   -0.20    2.60   1
  -8  -1  -4    6.70    3.10   1
   8   2 -10   21.70    1.90   1
  -8  -2  10   17.80    2.10   1
   8   2  -9   10.20    1.40   1
  -8  -2   9   11.40    2.10   1
   8   2  -8   23.00    1.70   1
  -8  -2   8   22.10    2.20   1
   8   2  -7   41.30    2.20   1
  -8  -2   7   41.00    3.00   1
   8   2  -6   21.10    1.50   1
  -8  -2   6   21.10    2.50   1
   8   2  -5   25.00    1.50   1
  -8  -2   5   26.10    2.60   1
   8   2  -4    6.20    0.50   1
  -8  -2   4    7.30    2.30   1
  -8  -2   3   14.90    2.00   1
  -8  -2   2   -0.60    1.80   1
  -8  -2   1   16.40    2.50   1
  -8  -2   0   19.20    2.50   1
  -8  -2  -1    2.90    2.50   1
  -8  -2  -2   54.80    5.70   1
   8   3  -7   54.90    3.80   1
  -8  -3   7   43.70    5.20   1
   8   3  -6   19.70    3.90   1
  -8  -3   6   10.10    4.50   1
  -8  -3   5   61.00    4.00   1
  -8  -3   4    6.90    2.00   1
  -8  -3   3   18.00    3.00   1
  -8  -3   2   20.20    3.30   1
  -9   5   4   -0.30    2.30   1
  -9   5   3    6.10    2.40   1
  -9   4   7   14.80    3.80   1
  -9   4   6    4.30    2.10   1
  -9   4   5    3.00    2.50   1
  -9   4   4    2.10    2.80   1
   9  -4  -3   25.20    4.50   1
  -9   4   3   22.30    3.40   1
   9  -4  -2    1.60    2.60   1
  -9   4   2    3.00    2.70   1
   9  -4  -1   13.20    4.20   1
  -9   4   1    8.60    1.70   1
   9  -4   0   29.10    4.90   1
  -9   4   0   33.20    3.30   1
  -9   3   9   -1.40    4.10   1
  -9   3   8   -4.80    3.00   1
  -9   3   7    5.60    2.40   1
  -9   3   6    1.00    2.00   1
  -9   3   5    4.30    2.60   1
  -9   3   4    3.90    1.30   1
   9  -3  -3    1.30    3.90   1
  -9   3   3    4.70    1.90   1
   9  -3  -2    3.70    2.70   1
  -9   3   2    7.00    1.90   1
   9  -3  -1   21.10    3.50   1
  -9   3   1   23.30    2.50   1
   9  -3   0    0.60    2.40   1
  -9   3   0    2.50    2.00   1
   9  -3   1    9.00    2.90   1
  -9   3  -1   10.20    2.20   1
  -9   2   9   -2.10    3.10   1
  -9   2   8   15.00    2.80   1
  -9   2   7   -0.70    2.20   1
  -9   2   6    3.20    1.20   1
  -9   2   5   14.60    2.40   1
  -9   2   4   -0.40    1.20   1
  -9   2   3   22.70    2.40   1
   9  -2  -2    1.80    2.60   1
  -9   2   2    5.90    1.90   1
   9  -2  -1    3.40    3.70   1
  -9   2   1    6.60    1.70   1
   9  -2   0   18.20    3.70   1
  -9   2   0   18.40    2.50   1
   9  -2   1    9.20    3.00   1
  -9   2  -1   11.30    2.70   1
  -9   1   9    1.70    2.10   1
  -9   1   8    3.90    3.30   1
  -9   1   7    4.10    1.50   1
  -9   1   6    7.40    1.80   1
  -9   1   5    0.60    1.40   1
  -9   1   4   13.40    2.00   1
  -9   1   3    9.20    2.10   1
  -9   1   2    1.80    1.90   1
  -9   1   1    5.70    2.60   1
  -9   1   0   19.60    2.80   1
  -9   0   7    2.30    1.70   1
  -9   0   6    2.90    1.80   1
  -9   0   5    8.10    2.00   1
  -9   0   4    0.60    1.60   1
  -9   0   3   -1.60    2.30   1
  -9   0   2    1.00    1.90   1
  -9   0   1   -2.20    2.10   1
   0   0   0
;
_shelx_hkl_checksum              3732
_shelx_res_file
;
 shelx.res created by SHELXL-2014/7
TITL k2370 in P -1 sir:  maxus
CELL  0.71073   7.2407   7.9326  15.0550   92.932  102.406  102.727
ZERR     2.00   0.0002   0.0002   0.0005    0.002    0.002    0.002
LATT   1
SFAC  C    H    N    O    S    CO   CL
UNIT  22   32   6    12   2    2    2
MERG   2
OMIT     0   0   2
OMIT     0   1   0
OMIT    -1   0   1
OMIT     0   2   3
OMIT     0  -1   1
OMIT    -1   2   2
OMIT     1   0   0
OMIT     0   1   1
DFIX 0.82 O5 H5A O5 H5B O6 H6A O6 H6B
EQIV $1 -x+1, -y+1, -z
EQIV $2 -x+1, -y+1, -z+1
EQIV $3 -x+1, -y, -z+1
EQIV $4  x-1, y, z
HTAB N2 N3_$1
HTAB N2 O1
HTAB O5 O6_$2
HTAB O5 O6
HTAB O6 O2_$3
HTAB O6 Cl1_$4
FMAP   2
PLAN   20
SIZE     0.05   0.12   0.20
ACTA
BOND   $H
CONF
L.S.  10
WGHT    0.039200    0.177000
FVAR       0.64303   0.63272
CO1   6    0.757205    0.332196    0.321639    11.00000    0.04099    0.02731 =
         0.02565    0.00657    0.00462    0.00634
CL1   7    1.055091    0.274795    0.347810    11.00000    0.04563    0.04422 =
         0.04699    0.01182    0.00228    0.01489
PART    1
S1A   5    0.336891   -0.156149    0.118491    21.00000    0.04178    0.04556 =
         0.03220    0.00112    0.00238    0.00457
C3A   1    0.339831   -0.330187    0.255211    21.00000    0.05076    0.05604 =
         0.04047    0.00697    0.01110    0.01928
AFIX  43
H3A   2    0.365095   -0.360781    0.314663    21.00000   -1.20000
AFIX   0
PART    2
S1B   5    0.336282   -0.345417    0.275687   -21.00000    0.03982    0.02718 =
         0.04443    0.00353    0.00490    0.00118
C3B   1    0.335759   -0.185843    0.134410   -21.00000    0.05301    0.05855 =
         0.08566    0.02118    0.03969    0.00799
AFIX  43
H3B   2    0.357509   -0.098734    0.096197   -21.00000   -1.20000
AFIX   0
PART    0
N1    3    0.757045    0.518604    0.231609    11.00000    0.03232    0.02411 =
         0.02381    0.00445    0.00248    0.00548
N2    3    0.563917    0.351646    0.100029    11.00000    0.05073    0.02922 =
         0.02820    0.00392   -0.00259    0.00179
AFIX  93
H2A   2    0.512437    0.339622    0.042319    11.00000   -1.20000
H2B   2    0.544185    0.264773    0.131543    11.00000   -1.20000
AFIX   0
N3    3    0.700103    0.635895    0.088111    11.00000    0.04030    0.03065 =
         0.02343    0.00574    0.00165    0.00658
O1    4    0.565697    0.132476    0.247726    11.00000    0.05327    0.02856 =
         0.03974    0.00950    0.00261    0.00032
O2    4    0.591053   -0.004430    0.372628    11.00000    0.06854    0.03797 =
         0.03421    0.00659    0.00228   -0.00107
O3    4    0.933503    0.674300    0.359576    11.00000    0.05000    0.02865 =
         0.02138    0.00508   -0.00067    0.00178
O4    4    0.825132    0.909644    0.070665    11.00000    0.06134    0.03128 =
         0.02793    0.01156    0.00431    0.00250
O5    4    0.655935    0.408613    0.423712    11.00000    0.08094    0.03287 =
         0.05875    0.00569    0.04139    0.00449
H5A   2    0.663901    0.511336    0.437534    11.00000   -1.50000
H5B   2    0.586413    0.344607    0.450561    11.00000   -1.50000
C1    1    0.528710   -0.003736    0.289368    11.00000    0.03821    0.02845 =
         0.03831    0.00644    0.00742    0.00491
C2    1    0.407913   -0.161823    0.231553    11.00000    0.03137    0.02926 =
         0.03638    0.00329    0.00747    0.00539
C4    1    0.228090   -0.448431    0.178147    11.00000    0.05086    0.03375 =
         0.06954   -0.00260    0.01963    0.00054
AFIX  43
H4    2    0.168257   -0.564349    0.179721    11.00000   -1.20000
AFIX   0
C5    1    0.223784   -0.363605    0.102383    11.00000    0.04353    0.05626 =
         0.05180   -0.01529    0.00500    0.00029
AFIX  43
H5    2    0.160577   -0.419147    0.044437    11.00000   -1.20000
AFIX   0
C6    1    0.674755    0.505573    0.140801    11.00000    0.03185    0.02925 =
         0.02560    0.00383    0.00414    0.00881
C7    1    0.863620    0.677164    0.269955    11.00000    0.03118    0.02785 =
         0.02140    0.00425    0.00456    0.00749
C8    1    0.894260    0.820511    0.222666    11.00000    0.03283    0.02523 =
         0.02681    0.00361    0.00532    0.00479
AFIX  43
H8    2    0.966374    0.929450    0.250468    11.00000   -1.20000
AFIX   0
C9    1    0.807870    0.788451    0.129415    11.00000    0.03411    0.02926 =
         0.02605    0.00873    0.00581    0.00809
C10   1    1.055956    0.831276    0.412244    11.00000    0.05547    0.03499 =
         0.02550   -0.00160    0.00004   -0.00090
AFIX 137
H10A  2    1.170568    0.866574    0.389023    11.00000   -1.50000
H10B  2    1.092822    0.810430    0.475123    11.00000   -1.50000
H10C  2    0.986069    0.921416    0.407680    11.00000   -1.50000
AFIX   0
C11   1    0.936669    1.082454    0.106312    11.00000    0.07002    0.02822 =
         0.03622    0.01015    0.01147    0.00425
AFIX 137
H11A  2    0.875118    1.130951    0.148472    11.00000   -1.50000
H11B  2    0.943560    1.153720    0.056918    11.00000   -1.50000
H11C  2    1.065750    1.077994    0.137332    11.00000   -1.50000
AFIX   0
MOLE    2
O6    4    0.387593    0.263988    0.515816    11.00000    0.04942    0.04467 =
         0.03891    0.01223    0.00426    0.00535
H6A   2    0.401150    0.183168    0.545796    11.00000   -1.50000
H6B   2    0.286855    0.235593    0.474793    11.00000   -1.50000
HKLF 4
REM  k2370 in P -1 sir:  maxus
REM R1 =  0.0297 for    3189 Fo > 4sig(Fo)  and  0.0382 for all    3734 data
REM    241 parameters refined using      4 restraints
END
WGHT      0.0363      0.1432
REM Highest difference peak  0.270,  deepest hole -0.451,  1-sigma level  0.053
Q1    1   1.0717  0.3406  0.3937  11.00000  0.05    0.27
Q2    1   0.7606  0.4580  0.2558  11.00000  0.05    0.25
Q3    1   0.8561  0.8046  0.1778  11.00000  0.05    0.23
Q4    1   0.9001  0.7427  0.2347  11.00000  0.05    0.21
Q5    1   0.7858  0.5841  0.2458  11.00000  0.05    0.21
Q6    1   0.4393  0.1857  0.4923  11.00000  0.05    0.21
Q7    1   0.5518  0.1397  0.2197  11.00000  0.05    0.20
Q8    1   0.2473 -0.4254  0.1355  11.00000  0.05    0.19
Q9    1   0.5078  0.1188  0.2729  11.00000  0.05    0.19
Q10   1   0.7276  0.5005  0.2095  11.00000  0.05    0.19
Q11   1   0.4765  0.3910  0.3006  11.00000  0.05    0.19
Q12   1   0.5998  0.1846  0.2945  11.00000  0.05    0.18
Q13   1   0.6314  0.4390  0.2765  11.00000  0.05    0.18
Q14   1   0.6939  0.5769  0.1109  11.00000  0.05    0.18
Q15   1   0.6303  0.6401  0.0813  11.00000  0.05    0.17
Q16   1   0.6570  0.6174  0.0450  11.00000  0.05    0.17
Q17   1   0.4349 -0.0886  0.2612  11.00000  0.05    0.17
Q18   1   0.7292  0.9976  0.0381  11.00000  0.05    0.17
Q19   1   0.8112  0.3677  0.4238  11.00000  0.05    0.17
Q20   1   0.6570  0.3225  0.2355  11.00000  0.05    0.16
;
_shelx_res_checksum              57252
loop_
_space_group_symop_operation_xyz
'x, y, z'
'-x, -y, -z'
loop_
_atom_site_type_symbol
_atom_site_label
_atom_site_fract_x
_atom_site_fract_y
_atom_site_fract_z
_atom_site_U_iso_or_equiv
_atom_site_adp_type
_atom_site_calc_flag
_atom_site_occupancy
_atom_site_disorder_assembly
_atom_site_disorder_group
Co Co1 0.75721(4) 0.33220(3) 0.32164(2) 0.03194(9) Uani d 1 . .
Cl Cl1 1.05509(7) 0.27480(7) 0.34781(4) 0.04599(13) Uani d 1 . .
S S1A 0.3369(4) -0.1561(4) 0.11849(17) 0.0418(5) Uani d 0.633(4) A 1
C C3A 0.3398(19) -0.3302(15) 0.2552(8) 0.048(4) Uani d 0.633(4) A 1
H H3A 0.3651 -0.3608 0.3147 0.057 Uiso calc 0.633(4) A 1
S S1B 0.3363(8) -0.3454(6) 0.2757(4) 0.0390(9) Uani d 0.367(4) A 2
C C3B 0.336(3) -0.186(3) 0.1344(12) 0.062(7) Uani d 0.367(4) A 2
H H3B 0.3575 -0.0987 0.0962 0.075 Uiso calc 0.367(4) A 2
N N1 0.7570(2) 0.51860(18) 0.23161(10) 0.0275(3) Uani d 1 . .
N N2 0.5639(2) 0.3516(2) 0.10003(11) 0.0391(4) Uani d 1 . .
H H2A 0.5124 0.3396 0.0423 0.047 Uiso calc 1 . .
H H2B 0.5442 0.2648 0.1315 0.047 Uiso calc 1 . .
N N3 0.7001(2) 0.63589(19) 0.08811(10) 0.0325(3) Uani d 1 . .
O O1 0.5657(2) 0.13248(17) 0.24773(10) 0.0431(3) Uani d 1 . .
O O2 0.5911(2) -0.00443(19) 0.37263(10) 0.0505(4) Uani d 1 . .
O O3 0.9335(2) 0.67430(16) 0.35958(8) 0.0358(3) Uani d 1 . .
O O4 0.8251(2) 0.90964(17) 0.07066(9) 0.0422(3) Uani d 1 . .
O O5 0.6559(3) 0.4086(2) 0.42371(12) 0.0550(4) Uani d 1 . .
H H5A 0.664(5) 0.511(3) 0.438(2) 0.083 Uiso d 1 . .
H H5B 0.586(4) 0.345(4) 0.451(2) 0.083 Uiso d 1 . .
C C1 0.5287(3) -0.0037(2) 0.28937(13) 0.0356(4) Uani d 1 . .
C C2 0.4079(3) -0.1618(2) 0.23155(13) 0.0327(4) Uani d 1 . .
C C4 0.2281(3) -0.4484(3) 0.17815(18) 0.0523(6) Uani d 1 . .
H H4 0.1683 -0.5643 0.1797 0.063 Uiso calc 1 A 1
C C5 0.2238(3) -0.3636(3) 0.10238(18) 0.0541(6) Uani d 1 . .
H H5 0.1606 -0.4191 0.0444 0.065 Uiso calc 1 A 1
C C6 0.6748(2) 0.5056(2) 0.14080(12) 0.0290(3) Uani d 1 . .
C C7 0.8636(2) 0.6772(2) 0.26996(11) 0.0269(3) Uani d 1 . .
C C8 0.8943(3) 0.8205(2) 0.22267(12) 0.0288(3) Uani d 1 . .
H H8 0.9664 0.9294 0.2505 0.035 Uiso calc 1 . .
C C9 0.8079(3) 0.7885(2) 0.12941(12) 0.0297(3) Uani d 1 . .
C C10 1.0560(3) 0.8313(3) 0.41224(13) 0.0421(5) Uani d 1 . .
H H10A 1.1706 0.8666 0.3890 0.063 Uiso calc 1 . .
H H10B 1.0928 0.8104 0.4751 0.063 Uiso calc 1 . .
H H10C 0.9861 0.9214 0.4077 0.063 Uiso calc 1 . .
C C11 0.9367(4) 1.0825(2) 0.10631(15) 0.0459(5) Uani d 1 . .
H H11A 0.8751 1.1310 0.1485 0.069 Uiso calc 1 . .
H H11B 0.9436 1.1537 0.0569 0.069 Uiso calc 1 . .
H H11C 1.0657 1.0780 0.1373 0.069 Uiso calc 1 . .
O O6 0.3876(2) 0.2640(2) 0.51582(11) 0.0459(3) Uani d 1 . .
H H6A 0.401(4) 0.183(3) 0.5458(19) 0.069 Uiso d 1 . .
H H6B 0.287(3) 0.236(4) 0.4748(17) 0.069 Uiso d 1 . .
loop_
_atom_site_aniso_label
_atom_site_aniso_U_11
_atom_site_aniso_U_22
_atom_site_aniso_U_33
_atom_site_aniso_U_12
_atom_site_aniso_U_13
_atom_site_aniso_U_23
Co1 0.04099(15) 0.02731(13) 0.02565(14) 0.00634(10) 0.00462(10) 0.00657(9)
Cl1 0.0456(3) 0.0442(3) 0.0470(3) 0.0149(2) 0.0023(2) 0.0118(2)
S1A 0.0418(7) 0.0456(9) 0.0322(6) 0.0046(5) 0.0024(5) 0.0011(7)
C3A 0.051(3) 0.056(5) 0.040(5) 0.019(3) 0.011(3) 0.007(3)
S1B 0.0398(11) 0.0272(9) 0.044(2) 0.0012(7) 0.0049(11) 0.0035(12)
C3B 0.053(7) 0.059(9) 0.086(14) 0.008(5) 0.040(8) 0.021(6)
N1 0.0323(7) 0.0241(7) 0.0238(7) 0.0055(5) 0.0025(6) 0.0044(5)
N2 0.0507(9) 0.0292(8) 0.0282(8) 0.0018(7) -0.0026(7) 0.0039(6)
N3 0.0403(8) 0.0307(7) 0.0234(7) 0.0066(6) 0.0016(6) 0.0057(6)
O1 0.0533(8) 0.0286(7) 0.0397(8) 0.0003(6) 0.0026(6) 0.0095(6)
O2 0.0685(10) 0.0380(8) 0.0342(8) -0.0011(7) 0.0023(7) 0.0066(6)
O3 0.0500(8) 0.0286(6) 0.0214(6) 0.0018(5) -0.0007(5) 0.0051(5)
O4 0.0613(9) 0.0313(7) 0.0279(7) 0.0025(6) 0.0043(6) 0.0116(5)
O5 0.0809(12) 0.0329(8) 0.0587(10) 0.0045(8) 0.0414(9) 0.0057(7)
C1 0.0382(10) 0.0284(9) 0.0383(11) 0.0049(7) 0.0074(8) 0.0064(8)
C2 0.0314(9) 0.0293(9) 0.0364(10) 0.0054(7) 0.0075(7) 0.0033(7)
C4 0.0509(12) 0.0338(10) 0.0695(16) 0.0005(9) 0.0196(11) -0.0026(10)
C5 0.0435(12) 0.0563(14) 0.0518(14) 0.0003(10) 0.0050(10) -0.0153(11)
C6 0.0318(8) 0.0292(8) 0.0256(8) 0.0088(7) 0.0041(7) 0.0038(7)
C7 0.0312(8) 0.0278(8) 0.0214(8) 0.0075(6) 0.0046(6) 0.0043(6)
C8 0.0328(8) 0.0252(8) 0.0268(8) 0.0048(6) 0.0053(7) 0.0036(6)
C9 0.0341(9) 0.0293(8) 0.0260(8) 0.0081(7) 0.0058(7) 0.0087(7)
C10 0.0555(12) 0.0350(10) 0.0255(9) -0.0009(9) 0.0000(8) -0.0016(8)
C11 0.0700(14) 0.0282(9) 0.0362(11) 0.0043(9) 0.0115(10) 0.0101(8)
O6 0.0494(9) 0.0447(8) 0.0389(8) 0.0054(7) 0.0043(6) 0.0122(7)
loop_
_atom_type_symbol
_atom_type_description
_atom_type_scat_dispersion_real
_atom_type_scat_dispersion_imag
_atom_type_scat_source
C C 0.0033 0.0016 'International Tables Vol C Tables 4.2.6.8 and 6.1.1.4'
H H 0.0000 0.0000 'International Tables Vol C Tables 4.2.6.8 and 6.1.1.4'
N N 0.0061 0.0033 'International Tables Vol C Tables 4.2.6.8 and 6.1.1.4'
O O 0.0106 0.0060 'International Tables Vol C Tables 4.2.6.8 and 6.1.1.4'
S S 0.1246 0.1234 'International Tables Vol C Tables 4.2.6.8 and 6.1.1.4'
Co Co 0.3494 0.9721 'International Tables Vol C Tables 4.2.6.8 and 6.1.1.4'
Cl Cl 0.1484 0.1585 'International Tables Vol C Tables 4.2.6.8 and 6.1.1.4'
loop_
_geom_angle_atom_site_label_1
_geom_angle_atom_site_label_2
_geom_angle_atom_site_label_3
_geom_angle
O5 Co1 O1 109.43(7)
O5 Co1 N1 107.80(6)
O1 Co1 N1 101.58(6)
O5 Co1 Cl1 120.36(6)
O1 Co1 Cl1 109.14(5)
N1 Co1 Cl1 106.84(4)
C5 S1A C2 92.3(2)
C2 C3A C4 112.7(8)
C2 C3A H3A 123.7
C4 C3A H3A 123.7
C4 S1B C2 93.1(3)
C2 C3B C5 112.0(12)
C2 C3B H3B 124.0
C5 C3B H3B 124.0
C7 N1 C6 116.09(14)
C7 N1 Co1 113.24(11)
C6 N1 Co1 130.61(11)
C6 N2 H2A 120.0
C6 N2 H2B 120.0
H2A N2 H2B 120.0
C9 N3 C6 116.73(15)
C1 O1 Co1 115.22(12)
C7 O3 C10 118.75(14)
C9 O4 C11 118.10(15)
Co1 O5 H5A 122(2)
Co1 O5 H5B 125(2)
H5A O5 H5B 112(3)
O2 C1 O1 122.72(17)
O2 C1 C2 121.55(17)
O1 C1 C2 115.73(17)
C3A C2 C1 130.2(5)
C3B C2 C1 128.5(8)
C3B C2 S1B 109.8(8)
C1 C2 S1B 121.7(2)
C3A C2 S1A 110.2(5)
C1 C2 S1A 119.56(16)
C5 C4 C3A 108.5(5)
C5 C4 S1B 119.5(3)
C5 C4 H4 125.8
C3A C4 H4 125.8
C4 C5 C3B 105.6(7)
C4 C5 S1A 116.2(2)
C4 C5 H5 121.9
S1A C5 H5 121.9
N2 C6 N3 117.22(16)
N2 C6 N1 118.32(15)
N3 C6 N1 124.44(15)
O3 C7 N1 110.50(14)
O3 C7 C8 125.41(15)
N1 C7 C8 124.09(15)
C7 C8 C9 114.17(15)
C7 C8 H8 122.9
C9 C8 H8 122.9
N3 C9 O4 112.03(15)
N3 C9 C8 124.41(15)
O4 C9 C8 123.56(16)
O3 C10 H10A 109.5
O3 C10 H10B 109.5
H10A C10 H10B 109.5
O3 C10 H10C 109.5
H10A C10 H10C 109.5
H10B C10 H10C 109.5
O4 C11 H11A 109.5
O4 C11 H11B 109.5
H11A C11 H11B 109.5
O4 C11 H11C 109.5
H11A C11 H11C 109.5
H11B C11 H11C 109.5
H6A O6 H6B 110(3)
loop_
_geom_bond_atom_site_label_1
_geom_bond_atom_site_label_2
_geom_bond_distance
Co1 O5 1.9625(16)
Co1 O1 1.9646(14)
Co1 N1 2.0564(14)
Co1 Cl1 2.2585(6)
S1A C5 1.649(4)
S1A C2 1.675(3)
C3A C2 1.410(11)
C3A C4 1.425(12)
C3A H3A 0.9300
S1B C4 1.593(6)
S1B C2 1.657(6)
C3B C2 1.431(18)
C3B C5 1.462(19)
C3B H3B 0.9300
N1 C7 1.348(2)
N1 C6 1.358(2)
N2 C6 1.339(2)
N2 H2A 0.8600
N2 H2B 0.8600
N3 C9 1.326(2)
N3 C6 1.340(2)
O1 C1 1.283(2)
O2 C1 1.238(2)
O3 C7 1.339(2)
O3 C10 1.441(2)
O4 C9 1.343(2)
O4 C11 1.439(2)
O5 H5A 0.817(18)
O5 H5B 0.819(18)
C1 C2 1.474(3)
C4 C5 1.352(4)
C4 H4 0.9300
C5 H5 0.9300
C7 C8 1.374(2)
C8 C9 1.394(2)
C8 H8 0.9300
C10 H10A 0.9600
C10 H10B 0.9600
C10 H10C 0.9600
C11 H11A 0.9600
C11 H11B 0.9600
C11 H11C 0.9600
O6 H6A 0.814(17)
O6 H6B 0.827(17)
loop_
_geom_hbond_atom_site_label_D
_geom_hbond_atom_site_label_H
_geom_hbond_atom_site_label_A
_geom_hbond_site_symmetry_A
_geom_hbond_distance_DH
_geom_hbond_distance_HA
_geom_hbond_distance_DA
_geom_hbond_angle_DHA
N2 H2A N3 2_665 0.86 2.27 3.078(2) 157
N2 H2B O1 . 0.86 2.08 2.891(2) 157
O5 H5A O6 2_666 0.82(2) 2.02(3) 2.813(2) 164(3)
O5 H5B O6 . 0.82(3) 1.92(2) 2.711(3) 161(3)
O6 H6A O2 2_656 0.82(3) 1.92(3) 2.732(2) 171(3)
O6 H6B Cl1 1_455 0.83(2) 2.34(2) 3.1142(17) 156(3)
loop_
_geom_torsion_atom_site_label_1
_geom_torsion_atom_site_label_2
_geom_torsion_atom_site_label_3
_geom_torsion_atom_site_label_4
_geom_torsion
Co1 O1 C1 O2 8.0(3)
Co1 O1 C1 C2 -171.39(12)
C4 C3A C2 C1 -179.2(4)
C4 C3A C2 S1A -0.8(10)
C5 C3B C2 C1 178.9(6)
C5 C3B C2 S1B -0.9(16)
O2 C1 C2 C3A 1.3(8)
O1 C1 C2 C3A -179.3(7)
O2 C1 C2 C3B -175.5(11)
O1 C1 C2 C3B 3.9(11)
O2 C1 C2 S1B 4.3(4)
O1 C1 C2 S1B -176.3(3)
O2 C1 C2 S1A -176.9(2)
O1 C1 C2 S1A 2.5(3)
C4 S1B C2 C3B 1.7(10)
C4 S1B C2 C1 -178.14(19)
C5 S1A C2 C3A -0.1(6)
C5 S1A C2 C1 178.48(17)
C2 C3A C4 C5 1.5(10)
C2 S1B C4 C5 -2.2(4)
S1B C4 C5 C3B 2.0(9)
C3A C4 C5 S1A -1.7(6)
C2 C3B C5 C4 -0.6(15)
C2 S1A C5 C4 1.1(3)
C9 N3 C6 N2 179.07(16)
C9 N3 C6 N1 -2.4(3)
C7 N1 C6 N2 -178.52(16)
Co1 N1 C6 N2 4.6(2)
C7 N1 C6 N3 3.0(2)
Co1 N1 C6 N3 -173.90(13)
C10 O3 C7 N1 178.35(16)
C10 O3 C7 C8 -1.8(3)
C6 N1 C7 O3 178.75(14)
Co1 N1 C7 O3 -3.80(18)
C6 N1 C7 C8 -1.1(2)
Co1 N1 C7 C8 176.39(13)
O3 C7 C8 C9 179.06(16)
N1 C7 C8 C9 -1.2(3)
C6 N3 C9 O4 179.65(15)
C6 N3 C9 C8 -0.1(3)
C11 O4 C9 N3 179.30(17)
C11 O4 C9 C8 -0.9(3)
C7 C8 C9 N3 1.8(3)
C7 C8 C9 O4 -177.95(16)

_cod_database_fobs_code 2020532
