#------------------------------------------------------------------------------
#$Date: 2017-07-25 12:09:04 +0300 (Tue, 25 Jul 2017) $
#$Revision: 199097 $
#$URL: file:///home/coder/svn-repositories/cod/cif/2/02/08/2020813.cif $
#------------------------------------------------------------------------------
#
# This file is available in the Crystallography Open Database (COD),
# http://www.crystallography.net/. The original data for this entry
# were provided by IUCr Journals, http://journals.iucr.org/.
#
# The file may be used within the scientific community so long as
# proper attribution is given to the journal article from which the
# data were obtained.
#
data_2020813
loop_
_publ_author_name
'\.Zes\/lawska, Ewa'
'Jakubowska, Anna'
'Nitek, Wojciech'
_publ_section_title
;
 Conformational study of the 3,6-dihydro-2<i>H</i>-1,4-oxazin-2-one
 fragment in
 8-<i>tert</i>-butyl-7-methoxy-8-methyl-9-oxa-6-azaspiro[4.5]decane-2,10-dione
 stereoisomers
;
_journal_coeditor_code           FN3237
_journal_issue                   7
_journal_name_full               'Acta Crystallographica Section C'
_journal_page_first              556
_journal_page_last               562
_journal_paper_doi               10.1107/S2053229617009068
_journal_volume                  73
_journal_year                    2017
_chemical_formula_iupac          'C14 H21 N O4'
_chemical_formula_moiety         'C14 H21 N O4'
_chemical_formula_sum            'C14 H21 N O4'
_chemical_formula_weight         267.32
_chemical_name_systematic
(5<i>R</i>,8<i>S</i>)-8-<i>tert</i>-Butyl-7-methoxy-8-methyl-9-oxa-6-azaspiro[4.5]decan-2,10-dione
_space_group_IT_number           4
_symmetry_cell_setting           monoclinic
_symmetry_space_group_name_Hall  'P 2yb'
_symmetry_space_group_name_H-M   'P 1 21 1'
_atom_sites_solution_hydrogens   geom
_audit_creation_method           'WinGX routine CIF_UPDATE'
_cell_angle_alpha                90
_cell_angle_beta                 100.220(2)
_cell_angle_gamma                90
_cell_formula_units_Z            2
_cell_length_a                   8.7136(2)
_cell_length_b                   6.3606(2)
_cell_length_c                   13.3613(3)
_cell_measurement_reflns_used    7013
_cell_measurement_temperature    293(2)
_cell_measurement_theta_max      71.341
_cell_measurement_theta_min      3.3611
_cell_volume                     728.78(3)
_computing_cell_refinement
;
CrysAlis PRO (Rigaku OD, 2015)
;
_computing_data_collection
;
CrysAlis PRO (Rigaku OD, 2015)
;
_computing_data_reduction
;
CrysAlis PRO (Rigaku OD, 2015)
;
_computing_molecular_graphics
;
ORTEP-3 (Farrugia, 2012) and Mercury (Macrae <i>et al.</i>,
2006)
;
_computing_publication_material
;
publCIF (Westrip, 2010)
;
_computing_structure_refinement
;
SIR97 (Altomare <i>et al.</i>,  1999), SHELXL97 (Sheldrick,
2008) and SHELXL2014
(Sheldrick, 2015)
;
_diffrn_ambient_temperature      293(2)
_diffrn_detector_area_resol_mean 10.3756
_diffrn_measured_fraction_theta_full 0.994
_diffrn_measured_fraction_theta_max 0.992
_diffrn_measurement_device       'four-circle diffractometer'
_diffrn_measurement_device_type
;
Rigaku Oxford Diffraction SuperNova Dual Source diffractometer with an
Atlas detector
;
_diffrn_measurement_method       '\w scans'
_diffrn_radiation_monochromator  mirror
_diffrn_radiation_type           CuK\a
_diffrn_radiation_wavelength     1.54184
_diffrn_reflns_av_R_equivalents  0.0309
_diffrn_reflns_limit_h_max       10
_diffrn_reflns_limit_h_min       -10
_diffrn_reflns_limit_k_max       7
_diffrn_reflns_limit_k_min       -7
_diffrn_reflns_limit_l_max       16
_diffrn_reflns_limit_l_min       -16
_diffrn_reflns_number            9732
_diffrn_reflns_theta_full        67.684
_diffrn_reflns_theta_max         71.342
_diffrn_reflns_theta_min         3.361
_exptl_absorpt_coefficient_mu    0.73
_exptl_absorpt_correction_T_max  0.789
_exptl_absorpt_correction_T_min  0.67
_exptl_absorpt_correction_type   gaussian
_exptl_absorpt_process_details
;
(CrysAlis PRO (Rigaku OD, 2015)
;
_exptl_crystal_colour            colourless
_exptl_crystal_density_diffrn    1.218
_exptl_crystal_description       block
_exptl_crystal_F_000             288
_exptl_crystal_size_max          0.3
_exptl_crystal_size_mid          0.2
_exptl_crystal_size_min          0.15
_refine_diff_density_max         0.139
_refine_diff_density_min         -0.117
_refine_ls_abs_structure_details
;
Flack <i>x</i> determined using 1165 quotients [(I+)-(I-)]/[(I+)+(I-)]
(Parsons & Flack, 2004)
;
_refine_ls_abs_structure_Flack   0.05(9)
_refine_ls_extinction_coef       0.036(4)
_refine_ls_extinction_expression Fc^*^=kFc[1+0.001xFc^2^\l^3^/sin(2\q)]^-1/4^
_refine_ls_extinction_method
;
SHELXL2014 (Sheldrick, 2015)
;
_refine_ls_goodness_of_fit_ref   1.04
_refine_ls_hydrogen_treatment    constr
_refine_ls_matrix_type           full
_refine_ls_number_parameters     178
_refine_ls_number_reflns         2784
_refine_ls_number_restraints     1
_refine_ls_restrained_S_all      1.04
_refine_ls_R_factor_all          0.0325
_refine_ls_R_factor_gt           0.0315
_refine_ls_shift/su_max          0
_refine_ls_shift/su_mean         0
_refine_ls_structure_factor_coef Fsqd
_refine_ls_weighting_details
'w=1/[\s^2^(Fo^2^)+(0.0495P)^2^+0.0486P] where P=(Fo^2^+2Fc^2^)/3'
_refine_ls_weighting_scheme      calc
_refine_ls_wR_factor_gt          0.0856
_refine_ls_wR_factor_ref         0.087
_reflns_number_gt                2687
_reflns_number_total             2784
_reflns_threshold_expression     'I > 2\s(I)'
_cod_data_source_file            fn3237sup1.cif
_cod_data_source_block           1
_cod_original_sg_symbol_H-M      'P 21'
_cod_database_code               2020813
_shelx_estimated_absorpt_t_min   0.811
_shelx_estimated_absorpt_t_max   0.898
_shelx_hkl_file
;
   0   0  -1 119797. 398.531   1
   0   0   3 27349.4 252.968   7
   0   0  -3 26813.2 324.884   1
   0   0   4 16414.8 313.740   1
   0   0  -4 16486.3 225.159   2
   0   0   5 2258.95 134.784   1
   0   0  -5 2189.98 124.221   1
   0   0  -5 2410.12 100.963   2
   0   0  -6 147631. 1164.24  28
   0   0   6 141557. 1059.77  26
   0   0  -7 115286. 1126.62  28
   0   0   7 116306. 1075.11  26
   0   0  -8 58.1680 44.0963  28
   0   0  -8 48.4055 28.9513  24
   0   0   9 1148.86 136.148  26
   0   0  -9 1036.89 131.870  28
   0   0 -10 4243.09 297.125  17
   0   0  10 3876.97 257.108  26
   0   0 -10 3971.41 259.219  28
   0   0 -11 642.578 123.019  39
   0   0 -11 500.918 116.554  35
   0   0  11 610.108 132.816  54
   0   0  11 425.030 92.7814  26
   0   0 -11 480.739 98.2030  28
   0   0 -11 485.850 111.357  17
   0   0 -12 777.297 141.490  39
   0   0  12 814.174 132.782  26
   0   0 -12 1558.93 195.192  35
   0   0  12 1005.50 171.033  54
   0   0 -12 1371.29 160.012  28
   0   0  13 1450.99 170.400  26
   0   0 -13 1585.80 168.920  28
   0   0 -13 1601.94 192.314  35
   0   0 -13 1542.99 192.706  39
   0   0  13 1444.03 198.307  54
   0   0 -14 3585.64 262.464  35
   0   0 -14 3248.49 254.454  39
   0   0  14 3341.22 268.402  54
   0   0  15 1333.25 169.394  33
   0   0 -15 1311.10 138.671  35
   0   0 -15 1189.47 136.038  39
   0   0  16 122.932 47.3319  33
   0  -1   0 45.5492 13.3226   3
   0  -1   0 59.2138 13.1753   2
   0   1   2 504963. 1387.20   5
   0   1   3 429077. 1417.57   8
   0  -1  -3 463456. 1416.77  16
   0  -1   3 440417. 1544.19  19
   0  -1  -3 444312. 1363.49   1
   0   1   3 447484. 1338.49   7
   0  -1  -4 98839.8 730.617  16
   0   1   4 102485. 707.420   7
   0  -1  -4 96923.0 745.161   2
   0   1  -4 95266.8 366.742   4
   0  -1  -4 97677.4 735.039   1
   0  -1   4 97269.0 840.552  12
   0   1  -4 105738. 890.473  17
   0  -1   4 96947.6 820.797  19
   0  -1   4 98134.0 813.177   1
   0   1   4 96968.9 788.155   8
   0   1  -4 93599.5 329.394   7
   0   1   5 135712. 910.558   7
   0  -1  -5 140761. 1011.29   1
   0   1  -5 142139. 1154.73  17
   0  -1  -5 130068. 930.639  16
   0  -1  -5 124453. 830.862  11
   0  -1   5 132085. 1110.30  12
   0   1  -6 134804. 1088.80  24
   0   1   6 125532. 1024.06  26
   0  -1   6 125515. 1039.94  26
   0  -1  -6 128344. 1144.45  28
   0   1   6 128881. 912.366  22
   0   1  -6 130093. 1113.52  28
   0   1  -6 136851. 1248.58  17
   0  -1  -7 14917.2 383.083  24
   0   1  -7 16151.4 471.594  17
   0  -1   7 16666.2 413.585  26
   0   1  -7 17403.0 446.192  28
   0   1  -7 17519.7 430.292  24
   0   1   7 16763.2 415.178  26
   0   1   7 15383.8 338.035  22
   0  -1   8 34104.1 595.088  25
   0  -1   8 35724.5 657.831  26
   0  -1  -8 37228.0 719.040  28
   0   1   8 37434.2 677.933  26
   0   1  -8 39611.6 694.843  24
   0   1  -8 38034.8 788.558  17
   0   1  -8 37642.8 712.195  28
   0  -1  -9 16251.8 524.156  17
   0   1  -9 15690.7 472.750  24
   0   1  -9 14103.5 526.616  17
   0  -1  -9 15005.4 488.237  28
   0   1   9 14798.3 465.294  26
   0   1  -9 16028.5 501.540  28
   0  -1   9 14212.7 455.696  26
   0   1 -10 4465.79 315.865  17
   0   1  10 3953.01 258.329  26
   0  -1 -10 4239.20 273.632  28
   0  -1 -10 4669.54 303.292  17
   0  -1  10 4361.07 276.790  26
   0   1 -10 4055.34 246.326  24
   0   1 -10 4908.62 295.588  28
   0   1  11 12600.9 538.727  43
   0   1  11 11745.7 465.664  26
   0  -1  11 12477.7 593.201  54
   0  -1  11 11200.2 460.196  26
   0  -1  11 11655.2 568.313  34
   0   1 -11 11355.4 495.423  35
   0   1 -11 12439.7 548.270  17
   0   1 -11 11821.5 541.903  39
   0  -1 -11 11936.6 474.234  28
   0   1 -11 11330.9 466.750  28
   0  -1 -11 10855.2 526.815  36
   0   1  11 11146.0 542.299  54
   0  -1 -12 801.581 122.223  28
   0  -1  12 672.428 141.122  54
   0   1  12 813.103 144.460  54
   0   1 -12 822.067 130.934  28
   0  -1 -12 917.888 159.000  35
   0  -1  12 637.042 122.859  26
   0   1 -12 680.703 141.761  39
   0  -1 -12 754.984 133.162  39
   0   1  12 915.611 136.163  26
   0   1 -12 886.550 141.897  35
   0   1  12 977.077 156.033  43
   0  -1  13 12178.9 477.071  26
   0   1 -13 12809.8 499.232  35
   0   1 -13 12191.5 537.762  39
   0  -1 -13 11734.2 453.512  28
   0   1  13 11695.5 461.525  26
   0  -1  13 13010.0 589.148  54
   0  -1 -13 12345.7 528.999  35
   0   1 -14 2946.38 218.442  35
   0   1  14 3249.23 289.653  33
   0  -1  14 2662.34 247.217  54
   0   1 -14 2910.82 247.949  39
   0  -1 -14 3067.02 246.171  35
   0  -1  15 1040.09 134.708  54
   0   1 -15 971.079 125.780  39
   0  -1 -15 1031.90 125.571  35
   0   1  15 1163.46 154.886  33
   0  -1 -16 436.771 66.7813  35
   0  -1  16 630.520 91.9721  33
   0   1  16 500.259 81.6622  33
   0  -2   0 352545. 1219.35   6
   0  -2   0 363928. 1474.15  11
   0   2   0 367800. 1247.78   2
   0   2   0 352626. 1298.07   3
   0  -2   0 361054. 1309.54  16
   0   2   1 194494. 1021.34   3
   0  -2  -1 204067. 915.520   9
   0   2   1 216381. 1050.45   7
   0  -2   1 204493. 977.180   3
   0  -2  -1 203207. 1059.33  16
   0   2   1 204037. 1111.82  18
   0   2  -1 210016. 862.645   2
   0  -2   1 211080. 1035.33   6
   0  -2   1 211975. 1086.68  11
   0   2  -1 205347. 974.195   3
   0   2  -1 209217. 1116.46  18
   0  -2   1 194877. 937.617   4
   0  -2  -2 85068.6 643.795   8
   0  -2   2 88911.7 686.126  11
   0   2  -2 84589.7 494.156   2
   0   2   2 82223.7 692.607   5
   0   2  -2 84305.7 720.530  18
   0  -2   2 85086.0 522.442   4
   0   2   2 81575.4 686.144   7
   0  -2  -2 77432.0 693.168  16
   0   2   2 76338.5 695.004  18
   0  -2   2 82270.7 612.422   3
   0   2  -2 80551.3 699.799   6
   0   2   2 77865.4 697.937   3
   0  -2  -2 74491.5 673.217   2
   0  -2  -3 482046. 1659.88   8
   0   2  -3 467469. 1887.91  17
   0  -2   3 481241. 1968.01  12
   0  -2   3 473214. 1922.11  19
   0  -2  -3 491537. 1966.33  11
   0   2  -3 492494. 1897.81   6
   0  -2   3 500193. 1486.77   3
   0   2   3 461729. 1838.68   5
   0   2  -3 491685. 1739.13  18
   0  -2  -3 481548. 1854.39  16
   0  -2   3 472198. 1735.62   1
   0  -2   4 346903. 1284.65   3
   0  -2  -4 349330. 1524.88   1
   0  -2  -4 325218. 1669.17  16
   0  -2  -4 330719. 1673.57  11
   0  -2   4 313075. 1718.40  19
   0  -2  -4 328535. 1764.95  28
   0   2   4 344092. 1509.51  22
   0   2  -4 341492. 1661.79  24
   0  -2   4 332920. 1781.49  12
   0   2   4 321785. 1510.43  18
   0   2  -4 328072. 1779.98  17
   0   2   5 228241. 1312.44  22
   0  -2  -5 225877. 1490.87  24
   0   2  -5 208186. 1556.83  17
   0  -2  -5 217314. 1478.93  16
   0  -2   5 228276. 1611.57  12
   0  -2  -5 224947. 1464.45  11
   0  -2  -5 232769. 1615.08  28
   0   2  -5 212625. 1411.49  24
   0  -2   5 217277. 1547.32  19
   0   2  -5 226096. 1517.96  28
   0  -2   5 227159. 1321.94  26
   0  -2  -6 15191.7 399.514  11
   0   2   6 16358.1 377.170  22
   0   2  -6 15853.7 467.430  17
   0  -2   6 15762.6 464.721  12
   0  -2  -6 15493.2 421.074  16
   0   2  -6 15921.6 436.602  28
   0  -2   6 15627.2 381.649  26
   0  -2  -6 16014.8 450.395  28
   0  -2   7 16053.0 421.786  26
   0  -2   7 15587.5 422.859  25
   0   2  -7 17023.1 489.596  28
   0  -2  -7 15611.0 472.811  28
   0   2  -7 16780.8 453.115  24
   0   2   7 17057.5 409.115  22
   0   2  -8 22781.7 605.748  28
   0   2  -8 22723.3 562.296  24
   0  -2   8 21423.3 523.004  26
   0   2   8 22874.1 503.143  22
   0   2  -8 22185.4 644.202  17
   0  -2  -8 21621.0 588.514  28
   0   2  -9 4245.19 280.644  28
   0   2  -9 4622.12 269.122  24
   0  -2   9 3572.72 232.133  26
   0   2   9 4337.17 228.367  22
   0  -2  -9 3980.92 267.999  28
   0   2  -9 4526.25 314.253  17
   0  -2   9 4162.23 247.226  25
   0   2 -10 170.893 74.6913  39
   0  -2 -10 96.2246 63.6906  36
   0   2 -10 213.007 100.987  48
   0   2  10 198.962 86.9149  33
   0   2 -10 18.2926 70.5665  17
   0  -2  10 305.064 104.195  34
   0   2  10 109.847 69.4569  43
   0  -2 -10 400.483 99.4305  38
   0  -2  10 164.679 59.7732  26
   0  -2 -10 113.024 60.4776  28
   0  -2  10 97.4045 44.7778  25
   0  -2 -10 34.8130 45.3079  32
   0   2 -10 186.419 69.8733  28
   0  -2 -11 6901.50 443.393  36
   0  -2 -11 6498.05 402.710  32
   0   2 -11 7639.17 491.936  48
   0  -2  11 7279.79 365.820  26
   0  -2 -11 7625.99 390.420  28
   0   2  11 7881.85 497.037  33
   0   2 -11 6788.05 414.714  39
   0   2 -11 8111.18 366.962  24
   0   2 -11 8329.63 422.379  28
   0  -2  11 8298.78 483.908  34
   0   2  11 7628.41 424.875  43
   0   2 -12 18958.5 618.096  28
   0   2 -12 17830.8 726.857  48
   0  -2 -12 18343.0 669.301  35
   0  -2 -12 16780.9 566.849  28
   0   2  12 18282.4 643.218  43
   0   2  12 19153.9 765.598  33
   0  -2  12 18819.2 718.977  34
   0  -2  12 18380.4 725.115  54
   0   2 -12 16965.4 646.667  39
   0  -2  12 16783.3 558.365  26
   0  -2 -12 17920.9 632.060  32
   0   2 -13 5154.70 364.084  48
   0   2  13 5659.60 335.626  43
   0   2  13 5555.28 398.084  33
   0  -2 -13 5574.76 349.935  35
   0  -2  13 5197.97 371.540  54
   0   2 -13 4576.07 322.172  39
   0   2 -14 3877.93 269.082  39
   0   2  14 4090.89 304.559  33
   0  -2  14 4282.68 302.002  54
   0  -2 -14 4220.79 275.046  35
   0  -2 -15 173.951 56.5437  35
   0  -2  15 134.445 59.7019  54
   0   2  15 98.1359 66.0943  33
   0   2 -15 211.650 63.8875  30
   0  -3   0 55.1750 32.3590  16
   0  -3   0 31.0873 41.2011  11
   0  -3   1 102212. 871.945  16
   0   3  -1 107466. 1026.55  18
   0  -3  -1 103555. 973.864  16
   0   3   1 100382. 1005.07  18
   0  -3   1 105124. 1006.72  11
   0  -3  -1 104290. 1070.02  11
   0  -3   1 103902. 847.764  25
   0  -3  -1 103053. 1069.94  24
   0   3   2 96441.4 1022.58  18
   0   3   2 90741.0 797.038  22
   0  -3  -2 87411.2 941.945  16
   0  -3   2 103700. 972.597  11
   0   3  -2 93163.8 986.583  28
   0  -3  -2 99583.6 1071.93  24
   0  -3  -2 98059.3 1058.19  11
   0   3  -2 101505. 1026.68  18
   0  -3   2 100497. 898.718  25
   0   3   3 11303.0 351.732  18
   0  -3   3 12802.5 384.422  19
   0   3   3 11610.9 304.298  22
   0   3  -3 11939.1 366.482  28
   0   3  -3 12112.2 355.371  18
   0  -3  -3 11430.2 387.895  11
   0  -3  -3 12569.7 394.928  24
   0   3   4 179234. 1275.29  22
   0  -3  -4 186224. 1577.11  28
   0  -3  -4 184871. 1556.46  16
   0  -3   4 189098. 1602.31  12
   0   3   4 174002. 1437.11  18
   0   3  -4 186165. 1452.36  18
   0  -3  -4 193760. 1605.19  24
   0  -3  -4 162149. 1489.04  11
   0  -3   4 180840. 1525.97  19
   0   3  -4 181664. 1495.75  28
   0  -3   4 198172. 1427.73  25
   0  -3   5 143933. 1295.98  25
   0  -3  -5 145909. 1452.48  11
   0   3   5 157277. 1265.93  22
   0  -3  -5 145655. 1462.99  16
   0   3  -5 149221. 1433.67  28
   0  -3   5 158583. 1521.05  19
   0  -3   5 152732. 1524.61  12
   0  -3  -5 152771. 1525.50  28
   0  -3  -6 43400.8 864.195  28
   0  -3   6 45040.8 856.088  19
   0  -3   6 46888.3 900.275  12
   0  -3   6 42519.4 742.012  25
   0   3  -6 44646.4 828.086  28
   0   3   6 49702.7 760.136  22
   0  -3  -6 41897.5 824.148  16
   0  -3  -6 40930.6 792.465  11
   0  -3  -7 36458.7 776.381  11
   0   3   7 39837.2 720.199  22
   0  -3   7 37154.6 739.164  25
   0  -3  -7 38694.8 840.066  28
   0  -3   7 37489.8 863.940  12
   0   3  -7 39359.5 824.463  28
   0  -3   7 37897.4 670.146  26
   0   3   8 9250.95 362.876  22
   0  -3   8 7973.35 359.734  25
   0   3  -8 9123.11 417.444  28
   0  -3  -8 8729.38 411.632  28
   0  -3   8 7504.54 316.800  26
   0   3   9 8882.30 522.472  33
   0  -3  -9 7033.92 436.532  32
   0  -3  -9 8082.80 439.385  38
   0  -3   9 10006.9 471.321  49
   0   3  -9 8181.33 447.781  39
   0   3  -9 9802.10 448.167  28
   0   3  -9 10009.7 564.494  48
   0  -3   9 8446.33 358.756  26
   0   3   9 8577.39 359.442  22
   0  -3  -9 8739.67 497.623  36
   0  -3  -9 8883.34 427.336  28
   0   3   9 9122.25 472.662  43
   0  -3   9 8482.11 393.650  25
   0  -3  10 9450.99 425.080  25
   0   3  10 9561.82 381.637  22
   0  -3 -10 8955.39 494.845  32
   0   3  10 9683.50 491.007  43
   0   3 -10 8157.30 452.291  39
   0  -3  10 10236.7 478.095  49
   0   3 -10 9947.10 574.494  48
   0  -3  10 9744.69 402.838  26
   0  -3  10 9717.84 518.598  34
   0   3 -10 9220.15 443.504  28
   0  -3 -10 9607.97 449.015  28
   0  -3 -10 9367.23 526.388  36
   0   3  10 9399.38 547.184  33
   0  -3  11 3470.50 260.280  25
   0  -3  11 3461.22 244.145  26
   0  -3 -11 3693.27 275.602  28
   0   3  11 3541.65 296.810  43
   0   3 -11 3674.34 278.573  28
   0  -3  11 3967.11 331.781  34
   0   3 -11 3135.38 278.797  39
   0  -3 -11 3608.70 314.212  36
   0  -3 -11 3107.82 333.643  46
   0   3  11 3880.23 350.486  33
   0  -3 -11 3405.22 297.803  32
   0   3 -11 3569.68 343.023  48
   0   3  12 4595.93 313.170  43
   0   3  12 4563.34 366.533  33
   0  -3 -12 4689.32 317.975  35
   0  -3  12 4225.04 327.797  34
   0  -3 -12 4434.76 317.486  32
   0   3 -12 4067.47 300.578  39
   0   3 -12 3829.12 336.676  48
   0   3  13 1984.51 188.035  43
   0  -3  13 1713.91 199.443  51
   0  -3 -13 2018.45 195.032  35
   0   3  13 1893.64 223.630  33
   0   3 -13 1859.54 219.014  48
   0  -3  13 2065.60 223.596  54
   0   3  14 1180.53 153.096  33
   0   3 -14 1315.42 144.288  30
   0  -3 -14 1284.12 131.602  35
   0   3 -14 1083.40 140.870  48
   0  -3  14 1130.99 146.846  54
   0   4   0 12218.7 459.309  18
   0  -4   0 12717.4 399.907  16
   0  -4   0 13406.5 451.037  11
   0  -4   0 12781.7 454.832  24
   0   4   1 17340.3 547.490  18
   0  -4  -1 17531.5 541.233  24
   0  -4  -1 18492.3 503.100  16
   0  -4   1 17984.3 513.965  11
   0  -4  -1 17964.1 539.525  11
   0   4  -1 17809.2 548.296  18
   0  -4   2 63357.4 998.737  19
   0  -4  -2 58661.8 996.473  11
   0  -4  -2 62766.5 1032.91  24
   0   4  -2 60364.9 1001.05  18
   0   4   2 62352.7 1041.09  18
   0  -4  -2 59368.7 948.606  16
   0   4   2 57973.8 751.153  22
   0  -4   2 58941.6 807.287  25
   0  -4  -3 35683.9 794.199  24
   0   4  -3 35749.8 785.672  18
   0   4   3 34526.3 616.307  22
   0  -4   3 36692.9 776.667  19
   0  -4  -3 34374.2 789.176  11
   0  -4   3 32980.8 645.172  25
   0  -4  -3 34462.1 755.772  16
   0   4   3 31461.6 759.964  18
   0  -4  -4 18637.7 579.922  16
   0   4  -4 17863.5 551.763  28
   0  -4   4 19442.9 585.601  19
   0  -4  -4 19348.4 608.242  11
   0   4  -4 21268.7 603.825  18
   0  -4   4 19540.9 519.945  25
   0  -4   4 19395.1 606.223  12
   0  -4  -4 20476.1 613.095  24
   0  -4  -4 19656.1 612.863  28
   0   4   4 19145.3 485.957  22
   0   4   5 4461.75 251.423  22
   0  -4   5 3901.41 282.102  12
   0  -4  -5 4548.01 304.047  11
   0  -4   5 4158.02 253.146  25
   0  -4  -5 4408.57 305.004  28
   0  -4   5 4259.03 288.469  19
   0   4  -5 4249.35 280.406  28
   0   4   6 38111.0 756.486  22
   0  -4  -6 31351.5 818.523  11
   0   4  -6 33228.1 812.940  28
   0  -4   6 34264.0 847.766  19
   0  -4  -6 37375.5 911.012  28
   0  -4   6 35636.9 884.032  12
   0  -4   6 33907.2 752.596  25
   0   4   7 13184.9 639.760  33
   0   4  -7 12112.2 518.098  41
   0  -4  -7 13927.9 598.388  36
   0   4   7 13302.9 462.957  22
   0   4  -7 13409.4 530.577  28
   0   4   7 13214.1 583.750  43
   0  -4   7 13488.0 569.208  12
   0  -4   7 13237.8 497.269  25
   0  -4  -7 13985.3 561.594  28
   0   4  -7 13861.2 659.486  48
   0  -4   8 13685.2 595.751  12
   0   4   8 14637.2 494.500  22
   0   4   8 13731.2 602.919  43
   0  -4   8 12675.7 504.855  25
   0  -4  -8 13298.7 605.439  32
   0  -4  -8 13462.7 605.190  36
   0   4  -8 13560.8 544.105  28
   0   4   8 12550.6 641.513  33
   0   4  -8 12803.8 645.625  48
   0  -4  -8 14898.2 581.598  28
   0   4   9 12066.6 452.878  22
   0  -4   9 10314.4 458.134  25
   0  -4   9 11322.1 512.580  49
   0  -4  -9 9846.39 527.995  32
   0   4   9 11437.8 544.404  43
   0   4  -9 11056.0 489.944  28
   0   4   9 10855.5 597.942  33
   0   4  -9 10988.0 604.469  48
   0  -4  -9 10755.5 550.492  36
   0  -4  -9 10662.7 488.130  28
   0  -4  10 3286.08 265.759  49
   0   4  10 3097.01 313.537  33
   0  -4 -10 2708.05 240.809  28
   0  -4  10 3265.89 287.857  34
   0   4 -10 2887.32 247.162  28
   0  -4  10 2730.33 239.739  25
   0  -4 -10 2772.78 329.368  46
   0  -4 -10 2929.86 283.596  32
   0   4 -10 3130.36 279.503  30
   0   4 -10 3199.79 322.963  48
   0  -4 -10 2706.55 275.981  36
   0   4  10 2577.80 255.847  43
   0   4  10 2790.73 217.132  22
   0   4 -11 795.553 130.303  30
   0   4  11 724.768 145.530  33
   0   4  11 670.832 109.576  37
   0  -4 -11 514.998 138.495  46
   0   4 -11 663.967 143.860  48
   0  -4 -11 857.739 145.442  32
   0   4  11 649.138 117.175  43
   0  -4  11 790.804 141.199  34
   0  -4 -12 2584.47 195.846  35
   0   4 -12 2474.04 247.449  48
   0  -4 -12 2590.83 225.071  32
   0   4 -12 2552.43 216.859  30
   0  -4  12 2632.09 229.516  34
   0   4  12 2581.83 214.652  43
   0   4  12 2368.27 239.723  33
   0  -4 -12 2043.00 234.314  46
   0  -4  13 353.565 89.8347  54
   0  -4  13 460.116 91.8074  51
   0   4  13 367.080 66.0492  43
   0  -4 -13 288.383 77.8386  46
   0   4  13 262.007 76.5418  33
   0   4 -13 226.146 77.3941  48
   0   4 -13 369.936 81.3235  30
   0  -5   0 96.7602 76.0655  24
   0   5   0 124.655 80.2950  18
   0   5  -1 5175.80 355.428  18
   0  -5   1 4575.19 324.948  24
   0  -5  -1 4844.26 331.392  24
   0  -5   1 5739.27 351.533  19
   0   5   1 5278.60 368.773  18
   0   5   2 4779.93 346.538  18
   0  -5  -2 5350.47 349.522  24
   0   5  -2 5254.66 355.425  18
   0  -5   2 5665.40 349.417  19
   0   5   3 14449.3 601.751  18
   0   5  -3 14121.7 577.123  18
   0   5   3 14570.1 451.657  22
   0   5  -3 12944.8 550.028  40
   0   5  -3 14814.6 608.654  31
   0  -5   3 15574.9 605.409  12
   0  -5  -3 15252.3 588.431  24
   0   5   3 15360.8 536.269  45
   0  -5   3 15970.8 588.594  19
   0   5   3 16719.1 570.587  37
   0   5  -4 10477.8 488.881  18
   0  -5  -4 10291.3 500.277  28
   0  -5   4 10617.4 437.422  25
   0   5  -4 10580.9 519.446  31
   0   5   4 10675.8 450.999  45
   0  -5   4 10644.9 494.014  19
   0   5   4 9666.81 383.497  22
   0   5   4 10807.6 474.587  37
   0   5   4 9184.83 532.966  33
   0   5   4 9473.69 483.712  18
   0  -5   4 10603.5 504.905  12
   0   5   5 6793.49 385.833  37
   0  -5  -5 7253.66 425.644  28
   0   5   5 6692.00 429.206  43
   0  -5   5 6815.96 365.331  25
   0  -5   5 7062.30 417.973  12
   0   5  -5 7041.60 418.996  31
   0   5   5 6581.67 354.853  45
   0   5   5 6581.72 328.854  22
   0  -5   5 7245.93 414.746  19
   0   5   5 6280.89 448.951  33
   0  -5  -6 4656.55 347.798  32
   0  -5  -6 5235.61 369.733  28
   0   5   6 4535.44 280.628  22
   0  -5   6 4078.64 292.462  25
   0   5   6 4692.99 297.584  45
   0   5  -6 4771.04 344.246  31
   0   5   6 4063.63 336.851  43
   0   5   6 5402.66 348.668  37
   0   5   6 4562.20 390.755  33
   0  -5   7 1370.25 176.796  25
   0   5  -7 1323.81 183.074  31
   0   5  -7 1526.73 223.440  48
   0  -5  -7 1383.08 191.117  32
   0   5   7 1431.96 159.663  22
   0   5   7 1378.05 198.538  43
   0   5   7 1539.68 224.993  33
   0  -5  -7 1252.44 180.064  28
   0   5   7 1485.68 184.380  37
   0   5   8 3542.69 331.432  33
   0   5  -8 3095.83 309.098  48
   0   5  -8 4448.93 405.792  58
   0  -5  -8 3149.32 283.740  32
   0   5   8 3546.41 306.843  43
   0   5  -8 3600.06 275.793  31
   0  -5  -8 3384.09 356.171  46
   0  -5  -8 3479.72 286.272  36
   0   5   8 3875.34 259.046  22
   0   5   8 4065.36 296.426  37
   0  -5  -8 3893.06 296.058  28
   0  -5   8 3401.00 269.889  25
   0  -5   9 3665.76 292.886  34
   0  -5  -9 3187.15 340.906  46
   0   5   9 3824.07 333.831  33
   0   5   9 3591.31 294.959  43
   0  -5   9 3790.22 275.300  49
   0   5   9 3773.37 273.629  37
   0   5  -9 3291.28 308.414  48
   0  -5  -9 3591.93 290.336  32
   0   5  -9 3641.50 344.910  58
   0  -5  10 306.657 89.2965  34
   0   5 -10 232.809 92.7148  48
   0   5  10 346.437 85.4831  37
   0  -5 -10 329.580 95.0445  32
   0   5  10 407.525 105.374  33
   0  -5 -10 248.674 97.7644  56
   0   5 -10 374.454 111.384  58
   0  -5 -10 409.757 132.398  46
   0   5  10 181.180 78.8176  43
   0   5  11 1838.22 198.672  33
   0   5  11 1974.03 159.089  37
   0  -5 -11 2040.91 186.596  32
   0  -5  11 2069.53 186.864  34
   0  -5 -11 1761.61 210.299  46
   0  -5 -11 1799.59 181.857  56
   0   5  12 2007.99 170.513  33
   0  -5 -12 1903.10 174.885  46
   0  -5  12 2251.22 184.586  54
   0   6   0 7794.31 439.795  40
   0   6   0 7723.64 380.659  45
   0   6   0 7571.89 439.202  31
   0  -6   0 7607.72 438.294  24
   0   6  -1 3204.85 240.240  45
   0  -6  -1 3368.31 290.296  24
   0   6   1 3493.62 289.729  31
   0   6  -1 3666.01 309.030  31
   0   6  -1 3783.03 308.658  40
   0   6   1 3535.51 299.322  40
   0   6   1 4428.49 291.089  37
   0   6   1 3755.86 270.659  45
   0  -6   1 3439.88 302.748  24
   0   6   2 2489.48 225.022  37
   0   6   2 1867.82 221.081  40
   0   6  -2 2466.52 299.360  58
   0  -6   2 2242.44 242.470  24
   0   6   2 2504.32 225.515  45
   0   6  -2 2029.42 187.067  45
   0   6  -2 1906.45 224.253  31
   0  -6  -2 2609.19 264.600  28
   0   6  -3 255.155 109.172  58
   0   6   3 236.488 76.6742  37
   0   6   3 262.263 85.0381  40
   0   6   3 90.5478 59.9759  45
   0  -6  -3 247.384 85.5760  28
   0   6  -3 172.414 84.3470  31
   0  -6   3 188.545 82.4630  24
   0   6   4 13304.0 525.023  37
   0  -6  -4 12068.6 549.621  28
   0   6   4 12324.6 484.276  45
   0  -6   4 11770.4 553.466  24
   0   6  -4 12813.9 696.835  58
   0   6  -4 11455.7 537.513  31
   0   6   5 4367.98 283.593  45
   0   6   5 4895.68 317.090  37
   0   6  -5 4361.12 324.682  31
   0  -6  -5 4368.73 368.232  46
   0   6  -5 4661.46 419.031  58
   0  -6  -5 4588.99 337.593  28
   0   6   6 2440.41 199.955  45
   0   6  -6 2497.11 234.511  31
   0   6  -6 2476.42 300.398  58
   0  -6  -6 1934.23 253.291  46
   0   6   6 2705.77 234.216  37
   0  -6  -7 2334.47 258.140  46
   0   6   7 2562.18 190.509  45
   0   6   7 2841.52 230.939  37
   0   6  -7 2797.76 309.638  58
   0  -6  -7 2700.69 219.068  32
   0  -6  -8 102.092 57.5449  32
   0   6   8 65.6800 52.8842  37
   0  -6   8 12.8214 50.3081  49
   0   6  -8 45.8409 45.8727  29
   0  -6  -8-32.0944 64.9771  46
   0   6  -8 188.043 107.742  58
   0  -6  -9 896.126 142.209  46
   0  -6  -9 626.574 121.984  56
   0   6   9 788.477 105.776  37
   0   6  -9 815.012 144.323  58
   0  -6   9 720.778 107.272  34
   0  -6  -9 830.904 108.044  32
   0   6  10 1533.91 122.733  37
   0  -6 -10 1534.13 159.028  46
   0  -6 -10 1348.37 139.359  56
   0   7   0-74.6079 57.3804  31
   0   7   1 462.244 93.4075  45
   0   7  -1 401.652 96.8257  31
   0   7  -2 372.302 95.1418  31
   0   7   2 493.639 94.3179  45
   0   7   3 732.457 110.065  45
   0   7  -3 838.120 133.329  31
   0   7   3 934.584 114.524  37
   0   7  -3 546.441 133.108  58
   0   7   4 290.682 74.2940  37
   0   7   4 242.816 67.5701  45
   0  -7  -4 66.9804 51.2959  56
   0   7  -4 343.107 110.262  58
   0   7  -5 1864.08 170.802  29
   0   7   5 1953.05 161.855  37
   0  -7  -5 1415.87 164.748  56
   0   7  -5 1600.49 193.311  58
   0   7  -6 322.095 94.4480  58
   0   7  -6 412.169 81.5601  29
   0  -7  -6 416.800 86.8768  56
   0  -7   6 607.788 87.8308  49
   0   7   6 411.538 72.2522  37
   0   7   7 1431.31 118.948  37
   0  -7  -7 1409.37 135.399  56
  -1   0  16-11.3479 43.9661  33
   1   0 -16-84.2941 41.0270  39
   1   0 -15 491.099 93.8429  35
   1   0 -15 401.033 90.3993  39
  -1   0  15 499.282 91.4071  43
   1   0 -14 70.7813 52.8007  35
  -1   0  14 27.1613 40.4096  43
   1   0 -14 173.266 76.5492  39
   1   0 -13 14147.0 525.005  28
  -1   0  13 14354.2 543.696  26
   1   0 -13 14029.7 572.054  39
  -1   0  13 15276.1 600.454  43
   1   0 -13 15257.4 575.596  35
   1   0 -12 1362.20 179.695  35
   1   0 -12 1206.80 176.382  39
  -1   0  12 1572.40 182.475  26
   1   0 -12 1452.16 173.336  28
  -1   0  12 1344.73 192.117  43
   1   0 -12 1528.23 189.979  17
   1   0 -11 2549.61 243.446  39
   1   0 -11 3601.83 284.693  17
   1   0 -11 197.680 73.3292  28
  -1   0  11 1012.71 142.372  26
  -1   0  11 99.2637 69.3886  43
   1   0 -10 88554.0 1326.67  17
  -1   0  10 91094.1 1253.29  26
  -1   0   9 12866.3 440.178  26
   1   0  -9 12246.8 436.609  28
   1   0  -8 100198. 1153.91  28
  -1   0   8 99370.0 1124.70  26
   1   0  -7 29449.9 575.545  28
  -1   0   7 26701.6 529.276  26
   1   0  -6 346.726 47.0850   7
   1   0  -6 521.181 72.1496  28
  -1   0   6 391.752 60.3773  26
  -1   0   5 119380. 912.416   1
   1   0  -5 115911. 704.080   7
  -1   0   4 257248. 1150.75   1
   1   0  -4 255792. 957.351   7
   1   0  -3 61188.2 440.953   7
  -1   0   3 59927.2 463.449   1
  -1   0   2 43140.9 218.647   3
   1   0  -2 46853.3 347.520   6
  -1   0  -1 289158. 895.600   8
  -1   0  -3 10405.4 232.667   1
   1   0   3 10867.8 154.028   2
   1   0   4 94067.8 855.656   8
  -1   0  -4 100606. 866.544  17
  -1   0  -4 94883.2 615.605   4
   1   0   4 98764.9 513.249   7
  -1   0  -4 103671. 845.788   1
   1   0   5 2930.51 144.306  27
  -1   0  -5 5518.11 227.994  17
   1   0   6 15600.9 360.175  26
  -1   0  -6 16400.7 383.407  28
  -1   0  -7 74291.1 919.733  24
  -1   0  -7 73214.6 888.504  28
   1   0   8 672.649 92.0042  26
  -1   0  -8 804.857 121.997  17
  -1   0  -8 751.800 101.694  24
  -1   0  -8 657.661 94.9971  28
   1   0   9 1061.21 129.041  26
  -1   0  -9 1083.04 131.901  28
  -1   0  -9 860.058 114.523  24
  -1   0  -9 922.262 141.529  17
   1   0  10 6011.80 319.244  26
  -1   0 -10 6292.25 317.948  24
  -1   0 -10 6076.71 312.907  28
  -1   0 -10 6493.35 381.710  17
  -1   0 -11 3335.07 289.532  39
   1   0  11 3377.06 312.143  54
   1   0  11 3130.32 300.023  51
  -1   0 -11 3590.62 295.548  35
  -1   0 -11 3843.89 304.662  17
   1   0  11 3603.83 259.026  26
   1   0  12 523.252 121.805  51
   1   0  12 545.225 104.791  26
  -1   0 -12 555.848 120.963  35
   1   0  12 510.760 122.007  54
  -1   0 -12 424.875 107.678  39
   1   0  13 739.550 133.908  51
  -1   0 -13 578.756 125.259  39
  -1   0 -13 1060.61 159.201  35
   1   0  13 955.959 161.876  54
   1   0  14 145.008 83.9506  33
  -1   0 -14 172.838 62.1681  39
  -1   0 -14 42.6799 52.2469  35
   1   0  15 509.561 98.7809  33
  -1   0 -15 332.311 76.0474  35
  -1   1  16 9.61602 36.8039  33
   1   1 -16 75.1806 43.0397  39
   1  -1 -16 44.2234 34.9310  35
  -1  -1  16 38.3012 48.1718  33
  -1   1  15 527.905 112.014  33
  -1   1  15 469.990 87.6741  43
   1  -1 -15 415.346 87.7234  35
   1   1 -15 452.215 96.3037  39
   1  -1 -15 442.695 84.0691  39
  -1  -1  15 385.507 82.6313  43
  -1   1  14 282.594 95.9683  43
  -1  -1  14 204.176 77.9068  43
   1  -1 -14 261.287 81.7610  35
  -1   1  14 248.219 97.0246  33
   1  -1 -14 215.257 74.5238  39
   1   1 -14 313.469 92.7987  39
   1  -1 -13 428.811 107.289  39
   1  -1 -13 427.348 100.456  28
   1  -1 -13 387.657 103.310  35
  -1   1  13 286.148 78.4890  26
   1   1 -13 422.352 111.097  39
  -1  -1  13 490.111 114.621  54
  -1  -1  13 445.296 102.012  26
  -1  -1  13 270.839 91.5195  43
  -1   1  13 487.550 116.170  43
   1   1 -13 415.452 95.4009  28
  -1  -1  12 1208.87 180.094  54
  -1   1  12 1208.66 159.058  26
   1  -1 -12 1361.03 173.085  28
   1   1 -12 1155.68 174.423  39
   1   1 -12 1431.51 177.888  28
  -1  -1  12 1386.93 175.427  26
  -1  -1  12 1619.18 205.467  43
   1  -1 -12 1428.57 179.752  39
  -1   1  12 1160.07 179.427  43
   1  -1 -11 74220.2 1256.51  39
   1   1 -11 72646.6 1310.59  39
   1   1 -11 76615.3 1225.92  28
  -1   1  11 76754.9 1214.11  26
   1  -1 -11 68680.3 1293.89  38
   1  -1 -11 73310.7 1192.21  28
   1  -1 -11 80423.1 1300.03  17
   1  -1 -11 70111.3 1303.87  36
   1   1 -11 76744.5 1326.20  17
  -1  -1  11 75248.2 1396.69  54
  -1  -1  11 73682.5 1190.19  26
  -1   1  11 77942.3 1377.32  43
  -1  -1  11 69589.1 1381.26  34
  -1   1  10 15659.1 524.066  26
   1  -1 -10 14325.9 509.856  28
   1   1 -10 14379.2 510.318  28
   1   1 -10 15787.6 570.123  17
  -1  -1  10 15532.1 522.259  26
   1   1  -9 111001. 1420.18  17
  -1  -1   9 109333. 1285.12  26
  -1   1   9 111031. 1294.45  26
   1  -1  -9 111772. 1338.30  28
   1   1  -9 113226. 1344.85  28
  -1  -1   8 28693.9 580.280  25
   1  -1  -8 30260.1 655.198  28
   1   1  -8 30056.4 643.785  28
  -1  -1   8 30638.0 630.537  26
  -1   1   7 130535. 1176.90  26
  -1   1   7 128506. 978.866  22
   1   1  -7 133526. 1257.68  28
   1  -1  -7 130735. 1254.56  28
  -1  -1   7 129619. 1174.89  26
  -1  -1   7 124057. 1113.45  25
   1   1  -7 138891. 1121.36  24
  -1   1   6 119008. 882.457  22
   1  -1  -6 115433. 870.266  16
  -1   1   6 116358. 1010.90  26
  -1  -1   6 114695. 985.847  26
   1   1  -6 118427. 1076.01  28
   1  -1  -6 117387. 1103.21  28
  -1  -1   5 150321. 1146.67  12
  -1   1   5 147581. 996.242   8
   1   1  -5 141689. 730.140   7
  -1   1   5 146344. 948.617   3
   1   1  -5 151797. 811.285   4
   1  -1  -5 157193. 926.475   1
  -1  -1   4 999999. 2613.63  12
  -1   1   3 216997. 962.796   3
  -1  -1   3 223075. 1084.33  12
   1  -1  -3 216972. 746.885   1
   1   1  -3 226609. 1114.87   6
   1   1  -3 217774. 859.164   4
  -1   1   3 222660. 823.399   8
  -1   1   2 145143. 464.901   8
  -1   1   2 149300. 816.481   5
   1   1  -2 148421. 817.073   6
   1  -1  -2 147290. 419.710   1
   1   1  -2 142161. 674.696   4
  -1   1   2 149657. 790.470   7
  -1   1   2 142695. 707.793   3
  -1  -1   2 142321. 668.807   4
   1   1  -1 64225.4 471.667   4
  -1   1   1 63114.1 486.128   5
  -1   1   1 62807.0 453.428   7
   1  -1  -1 58512.7 391.162   7
   1  -1  -1 58392.2 428.243   3
  -1  -1   1 60501.5 443.468   4
   1   1   1 228464. 662.137   5
  -1   1  -1 242196. 753.123   1
   1   1   1 243057. 926.512   2
  -1  -1  -1 233395. 1022.94   8
   1  -1   1 238736. 801.703   1
   1  -1   2 149557. 800.768   1
  -1   1  -2 150356. 754.532   1
  -1   1  -3 12190.4 252.766   1
  -1  -1  -3 12474.7 280.111   8
   1  -1   3 11847.5 267.270   1
   1   1   3 11727.9 284.626   8
   1  -1   3 11028.1 259.347  12
  -1   1  -3 11410.2 291.259  17
   1   1   3 12016.2 232.429   2
  -1   1  -4 11953.2 286.845   1
   1  -1   4 11198.2 295.423   1
  -1  -1  -4 13117.9 289.301  17
  -1  -1  -4 11905.8 297.050   1
   1   1   4 12528.6 255.594   7
   1  -1   4 11530.4 300.039  12
   1   1   4 11398.8 312.344   8
  -1   1  -5 11467.8 360.281  17
   1  -1   5 10800.7 280.689  27
   1   1   5 9587.67 252.357  22
  -1   1  -5 9626.45 291.787  24
  -1  -1  -5 11765.7 313.013  17
   1  -1   5 9686.39 270.869  26
  -1  -1  -5 10200.9 310.385  24
  -1   1  -6 36346.7 610.278  24
  -1  -1  -6 34673.0 593.233  28
   1   1   6 35282.3 513.633  22
   1  -1   6 33739.4 556.249  26
  -1   1  -6 37687.3 713.888  17
   1   1   6 32724.0 520.101  26
   1  -1   6 34588.6 542.469  27
  -1  -1  -6 34378.2 607.795  24
  -1   1  -6 33215.8 558.964  28
  -1   1  -7 15606.6 433.617  24
  -1   1  -7 15736.8 501.569  17
   1   1   7 13091.5 364.306  26
  -1  -1  -7 13624.1 403.804  28
   1  -1   7 14827.8 403.025  26
  -1   1  -7 14991.3 410.858  28
  -1  -1  -7 15195.6 429.349  24
   1   1   7 13990.3 340.904  22
  -1  -1  -7 14232.2 430.879  17
   1   1   8 3146.37 197.942  26
  -1   1  -8 3579.32 224.036  24
  -1  -1  -8 3391.65 217.278  28
  -1  -1  -8 3430.16 216.297  24
  -1   1  -8 3614.80 259.336  17
   1  -1   8 3127.38 202.938  26
  -1  -1  -8 3863.40 248.182  17
  -1   1  -9 14089.6 459.694  28
  -1   1  -9 14801.8 483.398  24
  -1  -1  -9 13488.1 456.666  28
   1   1   9 14071.5 450.449  26
   1  -1   9 13451.7 448.335  26
  -1  -1  -9 15313.9 525.446  17
  -1  -1  -9 14247.6 462.196  24
  -1   1  -9 14597.0 555.908  17
  -1  -1 -10 3906.51 257.021  28
   1  -1  10 3868.82 256.167  26
  -1   1 -10 3745.57 253.125  28
  -1   1 -10 4124.67 313.549  17
   1   1  10 3848.65 250.409  26
  -1   1 -10 4881.87 294.735  24
  -1   1 -11 6567.56 386.481  35
  -1   1 -11 5781.75 388.861  39
   1   1  11 6748.64 342.979  26
   1  -1  11 6788.02 449.785  51
   1   1  11 6674.13 422.848  51
  -1   1 -11 7235.51 358.764  24
   1  -1  11 6766.90 357.019  26
   1  -1  11 7817.95 472.322  54
   1   1  11 6543.66 431.438  54
  -1  -1 -11 6734.68 409.364  35
  -1  -1 -11 6595.78 340.248  28
   1  -1  12 1340.24 200.613  54
   1  -1  12 1321.83 163.307  26
   1   1  12 1267.47 151.256  26
  -1  -1 -12 1173.92 177.216  35
  -1   1 -12 1371.96 181.941  39
   1  -1  12 1403.52 205.192  51
  -1   1 -12 1250.74 167.865  35
   1  -1  13 15118.1 636.073  54
  -1   1 -13 13529.2 552.581  39
  -1   1 -13 13855.0 518.144  35
   1   1  13 14982.0 644.146  33
   1  -1  13 14474.4 603.200  51
  -1  -1 -13 13958.4 549.513  35
   1  -1  14 1615.31 195.088  54
  -1  -1 -14 1826.64 185.753  35
   1   1  14 1940.50 216.721  33
   1  -1  14 1784.69 189.389  51
  -1   1 -14 1885.55 173.609  35
  -1   1 -14 1410.16 163.889  39
  -1   1 -15 729.114 88.5277  35
  -1   1 -15 1060.77 114.381  30
  -1  -1 -15 678.042 99.0923  35
   1   1  15 900.639 126.979  33
   1  -1  15 857.018 122.045  33
  -1   2  15 149.626 68.5412  33
   1   2 -15 153.071 64.3382  39
  -1   2  15 156.136 56.8598  43
  -1  -2  15 108.582 53.1877  54
   1  -2 -15 182.390 60.5891  35
  -1   2  14 348.604 84.4328  43
   1  -2 -14 277.803 87.2536  35
  -1   2  14 228.919 90.2575  33
   1   2 -14 239.263 82.8398  39
  -1  -2  14 168.352 73.6703  54
   1   2 -14 371.425 99.2876  48
  -1  -2  14 253.889 78.4215  43
  -1  -2  13 6539.58 381.217  43
  -1  -2  13 5976.48 387.824  54
   1  -2 -13 5668.34 362.099  35
   1   2 -13 5461.68 351.928  39
  -1   2  13 6159.23 372.241  43
   1   2 -13 5815.36 394.478  48
  -1   2  13 6286.80 421.574  33
   1   2 -12 33509.6 1005.08  48
   1  -2 -12 32551.4 810.111  28
  -1  -2  12 30768.7 937.653  34
  -1  -2  12 30511.4 752.917  26
   1   2 -12 34049.6 867.446  28
   1  -2 -12 29325.3 886.202  36
   1   2 -12 30242.4 860.774  39
  -1   2  12 31328.4 975.772  33
  -1   2  12 32485.1 894.904  43
  -1   2  11 9825.87 552.651  33
  -1   2  11 9934.88 371.821  52
  -1   2  11 10963.3 455.901  26
   1  -2 -11 9012.34 467.138  32
  -1   2  11 10398.3 515.066  43
   1   2 -11 10472.9 485.240  28
   1  -2 -11 10189.7 528.706  36
  -1  -2  11 9949.85 428.655  26
   1  -2 -11 9598.20 444.652  28
   1   2 -11 9491.96 486.050  39
   1   2 -11 12091.0 611.412  48
   1   2 -11 10322.4 504.711  17
   1  -2 -11 9137.36 480.652  38
   1  -2 -10 6832.93 418.976  36
   1  -2 -10 5735.54 370.956  38
   1   2 -10 7030.10 400.707  17
  -1   2  10 6338.86 395.275  43
   1   2 -10 6268.48 358.454  28
  -1   2  10 6188.80 428.158  33
   1  -2 -10 6137.75 349.607  28
  -1  -2  10 5497.56 310.345  26
  -1   2  10 5918.56 324.211  26
  -1  -2  10 6262.61 409.541  34
  -1  -2  10 5418.59 313.387  25
  -1   2   9 3185.20 228.250  26
   1   2  -9 3667.59 278.200  17
   1   2  -9 3405.95 220.033  24
  -1   2   9 3622.72 210.254  22
   1   2  -9 3673.73 264.369  28
   1  -2  -9 3418.86 252.517  28
  -1  -2   9 3511.03 233.089  26
  -1  -2   8 32144.5 680.741  25
   1   2  -8 32657.8 727.116  28
   1   2  -8 29557.6 716.661  17
   1   2  -8 32668.2 639.398  24
   1  -2  -8 29848.2 630.989  16
   1  -2  -8 30531.7 705.970  28
  -1   2   8 30966.2 656.958  26
  -1   2   8 32056.7 597.259  22
  -1  -2   8 31427.7 642.419  26
  -1  -2   7 49235.7 794.458  25
   1  -2  -7 47884.9 827.355  28
  -1  -2   7 50633.1 742.928  26
  -1  -2   7 46133.3 852.811  12
   1  -2  -7 45319.3 731.451  16
   1   2  -7 53131.5 768.765  24
  -1   2   7 49435.9 710.035  22
   1   2  -7 50771.5 846.376  28
   1   2  -7 51524.0 869.874  17
  -1   2   7 50112.1 766.763  26
  -1   2   6 73542.8 815.471  22
  -1   2   6 74739.7 857.380  26
  -1  -2   6 76491.0 997.968  19
  -1  -2   6 74383.8 988.590  12
   1   2  -6 73649.0 853.163  24
  -1  -2   6 74783.0 915.304  25
  -1  -2   6 72640.2 819.422  26
   1   2  -6 72678.7 950.083  28
   1  -2  -6 76126.1 986.860  28
   1   2  -6 77691.4 976.037  17
   1  -2  -5 559155. 2210.05  16
  -1  -2   5 583122. 2068.51  26
   1   2  -5 566427. 2428.43  28
  -1  -2   5 526409. 2458.87  19
  -1   2   5 552026. 2126.66  26
   1   2  -5 554485. 2387.15  17
   1  -2  -5 529615. 2460.79  28
  -1  -2   5 585960. 2372.63  25
  -1  -2   5 565055. 2491.76  12
  -1   2   5 576229. 2134.58  22
  -1  -2   4 121765. 1075.09  12
  -1   2   4 115732. 975.699  18
   1   2  -4 128109. 1032.75  17
  -1   2   4 128980. 942.197  22
   1  -2  -4 130961. 1127.66  28
   1   2  -4 140329. 902.421  18
  -1  -2   4 134618. 1136.26  19
  -1  -2   4 134597. 1064.79  25
   1   2  -4 124217. 1077.76  28
   1   2  -3 236504. 1176.00  18
  -1   2   3 231026. 1383.29  18
  -1  -2   3 233664. 1044.57   4
   1  -2  -3 241359. 1260.27   9
   1   2  -3 241517. 1227.43  17
  -1  -2   3 240510. 1400.87  19
   1  -2  -2 31440.5 428.060   2
   1  -2  -2 30357.3 364.012  13
   1  -2  -2 29815.6 246.576   6
   1  -2  -2 30797.6 472.580   5
  -1  -2   2 30777.1 392.919   4
  -1   2   2 27036.8 415.619   3
  -1  -2   2 27958.1 458.837   6
   1   2  -2 29603.5 324.707   3
   1   2  -2 31340.7 423.669  18
  -1   2   2 29405.6 455.463   5
  -1   2   2 32148.4 448.622   7
   1  -2  -2 27754.8 395.793   9
  -1   2   2 27970.5 480.941  18
  -1  -2   1 145868. 903.714   4
  -1   2   1 146869. 881.978   7
   1  -2  -1 140514. 829.575   2
   1  -2  -1 152203. 940.855   3
   1  -2  -1 140275. 969.657   5
  -1  -2   1 140533. 739.113   5
   1   2  -1 143207. 847.807   2
   1   2  -1 144287. 749.465   3
  -1  -2   1 145365. 965.476   6
  -1   2   1 142064. 927.634   3
  -1   2   1 150628. 1115.87  18
  -1  -2   0 147191. 989.272   4
  -1  -2   0 158417. 1112.25  11
   1   2   0 166513. 951.759   2
  -1   2   0 154018. 944.845   3
   1  -2   0 156200. 935.131   3
  -1   2   0 160172. 832.526   7
   1  -2   0 157761. 1031.37   5
   1  -2   0 166025. 824.074   2
   1  -2   0 155474. 620.755   1
  -1   2   0 150553. 1111.72  18
   1   2   0 157376. 864.725   3
  -1  -2   0 154357. 747.686   5
   1  -2   1 392830. 1217.31   1
  -1   2  -1 375524. 1247.34   6
   1  -2   1 378110. 1418.77   3
  -1  -2  -1 372559. 1781.25  11
  -1   2  -1 387350. 1164.88   7
  -1   2  -1 407584. 1836.53  18
  -1   2  -2 261340. 1485.36  18
   1  -2   2 254811. 788.163   4
   1  -2   2 245422. 1146.84   1
   1   2   2 262828. 1258.56  18
  -1  -2  -2 265571. 1389.16   8
   1  -2   2 253750. 1196.51   3
   1  -2   2 259475. 1275.38  19
  -1  -2  -2 260204. 1533.20  11
  -1   2  -2 249475. 1205.28   6
   1   2   2 262591. 1123.21   5
  -1   2  -3 226014. 1375.10  18
   1   2   3 209893. 1152.72   5
   1  -2   3 203814. 1204.75   1
  -1   2  -3 205493. 1266.43  24
  -1  -2  -3 207343. 1402.43  11
  -1   2  -3 212561. 1291.79   6
   1  -2   3 211701. 1321.54  12
   1   2   3 211072. 1166.71  22
   1   2   3 203255. 1122.41  18
   1  -2   3 216542. 1283.29  19
   1  -2   3 215726. 1165.01   3
  -1  -2  -3 220280. 1340.61   8
   1   2   4 77120.4 693.969  18
  -1   2  -4 80327.6 837.144  28
  -1  -2  -4 79059.7 930.736  24
   1   2   4 81893.1 779.855  22
   1  -2   4 83693.0 870.079  19
  -1  -2  -4 78335.2 870.778  28
  -1   2  -4 83598.3 870.893  24
  -1   2  -4 84519.5 830.394  18
   1  -2   4 78388.9 884.101  12
  -1  -2  -4 79135.6 903.314  11
   1  -2   4 78124.7 766.695  26
   1  -2   5 13925.5 346.190  26
  -1   2  -5 14437.4 387.831  28
  -1  -2  -5 13190.4 399.212  24
  -1   2  -5 14529.9 393.957  24
   1   2   5 14562.5 349.869  22
  -1  -2  -5 13540.1 393.258  28
   1  -2   5 13350.6 400.652  12
  -1   2  -6 696.966 96.2721  28
  -1  -2  -6 631.635 94.3652  28
  -1   2  -6 752.912 101.103  24
  -1  -2  -6 683.283 98.4518  24
   1   2   6 596.288 78.6570  22
   1  -2   6 713.699 105.931  12
   1  -2   6 627.280 82.1386  26
  -1  -2  -7 7711.60 333.389  24
  -1   2  -7 8193.19 341.877  28
  -1  -2  -7 7621.23 328.420  28
   1  -2   7 7628.89 300.943  26
   1   2   7 7537.16 280.365  22
  -1   2  -7 8060.42 337.584  24
   1   2   8 15342.9 417.571  22
   1  -2   8 13878.9 438.338  26
  -1   2  -8 14795.0 487.178  24
  -1  -2  -8 15080.8 480.319  24
  -1  -2  -8 14642.1 480.115  28
  -1   2  -8 15829.0 505.865  28
  -1   2  -9 3105.00 235.729  24
  -1   2  -9 2800.85 225.337  28
   1  -2   9 2843.62 212.130  26
   1   2   9 3464.00 208.462  22
   1  -2   9 2742.32 197.260  25
  -1  -2  -9 2814.02 223.085  28
   1  -2  10 19797.6 550.593  25
  -1   2 -10 21518.1 821.416  48
  -1   2 -10 19878.2 712.738  39
  -1  -2 -10 21130.2 726.984  32
   1  -2  10 20316.7 590.310  26
   1  -2  10 20686.7 734.360  34
  -1  -2 -10 21065.9 721.979  35
   1   2  10 23703.6 854.367  33
  -1  -2 -10 21268.9 622.841  28
  -1  -2 -10 20856.1 768.895  36
  -1   2 -10 22949.6 640.447  24
  -1  -2 -11 6158.93 394.456  35
  -1   2 -11 5565.74 382.160  39
  -1  -2 -11 5811.64 375.975  32
   1  -2  11 5785.09 396.961  34
  -1   2 -11 6143.13 333.622  24
   1   2  11 5968.69 437.467  33
  -1   2 -11 5236.87 408.478  48
  -1  -2 -11 5920.03 328.966  28
   1  -2  11 5866.64 327.389  26
   1  -2  11 6046.55 428.812  54
   1   2  12 107.878 77.2310  33
   1  -2  12 148.975 62.0313  26
  -1   2 -12 9.32097 38.5813  24
  -1   2 -12 168.654 95.3539  48
  -1   2 -12 4.00609 46.6711  39
  -1  -2 -12 102.007 67.3872  35
   1  -2  12 150.404 91.1014  54
   1   2  13 1873.44 227.458  33
  -1   2 -13 1769.49 201.124  39
  -1  -2 -13 2337.25 221.006  35
  -1  -2 -13 2244.00 207.747  57
   1  -2  13 1952.51 228.394  54
   1  -2  13 2162.01 238.948  51
  -1   2 -14 940.761 131.503  30
  -1  -2 -14 697.554 113.317  35
   1   2  14 781.326 132.470  33
   1  -2  14 774.837 125.735  51
   1  -2  14 807.280 133.419  54
  -1   2 -15 106.761 36.8234  30
   1   2  15 36.8287 35.7835  33
  -1  -2 -15 136.692 46.4248  35
   1  -2  15 39.6643 43.1935  54
   1   3 -15 1371.32 121.173  30
   1  -3 -15 1207.54 108.801  35
   1  -3 -14 1599.80 157.796  35
  -1  -3  14 1856.59 159.018  43
  -1   3  14 1582.24 155.738  43
  -1   3  14 1692.70 179.566  33
   1   3 -14 1558.95 173.906  48
  -1  -3  14 1593.81 170.785  54
  -1   3  13 1433.39 194.153  33
   1  -3 -13 1407.26 163.529  32
  -1  -3  13 1438.88 186.429  34
   1  -3 -13 1556.90 179.889  35
   1   3 -13 1014.58 146.414  39
  -1  -3  13 1635.89 181.018  43
  -1   3  13 1404.12 171.027  43
  -1  -3  13 1316.96 181.756  54
   1   3 -13 1235.35 179.257  48
   1   3 -12 1980.50 212.441  39
  -1   3  12 2077.50 226.886  43
   1  -3 -12 2038.59 249.837  46
  -1  -3  12 2140.47 247.460  34
   1  -3 -12 1991.85 220.402  32
   1  -3 -12 2275.77 213.863  28
   1   3 -12 2018.11 254.916  48
   1  -3 -12 1974.95 232.779  36
  -1   3  12 2116.45 248.839  33
   1   3 -11 12895.4 640.397  48
  -1   3  11 11257.4 537.246  43
  -1  -3  11 11885.0 581.045  34
   1   3 -11 10496.2 503.304  39
  -1   3  11 10849.0 576.745  33
  -1  -3  11 11969.2 533.589  49
   1  -3 -11 10722.6 477.397  28
   1  -3 -11 9729.58 494.733  38
  -1  -3  11 10352.1 466.431  25
   1  -3 -11 10684.2 526.526  32
   1  -3 -11 11244.9 561.640  36
   1   3 -11 11741.4 508.172  28
   1   3 -10 9744.49 566.471  48
  -1   3  10 9363.72 383.040  22
   1  -3 -10 9240.97 512.830  36
   1  -3 -10 8481.54 476.070  32
  -1   3  10 8206.58 356.878  52
   1   3 -10 8360.87 449.474  39
   1  -3 -10 8813.65 465.320  38
  -1  -3  10 9578.92 482.792  49
   1   3 -10 9648.91 465.506  28
   1  -3 -10 9179.88 447.124  28
  -1  -3  10 9156.47 507.370  34
  -1   3  10 9143.48 531.608  33
  -1  -3  10 7511.18 400.430  25
  -1   3  10 8468.54 474.794  43
   1  -3  -9 27549.2 851.078  36
  -1   3   9 25067.5 795.690  43
  -1  -3   9 22601.9 671.878  25
   1   3  -9 22997.7 703.642  41
  -1   3   9 23864.5 841.305  33
   1   3  -9 25151.0 734.698  28
   1  -3  -9 22214.5 682.468  28
   1  -3  -9 23305.7 724.388  38
  -1   3   9 23806.3 587.956  52
  -1  -3   9 24747.3 761.482  49
  -1   3   9 22934.8 594.703  22
   1   3  -9 23249.5 716.593  17
   1   3  -8 10783.6 463.006  17
   1  -3  -8 9217.56 407.679  16
  -1  -3   8 9910.76 468.978  12
  -1   3   8 10467.8 388.627  22
  -1  -3   8 10284.4 433.555  25
   1  -3  -8 11300.6 474.157  28
   1   3  -8 11567.6 482.107  28
   1   3  -7 129322. 1515.39  28
  -1  -3   7 129328. 1445.15  25
   1  -3  -7 121907. 1375.77  11
  -1  -3   7 131470. 1571.32  19
   1   3  -7 133184. 1516.06  17
   1  -3  -7 121581. 1499.26  28
  -1   3   7 140810. 1357.75  22
   1  -3  -7 108620. 1326.56  16
  -1  -3   7 114651. 1490.25  12
  -1  -3   6 24070.4 641.316  12
  -1   3   6 26273.1 560.655  22
   1  -3  -6 24463.4 639.925  28
   1  -3  -6 22033.3 560.995  11
   1  -3  -6 22406.5 563.015  16
  -1  -3   6 22172.6 571.762  25
   1   3  -6 25618.0 636.641  28
  -1  -3   6 25720.6 663.773  19
  -1  -3   5 12702.5 441.223  19
   1  -3  -5 13714.8 461.026  28
  -1   3   5 14561.1 393.951  22
  -1  -3   5 12540.0 409.606  25
  -1  -3   5 13874.9 453.883  12
   1   3  -5 15716.9 468.182  28
   1  -3  -5 11927.6 381.071  16
   1   3  -4 18235.1 424.776  18
   1  -3  -4 18233.1 449.504  16
   1  -3  -4 17680.6 490.941  28
  -1   3   4 16608.0 469.305  18
  -1   3   4 16349.3 395.109  22
  -1  -3   4 17917.3 490.219  12
   1   3  -4 16842.5 461.024  28
  -1  -3   4 17083.8 449.777  25
  -1  -3   4 17779.8 489.699  19
   1  -3  -3 94245.5 971.385  16
  -1  -3   3 96473.1 1007.35  25
   1   3  -3 96933.6 1052.88  28
  -1   3   3 95494.7 1123.66  18
   1  -3  -3 96839.3 935.184   9
  -1   3   3 97469.0 903.555  22
  -1  -3   2 34562.8 575.926  25
   1  -3  -2 32370.2 501.784   9
   1  -3  -2 33590.4 549.739  16
  -1   3   2 31768.2 486.759  22
   1   3  -2 32844.7 594.786  28
  -1   3   2 32547.3 654.003  18
   1   3  -2 32957.8 559.566  18
   1  -3  -1 47782.3 578.397   9
  -1   3   1 48965.4 797.821  18
  -1  -3   1 47855.7 641.155  25
   1  -3   0 93104.5 759.989   9
   1  -3   0 92030.2 827.514  16
  -1   3   0 81159.8 711.895  22
  -1  -3   0 91893.9 1061.03  24
   1   3   0 102048. 987.077  18
  -1  -3   0 86886.9 1033.29  11
  -1   3   0 97456.1 1129.90  18
  -1  -3  -1 82541.4 1041.21  11
   1   3   1 81489.0 719.900  22
   1  -3   1 90010.8 771.450  16
  -1   3  -1 94888.8 1108.83  18
  -1  -3  -1 87429.7 1052.19  24
   1   3   1 85605.5 914.256  18
  -1  -3  -2 48677.9 804.245  24
   1   3   2 43623.9 657.627  18
   1  -3   2 47709.9 629.669  11
  -1   3  -2 50706.2 806.744  18
   1  -3   2 45629.2 670.279  19
  -1  -3  -2 47626.7 818.387  11
   1   3   2 43245.4 567.371  22
  -1  -3  -3 43857.9 790.695  24
   1   3   3 41132.6 588.335  22
   1   3   3 40960.8 648.770  18
  -1  -3  -3 41695.9 788.157  11
  -1   3  -3 41253.9 676.941  28
   1  -3   3 43257.7 724.284  12
  -1   3  -3 43575.9 750.141  18
   1  -3   3 40189.2 662.447  19
   1   3   4 32692.5 554.902  22
  -1   3  -4 32247.3 627.903  28
   1  -3   4 32731.0 665.956  12
  -1  -3  -4 32078.6 658.513  28
  -1  -3  -4 33528.2 714.387  24
  -1   3  -4 35684.4 677.565  18
   1   3   4 31299.8 575.270  18
  -1   3  -4 31282.3 606.134  24
   1  -3   4 32992.7 638.283  19
  -1  -3  -4 28222.5 670.927  11
   1  -3   4 32166.6 533.933  26
   1  -3   5 7744.31 277.647  26
  -1   3  -5 7182.23 314.344  28
   1   3   5 7693.38 289.785  22
  -1  -3  -5 7740.00 352.595  24
  -1   3  -5 7457.41 316.571  24
  -1  -3  -5 6948.56 328.176  28
   1  -3   5 7682.04 325.908  19
   1  -3   5 7825.93 349.899  12
  -1   3  -6 2298.43 189.284  28
   1   3   6 2708.38 180.747  22
  -1   3  -6 2797.18 205.817  24
   1  -3   6 2774.42 178.628  26
  -1  -3  -6 2214.11 196.443  28
  -1  -3  -6 2468.54 205.711  24
   1  -3   7 34360.3 662.307  26
   1  -3   7 33466.9 829.987  12
  -1   3  -7 35305.7 768.428  28
  -1  -3  -7 34482.5 773.792  24
   1   3   7 36875.1 695.419  22
  -1  -3  -7 35806.7 804.020  28
  -1   3  -7 36452.3 777.956  24
  -1   3  -8 3803.67 262.729  24
   1  -3   8 3104.09 213.700  26
   1  -3   8 3223.34 226.563  25
  -1   3  -8 3365.44 252.489  28
   1   3   8 3326.53 219.366  22
  -1  -3  -8 3158.76 241.257  28
  -1   3  -9 20037.5 813.415  48
   1   3   9 19383.7 673.049  43
   1   3   9 21564.5 564.968  22
  -1  -3  -9 19323.1 730.140  32
   1  -3   9 17729.0 548.937  25
  -1   3  -9 17585.2 667.385  39
   1  -3   9 19274.9 545.811  26
   1  -3   9 20482.3 715.398  34
  -1  -3  -9 19126.4 611.559  28
  -1  -3  -9 17387.7 721.125  36
   1   3   9 20684.4 808.505  33
  -1  -3  -9 16245.4 801.155  46
  -1   3  -9 22017.2 641.541  24
  -1   3 -10 243.779 108.601  48
   1   3  10 310.172 77.4954  22
   1  -3  10 254.714 76.0658  26
  -1  -3 -10 377.726 85.7663  28
  -1  -3 -10 170.270 66.9883  35
  -1   3 -10 216.969 85.6783  39
   1   3  10 340.607 118.438  33
   1  -3  10 191.482 67.3520  25
  -1  -3 -10 361.550 124.932  46
   1  -3  10 166.571 83.3690  34
   1  -3  11 3117.89 231.647  26
  -1  -3 -11 3030.61 236.148  28
  -1  -3 -11 3323.08 291.978  32
  -1   3 -11 2889.88 305.738  48
   1  -3  11 3389.09 288.404  34
   1   3  11 3253.28 320.163  33
  -1  -3 -11 3059.81 323.807  46
   1  -3  11 2970.15 231.047  25
  -1  -3 -11 3190.63 268.713  35
   1  -3  12 3869.06 319.285  54
   1   3  12 3480.35 314.851  33
  -1  -3 -12 3315.42 255.833  35
  -1   3 -12 4504.70 321.886  30
  -1   3 -12 3408.13 310.591  48
   1  -3  13 1433.62 183.231  51
  -1  -3 -13 1397.66 148.534  35
  -1   3 -13 1387.76 167.829  30
   1   3  13 1369.23 181.672  33
   1  -3  13 1375.58 175.572  54
   1  -3  14 1699.62 157.770  51
   1  -3  14 1855.77 172.945  54
  -1  -3 -14 1898.04 143.061  35
   1   3  14 1786.84 172.633  33
  -1  -3 -14 1647.01 135.940  57
  -1   3 -14 1732.46 152.001  30
  -1  -4  13 808.540 109.411  43
  -1  -4  13 738.416 123.582  54
  -1   4  13 835.072 112.585  43
   1   4 -13 807.538 109.015  30
   1   4 -13 777.094 129.050  48
  -1   4  13 787.660 123.422  33
   1  -4 -13 856.199 106.991  35
   1  -4 -13 791.169 114.688  32
  -1  -4  13 821.650 123.381  34
   1  -4 -13 462.978 103.517  46
  -1   4  12 1657.16 202.743  33
  -1   4  12 2056.86 206.874  43
  -1  -4  12 1929.41 181.963  49
   1  -4 -12 1962.55 211.832  36
   1  -4 -12 2010.92 204.501  32
   1   4 -12 1980.56 231.669  48
   1  -4 -12 2017.72 183.679  35
   1  -4 -12 1711.13 220.739  46
   1   4 -12 2070.91 193.078  30
  -1  -4  12 1973.50 216.590  34
  -1   4  11 3097.65 273.130  43
   1   4 -11 2939.29 298.198  48
  -1  -4  11 3160.49 285.843  34
  -1   4  11 2814.02 273.678  33
   1  -4 -11 2848.33 272.924  36
   1  -4 -11 2792.67 262.923  32
  -1  -4  11 3022.24 256.936  49
   1   4 -10 7983.09 504.876  48
  -1   4  10 8727.51 411.769  37
   1  -4 -10 7313.77 445.031  32
   1  -4 -10 7177.16 396.680  38
  -1  -4  10 9381.89 507.530  34
  -1  -4  10 7628.02 408.441  25
  -1   4  10 7725.47 483.247  33
   1  -4 -10 7733.91 454.741  36
  -1   4  10 8866.17 482.899  43
  -1   4  10 7828.22 363.634  22
   1  -4 -10 8555.98 436.374  28
  -1  -4  10 9001.31 461.676  49
   1   4 -10 8711.65 439.052  28
  -1  -4   9 18095.9 638.294  25
   1   4  -9 22034.4 842.331  48
   1   4  -9 19106.4 659.641  41
  -1   4   9 20940.8 754.404  43
  -1   4   9 20706.4 599.872  22
   1  -4  -9 20182.6 680.419  28
   1  -4  -9 21162.3 756.117  36
  -1   4   9 20916.1 659.649  37
  -1   4   9 20719.2 803.680  33
   1   4  -9 20785.7 692.111  28
   1  -4  -9 20947.4 676.236  38
  -1  -4   9 21883.6 738.041  49
   1   4  -8 17007.7 622.032  41
   1  -4  -8 19213.8 705.166  36
  -1   4   8 17670.2 741.280  33
  -1  -4   8 17128.0 608.287  25
   1   4  -8 17862.7 636.789  28
  -1  -4   8 16324.2 644.577  12
  -1   4   8 17602.7 513.041  52
  -1   4   8 19022.1 632.592  37
  -1   4   8 17710.0 693.985  43
   1  -4  -8 18907.9 666.266  28
   1   4  -8 20404.8 801.922  48
  -1   4   8 18802.1 570.615  22
   1   4  -7 8154.28 494.923  48
  -1   4   7 7216.46 434.847  43
   1   4  -7 7164.64 395.127  28
   1  -4  -7 6165.02 362.021  16
  -1   4   7 6831.31 311.899  52
  -1   4   7 6796.22 335.102  22
   1  -4  -7 6555.18 368.355  11
   1  -4  -7 8636.52 458.180  36
  -1   4   7 6498.89 437.680  33
  -1  -4   7 7134.27 411.392  12
   1   4  -7 6238.02 371.609  41
  -1  -4   7 7072.99 384.175  25
  -1  -4   7 7435.56 415.677  19
  -1   4   7 6996.47 378.572  37
   1  -4  -7 7061.57 404.639  28
  -1   4   6 41556.8 793.602  22
  -1  -4   6 39584.0 933.271  19
  -1  -4   6 39120.8 872.272  25
   1  -4  -6 36287.0 842.763  11
  -1  -4   6 39924.0 924.947  12
   1  -4  -6 37009.5 846.881  16
   1   4  -6 41168.1 904.076  28
   1  -4  -6 45050.2 1006.88  28
  -1  -4   5 7943.73 402.975  19
  -1  -4   5 7615.13 364.695  25
   1   4  -5 7155.19 366.602  28
  -1  -4   5 7093.90 378.093  12
  -1   4   5 7475.02 326.018  22
   1  -4  -5 7627.97 400.224  28
   1  -4  -5 6894.37 362.428  11
   1  -4  -5 7476.63 365.776  16
   1  -4  -4 18474.2 551.245  16
   1  -4  -4 19207.7 607.103  28
   1   4  -4 18201.3 526.641  18
  -1   4   4 16929.8 573.055  18
  -1  -4   4 18520.1 539.753  25
   1   4  -4 16459.8 535.075  28
   1  -4  -4 16942.3 544.477  11
  -1  -4   4 17758.0 575.483  12
  -1  -4   4 19080.3 594.981  19
  -1   4   4 17197.6 467.225  22
  -1  -4   3 1141.70 132.738  25
   1  -4  -3 942.742 122.208  16
  -1  -4   3 1087.97 143.968  19
   1  -4  -3 1693.57 172.615  11
  -1   4   3 772.642 128.957  18
   1   4  -3 1459.23 152.010  18
   1  -4  -2 84091.1 1056.70  16
   1   4  -2 81486.8 1102.06  18
  -1   4   2 74545.4 881.140  22
  -1  -4   2 80026.7 1025.33  25
   1  -4  -2 82769.0 1136.84  11
  -1   4   2 76345.8 1217.96  18
   1  -4  -1 8144.49 348.007  11
  -1  -4   1 8008.90 379.242  24
   1  -4  -1 8980.29 370.743  24
   1  -4  -1 9021.39 335.152  16
  -1   4   1 8058.78 397.080  18
  -1   4   1 7449.33 264.631  22
   1   4  -1 9008.48 368.709  18
  -1   4   0 11456.8 470.145  18
   1  -4   0 10815.2 347.857  16
  -1  -4   0 9978.87 425.675  24
   1  -4   0 11478.4 403.911  11
   1   4   0 10246.3 395.334  18
   1   4   1 6507.39 239.677  22
  -1  -4  -1 7533.67 371.622  24
   1   4   1 6953.83 326.608  18
   1  -4   1 7536.18 319.013  11
   1  -4   2 9300.66 364.883  19
   1  -4   2 9125.37 313.397  25
  -1   4  -2 8883.87 406.988  18
  -1  -4  -2 8794.53 409.020  24
   1   4   2 7700.16 278.079  22
   1   4   3 14649.0 405.140  22
  -1   4  -3 12725.2 487.291  18
   1  -4   3 13832.4 458.556  19
  -1  -4  -3 13562.8 518.169  24
   1  -4   3 13237.8 480.529  12
  -1  -4  -4 6368.87 359.573  24
  -1  -4  -4 5666.36 326.508  28
   1   4   4 6675.95 288.879  22
   1  -4   4 6353.27 326.146  19
   1  -4   4 6037.75 336.848  12
   1  -4   4 6116.24 288.852  25
   1   4   4 5858.63 321.465  18
  -1   4  -4 6360.22 342.845  18
  -1  -4  -5 3973.00 286.193  24
   1  -4   5 3548.54 228.650  25
   1  -4   5 3624.36 273.027  12
   1  -4   5 4262.05 278.349  19
  -1  -4  -5 3457.82 265.558  28
  -1   4  -5 3033.74 236.871  28
   1   4   5 3594.90 222.615  22
  -1  -4  -6 22443.9 699.840  28
  -1  -4  -6 21668.7 667.789  24
   1  -4   6 21674.8 593.996  25
  -1   4  -6 20756.8 626.286  28
   1  -4   6 21730.3 692.234  12
   1   4   6 22844.9 583.021  22
  -1   4  -7 1708.69 239.276  48
  -1   4  -7 2446.74 303.363  58
  -1   4  -7 2571.52 241.607  31
  -1   4  -7 3116.16 251.308  28
  -1  -4  -7 2122.76 247.785  36
   1   4   7 2364.12 198.664  22
   1   4   7 1865.13 251.170  33
  -1  -4  -7 1949.32 238.052  32
   1  -4   7 1926.92 219.539  12
  -1   4  -7 2372.04 239.810  30
   1   4   7 1968.70 227.304  51
  -1  -4  -7 2087.22 216.334  28
   1   4   7 2081.63 228.570  43
   1  -4   7 1993.28 190.053  25
  -1  -4  -8 6882.36 541.550  46
   1   4   8 8604.56 375.080  22
   1   4   8 7131.06 423.014  43
  -1  -4  -8 7907.23 412.398  28
  -1   4  -8 7440.80 500.087  48
   1   4   8 7948.53 512.948  33
  -1   4  -8 6885.29 426.985  30
  -1  -4  -8 7413.52 460.440  32
   1  -4   8 6981.76 359.984  25
  -1   4  -8 8618.28 560.411  58
  -1  -4  -8 6605.98 426.058  15
  -1  -4  -8 6808.41 441.916  36
   1   4   9 884.494 123.780  22
   1  -4   9 905.539 136.841  25
   1  -4   9 868.804 154.132  34
   1   4   9 889.043 154.250  43
  -1  -4  -9 1199.89 164.724  28
   1   4   9 1029.95 184.301  33
  -1  -4  -9 502.124 125.566  32
  -1  -4  -9 681.552 182.177  46
  -1   4  -9 774.829 163.130  48
  -1   4  -9 1156.55 177.636  30
  -1   4  -9 1108.24 197.906  58
   1   4  10 1001.28 152.242  43
   1   4  10 1234.62 141.588  22
  -1   4 -10 1156.40 172.074  30
  -1  -4 -10 1012.05 167.248  32
  -1  -4 -10 1046.62 172.379  56
   1  -4  10 954.370 137.302  25
   1   4  10 1274.11 196.711  33
  -1  -4 -10 863.802 187.363  46
  -1   4 -10 856.396 168.986  48
   1  -4  10 1307.06 179.668  34
  -1  -4 -11 392.246 127.849  46
  -1  -4 -11 511.626 112.120  32
   1  -4  11 472.629 103.199  34
   1   4  11 553.336 131.848  33
  -1   4 -11 607.200 124.416  30
  -1   4 -11 363.097 115.936  48
  -1   4 -12 58.4532 47.0746  30
  -1  -4 -12 111.992 75.6743  46
   1   4  12-8.41126 49.5031  33
   1   4  12 72.9220 50.0195  37
   1  -4  12 161.245 72.9850  54
   1   4  13 1138.64 140.855  33
  -1  -4 -13 1377.46 134.324  57
   1  -4  13 1440.45 155.629  51
  -1   4 -13 1323.67 131.260  30
   1  -4  13 1537.68 158.838  54
   1  -5 -12 3522.69 249.054  46
  -1  -5  12 4210.77 242.188  34
   1   5 -12 3788.33 247.104  48
  -1   5  12 3597.45 218.604  33
   1  -5 -12 4225.29 229.656  32
  -1  -5  11 850.481 116.660  49
  -1   5  11 512.887 109.385  43
  -1   5  11 697.937 118.599  33
  -1   5  11 640.206 96.4477  37
   1   5 -11 618.408 119.967  48
   1  -5 -11 713.754 121.460  32
  -1  -5  11 808.891 128.422  34
   1  -5 -11 401.897 118.135  46
   1   5 -11 684.096 134.691  58
  -1  -5  10 4090.86 282.781  49
  -1   5  10 3712.65 288.340  43
   1   5 -10 3591.68 308.101  48
  -1   5  10 3705.20 299.009  33
   1  -5 -10 3784.88 277.928  36
  -1  -5  10 4305.97 312.901  34
  -1   5  10 4334.35 271.613  37
   1  -5 -10 3508.23 275.522  32
   1  -5 -10 3934.91 352.021  46
   1   5 -10 4493.45 352.789  58
  -1   5   9 1657.36 205.300  43
   1  -5  -9 1765.98 210.756  32
   1   5  -9 1503.11 209.830  48
  -1  -5   9 1934.16 215.404  49
   1  -5  -9 1768.56 202.650  36
  -1   5   9 1930.72 231.715  33
  -1   5   9 1885.27 192.856  37
   1   5  -8 16820.3 588.649  31
   1   5  -8 15525.5 676.992  48
   1  -5  -8 16856.7 628.987  28
  -1   5   8 17659.8 610.528  37
  -1  -5   8 15161.4 580.482  25
  -1   5   8 15588.1 678.757  33
   1  -5  -8 16290.4 633.067  32
  -1   5   8 16315.1 662.505  43
   1  -5  -8 16886.8 625.036  36
   1   5  -7 7553.29 408.649  41
  -1   5   7 7772.16 465.995  43
  -1   5   7 8806.15 442.542  37
  -1   5   7 7503.22 367.451  22
   1  -5  -7 9307.90 483.944  28
   1   5  -7 8123.94 431.259  31
  -1   5   7 7711.07 484.078  33
  -1  -5   7 8047.31 425.459  25
   1   5  -6 11362.5 500.728  41
  -1   5   6 11195.2 561.935  43
  -1   5   6 12408.6 523.325  37
  -1  -5   6 11692.5 507.075  25
   1   5  -6 11625.6 534.014  31
  -1   5   6 11440.8 446.525  22
  -1   5   6 11047.6 577.743  33
  -1   5   6 10763.8 447.887  45
   1  -5  -6 13420.6 587.922  28
   1  -5  -6 11251.5 517.892  11
   1   5  -5 2101.24 235.118  31
  -1  -5   5 1796.12 216.514  19
  -1   5   5 2372.50 214.072  45
  -1   5   5 1681.08 194.077  37
  -1   5   5 1579.56 165.358  22
   1  -5  -5 1815.83 222.411  28
  -1   5   5 1543.15 210.219  33
  -1  -5   5 1450.45 193.824  12
  -1   5   5 1294.69 199.800  43
   1  -5  -5 1546.57 194.083  11
   1   5  -5 2745.08 242.866  41
  -1  -5   5 1474.76 179.017  25
  -1  -5   4 5681.27 370.855  19
   1   5  -4 5135.71 362.596  31
   1  -5  -4 5366.17 369.681  28
   1   5  -4 5283.94 347.086  18
  -1   5   4 6234.44 374.490  40
  -1   5   4 4623.50 315.601  37
  -1   5   4 4782.98 306.168  45
  -1  -5   4 4729.38 304.156  25
  -1   5   4 4691.10 368.803  33
  -1   5   4 3907.14 323.525  43
  -1  -5   4 5162.64 355.999  12
  -1   5   4 4148.40 255.663  22
  -1   5   4 4555.32 344.021  18
   1  -5  -4 4597.21 329.984  11
   1  -5  -3 31811.7 839.802  11
  -1   5   3 28100.0 852.831  18
  -1  -5   3 33948.6 890.175  12
   1   5  -3 33175.7 876.539  18
  -1  -5   3 30992.7 866.017  24
   1  -5  -3 31053.6 787.565  16
   1  -5  -3 33922.3 902.130  28
  -1   5   3 29037.4 746.234  45
   1   5  -3 30784.8 876.388  31
  -1  -5   3 30490.6 840.458  19
  -1   5   3 31858.0 800.637  37
  -1   5   3 34432.9 887.387  40
  -1   5   2 1752.63 223.554  18
   1  -5  -2 1564.64 189.097  11
  -1  -5   2 1486.67 198.043  24
  -1  -5   2 1643.07 196.976  19
   1  -5  -2 1489.63 171.806  16
  -1  -5   1 5643.23 368.863  24
   1  -5  -1 5767.42 350.049  24
   1  -5  -1 6123.89 357.126  11
   1   5  -1 5830.97 370.835  18
  -1   5   1 6023.50 397.202  18
   1  -5   0 23558.1 709.114  24
   1  -5   0 21921.2 659.042  11
   1   5   0 22165.8 723.865  18
  -1   5   0 20761.7 729.381  18
  -1  -5   0 22434.9 728.852  24
   1  -5   1 30494.8 814.473  24
  -1  -5  -1 30266.2 849.098  24
   1   5   1 28445.2 823.205  18
  -1   5  -1 30627.7 874.191  18
  -1   5  -2 1941.68 215.339  40
   1   5   2 2709.04 225.910  45
  -1  -5  -2 2118.66 231.624  24
   1   5   2 2602.14 257.930  18
  -1   5  -2 2236.21 237.804  31
   1  -5   2 2450.69 240.217  12
  -1   5  -2 2644.60 258.552  18
  -1   5  -2 2700.27 312.781  58
   1   5   3 2404.16 218.790  37
   1   5   3 2362.50 215.221  45
   1   5   3 2563.33 189.728  22
  -1   5  -3 2150.63 225.314  40
  -1  -5  -3 2444.83 252.212  24
  -1   5  -3 2744.86 332.735  58
   1  -5   3 2464.21 241.426  12
   1   5   3 2530.55 251.883  18
  -1   5  -3 2562.54 252.013  18
  -1   5  -3 2371.80 251.501  31
   1  -5   4 1295.34 180.685  12
   1   5   4 1132.66 135.290  22
  -1  -5  -4 1223.96 175.768  24
   1   5   4 1353.92 169.049  37
  -1  -5  -4 1479.10 248.422  46
  -1   5  -4 1059.12 161.758  40
   1   5   4 846.442 182.163  33
   1   5   4 1352.44 180.490  18
  -1   5  -4 1656.09 256.134  58
   1   5   4 1267.06 159.562  45
  -1  -5  -4 1138.78 166.259  28
  -1   5  -4 1147.85 176.970  31
   1  -5   4 1084.90 137.057  25
  -1  -5  -5 10550.6 643.120  46
  -1  -5  -5 11308.1 512.390  24
   1  -5   5 11070.7 447.125  25
   1   5   5 10572.3 452.560  45
  -1   5  -5 10274.9 513.998  31
   1   5   5 12578.1 519.079  37
   1   5   5 11122.9 604.156  33
  -1   5  -5 13368.3 739.893  58
  -1  -5  -5 11384.7 521.675  28
   1  -5   5 11730.6 534.760  12
   1   5   5 10589.9 412.148  22
   1  -5   6 77.9123 55.4274  25
   1   5   6 182.737 57.8137  22
  -1  -5  -6 130.771 88.3069  46
  -1   5  -6 80.2337 57.8958  31
  -1  -5  -6 125.697 59.1829  28
  -1  -5  -6 209.630 94.2359  32
  -1   5  -6 141.799 66.9436  48
   1   5   6 39.1326 43.4083  45
   1   5   6 90.8323 59.0574  33
  -1   5  -6-11.9405 86.9953  58
   1   5   7 1330.21 149.324  22
  -1   5  -7 1191.50 193.471  48
  -1  -5  -7 1751.71 205.167  28
  -1  -5  -7 1202.82 229.436  46
   1   5   7 1696.71 197.226  37
   1   5   7 1281.59 147.231  45
   1   5   7 1673.78 233.855  33
  -1   5  -7 1557.45 250.992  58
  -1  -5  -7 1375.71 194.940  32
   1  -5   7 1542.02 179.082  25
  -1  -5  -8 47.7918 87.2993  46
  -1   5  -8 500.141 148.109  58
  -1   5  -8 350.135 91.1249  29
   1   5   8 288.894 74.3734  22
   1   5   8 136.213 77.3951  33
   1   5   8 205.076 73.5734  37
   1  -5   8 405.147 97.8224  25
  -1  -5  -8 257.519 89.3547  32
  -1   5  -8 215.505 107.640  48
  -1   5  -9 609.368 148.123  58
  -1   5  -9 620.366 122.218  30
  -1  -5  -9 391.771 130.802  46
  -1  -5  -9 646.777 134.327  56
   1   5   9 696.047 121.150  37
   1   5   9 578.182 138.712  33
  -1  -5  -9 647.681 126.937  32
  -1   5 -10 57.5738 62.9946  58
   1   5  10 296.229 75.7809  37
   1   5  10 160.387 84.7926  33
  -1  -5 -10 350.205 98.5654  56
  -1   5 -10 188.251 71.7234  30
  -1  -5 -10 256.934 102.202  46
  -1  -5 -11 47.5303 46.3625  56
   1   5  11 217.138 62.0432  37
  -1  -5 -11 105.253 57.9744  46
   1   5  11 208.305 79.2541  33
   1  -5  11 245.615 78.3746  54
  -1   5 -11 267.877 64.3963  30
   1   5  12 1728.99 151.286  33
  -1  -5 -12 2035.31 142.490  57
   1  -5  12 1988.22 158.112  54
   1  -6 -10 440.869 91.7488  56
  -1  -6  10 496.169 77.1823  49
   1  -6 -10 551.333 80.4339  32
  -1   6  10 512.479 76.9581  37
  -1  -6  10 686.476 101.345  34
   1  -6 -10 397.848 92.8931  46
   1   6 -10 482.518 94.8758  58
  -1  -6   9 182.050 68.5009  34
   1   6  -9 231.332 88.3185  58
  -1   6   9 238.872 68.7254  37
   1  -6  -9 282.646 74.1720  32
  -1  -6   9 278.195 75.6365  49
   1  -6  -9 165.204 78.6538  46
   1  -6  -8 741.103 145.013  46
  -1  -6   8 847.006 124.720  49
   1  -6  -8 719.280 116.935  32
   1   6  -8 1033.08 185.754  58
   1   6  -8 724.106 114.872  31
  -1   6   8 687.388 116.521  37
   1  -6  -7 42.5675 81.1601  46
   1  -6  -7 171.722 66.8658  32
  -1   6   7 79.2081 63.1102  37
   1   6  -7 190.769 95.7995  58
   1   6  -7 58.2289 54.4635  31
   1   6  -6 3612.56 360.293  58
  -1   6   6 3164.73 256.757  37
   1  -6  -6 2456.00 277.575  46
   1   6  -6 3068.11 260.905  31
  -1   6   6 2884.90 220.442  45
   1   6  -5 3705.38 302.943  31
   1   6  -5 4096.49 391.330  58
  -1  -6   5 3849.42 317.890  24
  -1   6   5 3878.90 287.233  37
  -1   6   5 3522.62 255.872  45
   1  -6  -5 3640.74 305.144  28
   1   6  -4 1590.85 204.838  31
  -1   6   4 1638.25 189.382  37
  -1  -6   4 1768.81 221.500  24
   1   6  -4 1971.12 276.367  58
  -1   6   4 1889.04 207.558  40
   1  -6  -4 1899.29 219.877  28
  -1   6   4 1595.09 178.322  45
   1  -6  -3 546.003 129.698  28
  -1   6   3 604.048 116.369  45
  -1   6   3 609.781 125.475  37
  -1   6   3 404.429 104.882  40
   1   6  -3 697.732 169.355  58
  -1  -6   3 646.812 136.934  24
   1   6  -3 541.899 121.995  31
  -1   6   2 8233.58 402.015  45
  -1   6   2 9243.25 475.388  40
  -1  -6   2 7981.75 462.372  24
  -1   6   2 7895.78 405.781  37
   1   6  -2 7967.63 363.369  45
   1  -6  -2 8865.79 481.709  28
   1   6  -2 7684.04 450.976  31
  -1   6   1 1959.99 199.972  37
  -1  -6   1 1809.28 224.102  24
  -1   6   1 1819.41 193.464  45
   1   6  -1 1857.88 227.126  31
  -1   6   1 2200.06 241.055  40
  -1   6   1 1951.39 218.076  31
   1   6  -1 2269.50 200.459  45
  -1   6   0 335.178 95.3734  45
  -1   6   0 415.847 95.7142  37
  -1   6   0 278.985 101.034  31
   1   6   0 407.525 100.332  45
  -1  -6   0 223.722 89.5796  24
   1   6   0 410.120 115.659  31
  -1   6   0 436.721 132.837  40
  -1   6  -1 125.112 64.8201  45
  -1   6  -1 88.4549 75.1628  40
   1  -6   1-28.6954 64.7291  24
  -1  -6  -1 36.4745 52.6373  24
  -1   6  -1 65.1257 66.3028  31
   1   6   1-34.1973 56.7921  31
   1   6   1 59.1225 52.1836  45
  -1   6  -1 5.44992 61.5034  58
  -1   6  -2 2049.38 232.800  31
  -1  -6  -2 2150.59 240.772  24
   1   6   2 2229.89 213.172  45
  -1  -6  -2 2099.92 225.105  28
  -1   6  -2 1984.29 224.332  40
   1   6   2 2666.50 226.902  37
  -1   6  -2 2214.31 289.280  58
   1  -6   2 2014.98 232.067  24
   1  -6   3 2292.25 245.519  24
   1   6   3 2534.04 225.790  45
  -1   6  -3 2311.18 304.198  58
  -1   6  -3 2659.17 261.060  31
  -1  -6  -3 2394.90 239.561  24
   1   6   3 2770.96 236.455  37
  -1  -6  -3 2456.68 245.895  28
  -1   6  -4 3274.25 291.281  31
   1  -6   4 3105.32 288.935  24
  -1  -6  -4 3009.28 267.777  28
   1   6   4 3681.61 270.676  37
   1   6   4 3658.71 264.761  45
  -1   6  -4 3126.36 347.500  58
  -1   6  -5 4026.38 392.563  58
  -1  -6  -5 4046.04 353.951  46
  -1   6  -5 4196.46 312.833  31
   1   6   5 4381.70 294.417  37
   1   6   5 4203.50 272.965  45
   1   6   6 3093.15 242.484  37
  -1  -6  -6 2966.78 297.120  46
   1   6   6 2651.87 208.541  45
  -1  -6  -6 2279.03 258.530  56
  -1   6  -6 2763.73 243.344  29
  -1   6  -6 2455.51 296.629  58
  -1  -6  -7 408.619 116.301  56
   1   6   7 521.479 102.381  37
  -1   6  -7 425.288 130.358  58
  -1  -6  -7 373.841 111.502  46
  -1   6  -7 387.227 91.2543  29
   1   6   7 570.845 93.3445  45
  -1   6  -8 171.088 83.3819  58
  -1  -6  -8 168.916 81.3692  46
   1   6   8 163.756 63.4806  37
  -1  -6  -8 151.132 73.1920  56
  -1   6  -8 104.439 52.0655  29
  -1  -6  -9 240.498 75.6410  56
   1   6   9 151.470 56.5058  37
  -1  -6  -9 104.756 60.9537  46
  -1   7   7 308.330 61.3505  37
   1  -7  -7 209.324 60.6674  56
   1   7  -7 312.037 79.8189  58
  -1   7   6 73.1984 51.4249  37
   1   7  -6-8.73922 51.8171  58
   1  -7  -6-70.2472 57.9712  56
  -1   7   5 1042.34 119.427  37
   1   7  -5 893.390 159.470  58
   1   7  -5 1131.12 136.980  31
  -1  -7   4 967.777 122.086  47
  -1   7   4 1017.06 123.834  37
   1   7  -4 840.647 129.416  31
   1   7  -4 843.994 143.722  58
   1   7  -3 694.289 118.896  31
  -1   7   3 720.620 109.371  37
   1   7  -2 850.213 133.311  31
  -1   7   2 835.845 116.591  37
   1   7  -1 224.329 64.4890  45
  -1   7   1 387.361 81.3472  37
   1   7  -1 296.579 87.4860  31
   1   7   0 444.876 97.9646  31
   1   7   0 421.594 88.9062  45
  -1   7   0 399.268 89.0882  29
   1   7   1 559.535 99.7095  45
  -1   7  -1 537.814 105.223  29
  -1   7  -2 713.424 121.637  29
   1   7   2 795.422 112.352  45
   1   7   3 726.053 105.526  45
  -1   7  -3 817.295 129.022  29
   1   7   4 374.581 71.8663  37
   1   7   4 299.754 72.6144  45
  -1  -7  -4 380.691 92.3335  56
  -1   7  -4 380.840 86.7664  29
   1   7   5 365.460 73.4745  45
   1   7   5 575.177 83.5770  37
  -1  -7  -5 506.333 98.1862  56
  -1   7  -5 627.280 101.789  29
   1   7   6 754.601 90.7824  37
  -1  -7  -6 802.160 106.614  56
  -1   7  -6 853.026 102.770  29
   2   0 -16 42.8387 38.8153  39
  -2   0  16-16.7880 37.1889  33
  -2   0  16 91.4456 43.0821  43
   2   0 -15 1885.24 183.221  39
  -2   0  15 2241.86 196.869  43
   2   0 -15 1975.22 164.676  35
   2   0 -14 15.7962 51.5739  39
  -2   0  14-33.7846 47.8000  43
   2   0 -14 63.7180 43.2754  35
  -2   0  13 12105.6 551.307  43
  -2   0  13 12822.3 522.496  26
   2   0 -13 12466.7 533.788  39
   2   0 -13 11878.3 501.543  35
   2   0 -13 12659.5 501.070  28
   2   0 -12 5376.29 358.295  39
  -2   0  12 5037.18 332.694  26
   2   0 -12 5492.35 363.375  17
  -2   0  12 5973.45 395.743  43
   2   0 -12 5348.22 332.203  28
  -2   0  11 54965.8 1183.02  43
   2   0 -11 52195.6 1076.91  38
  -2   0  11 55717.0 1058.97  26
   2   0 -11 54820.4 1072.87  39
   2   0 -11 55800.8 1039.41  28
  -2   0  10 14645.6 517.290  26
   2   0 -10 13886.3 499.254  28
   2   0  -9 77295.7 1101.01  28
  -2   0   9 72410.7 1067.15  26
  -2   0   8 79247.4 1033.80  26
   2   0  -8 71214.2 985.728  28
  -2   0   7 46214.0 715.619  26
   2   0  -7 42344.3 703.610  28
  -2   0   6 7770.12 269.049  26
   2   0  -6 8772.71 293.686  28
   2   0  -5 56630.7 590.248   7
  -2   0   5 54289.8 600.110   1
   2   0  -4 50976.2 523.010   6
   2   0  -4 51219.2 475.753   9
  -2   0   3 71605.9 577.255   5
   2   0  -3 65330.2 518.242   6
   2   0  -2 20006.6 203.008   3
  -2   0   2 20649.1 262.467   5
   2   0   2 496837. 1442.66   4
  -2   0  -2 497093. 1391.57   4
   2   0   2 501435. 1789.55   8
  -2   0  -3 322.576 39.1512   4
   2   0   3 173.575 38.1265  14
   2   0   3 396.810 58.1046   8
  -2   0  -3 170.128 34.2956  15
  -2   0  -3 249.104 44.7562   1
   2   0   4 68149.0 717.205  27
   2   0   4 69614.0 763.992  14
  -2   0  -4 71564.2 689.955  15
  -2   0  -4 66274.4 769.697  24
   2   0   4 72349.8 512.144   2
  -2   0  -4 71479.0 577.466   4
   2   0   5 45030.9 558.784  22
   2   0   5 47278.5 639.309  27
   2   0   5 45491.2 589.513  26
   2   0   5 45948.6 660.400  14
  -2   0  -5 44859.0 683.159  24
  -2   0  -5 43019.5 706.512  17
   2   0   6 3626.04 191.427  27
  -2   0  -6 3559.99 223.636  17
  -2   0  -6 3556.24 208.227  24
   2   0   6 3270.86 187.775  14
   2   0   6 3488.44 179.699  26
   2   0   7 2683.93 174.177  26
  -2   0  -7 2188.49 191.818  17
  -2   0  -7 2627.93 193.876  24
   2   0   8 2502.21 182.046  26
  -2   0  -8 2919.15 215.246  24
   2   0   9 35243.5 710.706  26
  -2   0  -9 39443.2 827.977  24
  -2   0 -10 4096.43 315.829  39
   2   0  10 4452.45 273.601  26
  -2   0 -10 4781.99 337.375  35
   2   0  10 4696.67 373.595  51
   2   0  10 4730.95 371.937  54
  -2   0 -10 4357.08 282.365  24
   2   0  11 8050.13 378.164  26
  -2   0 -11 6685.23 407.654  39
  -2   0 -11 8834.45 404.319  24
  -2   0 -11 8389.94 448.582  35
   2   0  11 8034.92 492.478  54
   2   0  11 8068.85 493.770  51
  -2   0 -12 2512.87 214.978  24
   2   0  12 2394.76 207.271  26
  -2   0 -12 1853.59 209.725  39
   2   0  12 2237.05 255.725  51
   2   0  12 2630.80 275.075  54
  -2   0 -12 2527.32 244.467  35
   2   0  13 6112.47 392.919  54
  -2   0 -13 6422.75 359.096  35
   2   0  13 6486.47 398.792  33
   2   0  13 5568.80 364.384  51
  -2   0 -14 7910.17 350.077  35
   2   0  14 7988.32 369.921  51
   2   0  14 8747.47 403.315  33
  -2   0 -15 140.097 52.6405  35
  -2   1  16 1347.85 121.304  43
  -2   1  16 1268.55 130.305  33
  -2  -1  16 1078.56 105.526  43
   2  -1 -16 1124.01 104.466  35
   2   1 -16 1041.15 111.893  39
   2  -1 -15 258.292 66.8727  39
  -2  -1  15 552.139 98.9294  43
   2   1 -15 402.733 90.3675  39
   2  -1 -15 455.834 90.9517  35
  -2   1  15 480.104 105.420  33
  -2   1  15 459.666 94.8370  43
  -2   1  14 2916.87 252.964  43
   2  -1 -14 3498.79 261.526  39
   2   1 -14 2858.47 245.915  39
  -2  -1  14 3327.21 270.227  43
   2  -1 -14 3254.90 256.240  35
  -2   1  14 3117.00 281.252  33
   2   1 -13 1223.80 173.965  39
  -2  -1  13 1155.31 172.834  43
   2  -1 -13 1396.36 165.394  28
   2   1 -13 1371.41 169.341  28
  -2  -1  13 1072.60 150.129  26
  -2   1  13 1196.12 173.589  43
   2  -1 -13 1195.27 167.248  39
  -2   1  13 1196.86 159.895  26
   2  -1 -12 5797.49 355.383  39
   2  -1 -12 5670.98 342.100  28
  -2  -1  12 6026.43 355.035  26
  -2   1  12 6025.55 402.827  43
   2  -1 -12 5530.49 371.477  38
  -2   1  12 6458.34 374.378  26
   2   1 -12 6325.97 364.227  28
  -2  -1  12 6806.37 425.681  43
   2   1 -12 5689.47 371.310  39
  -2   1  11 6949.05 379.818  26
   2   1 -11 7352.60 411.047  39
  -2   1  11 6717.60 416.668  43
   2  -1 -11 6245.55 383.572  38
  -2  -1  11 6138.11 351.409  26
  -2  -1  11 6548.11 419.324  34
   2   1 -11 7316.68 411.474  17
   2   1 -11 6885.11 374.309  28
   2  -1 -11 6927.24 378.964  39
   2   1 -11 5997.58 313.734  50
   2  -1 -11 5753.66 339.410  28
  -2   1  10 22445.4 649.581  26
  -2  -1  10 19379.6 592.558  26
   2   1 -10 22087.1 644.134  28
   2  -1 -10 19749.4 602.488  28
   2   1  -9 60248.1 990.984  28
  -2  -1   9 62505.5 997.436  26
   2  -1  -9 61681.5 1001.76  28
  -2  -1   8 70392.8 974.218  26
  -2   1   8 70807.2 996.553  26
   2  -1  -8 70789.1 1006.80  28
   2   1  -8 72127.8 1010.51  28
  -2   1   7 18085.6 462.529  26
  -2  -1   7 12892.1 383.289  26
  -2  -1   7 12153.7 385.710  25
   2  -1  -7 13079.6 403.114  28
   2  -1  -7 12781.9 372.130  21
   2   1  -7 17363.1 455.400  28
  -2   1   6 359.008 54.2596  22
   2  -1  -6 1195.04 109.796  21
  -2   1   6 342.970 63.2488  26
  -2  -1   6 976.327 105.583  25
   2   1  -6 386.168 70.2229  28
  -2  -1   6 335.652 57.4308  26
   2  -1  -6 833.052 94.5029  28
  -2  -1   5 80997.3 854.612  19
   2   1  -5 74856.3 792.362  28
  -2  -1   5 78935.3 820.170  12
   2   1  -5 76577.3 717.276   4
  -2  -1   5 70507.2 804.201  25
  -2   1   5 73115.5 667.215   3
   2  -1  -5 79836.7 836.352  28
  -2   1   5 72921.9 775.950  26
  -2   1   4 120213. 652.017   1
  -2  -1   4 124110. 908.081  12
   2   1  -4 132147. 898.430   4
  -2   1   4 128732. 837.173   3
  -2  -1   4 133687. 1001.14  19
  -2   1   4 129878. 916.170  18
   2  -1  -4 130946. 899.310   9
   2  -1  -4 126689. 642.607   6
  -2   1   3 136943. 820.622   3
  -2  -1   3 137157. 980.919   6
   2  -1  -3 136203. 838.665   7
   2  -1  -3 144997. 864.564   9
   2   1  -3 135328. 874.662   4
  -2  -1   3 145061. 929.776  19
  -2   1   3 141992. 956.738  18
  -2  -1   3 138760. 848.202  12
   2  -1  -2 87977.4 645.427   7
   2  -1  -2 91918.3 619.681   3
  -2  -1   2 92870.3 675.241  19
   2  -1  -2 89274.2 664.497  13
  -2   1   2 93679.4 770.801  18
   2  -1  -2 93775.6 725.488   5
  -2   1   2 98852.1 734.925   5
   2   1  -2 96479.8 711.510   4
   2  -1  -1 280476. 1072.02   7
   2   1  -1 288730. 1218.96   4
  -2  -1   1 287521. 1202.91  15
   2  -1  -1 268749. 1072.39   3
   2  -1  -1 274100. 1187.83   5
  -2   1   0 188761. 651.913   1
   2  -1   0 197391. 708.853   8
   2  -1   0 191678. 1011.66   5
   2   1   0 193768. 989.945  10
   2  -1   0 201082. 1040.96  14
  -2  -1   0 201149. 1083.33  15
   2  -1   0 196002. 943.750   3
   2   1   0 198933. 1066.87   4
   2   1   1 288615. 1330.56   4
   2  -1   1 284417. 1074.00   8
   2   1   1 285389. 1238.41  10
  -2   1  -1 289860. 1031.35   1
  -2   1  -1 281844. 1340.31  18
  -2  -1  -1 288077. 1393.88   8
  -2  -1  -1 292404. 1323.96   4
  -2   1  -2 30792.3 397.024   1
  -2  -1  -2 25252.1 408.224   4
  -2  -1  -2 30255.9 490.331  15
   2  -1   2 31556.5 268.727   4
   2  -1   2 26773.3 392.673   8
  -2   1  -2 27252.9 416.382  18
   2   1   2 27479.4 388.889   2
   2  -1   2 30131.0 390.684  12
  -2  -1  -2 28029.0 456.232   8
  -2   1  -3 12449.7 279.378  18
  -2   1  -3 13626.3 303.963   1
  -2  -1  -3 13484.1 318.361   4
   2  -1   3 12782.2 314.980   8
  -2  -1  -3 13653.1 347.109  15
  -2  -1  -4 20021.7 455.688  24
   2  -1   4 18258.4 381.867  26
   2   1   4 19248.1 373.556  27
  -2   1  -4 20308.8 428.397  24
   2   1   4 17734.2 359.054  22
  -2  -1  -4 18993.0 428.358  15
   2  -1   4 17009.7 391.551  27
   2  -1   5 35817.9 562.902  26
  -2  -1  -5 33739.2 597.941  15
  -2  -1  -5 36345.9 595.844  17
  -2  -1  -5 35061.0 641.329  24
  -2   1  -5 35519.5 616.563  24
   2  -1   5 35978.2 592.765  27
   2   1   6 568.248 73.7295  22
  -2  -1  -6 406.786 78.6127  24
   2  -1   6 397.619 69.3589  27
   2  -1   6 327.045 64.3040  26
   2   1   6 292.940 56.5662  26
  -2  -1  -6 314.837 63.9262  15
  -2   1  -6 561.913 84.7235  24
   2  -1   7 6887.02 284.669  27
   2   1   7 6917.61 260.122  22
  -2   1  -7 7266.17 319.623  24
  -2  -1  -7 6598.56 311.050  24
   2  -1   7 6638.95 281.522  26
   2   1   7 6146.36 248.645  26
   2   1   8 17421.3 429.155  22
   2  -1   8 17810.4 492.596  26
  -2  -1  -8 17932.3 542.561  24
   2   1   8 17044.8 453.296  26
  -2   1  -8 18797.8 552.401  24
   2  -1   8 16670.0 521.081  14
   2  -1   9 9517.43 385.523  26
   2   1   9 9115.94 360.250  26
  -2  -1  -9 9238.22 401.793  24
  -2   1  -9 9430.63 410.752  24
  -2  -1 -10 6013.76 334.382  24
  -2   1 -10 6259.50 345.713  24
   2   1  10 5143.64 385.965  51
  -2  -1 -10 5532.75 369.028  35
   2  -1  10 5444.08 302.382  26
  -2   1 -10 4811.02 351.362  39
   2  -1  10 5545.82 405.058  54
   2   1  10 5762.69 408.838  54
  -2   1 -10 5233.93 347.875  35
   2  -1  11 1589.56 175.878  26
  -2   1 -11 1974.31 219.174  35
  -2   1 -11 1624.18 212.211  39
   2  -1  11 1626.37 233.400  51
  -2  -1 -11 2315.48 242.023  35
  -2   1 -11 2059.32 205.420  24
  -2  -1 -11 1968.04 192.301  24
   2   1  11 2032.11 248.821  33
   2   1  11 1733.01 225.366  51
   2  -1  11 2021.14 252.827  54
  -2  -1 -11 1897.62 204.569  57
  -2   1 -12 23013.2 701.769  35
   2  -1  12 23370.2 647.540  26
  -2  -1 -12 24673.3 753.108  35
   2   1  12 23016.8 772.630  51
   2   1  12 24144.7 823.924  33
   2  -1  12 23922.0 827.584  51
   2  -1  12 22585.8 804.911  54
  -2   1 -12 23470.2 642.734  24
   2  -1  13 2694.13 266.746  54
   2   1  13 2565.67 237.221  51
  -2  -1 -13 2932.12 244.649  35
  -2   1 -13 2721.49 228.198  35
   2   1  13 3329.21 289.629  33
   2  -1  13 2685.86 261.553  51
  -2   1 -13 2967.79 245.342  30
  -2   1 -14 3887.04 233.330  35
   2  -1  14 3961.16 279.661  54
  -2  -1 -14 4111.99 253.414  35
   2  -1  14 4181.04 265.363  33
   2   1  14 4207.76 280.006  33
   2   1  14 3528.11 229.372  51
  -2   1 -14 4237.74 245.563  30
   2  -1  14 4008.17 269.586  51
  -2  -1 -15 6523.91 255.658  35
  -2  -2  15 2927.14 202.628  43
  -2   2  15 2896.04 204.235  43
   2   2 -15 2556.36 192.129  39
  -2   2  15 2844.65 213.950  33
   2  -2 -15 2743.56 198.621  35
   2   2 -14 494.249 110.646  39
  -2   2  14 491.710 109.878  33
   2  -2 -14 549.309 109.569  35
  -2   2  14 719.159 125.091  43
  -2  -2  14 587.584 115.881  43
   2   2 -14 538.785 111.646  48
  -2  -2  13 9135.09 466.856  43
   2   2 -13 8261.71 472.944  48
   2   2 -13 7817.33 417.591  39
   2  -2 -13 7689.32 429.262  36
  -2   2  13 7586.77 449.601  33
  -2   2  13 7146.27 410.565  43
  -2  -2  12 3294.13 308.000  34
  -2   2  12 3094.17 282.049  43
   2   2 -12 2681.44 254.771  39
  -2   2  12 3092.84 210.934  52
   2  -2 -12 2888.22 279.455  36
  -2   2  12 3033.73 299.482  33
  -2  -2  12 2997.21 240.130  26
  -2   2  12 3416.02 263.170  26
   2  -2 -12 2884.02 272.899  38
   2   2 -12 3145.92 271.349  28
   2  -2 -12 2977.79 249.401  28
   2   2 -11 17386.8 618.748  28
  -2   2  11 16836.2 665.519  43
  -2  -2  11 16804.6 561.393  26
   2   2 -11 15728.3 609.154  39
   2  -2 -11 18704.6 677.637  38
   2  -2 -11 17966.2 684.571  36
  -2   2  11 16670.5 705.809  33
   2  -2 -11 16306.6 581.461  28
  -2   2  11 17088.3 496.842  52
  -2  -2  11 16672.4 681.769  34
  -2  -2  11 17097.6 649.312  49
   2   2 -11 17328.9 648.141  17
  -2   2  11 17347.8 591.153  26
   2   2 -10 5683.53 349.082  28
   2   2 -10 5340.73 344.278  39
   2   2 -10 5726.45 356.810  17
  -2   2  10 5563.37 327.722  26
   2  -2 -10 6027.13 371.039  38
  -2  -2  10 5746.07 370.192  49
  -2  -2  10 5155.56 324.753  25
  -2  -2  10 5951.55 396.018  34
   2  -2 -10 5349.99 329.640  28
  -2   2  10 6089.09 293.223  52
  -2  -2  10 5400.56 309.663  26
  -2   2  10 6375.04 403.851  43
   2   2 -10 5258.64 301.529  50
   2   2  -9 30604.3 769.840  28
   2   2  -9 26048.4 712.902  17
  -2   2   9 25985.8 579.740  22
  -2   2   9 28311.6 701.656  26
  -2  -2   9 28911.1 674.252  26
  -2  -2   9 26948.6 715.520  25
   2  -2  -9 27895.1 715.387  28
   2  -2  -8 18212.0 546.404  28
  -2   2   8 18293.5 527.504  26
  -2  -2   8 17355.4 490.057  26
   2  -2  -8 16498.5 494.772  21
   2   2  -8 19210.8 572.951  17
   2  -2  -8 15838.5 435.080  16
   2   2  -8 18927.2 562.502  28
  -2  -2   8 17266.6 549.418  25
  -2   2   8 18476.5 471.811  22
  -2  -2   7 24774.2 541.497  26
  -2   2   7 24368.2 521.859  22
   2  -2  -7 23951.7 509.827  16
  -2   2   7 23939.4 556.887  26
   2  -2  -7 22874.9 581.777  28
  -2  -2   7 23813.8 601.980  12
   2   2  -7 23559.6 590.632  28
  -2  -2   7 23918.0 611.172  25
  -2   2   6 32067.6 572.027  22
  -2   2   6 30214.8 578.654  26
  -2  -2   6 31646.8 555.568  26
  -2  -2   6 30529.0 625.319  12
  -2  -2   6 31066.4 659.734  25
   2  -2  -6 31554.5 637.027  28
  -2  -2   6 33236.0 672.323  19
   2   2  -6 33387.9 649.236  28
   2   2  -5 72615.9 842.532  20
  -2   2   5 79233.2 849.245  22
  -2   2   5 76334.1 855.187  26
  -2  -2   5 75781.6 903.234  12
   2  -2  -5 81469.1 961.455  28
  -2  -2   5 77484.0 974.131  25
  -2   2   5 75176.3 851.085  18
  -2  -2   5 81952.2 984.533  19
   2   2  -5 75580.7 718.922  18
   2  -2  -5 77823.8 865.267   9
   2   2  -5 78793.4 930.161  28
   2   2  -4 20294.1 447.632  28
   2   2  -4 20058.6 430.146  20
  -2  -2   4 19865.4 434.074  12
  -2  -2   4 20920.1 476.492  25
  -2   2   4 19443.8 397.703  26
   2  -2  -4 20358.3 411.055   9
  -2   2   4 19841.4 441.760  18
  -2   2   4 20621.3 405.034  22
  -2  -2   4 20508.3 455.011  19
   2  -2  -4 19058.2 439.390  28
   2   2  -3 77669.3 807.047  28
   2   2  -3 82370.1 824.517   4
  -2   2   3 80407.9 761.213  22
   2  -2  -3 81126.9 745.873  13
  -2  -2   3 84910.3 866.116  19
  -2  -2   3 82893.0 888.584  25
  -2  -2   3 83175.8 769.961   4
   2  -2  -3 85550.3 789.119   9
  -2   2   3 83133.8 910.748  18
  -2  -2   2 23959.4 391.850  15
   2  -2  -2 24101.7 391.207  13
  -2   2   2 23174.8 478.526  18
  -2  -2   2 23660.9 409.436   4
  -2  -2   1 39632.2 558.534  15
   2  -2  -1 39781.5 489.454  14
  -2  -2   1 37275.9 528.875   4
  -2   2   1 36199.0 603.815  18
   2   2  -1 36029.1 391.846   3
   2  -2  -1 36404.1 427.156   7
   2  -2   0 50819.3 466.099   7
   2   2   0 47103.0 524.147  10
  -2  -2   0 44853.9 646.082  15
  -2   2   0 51098.2 718.606  18
   2  -2   1 40750.2 368.514   2
  -2   2  -1 40872.2 645.596  18
   2   2   1 39555.9 474.097  10
  -2   2  -1 41187.4 410.564   6
  -2  -2  -2 59663.1 819.321  24
  -2   2  -2 57848.9 602.504   6
   2  -2   2 58999.8 658.435  12
   2   2   2 59470.8 641.432  22
  -2  -2  -3 8023.07 313.219  24
   2  -2   3 8703.10 276.001  27
   2  -2   3 7901.58 240.313  19
  -2   2  -3 8181.63 275.433  24
  -2   2  -3 7877.49 281.969  18
   2  -2   3 7983.95 265.022  12
   2   2   3 7834.55 248.058  22
  -2  -2  -4 86813.5 1067.74  24
   2  -2   4 80751.3 895.654  27
   2  -2   4 85986.3 959.528  12
  -2  -2  -4 75804.1 1037.27  15
  -2   2  -4 89721.6 985.460  24
   2   2   4 84711.0 860.393  22
  -2  -2  -4 81967.2 904.466  28
   2   2   4 77046.9 742.930  18
   2  -2   5 95059.7 1014.20  27
  -2   2  -5 96104.3 1102.95  24
  -2  -2  -5 87428.2 1164.18  15
   2   2   5 88583.0 930.742  22
  -2  -2  -5 95364.9 1179.05  24
   2  -2   5 92701.9 1096.22  12
   2  -2   5 96118.1 991.470  26
  -2  -2  -5 88506.2 1005.03  28
   2  -2   6 16665.5 434.059  27
  -2  -2  -6 16939.3 460.217  28
  -2  -2  -6 16622.6 511.018  24
   2   2   6 16834.6 424.755  22
   2  -2   6 17540.7 451.006  26
   2   2   7 4973.18 242.362  22
   2  -2   7 4757.92 251.419  26
  -2  -2  -7 4653.61 284.541  15
  -2  -2  -7 4905.94 291.166  24
  -2   2  -7 5434.93 302.881  24
  -2  -2  -7 4853.79 260.391  28
   2  -2   7 5267.32 251.087  27
   2   2   8 15926.4 447.482  22
   2  -2   8 17010.7 501.446  26
  -2  -2  -8 15700.8 533.837  24
  -2   2  -8 17540.8 559.136  24
  -2   2  -9 15668.5 716.620  48
   2   2   9 19455.0 503.640  22
   2  -2   9 15938.8 575.247  14
  -2  -2  -9 17645.2 576.635  24
   2  -2   9 19236.5 560.996  26
  -2  -2  -9 19208.8 674.032  35
  -2   2  -9 16688.5 651.362  39
  -2  -2  -9 19127.4 692.035  32
  -2   2  -9 20367.5 628.735  24
   2   2   9 18853.2 745.336  33
   2   2   9 17260.2 690.598  51
   2  -2  10 31505.8 966.646  54
  -2  -2 -10 31079.9 762.332  24
  -2   2 -10 27496.5 850.548  39
   2   2  10 29779.6 909.975  51
  -2   2 -10 31398.1 830.330  35
  -2  -2 -10 32091.0 884.744  35
  -2   2 -10 33393.6 809.273  24
  -2   2 -10 28289.1 957.444  48
   2  -2  10 30986.9 731.375  26
   2   2  10 31003.5 976.536  33
  -2   2 -11 18269.0 747.561  48
   2  -2  11 19572.5 761.155  54
  -2   2 -11 18208.0 619.552  35
  -2  -2 -11 21141.0 707.143  35
  -2   2 -11 21736.8 638.138  24
   2   2  11 19806.7 772.086  33
   2  -2  11 19612.7 590.651  26
   2   2  11 19543.7 712.116  51
   2   2  12 3976.14 303.093  51
  -2  -2 -12 4057.87 296.139  57
  -2   2 -12 3711.45 296.206  30
   2   2  12 4007.60 329.520  33
  -2  -2 -12 4303.31 305.680  35
  -2   2 -12 4102.28 277.235  35
   2  -2  12 4416.14 355.516  54
   2  -2  12 3839.55 336.898  51
  -2   2 -13 9529.62 371.660  35
   2  -2  13 9520.04 469.064  54
  -2   2 -13 10224.1 438.307  30
   2   2  13 9772.16 472.352  33
  -2  -2 -13 10132.0 420.251  35
  -2  -2 -13 9533.05 394.260  57
   2   2  13 9181.74 397.763  51
   2  -2  13 9551.76 471.963  51
  -2  -2 -14 751.345 103.049  35
   2  -2  14 733.044 115.738  51
  -2   2 -14 870.036 110.925  30
   2   2  14 795.623 120.295  33
   2  -2  14 751.153 125.975  54
   2  -3 -15 1473.08 124.986  35
   2   3 -15 1444.55 120.869  30
  -2   3  15 1390.76 122.567  43
   2   3 -14 963.989 145.257  48
  -2   3  14 932.150 130.841  33
  -2  -3  14 1271.83 144.877  43
   2  -3 -14 1233.93 144.693  35
  -2   3  14 961.170 131.228  43
   2   3 -14 878.741 115.541  39
  -2  -3  14 987.812 127.615  54
  -2   3  13 332.660 92.7891  43
   2  -3 -13 198.674 81.2623  36
  -2  -3  13 338.822 97.3697  54
   2  -3 -13 256.928 84.3804  32
   2   3 -13 314.514 102.250  48
   2   3 -13 255.163 76.9473  39
  -2   3  13 330.729 107.984  33
  -2  -3  13 149.881 76.1923  34
   2   3 -12 824.674 164.173  48
  -2   3  12 596.595 136.940  43
   2  -3 -12 641.278 130.362  38
  -2  -3  12 589.809 129.558  49
   2   3 -12 430.621 103.486  39
   2  -3 -12 461.835 124.858  36
   2  -3 -12 557.468 112.896  28
  -2  -3  12 631.089 139.464  34
  -2   3  12 663.723 134.538  33
   2  -3 -12 465.852 108.146  32
  -2   3  11 9088.46 370.654  52
  -2  -3  11 8662.10 438.582  25
   2   3 -11 8309.69 435.338  39
   2  -3 -11 8720.18 432.363  28
   2  -3 -11 9043.78 498.733  36
  -2  -3  11 9948.26 527.185  34
  -2   3  11 8520.88 497.803  33
   2  -3 -11 8791.95 474.615  32
  -2  -3  11 9617.46 487.923  49
   2   3 -11 8650.92 445.935  28
  -2   3  11 8868.35 482.724  43
   2  -3 -11 8994.63 470.503  38
  -2  -3  10 1044.43 166.635  49
   2  -3 -10 788.326 138.679  28
  -2  -3  10 1140.29 171.772  25
  -2   3  10 657.574 138.096  33
  -2   3  10 916.162 163.595  43
   2   3 -10 613.503 115.252  41
   2  -3 -10 1202.05 187.942  36
  -2  -3  10 1072.85 177.496  34
   2  -3 -10 1171.07 168.717  38
  -2   3  10 945.715 123.878  52
  -2   3   9 5025.67 363.303  43
  -2  -3   9 5586.08 371.855  49
   2  -3  -9 4669.35 299.461  21
   2   3  -9 4347.38 309.503  41
   2   3  -9 4072.94 270.574  50
   2  -3  -9 5851.25 360.187  38
   2  -3  -9 4736.00 294.805  16
  -2   3   9 4419.17 269.330  22
   2   3  -9 6471.38 380.390  28
  -2   3   9 4750.25 267.565  52
   2  -3  -9 4810.17 321.225  28
  -2  -3   9 4780.20 328.908  25
   2   3  -8 21150.2 653.503  28
  -2  -3   8 18948.4 633.649  25
  -2   3   8 19852.1 553.092  22
   2  -3  -8 19898.1 629.202  28
  -2  -3   8 18405.0 630.840  12
   2  -3  -8 17543.0 545.807  16
  -2  -3   7 11195.7 473.452  19
   2   3  -7 13709.6 501.962  28
   2  -3  -7 10370.5 384.864  16
   2  -3  -7 13125.7 491.375  28
  -2  -3   7 12770.0 498.857  25
  -2   3   7 11731.4 412.149  22
  -2  -3   7 12261.2 484.276  12
  -2  -3   6 4515.16 276.689  12
  -2   3   6 5271.96 263.764  22
   2   3  -6 5497.71 299.832  28
  -2  -3   6 5472.24 315.551  19
   2  -3  -6 4528.89 247.311  16
  -2  -3   6 5391.20 311.154  25
   2  -3  -6 5519.13 307.672  28
   2  -3  -5 6906.11 330.866  28
   2   3  -5 6447.47 257.522  18
  -2  -3   5 5420.89 295.040  19
  -2   3   5 5481.53 283.577  18
  -2  -3   5 5773.11 293.807  12
  -2  -3   5 6475.22 325.637  25
  -2   3   5 6464.10 277.894  22
   2   3  -5 5560.92 245.567  20
   2   3  -5 6371.36 303.771  28
   2  -3  -5 6322.10 277.547  16
  -2   3   4 58779.4 790.226  22
  -2  -3   4 58000.6 903.622  19
   2   3  -4 64264.7 805.956  18
  -2  -3   4 67673.2 987.254  25
   2   3  -4 62040.8 810.138  20
  -2   3   4 57879.2 748.923  26
   2  -3  -4 61869.1 826.887   9
  -2   3   4 53880.7 901.904  18
  -2  -3   4 58847.9 884.836  12
   2   3  -4 61651.4 893.972  28
   2  -3  -4 62994.0 935.614  28
  -2   3   3 68342.7 772.748  26
  -2  -3   3 69257.6 952.059  25
  -2   3   3 68177.4 807.143  22
  -2  -3   3 71360.0 959.740  19
   2  -3  -3 74779.5 854.864   9
  -2   3   3 65583.1 992.932  18
   2   3  -3 69287.7 915.171  28
   2   3  -3 75169.4 871.744  18
   2  -3  -3 70648.3 940.064  28
  -2   3   2 23122.0 440.451  26
  -2  -3   2 25258.7 548.955  25
   2  -3  -2 25452.2 472.122   9
   2   3  -2 24272.3 500.421  18
   2  -3  -2 24658.0 444.204  13
  -2   3   2 24404.9 605.329  18
   2   3  -2 24962.2 527.708  28
  -2  -3   1 43847.0 709.352  15
  -2  -3   1 41234.5 760.319  24
   2  -3  -1 41707.4 578.652  13
   2   3  -1 38639.1 631.798  18
  -2  -3   1 37024.2 630.789  25
  -2   3   1 41021.4 788.048  18
   2   3   0 27213.3 423.093  22
  -2   3   0 30405.0 678.544  18
  -2  -3   0 28839.1 618.650  15
  -2  -3   0 29373.6 644.733  24
   2   3   0 28338.5 542.653  18
   2   3   1 16528.9 353.219  22
   2   3   1 16173.2 413.549  18
  -2   3  -1 15953.7 492.316  18
  -2  -3  -2 55739.8 936.782  24
   2   3   2 54822.0 762.703  18
   2   3   2 53981.2 680.879  22
   2   3   3 30402.4 543.900  22
  -2  -3  -3 32010.9 724.717  24
  -2   3  -3 33021.5 701.099  18
  -2   3  -3 29553.0 576.094  24
   2  -3   3 31779.8 625.101  12
   2   3   3 30960.8 576.926  18
  -2   3  -4 15956.9 451.577  24
  -2   3  -4 16787.9 495.925  18
  -2  -3  -4 15619.4 467.934  28
   2   3   4 15041.0 406.401  18
   2   3   4 15550.5 408.448  22
  -2  -3  -4 15190.3 517.451  24
   2  -3   4 15653.9 469.358  12
   2  -3   4 14240.3 396.485  26
   2   3   5 30851.6 607.008  22
   2  -3   5 29794.4 593.646  26
  -2  -3  -5 31545.2 695.959  28
  -2   3  -5 32721.3 689.039  24
   2  -3   5 31632.6 712.198  12
  -2  -3  -5 31633.3 763.466  24
   2   3   6 4886.09 254.059  22
   2  -3   6 4969.23 255.034  26
  -2  -3  -6 4611.81 300.893  24
  -2  -3  -6 4216.58 312.399  15
  -2   3  -6 4791.39 281.387  24
   2  -3   6 5437.87 318.844  12
  -2  -3  -6 4967.61 291.893  28
   2  -3   7 12024.2 414.547  26
  -2  -3  -7 12096.8 461.125  28
  -2   3  -7 12630.3 475.221  24
  -2  -3  -7 13095.1 512.786  24
   2   3   7 12608.0 419.790  22
  -2   3  -8 1331.91 223.006  48
   2   3   8 1662.99 159.732  22
  -2  -3  -8 1656.76 254.536  46
  -2  -3  -8 1508.36 195.453  15
  -2  -3  -8 1707.58 220.277  32
   2  -3   8 1391.71 154.099  26
  -2  -3  -8 1352.65 207.724  56
  -2  -3  -8 1515.32 181.934  24
   2   3   8 1680.81 232.468  33
  -2   3  -8 1511.36 177.037  24
   2   3   8 1852.86 225.718  51
   2   3   9 21801.9 569.327  22
   2  -3   9 20579.9 585.527  26
   2  -3   9 20105.6 578.646  25
  -2  -3  -9 21892.4 655.622  24
  -2   3  -9 18133.4 793.455  48
  -2   3  -9 22181.4 661.857  24
   2   3   9 22192.4 839.433  33
  -2  -3  -9 20073.2 747.641  32
  -2  -3  -9 17457.8 828.845  46
  -2   3  -9 23140.1 794.066  30
   2   3   9 21376.3 761.142  51
  -2   3 -10 1801.17 252.374  48
  -2   3 -10 2163.12 246.598  30
   2   3  10 2194.40 183.028  22
  -2  -3 -10 1738.33 255.056  46
   2   3  10 2163.07 265.320  33
   2  -3  10 1879.95 180.371  26
   2  -3  10 2198.17 194.365  25
  -2   3 -10 2379.54 217.710  24
   2   3  10 1960.22 227.540  51
   2   3  11 6968.61 447.731  33
  -2  -3 -11 7394.26 384.184  35
  -2   3 -11 7596.45 430.542  30
   2   3  11 6982.66 395.054  51
  -2  -3 -11 7323.36 464.058  46
   2  -3  11 6995.42 434.259  54
   2  -3  12 528.418 130.576  51
  -2  -3 -12 535.389 104.865  35
   2  -3  12 373.877 111.342  54
   2   3  12 395.557 106.681  33
  -2   3 -12 361.088 97.0969  30
   2   3  12 298.420 83.5317  51
   2  -3  13 1468.26 174.616  51
  -2  -3 -13 1606.05 152.929  57
  -2   3 -13 1691.56 163.243  30
  -2  -3 -13 1680.08 140.624  35
   2   3  13 1452.16 173.520  33
   2  -3  13 1412.22 170.009  54
   2  -3  14 691.362 99.8951  54
  -2   3 -14 731.792 90.5471  30
   2   4 -14 386.099 77.1521  48
  -2   4  14 516.620 82.7607  43
   2   4 -13 876.911 136.146  48
   2  -4 -13 733.617 112.144  32
   2  -4 -13 980.353 120.058  35
  -2  -4  13 883.159 125.815  34
  -2   4  13 674.690 116.117  43
   2  -4 -13 679.311 132.966  46
  -2  -4  13 756.939 116.078  54
  -2  -4  12 156.749 69.4772  49
   2   4 -12 92.3104 77.0571  48
  -2   4  12 269.876 87.7390  43
   2  -4 -12 194.436 83.7549  36
  -2  -4  12 219.325 89.6304  34
   2  -4 -12 202.764 79.9596  32
  -2   4  11 3934.93 311.103  43
   2  -4 -11 3447.63 269.163  38
   2  -4 -11 3362.54 292.454  36
  -2  -4  11 3913.77 322.246  34
   2  -4 -11 3307.62 282.848  32
  -2  -4  11 3728.57 292.254  49
   2   4 -11 3937.17 340.626  48
   2   4 -10 7331.07 478.988  48
  -2  -4  10 6343.10 396.637  49
  -2   4  10 6239.53 407.736  43
   2   4 -10 5920.22 361.492  41
   2  -4 -10 6285.45 370.076  38
   2   4 -10 6382.06 377.735  28
  -2  -4  10 5846.68 369.340  25
   2  -4 -10 6170.91 373.860  28
   2  -4 -10 7014.68 426.501  36
  -2   4  10 5923.18 299.191  52
   2   4  -9 5707.03 431.426  48
   2   4  -9 5319.01 352.906  28
   2  -4  -9 5314.09 352.606  28
  -2  -4   9 4682.71 338.551  25
   2  -4  -9 5522.39 349.074  38
   2  -4  -9 4992.62 330.122  21
  -2   4   9 4908.87 316.629  37
   2  -4  -9 5579.54 381.872  36
   2   4  -9 4691.97 329.708  41
  -2   4   9 4783.31 366.102  43
  -2   4   9 4631.05 268.830  52
  -2  -4   9 5356.70 370.131  49
   2  -4  -8 1865.90 203.161  16
   2   4  -8 3299.54 325.380  48
  -2   4   8 2142.38 212.025  37
   2  -4  -8 2255.09 234.807  28
  -2   4   8 2160.78 243.914  43
   2  -4  -8 2152.01 218.381  38
  -2  -4   8 2325.74 239.032  25
  -2   4   8 2264.80 188.982  52
   2  -4  -8 2292.77 211.596  11
   2   4  -8 2271.38 228.892  41
  -2  -4   8 2067.08 228.666  12
   2   4  -8 2323.00 234.562  28
   2  -4  -7 635.250 118.827  11
  -2  -4   7 907.013 157.041  12
  -2  -4   7 832.524 146.978  25
   2  -4  -7 800.865 129.093  16
  -2   4   7 1018.92 154.623  37
  -2  -4   7 909.869 148.838  19
   2   4  -7 894.439 145.610  28
  -2   4   7 1157.52 175.254  43
  -2   4   7 887.093 116.519  52
   2  -4  -7 983.568 153.678  28
   2   4  -7 1104.79 161.911  41
   2   4  -6 1061.32 152.509  28
   2  -4  -6 700.162 121.769  11
  -2   4   6 580.915 106.655  22
   2  -4  -6 862.238 146.817  28
  -2  -4   6 672.563 126.839  25
  -2  -4   6 777.158 139.626  19
   2  -4  -6 898.787 132.516  16
  -2  -4   6 735.769 133.729  12
   2   4  -5 5103.03 309.906  28
   2  -4  -5 4583.71 291.425  11
   2   4  -5 5692.14 294.270  18
  -2  -4   5 4886.65 322.413  19
  -2  -4   5 5274.62 329.381  25
  -2   4   5 4867.81 318.859  18
  -2  -4   5 5172.89 321.613  12
   2  -4  -5 5999.29 355.470  28
   2  -4  -5 5023.35 281.802  16
   2   4  -4 1695.88 162.381  18
   2  -4  -4 1322.28 168.446  28
   2  -4  -4 1269.40 141.992  16
  -2  -4   4 1380.58 166.615  25
  -2  -4   4 1196.16 163.030  19
  -2   4   4 1122.96 156.745  18
   2   4  -4 1527.97 167.734  28
  -2  -4   4 1112.08 149.360  12
   2  -4  -3 15203.2 459.376  16
  -2  -4   3 16004.7 568.839  24
   2  -4  -3 16604.9 454.453   9
  -2  -4   3 15922.7 540.833  19
  -2   4   3 15903.6 583.529  18
   2   4  -3 17998.5 521.924  18
   2  -4  -3 16930.0 555.254  28
  -2  -4   3 15267.9 511.606  25
  -2  -4   2 6140.71 309.104  25
   2   4  -2 6026.66 307.974  18
  -2  -4   2 6039.31 351.703  24
   2  -4  -2 6179.52 266.257   9
  -2   4   2 5716.48 352.469  18
  -2   4   1 3289.13 267.939  18
   2  -4  -1 3729.96 213.256  16
  -2  -4   1 3263.76 262.892  24
   2   4  -1 3482.62 234.016  18
   2  -4   0 18473.9 454.460  16
  -2  -4   0 16930.2 545.830  15
   2   4   0 16878.8 511.092  18
  -2  -4   0 18249.2 609.579  24
  -2   4   0 17060.7 602.826  18
   2   4   1 9524.44 301.201  22
  -2  -4  -1 10510.9 456.395  15
  -2  -4  -1 11206.3 479.704  24
  -2   4  -1 10469.8 471.760  18
   2   4   1 10063.6 400.684  18
   2  -4   1 11458.1 388.698  11
   2   4   2 6014.46 309.519  18
   2   4   2 5627.02 245.381  22
   2  -4   2 5691.02 302.582  12
  -2  -4  -2 5723.89 353.992  15
  -2  -4  -2 6517.88 373.017  24
  -2   4  -2 5439.73 337.090  18
   2  -4   3 10181.0 414.770  12
  -2  -4  -3 10122.2 490.909  15
  -2  -4  -3 10111.6 475.563  24
  -2   4  -3 10886.9 473.441  18
   2   4   3 10168.2 349.066  22
   2   4   3 10179.1 407.362  18
   2   4   4 18969.2 497.272  22
   2  -4   4 18628.3 585.745  12
  -2  -4  -4 17332.6 663.443  15
  -2  -4  -4 20193.5 614.110  28
  -2   4  -4 20274.1 637.110  18
  -2  -4  -4 18949.4 653.187  24
   2   4   4 18696.8 545.104  18
   2   4   5 11681.7 409.072  22
   2  -4   5 11003.1 469.371  12
  -2  -4  -5 10641.2 538.902  15
  -2  -4  -5 10951.8 468.823  28
  -2  -4  -5 11133.0 501.996  24
   2   4   6 8911.76 369.292  22
  -2  -4  -6 8552.13 422.263  28
  -2  -4  -6 7956.56 577.889  46
   2   4   6 7934.09 365.746  45
   2   4   6 8966.10 488.985  51
  -2  -4  -6 8025.93 470.279  15
  -2  -4  -6 9130.87 459.704  24
   2   4   6 8099.63 506.410  33
  -2  -4  -6 8575.30 485.714  32
   2  -4   6 8570.90 435.574  12
  -2   4  -6 9768.82 612.280  58
  -2   4  -6 9555.37 472.029  29
  -2   4  -6 7738.61 447.700  30
  -2   4  -6 7470.40 505.498  48
  -2   4  -7 1281.08 215.406  48
  -2   4  -7 1436.05 204.469  30
  -2  -4  -7 1666.00 197.923  24
  -2  -4  -7 1397.09 254.261  46
  -2  -4  -7 1499.09 174.833  28
  -2  -4  -7 1603.27 218.282  15
   2   4   7 1515.63 231.027  33
  -2  -4  -7 1753.44 224.217  32
   2   4   7 1610.93 163.069  22
  -2   4  -7 1917.44 210.483  29
   2   4   7 1673.46 210.885  51
  -2   4  -7 1657.36 261.265  58
   2  -4   7 1810.94 181.225  25
  -2   4  -8 2787.96 304.065  48
  -2  -4  -8 2480.42 319.908  46
   2   4   8 3078.03 225.584  22
  -2   4  -8 3097.66 335.596  58
   2  -4   8 3051.46 237.659  25
  -2  -4  -8 3192.90 260.903  24
   2   4   8 3045.49 317.568  33
  -2  -4  -8 3261.54 305.346  32
  -2   4  -8 2869.64 283.483  30
   2   4   8 2887.20 279.825  51
  -2  -4  -8 2686.10 308.626  56
  -2   4  -9 2579.05 298.487  48
  -2  -4  -9 2880.91 336.534  46
  -2  -4  -9 2789.01 291.783  56
   2  -4   9 2770.02 224.247  25
  -2   4  -9 3235.32 288.737  30
   2   4   9 3297.76 286.933  51
   2   4   9 2934.24 310.675  33
  -2  -4  -9 3171.35 296.199  32
   2   4   9 3027.37 217.024  22
  -2  -4 -10 2337.87 239.679  56
  -2   4 -10 2652.12 251.299  30
  -2  -4 -10 2545.73 285.278  46
   2   4  10 2444.25 270.112  33
   2   4  10 2299.21 220.225  51
   2  -4  11 625.657 121.921  54
   2   4  11 451.689 113.347  33
  -2  -4 -11 821.853 157.655  46
  -2   4 -11 670.119 123.804  30
  -2  -4 -12 177.391 68.2273  46
  -2  -4 -12 220.463 67.6702  57
   2   4  12 276.785 62.1934  37
   2   4  12 284.059 84.8936  33
  -2   4 -12 272.381 69.5795  30
   2  -4  12 305.274 89.8363  51
   2  -4  12 393.080 91.8209  54
  -2   4 -13 1546.80 127.761  30
  -2  -4 -13 1668.25 127.923  57
  -2   5  12 1126.76 128.317  43
   2  -5 -12 939.587 136.739  46
   2   5 -12 973.645 129.773  48
  -2  -5  12 1392.04 144.489  34
   2  -5 -12 1362.02 135.613  32
   2   5 -11 417.781 103.983  48
   2  -5 -11 463.433 122.727  46
  -2   5  11 536.662 107.342  43
  -2  -5  11 656.624 117.358  34
  -2  -5  11 537.108 101.064  49
   2  -5 -11 427.208 97.7196  32
   2   5 -11 768.444 132.088  58
   2  -5 -11 620.877 109.657  36
   2   5 -10 2550.61 255.202  48
  -2  -5  10 3043.61 248.701  49
  -2   5  10 2458.79 236.456  43
  -2   5  10 2640.88 206.140  37
   2  -5 -10 2451.34 225.630  36
  -2  -5  10 3274.17 275.280  34
   2  -5 -10 2544.32 238.108  32
  -2  -5   9 507.938 116.118  49
   2   5  -9 433.881 118.289  48
  -2   5   9 514.516 121.210  43
   2  -5  -9 382.645 100.724  36
  -2   5   9 469.717 98.2356  37
  -2  -5   8 1247.44 174.478  25
  -2   5   8 1268.07 191.611  43
  -2   5   8 1525.79 184.713  37
   2  -5  -8 1433.87 181.743  36
   2   5  -8 1644.80 192.693  41
  -2  -5   8 1152.66 171.254  24
   2  -5  -8 1532.76 196.672  28
   2   5  -8 1080.76 154.451  31
   2   5  -8 1402.00 205.477  48
  -2   5   7 769.223 105.391  52
  -2   5   7 816.898 151.904  43
   2   5  -7 986.347 150.858  41
  -2  -5   7 758.138 146.346  25
  -2  -5   7 842.298 151.248  24
  -2   5   7 1248.86 171.158  37
   2  -5  -7 1315.33 177.458  36
   2   5  -7 823.493 145.377  31
   2  -5  -7 1209.47 182.538  28
  -2  -5   7 1256.73 167.614  47
  -2   5   6 4927.56 371.838  43
   2   5  -6 6095.22 388.790  31
  -2  -5   6 5650.66 364.120  25
  -2  -5   6 5706.52 387.707  24
  -2   5   6 5349.12 344.287  37
   2   5  -6 5153.42 338.305  41
  -2   5   6 5346.50 315.894  45
   2  -5  -6 6356.59 406.727  28
  -2   5   5 1202.12 157.153  45
   2  -5  -5 1202.83 165.330  16
   2   5  -5 1130.52 178.786  31
  -2   5   5 1129.64 185.295  43
  -2  -5   5 997.661 153.556  25
  -2  -5   5 1314.80 190.692  24
   2   5  -5 1269.16 170.224  41
  -2  -5   5 1397.51 191.533  19
  -2  -5   5 1174.01 170.585  12
  -2   5   5 1250.45 171.872  37
   2  -5  -5 1191.52 175.559  11
   2  -5  -5 1153.76 182.053  28
   2  -5  -4 3565.79 284.590  11
  -2   5   4 3457.99 302.645  43
   2   5  -4 3952.22 301.090  18
  -2   5   4 3895.07 290.228  37
  -2  -5   4 3353.64 267.364  25
  -2   5   4 3728.78 273.583  45
  -2  -5   4 3379.12 300.591  24
   2   5  -4 3445.75 266.114  41
  -2  -5   4 3307.44 284.749  19
  -2   5   4 3765.98 320.638  18
  -2  -5   4 3461.32 289.512  12
   2  -5  -4 3780.62 314.191  28
   2  -5  -4 3833.69 278.881  16
   2   5  -4 4079.21 327.316  31
  -2  -5   3 3271.50 294.504  24
   2  -5  -3 2926.22 238.814  16
  -2   5   3 2765.94 237.147  45
   2  -5  -3 3038.07 262.176  11
  -2   5   3 2695.60 243.709  37
  -2  -5   3 2925.24 264.564  19
  -2   5   3 2768.06 281.940  18
   2   5  -3 3070.46 258.254  18
   2  -5  -3 3025.82 271.562  28
  -2  -5   3 3087.86 268.736  12
   2  -5  -2 6217.02 336.181  16
  -2   5   2 6218.62 356.151  37
  -2  -5   2 6113.27 380.218  19
  -2  -5   2 6275.59 406.563  24
  -2   5   2 6103.14 414.988  18
   2  -5  -2 6416.96 372.738  11
   2   5  -2 6497.45 380.307  18
  -2   5   2 6015.20 340.580  45
  -2   5   1 11879.3 485.727  37
   2   5  -1 12491.9 459.941  45
   2  -5  -1 12870.8 512.475  11
  -2   5   1 10907.5 452.985  45
  -2   5   1 11707.0 572.020  18
   2   5  -1 11399.9 488.644  18
  -2  -5   1 12151.8 560.687  24
   2  -5   0 4933.10 312.975  11
  -2   5   0 4353.56 327.524  31
  -2   5   0 4368.52 283.025  45
  -2  -5   0 5099.23 364.680  24
  -2   5   0 4876.90 368.213  18
   2   5   0 5083.16 300.791  45
  -2   5   0 4641.28 303.822  37
  -2   5   0 5625.11 367.758  40
  -2   5   0 4083.35 386.447  58
   2   5   0 4728.57 320.845  18
  -2   5  -1 1903.34 193.673  37
  -2   5  -1 1971.90 279.447  58
  -2  -5  -1 2287.16 225.462  15
   2   5   1 2327.01 210.402  45
  -2  -5  -1 2154.66 246.142  24
  -2   5  -1 2075.48 241.375  18
  -2   5  -1 2078.67 235.044  31
   2   5   1 2373.53 236.728  18
   2  -5   1 2180.54 213.613  12
  -2   5  -1 1822.82 213.668  40
   2   5   2 8224.99 396.589  45
  -2   5  -2 7649.99 450.513  31
  -2  -5  -2 8555.00 456.708  15
  -2   5  -2 6581.01 394.797  40
   2   5   2 7744.69 414.309  18
  -2  -5  -2 8387.70 469.649  24
  -2   5  -2 7761.70 387.307  37
  -2   5  -2 7102.08 434.620  18
  -2   5  -2 7672.06 556.415  58
   2  -5   2 7683.94 401.625  12
  -2   5  -3 6257.74 513.261  58
   2   5   3 6454.53 353.470  45
  -2  -5  -3 6309.33 410.060  15
  -2   5  -3 6166.68 377.720  40
   2   5   3 6574.51 302.303  22
  -2  -5  -3 6826.33 420.848  24
  -2   5  -3 6612.60 407.924  18
   2   5   3 5779.16 371.358  18
  -2  -5  -3 5677.28 355.017  28
  -2   5  -3 6872.39 427.503  31
   2  -5   3 6110.66 362.542  12
  -2  -5  -4 5468.16 353.121  28
  -2  -5  -4 4641.68 419.922  46
   2   5   4 5569.74 291.185  22
   2  -5   4 5655.59 304.842  25
  -2  -5  -4 5618.08 392.319  15
   2   5   4 5035.84 410.498  33
   2   5   4 5610.04 329.050  45
  -2   5  -4 5681.57 390.585  31
  -2   5  -4 5505.40 480.306  58
  -2  -5  -4 5251.42 367.954  24
   2   5   4 5979.54 405.705  51
  -2   5  -4 4850.76 323.811  40
   2   5   5 4207.73 284.774  45
  -2  -5  -5 4107.57 308.287  28
   2  -5   5 4549.14 282.205  25
  -2  -5  -5 4269.94 324.245  24
  -2  -5  -5 3845.94 386.762  46
   2   5   5 4121.37 377.667  33
  -2   5  -5 4726.33 445.610  58
   2   5   5 4449.93 265.851  22
   2   5   5 4676.65 358.323  51
   2   5   6 1545.87 211.063  51
  -2  -5  -6 977.771 216.296  46
   2   5   6 1610.71 171.641  45
  -2   5  -6 1574.69 199.354  30
   2  -5   6 1570.69 171.917  25
  -2  -5  -6 1433.06 189.240  24
   2   5   6 1693.99 237.030  33
  -2  -5  -6 1502.68 196.695  32
   2   5   6 1690.92 167.561  22
  -2   5  -6 1339.79 241.698  58
  -2   5  -6 1410.92 192.096  29
  -2  -5  -6 1253.18 232.635  56
  -2  -5  -6 1525.25 185.354  28
  -2   5  -7 107.827 64.7079  29
  -2  -5  -7 259.394 124.137  46
   2   5   7 94.7870 51.6043  22
   2  -5   7 128.640 60.0646  25
   2   5   7 0.47004 59.4683  33
  -2  -5  -7 262.623 83.9834  32
   2   5   7 126.920 68.1591  51
  -2   5  -7 96.2925 55.4871  30
  -2  -5  -7 195.274 104.154  56
  -2   5  -7 175.793 101.562  58
  -2  -5  -8 216.418 103.855  46
   2   5   8 43.3027 75.4202  33
  -2   5  -8 137.573 90.8876  58
  -2   5  -8 253.036 77.0449  29
  -2  -5  -8 361.919 107.180  56
  -2   5  -8 213.953 75.5459  30
   2   5   8 271.441 89.0290  51
  -2  -5  -9 1370.80 213.485  46
   2   5   9 1271.04 149.452  37
   2   5   9 1411.97 200.239  33
  -2  -5  -9 1230.03 178.810  56
  -2   5  -9 1343.64 163.617  30
  -2   5 -10 899.849 123.287  30
  -2  -5 -10 959.570 138.788  56
   2   5  10 959.170 121.621  37
   2  -5  10 1108.09 138.748  54
   2   5  10 857.156 138.425  33
  -2  -5 -10 911.505 152.578  46
  -2  -5 -11 1042.55 132.368  46
  -2   5 -11 830.919 99.5102  30
  -2  -5 -11 838.563 102.132  57
   2   5  11 1065.59 105.524  37
   2   5  11 759.646 110.626  33
   2  -5  11 975.867 117.003  54
   2  -6 -10 618.485 115.597  46
  -2   6  10 700.908 87.1066  37
  -2  -6  10 819.412 106.685  34
   2  -6 -10 756.982 96.9902  32
   2   6 -10 725.802 116.818  58
  -2  -6  10 757.965 97.5280  49
  -2  -6   9 239.709 71.2407  49
   2  -6  -9 107.423 71.3919  46
  -2   6   9 130.574 53.2524  37
  -2  -6   9 263.292 74.7214  34
   2  -6  -9 94.9590 55.4101  32
   2   6  -9 242.806 87.6713  58
  -2  -6   8 374.621 90.2708  49
   2  -6  -8 448.187 115.868  46
   2   6  -8 381.884 123.171  58
   2   6  -8 307.565 75.9334  31
  -2   6   8 371.408 89.9513  37
   2  -6  -8 323.783 81.7064  32
   2   6  -7 1385.36 165.903  31
  -2   6   7 1353.48 161.978  37
   2  -6  -7 1360.93 160.286  32
   2   6  -6 61.5395 61.4899  31
  -2   6   6 204.560 77.7742  37
   2   6  -5 3111.55 276.520  31
  -2   6   5 3271.95 261.244  40
  -2   6   5 2922.58 249.146  37
   2  -6  -4 277.302 94.2097  28
  -2   6   4 260.435 91.5399  40
  -2   6   4 410.925 107.324  37
  -2  -6   4 297.829 98.4613  24
   2   6  -4 299.925 104.959  31
  -2   6   3 1815.67 218.213  40
   2  -6  -3 1940.09 227.513  28
  -2   6   3 1808.27 199.448  37
  -2  -6   3 1541.10 208.112  24
   2   6  -3 2050.41 231.567  31
   2   6  -2 1738.75 171.081  45
  -2   6   2 1560.69 204.233  40
  -2  -6   2 1494.75 208.611  24
  -2   6   2 1690.41 192.699  37
   2   6  -2 1375.02 195.390  31
  -2  -6   2 1824.85 196.576  42
   2  -6  -2 1865.00 230.412  28
   2   6  -1 1475.16 168.253  45
   2  -6  -1 2161.24 239.134  28
  -2   6   1 1645.90 210.591  40
  -2  -6   1 1563.54 210.929  24
  -2   6   1 1560.00 181.128  37
   2   6  -1 1727.92 213.957  31
  -2   6   1 1876.78 205.988  29
   2   6   0 4866.50 297.812  45
   2   6   0 4296.73 328.640  31
  -2   6   0 4056.21 320.532  40
  -2  -6   0 4227.74 337.874  24
  -2   6   0 4339.39 296.725  37
  -2   6   0 4343.57 328.968  29
  -2   6  -1 9420.41 477.821  40
   2   6   1 10886.0 451.909  45
   2   6   1 10048.9 477.750  31
  -2  -6  -1 9568.71 503.539  24
  -2  -6  -2 2143.45 251.182  56
  -2   6  -2 1978.35 280.182  58
   2   6   2 2186.86 210.551  45
  -2  -6  -2 1860.96 202.679  28
  -2   6  -2 1984.09 220.526  40
  -2  -6  -2 1680.69 216.532  24
  -2   6  -2 2002.72 231.074  29
  -2  -6  -3 1141.39 162.003  28
  -2   6  -3 1413.90 191.180  29
  -2   6  -3 1048.78 157.070  40
   2   6   3 1129.09 148.465  37
  -2  -6  -3 1270.28 181.116  24
   2   6   3 1523.29 175.125  45
  -2   6  -3 1056.82 208.888  58
  -2  -6  -3 1285.41 204.096  56
   2   6   4 2107.16 198.015  37
   2   6   4 2013.07 194.269  45
  -2   6  -4 1557.64 250.167  58
  -2  -6  -4 1867.51 244.134  56
  -2   6  -4 1944.98 217.431  29
  -2   6  -5 1196.75 166.779  29
   2   6   5 1414.18 156.364  45
  -2   6  -5 1491.84 233.301  58
  -2  -6  -5 974.596 184.256  56
   2   6   5 1622.15 174.268  37
  -2  -6  -5 1364.57 203.736  46
  -2   6  -6 373.330 95.5503  29
  -2  -6  -6 311.795 103.510  46
   2   6   6 375.759 85.7719  45
  -2   6  -6 325.354 117.544  58
   2   6   6 486.725 98.7431  37
  -2  -6  -6 331.506 114.216  56
   2   6   7 2193.11 160.854  45
  -2  -6  -7 2714.42 253.487  46
  -2  -6  -7 2568.39 243.178  56
   2   6   7 2543.59 194.819  37
  -2   6  -7 2490.25 201.722  29
   2   6   8 1393.64 136.553  37
  -2  -6  -8 1210.19 151.806  56
  -2   6  -8 1223.00 122.016  29
  -2  -6  -8 1466.73 172.859  46
  -2  -6  -9 1496.40 139.424  56
   2   6   9 1647.50 125.796  37
  -2  -7   7 22.3054 29.9018  49
  -2   7   7 29.2007 32.6887  37
  -2   7   6 33.5035 35.2159  37
   2   7  -6 58.3643 55.2856  58
   2   7  -6 66.8643 41.9704  31
  -2  -7   5 206.395 56.4299  47
   2   7  -5 128.700 53.9044  31
  -2   7   5 35.9958 41.1657  37
   2   7  -5 216.355 78.3367  58
  -2  -7   4 114.793 56.8285  47
  -2   7   4 62.5417 40.7218  40
  -2   7   4 12.9784 49.4239  37
   2   7  -4 109.083 65.7908  31
  -2   7   3 205.337 71.8125  37
  -2   7   3 134.000 61.6743  40
   2   7  -3 201.982 77.8875  31
  -2   7   2 1577.47 168.965  40
   2   7  -2 1481.33 165.495  31
   2   7  -1 1099.19 118.265  45
  -2   7   1 1250.40 155.579  40
   2   7  -1 1054.09 140.801  31
  -2  -7   1 1138.63 136.235  42
  -2  -7   0 239.158 76.7979  42
   2   7   0 232.962 72.7132  31
  -2   7   0 215.573 68.6554  29
   2   7   0 217.199 66.8067  45
   2   7   1 920.837 117.821  45
  -2  -7  -1 862.260 125.179  42
  -2   7  -1 751.374 121.906  29
   2   7   2 200.538 61.2140  45
  -2  -7  -2 150.336 69.1232  42
  -2   7  -2 122.310 59.5854  29
  -2  -7  -3 116.238 58.8564  42
  -2   7  -3 216.817 69.4760  29
   2   7   3 197.365 65.1464  45
  -2  -7  -4 222.988 69.6665  56
  -2  -7  -4 171.972 65.5173  42
  -2   7  -4 242.751 65.1503  29
   2   7   4 193.453 57.3307  45
  -2  -7  -5 468.942 80.9032  42
   2   7   5 443.785 70.7320  45
  -2   7  -5 550.653 88.1777  29
  -2  -7  -5 518.373 84.0238  56
  -3   0  16 1804.18 148.150  43
   3   0 -16 1826.39 146.837  39
  -3   0  16 1786.80 148.576  33
  -3   0  15 5858.13 319.182  43
   3   0 -15 5245.77 293.450  39
   3   0 -14 215.067 85.1836  39
  -3   0  14 108.280 67.4980  43
   3   0 -13 774.824 131.401  28
  -3   0  13 704.034 143.107  43
  -3   0  13 845.970 141.827  26
   3   0 -13 697.500 134.957  39
   3   0 -12 6621.99 368.559  28
  -3   0  12 7672.41 417.568  26
  -3   0  12 7558.44 453.082  43
   3   0 -12 6888.95 392.073  39
  -3   0  11 2786.09 253.631  26
   3   0 -11 2703.33 242.502  39
   3   0 -11 2894.46 241.923  28
   3   0 -10 37087.7 817.045  28
  -3   0  10 37303.9 857.095  26
  -3   0   9 2874.60 226.200  26
   3   0  -9 2952.44 220.458  28
  -3   0   8 12224.3 429.366  26
   3   0  -8 11506.9 379.240  21
   3   0  -8 11652.5 405.489  28
   3   0  -7 109966. 1131.47  21
   3   0  -7 116450. 1175.33  28
  -3   0   6 39236.2 647.290  26
   3   0  -6 34603.6 608.934  21
  -3   0   6 39411.9 634.496  23
   3   0  -6 34717.7 589.843  28
   3   0  -5 134927. 1050.35  28
  -3   0   5 127760. 1073.92  26
   3   0  -5 136637. 1152.15  21
   3   0  -5 124571. 878.941   9
   3   0  -4 3810.08 184.350  21
   3   0  -4 3967.73 146.736   9
   3   0  -4 3910.61 153.306  10
  -3   0   3 224019. 1135.94   6
   3   0  -3 235347. 1200.23  10
   3   0  -3 225743. 814.475   3
  -3   0   3 239376. 1141.35   5
   3   0  -2 37112.4 505.600   4
  -3   0   2 39206.9 403.238   5
   3   0  -2 35644.3 450.038  13
   3   0  -2 39521.0 385.378   3
   3   0  -2 37575.3 495.125  10
   3   0  -1 445.625 42.5569   5
   3   0  -1 339.675 43.6640  13
   3   0  -1 337.655 47.0195   4
  -3   0   0 271291. 1281.16   8
   3   0   0 261733. 992.799   5
   3   0   1 10106.5 244.699   4
  -3   0  -1 9806.78 261.291   8
   3   0   2 28861.5 512.638  14
  -3   0  -2 28494.7 421.188   4
   3   0   3 6713.25 248.869  27
   3   0   3 7451.38 271.005  14
  -3   0  -3 7775.30 275.677  24
   3   0   3 6886.30 248.286  22
  -3   0  -3 7652.85 222.478  23
  -3   0  -3 7169.35 216.164   4
   3   0   4 158238. 1327.50  14
   3   0   4 153590. 1239.60  27
   3   0   4 146126. 1096.13  26
  -3   0  -4 160063. 1336.74  24
   3   0   4 142112. 1136.21  22
  -3   0  -4 147043. 1022.13  23
   3   0   5 43699.6 692.209  27
   3   0   5 41409.5 616.437  26
  -3   0  -5 41197.3 574.425  23
   3   0   5 43314.4 734.169  14
  -3   0  -5 40685.2 723.200  24
   3   0   5 41460.4 619.391  22
   3   0   6 38407.7 680.548  27
   3   0   6 38406.9 633.409  26
   3   0   6 36651.4 705.024  14
  -3   0  -6 36915.1 735.498  24
   3   0   6 38245.1 610.851  22
   3   0   7 4795.37 242.241  26
  -3   0  -7 5131.62 292.761  24
   3   0   8 9679.34 367.711  26
  -3   0  -8 9760.18 422.534  24
  -3   0  -9 310.187 90.4501  24
   3   0   9 413.601 82.6040  26
   3   0   9 441.052 125.712  54
   3   0   9 630.272 149.160  51
  -3   0  -9 263.833 94.7086  35
   3   0  10 7738.15 496.330  51
   3   0  10 6815.63 336.056  26
   3   0  10 7086.54 466.677  54
  -3   0 -10 7138.88 375.894  24
  -3   0 -10 7143.54 417.576  35
  -3   0 -11 17478.9 642.108  35
   3   0  11 16266.2 525.755  26
  -3   0 -11 18264.2 590.985  24
   3   0  11 16521.7 701.990  54
   3   0  11 18325.0 737.521  51
  -3   0 -12 70958.5 1225.19  35
   3   0  12 74370.8 1401.01  51
  -3   0 -13 1568.89 171.962  35
   3   0  13 1589.08 193.638  51
  -3   0 -14 7508.14 307.655  35
   3   0  14 6958.36 317.453  51
  -3   1  16 787.631 95.1965  43
  -3  -1  16 833.775 100.317  43
   3   1 -16 639.045 88.5006  39
   3  -1 -15 279.768 74.0338  39
  -3   1  15 188.664 68.6803  43
  -3  -1  15 236.570 71.8642  43
   3   1 -15 244.373 73.9281  39
   3  -1 -15 134.554 56.3987  35
  -3   1  15 35.3244 47.3407  33
  -3  -1  14 2134.43 220.164  43
  -3   1  14 2294.94 225.889  43
   3   1 -14 1948.16 205.860  39
   3  -1 -14 2079.96 200.841  39
   3  -1 -14 1954.92 195.336  35
  -3   1  14 1919.97 216.463  33
   3   1 -13 2843.02 242.279  28
  -3   1  13 2649.91 259.377  43
  -3  -1  13 2688.12 267.850  43
  -3  -1  13 2886.85 247.183  26
  -3   1  13 2840.00 246.281  26
   3   1 -13 2699.36 251.307  39
   3  -1 -13 2698.92 239.306  39
   3  -1 -13 2865.57 234.280  28
   3   1 -12 9410.30 447.477  28
   3   1 -12 8551.43 373.939  50
  -3   1  12 8535.39 478.343  43
  -3  -1  12 10001.7 520.204  43
  -3   1  12 9463.90 460.365  26
  -3  -1  12 9382.21 448.814  26
   3   1 -12 8399.85 441.701  39
   3  -1 -12 8155.39 436.470  38
   3  -1 -12 9262.15 443.986  39
   3  -1 -12 8611.59 415.795  28
   3   1 -11 15866.9 572.168  28
   3   1 -11 15382.1 585.570  39
  -3   1  11 16250.8 655.090  43
  -3  -1  11 16156.1 578.294  26
  -3   1  11 16073.2 589.319  26
   3  -1 -11 15748.1 599.838  38
   3  -1 -11 16743.1 578.129  39
  -3  -1  11 15250.5 632.105  34
   3   1 -11 16056.5 509.128  50
  -3   1  11 15872.6 584.832  47
   3  -1 -11 15030.3 547.715  28
  -3  -1  10 18692.6 601.165  26
  -3   1  10 19831.6 634.825  26
   3   1 -10 17406.7 573.775  28
   3  -1 -10 16417.0 549.209  28
  -3  -1   9 7203.62 353.950  26
  -3   1   9 7736.63 373.876  26
   3  -1  -9 7331.24 350.123  28
   3   1  -9 6926.04 344.504  28
  -3  -1   8 4052.43 244.520  26
  -3   1   8 3933.88 249.672  26
   3  -1  -8 3067.28 208.670  21
   3  -1  -8 3288.53 221.407  28
   3  -1  -7 99159.4 1147.14  21
  -3   1   7 113414. 1228.48  26
  -3  -1   7 110606. 1174.19  26
   3   1  -7 106959. 1115.86  21
   3   1  -7 104949. 1150.87  28
   3  -1  -7 103422. 1149.70  28
   3   1  -6 52650.7 746.359  28
  -3  -1   6 50086.0 727.201  26
   3  -1  -6 48867.2 766.259  21
  -3   1   6 50068.6 755.236  26
   3   1  -6 52125.8 751.549  21
   3  -1  -6 48369.9 722.363  28
   3  -1  -5 17000.8 392.502  28
   3  -1  -5 17347.2 436.107  21
  -3  -1   5 16931.8 384.898  26
  -3   1   5 16924.7 408.526  26
   3   1  -5 17709.6 421.816  21
  -3  -1   5 16271.5 395.946  19
   3   1  -5 17409.1 395.416  28
   3  -1  -5 17413.4 380.136   9
   3  -1  -4 109775. 1047.80  21
   3   1  -4 121738. 1054.73  21
  -3  -1   4 123491. 991.903  19
   3  -1  -4 117864. 921.407   9
  -3   1   4 123104. 1086.01  18
  -3   1   4 114273. 988.667  26
   3  -1  -3 1492.91 107.308  13
   3   1  -3 1577.96 105.947  10
   3  -1  -3 1577.42 119.370  21
   3   1  -3 1466.66 113.489  21
  -3   1   3 1393.78 102.516  26
   3  -1  -3 2074.86 111.621  10
  -3  -1   3 1510.58 101.791  19
  -3   1   3 1473.00 117.684  18
   3  -1  -3 1504.12 93.0733   3
  -3  -1   3 1927.73 133.272  23
   3  -1  -2 124313. 945.857   5
  -3  -1   2 130654. 854.713  19
   3  -1  -2 137015. 871.807   3
   3   1  -2 120603. 929.422  10
  -3   1   2 136796. 1112.06  18
   3  -1  -2 133050. 961.986  13
  -3  -1   2 130486. 1009.71   6
  -3  -1   1 5379.07 205.175  15
   3  -1  -1 4972.14 185.775   5
   3   1  -1 4836.89 142.959  13
  -3   1   1 4778.72 208.721  18
   3   1  -1 4680.68 186.526  10
   3  -1  -1 5524.16 183.758   3
  -3  -1   0 159351. 1148.67  15
   3  -1   0 158978. 1129.79  14
  -3   1   0 161429. 809.408   1
  -3   1   0 158077. 1189.86  18
   3  -1   0 156492. 961.162   4
  -3   1  -1 273416. 1207.75   1
  -3  -1  -1 278017. 1568.76  15
   3  -1   1 269666. 1554.30  14
   3   1   1 257207. 1450.33  10
  -3   1  -1 263628. 1543.94  18
   3  -1   1 271718. 1177.52   4
  -3  -1  -2 152186. 1212.45  15
  -3  -1  -2 147868. 1224.79  24
  -3   1  -2 134545. 1111.63  18
   3  -1   2 145218. 1203.87  14
  -3   1  -2 143240. 988.279  23
   3  -1   2 133948. 1049.08   8
  -3   1  -2 158167. 1055.36   1
   3   1   2 145851. 1096.69  22
   3   1   3 10582.0 285.808  27
   3  -1   3 10370.5 341.535  14
  -3  -1  -3 10462.0 333.056  15
  -3   1  -3 10356.2 278.648  23
  -3  -1  -3 10115.7 341.169  24
  -3   1  -3 11126.3 325.190  24
   3  -1   3 10103.6 300.599  22
   3   1   3 10376.1 303.702  22
   3  -1   4 68348.0 884.289  27
   3   1   4 69005.2 785.436  27
  -3  -1  -4 63332.8 856.517  15
   3  -1   4 73459.6 965.426  14
  -3  -1  -4 65219.9 915.737  24
   3   1   4 71521.8 819.709  22
  -3   1  -4 75186.6 914.254  24
  -3   1  -4 67308.7 756.710  23
   3  -1   4 60881.4 780.674  22
  -3  -1  -5 39936.2 757.224  24
   3   1   5 42680.5 659.163  27
   3  -1   5 39460.9 657.218  26
  -3  -1  -5 39850.1 699.174  15
   3  -1   5 38208.0 742.529  14
  -3   1  -5 44818.8 762.594  24
   3  -1   5 42389.1 726.649  27
   3   1   5 42541.6 657.985  22
   3  -1   6 14761.7 437.648  27
   3  -1   6 14032.5 410.878  26
  -3  -1  -6 14036.1 471.131  24
  -3   1  -6 14092.5 456.379  24
   3  -1   6 13581.4 466.427  14
   3   1   6 14004.6 388.997  22
   3  -1   7 8363.57 341.737  27
   3  -1   7 8280.67 334.226  26
   3  -1   7 7524.52 367.118  14
  -3  -1  -7 8091.53 374.559  24
  -3   1  -7 9019.25 389.091  24
   3   1   7 8386.89 312.802  22
   3   1   8 6456.97 281.741  22
   3  -1   8 6504.04 313.842  26
   3  -1   8 6413.75 352.839  14
  -3  -1  -8 6542.90 352.030  24
  -3   1  -8 6499.50 347.856  24
   3  -1   9 3497.71 242.391  26
   3   1   9 3810.51 335.536  51
  -3   1  -9 2827.70 270.944  39
  -3  -1  -9 3689.33 273.214  24
  -3   1  -9 3659.44 293.451  35
  -3   1  -9 4186.65 289.423  24
  -3  -1  -9 3594.11 294.349  35
  -3  -1  -9 3512.11 298.252  57
   3   1   9 3619.21 328.517  54
   3  -1   9 3714.15 329.207  54
   3  -1   9 3614.85 333.154  51
   3  -1  10 28654.0 698.484  26
  -3  -1 -10 32277.1 803.008  24
  -3   1 -10 30351.4 847.816  35
  -3   1 -10 32480.3 813.322  24
  -3  -1 -10 32023.1 885.442  35
   3   1  10 31212.7 932.353  33
   3  -1  10 31301.0 966.755  54
   3   1  10 31280.2 968.787  51
   3  -1  10 30852.5 994.850  51
  -3  -1 -10 29967.2 846.858  57
   3  -1  11 17615.7 550.905  26
   3  -1  11 18258.0 749.754  51
  -3  -1 -11 17803.4 579.360  24
  -3   1 -11 16385.3 610.242  35
  -3  -1 -11 18431.7 656.226  35
  -3   1 -11 19700.7 629.897  24
   3   1  11 17189.0 677.124  33
   3  -1  11 17414.7 715.504  54
  -3   1 -11 19518.5 674.149  30
   3   1  11 16480.9 682.367  51
  -3  -1 -11 16339.5 600.319  57
  -3  -1 -12 8063.92 382.099  57
  -3  -1 -12 8772.49 429.665  35
  -3   1 -12 8281.78 410.278  35
   3   1  12 8026.19 433.197  33
   3   1  12 8300.05 454.757  51
  -3   1 -12 8643.35 415.296  30
   3  -1  12 8390.00 471.694  54
   3  -1  12 8350.56 478.002  51
   3  -1  13 9790.69 457.279  51
  -3   1 -13 10236.5 404.380  35
  -3  -1 -13 10154.3 413.452  35
   3   1  13 9913.07 424.911  33
   3   1  13 9536.55 427.681  51
   3  -1  13 9527.29 452.546  54
  -3  -1 -14 5224.02 250.623  35
  -3   1 -14 5239.53 240.006  35
   3   1  14 5382.37 258.550  51
   3  -1  14 5228.96 277.238  51
   3   2 -15 1146.54 131.233  48
  -3   2  15 1315.29 141.934  43
  -3  -2  15 1176.31 137.670  43
   3   2 -15 1055.37 123.693  39
   3  -2 -15 1389.14 138.942  35
   3   2 -14 216.004 76.3393  48
  -3   2  14 322.026 89.3139  43
   3   2 -14 208.211 75.6073  39
   3  -2 -14 250.339 67.1495  39
   3  -2 -14 318.884 85.2618  36
   3   2 -13 1279.42 196.754  48
  -3   2  13 1074.10 122.498  52
   3  -2 -13 1133.06 144.147  39
   3   2 -13 899.247 146.175  39
   3  -2 -13 1040.13 154.610  36
  -3   2  13 820.608 145.955  43
   3  -2 -13 922.945 149.740  38
  -3  -2  13 1321.20 181.215  43
   3   2 -12 4569.44 319.325  28
  -3   2  12 4502.91 345.313  43
  -3  -2  12 4330.70 288.824  26
   3   2 -12 4248.42 312.016  39
   3  -2 -12 4282.68 289.112  39
  -3   2  12 4675.27 256.812  52
   3  -2 -12 4222.87 325.409  38
   3  -2 -12 4612.38 341.252  36
  -3  -2  12 4674.82 357.341  34
  -3   2  12 4663.85 309.630  26
   3  -2 -12 4762.73 311.129  28
   3   2 -12 4064.67 267.338  50
   3   2 -11 25561.1 767.194  17
   3   2 -11 28993.0 811.928  28
  -3   2  11 25556.5 617.387  52
  -3   2  11 25232.8 821.312  43
  -3  -2  11 26615.2 712.441  26
   3   2 -11 25002.2 753.259  39
   3  -2 -11 27129.5 714.820  39
   3  -2 -11 28774.5 831.620  38
  -3  -2  11 24635.4 818.727  34
  -3   2  11 26868.4 751.455  26
   3   2 -11 25963.5 678.051  50
   3  -2 -11 26637.6 737.639  28
  -3   2  11 25779.6 765.015  47
  -3  -2  11 25793.6 808.442  49
   3   2 -10 8085.87 415.670  28
   3   2 -10 7687.20 411.308  17
  -3   2  10 8010.07 456.682  43
  -3  -2  10 8070.08 385.718  26
  -3   2  10 7879.58 341.561  52
  -3   2  10 7712.23 396.424  26
  -3   2  10 7685.23 417.238  47
   3   2 -10 7013.33 389.212  39
   3  -2 -10 7865.86 377.445  39
   3  -2 -10 8053.75 429.420  38
  -3  -2  10 7574.24 445.585  34
   3   2 -10 8195.64 374.181  50
   3  -2 -10 7091.63 375.437  28
  -3  -2  10 7819.79 438.725  49
   3   2  -9 14039.7 523.403  28
  -3  -2   9 12812.0 459.626  26
  -3   2   9 13905.4 510.665  26
   3  -2  -9 12568.4 481.196  28
   3   2  -8 11376.8 446.946  28
   3  -2  -8 9846.98 351.396  16
   3  -2  -8 9702.90 404.389  21
  -3   2   8 10388.5 417.245  26
   3  -2  -8 9582.72 402.363  28
  -3  -2   8 10414.0 458.265  25
   3   2  -7 7774.19 345.310  28
   3  -2  -7 6932.89 332.086  21
  -3   2   7 7249.40 326.920  26
   3  -2  -7 6828.96 319.490  28
  -3  -2   7 7118.15 363.302  25
   3   2  -6 131477. 1346.38  28
  -3   2   6 122838. 1245.88  26
  -3  -2   6 118390. 1301.99  19
   3  -2  -6 122490. 1206.88   9
   3  -2  -6 116047. 1300.79  21
  -3  -2   6 125741. 1436.65  25
   3   2  -6 110931. 1219.71  20
  -3  -2   6 119474. 1246.67  12
   3  -2  -6 124698. 1270.81  28
   3   2  -5 807.345 101.455  28
  -3  -2   5 1147.56 137.308  25
   3   2  -5 962.125 115.778  20
  -3   2   5 1195.69 117.708  26
  -3  -2   5 742.305 99.7201  19
  -3   2   5 1065.86 114.818  18
   3  -2  -5 901.211 99.5995   9
   3  -2  -5 918.967 104.502  28
  -3  -2   5 927.126 101.172  12
   3   2  -4 24916.1 502.647  28
  -3   2   4 23696.2 483.770  26
  -3  -2   4 22809.9 553.487  25
   3   2  -4 24440.7 539.902  20
   3  -2  -4 21550.9 459.667   9
  -3  -2   4 24135.5 510.497  19
  -3   2   4 23086.2 530.346  18
  -3  -2   4 23654.6 472.127  12
   3  -2  -4 23632.2 488.114  28
   3   2  -3 98545.0 931.543  28
  -3   2   3 95390.3 934.778  26
   3   2  -3 96407.4 1041.56  20
  -3  -2   3 90130.5 1002.26  24
   3  -2  -3 100150. 951.574  13
  -3  -2   3 94220.8 955.271  19
  -3   2   3 95438.7 1079.27  18
  -3  -2   2 67174.6 762.520  15
   3   2  -2 71593.8 868.905  20
  -3  -2   2 65737.9 852.133  24
  -3   2   2 67788.7 760.994  26
   3  -2  -2 71279.8 789.733  13
  -3   2   2 69167.1 923.756  18
  -3  -2   2 69613.2 860.884  23
   3   2  -1 87395.8 838.058  10
   3  -2  -1 97585.1 924.119  14
  -3  -2   1 80339.9 953.781  24
   3   2  -1 91793.0 948.926  20
  -3   2   1 91707.9 1071.84  18
  -3  -2   1 82843.9 909.639  23
  -3   2   1 84341.0 838.431  26
  -3  -2   1 91569.2 937.889  15
   3   2   0 86288.5 846.206  10
  -3  -2   0 91824.9 990.928  15
   3   2   0 89513.8 901.297  20
  -3  -2   0 90339.9 1027.58  24
   3  -2   0 94801.0 963.051  14
  -3   2   0 84751.0 1031.33  18
  -3  -2   0 83654.7 883.616  23
  -3   2   0 82600.4 759.249  23
   3   2   0 87400.6 800.625  22
  -3  -2  -1 236426. 1672.43  15
   3   2   1 232493. 1389.86  10
  -3   2  -1 219575. 1295.26  23
   3   2   1 234105. 1428.69  20
   3  -2   1 210205. 1515.39  14
  -3   2  -1 242559. 1747.18  18
   3   2   1 227727. 1356.66  22
  -3  -2  -2 20528.1 526.612  15
   3   2   2 21166.8 423.982  10
  -3   2  -2 20903.9 424.300  23
  -3  -2  -2 20480.7 527.452  24
   3  -2   2 20663.1 500.108  14
  -3   2  -2 19933.5 432.175  24
  -3   2  -2 21288.2 513.597  18
   3  -2   2 20624.3 430.555  22
   3   2   2 20629.8 426.437  22
  -3  -2  -3 41230.2 775.725  24
  -3   2  -3 43164.5 684.012  24
  -3   2  -3 43618.1 730.461  18
   3  -2   3 42120.2 701.331  27
   3   2   3 41335.0 632.426  22
   3  -2   4 8126.31 325.790  27
  -3  -2  -4 8617.85 367.801  24
  -3   2  -4 8544.96 327.288  24
  -3  -2  -4 8645.18 371.200  15
   3   2   4 8000.41 292.779  22
   3   2   5 523.895 83.5058  22
  -3  -2  -5 145.740 64.7862  24
  -3   2  -5 112.965 49.1245  24
  -3  -2  -5 581.324 104.984  15
   3  -2   5 134.373 55.0425  27
   3  -2   5 112.423 52.0944  26
   3   2   6 9719.62 349.961  22
   3  -2   6 10041.3 373.129  27
  -3  -2  -6 8847.72 389.353  15
   3  -2   6 9201.04 411.476  14
  -3  -2  -6 9939.60 428.556  24
  -3   2  -6 10213.7 414.190  24
   3  -2   6 9512.74 362.231  26
   3  -2   7 11631.4 414.781  27
   3  -2   7 11102.3 408.408  26
  -3  -2  -7 9830.17 416.977  15
   3  -2   7 10541.5 461.867  14
  -3  -2  -7 10163.8 446.712  24
  -3   2  -7 12733.1 488.448  24
   3   2   7 11401.7 388.454  22
  -3   2  -8 20240.7 824.234  48
   3   2   8 24856.4 583.959  22
   3  -2   8 22961.2 590.980  27
   3  -2   8 24985.8 638.602  26
   3  -2   8 21550.0 690.436  14
  -3  -2  -8 24724.9 705.451  24
  -3   2  -8 23794.2 730.391  35
  -3   2  -8 25759.9 726.896  24
   3  -2   8 24278.3 806.248  54
  -3   2  -8 24816.2 803.835  30
   3   2   8 25112.4 843.467  51
  -3   2  -9 36639.6 986.704  30
  -3  -2  -9 35829.4 1076.31  46
   3  -2   9 34223.3 771.903  26
   3  -2   9 30585.4 834.303  14
   3   2   9 36233.1 707.826  22
  -3  -2  -9 36186.0 863.914  24
  -3   2  -9 34336.0 889.843  35
  -3  -2  -9 36189.3 924.287  35
  -3   2  -9 39152.6 895.362  24
   3   2   9 36485.7 1024.12  33
   3   2   9 33372.0 985.410  51
   3  -2   9 33175.1 974.221  54
   3  -2  10 15698.5 525.037  26
  -3  -2 -10 15751.6 637.518  57
  -3  -2 -10 16427.3 573.486  24
  -3   2 -10 14432.6 569.388  35
  -3  -2 -10 16346.2 617.100  35
  -3   2 -10 16439.6 577.048  24
   3   2  10 16280.6 685.172  33
   3   2  10 15800.0 667.300  51
  -3   2 -10 16925.7 662.093  30
   3  -2  10 15158.2 662.157  54
   3  -2  11 13713.4 482.717  26
  -3  -2 -11 13565.8 558.829  57
  -3   2 -11 14408.2 540.817  35
  -3  -2 -11 14108.7 551.687  35
  -3   2 -11 13746.1 501.555  24
   3   2  11 14334.0 617.474  33
  -3   2 -11 14317.5 582.897  30
   3  -2  11 14172.1 617.530  54
   3   2  11 14074.5 595.679  51
   3  -2  11 14363.2 657.447  51
  -3   2 -12 2104.09 192.294  35
  -3  -2 -12 2301.78 207.983  35
   3   2  12 2134.76 226.729  33
   3   2  12 2154.94 219.322  51
  -3  -2 -12 2305.80 214.910  57
  -3   2 -12 2498.38 225.031  30
   3  -2  12 2361.60 241.048  54
   3  -2  12 2125.93 238.956  51
  -3  -2 -13 4898.09 252.353  57
  -3   2 -13 4989.17 249.047  35
  -3  -2 -13 5171.81 267.006  35
   3   2  13 5425.66 303.322  33
   3  -2  13 4960.76 313.443  51
   3  -2  13 5346.92 313.050  54
   3   2  13 4866.15 274.020  51
  -3   2 -13 5312.64 279.350  30
   3  -2  14 56.4428 44.1389  51
  -3   3  15 1847.24 139.683  43
   3  -3 -15 2038.17 141.364  35
   3   3 -14 507.081 106.248  48
  -3   3  14 309.721 83.4952  43
   3  -3 -14 475.351 96.1145  36
  -3  -3  14 504.680 97.8701  43
   3   3 -13 211.188 92.2385  48
   3  -3 -13 184.330 81.3647  38
   3  -3 -13 164.516 84.9988  36
  -3  -3  13 165.854 75.9190  34
   3  -3 -13 128.886 58.2881  32
  -3   3  13 176.858 77.9157  43
   3   3 -12 635.554 150.050  48
  -3   3  12 518.646 118.660  43
  -3  -3  12 522.953 117.765  49
   3  -3 -12 557.580 122.020  38
   3  -3 -12 482.773 118.448  36
  -3  -3  12 390.049 103.215  34
   3  -3 -12 350.524 95.2527  32
  -3   3  12 308.694 75.4600  52
  -3  -3  11 240.198 99.3011  49
   3   3 -11 527.049 112.323  28
  -3   3  11 290.659 100.589  43
   3  -3 -11 289.648 95.3491  38
   3   3 -11 96.6948 48.9727  41
   3  -3 -11 395.820 116.734  36
  -3  -3  11 342.840 101.508  34
  -3   3  11 177.317 71.8093  52
   3  -3 -11 318.287 91.9396  28
  -3  -3  10 1773.81 218.772  49
   3   3 -10 1968.96 214.463  28
  -3   3  10 2416.68 257.280  43
   3  -3 -10 1972.69 202.549  21
   3  -3 -10 2139.16 228.168  38
   3  -3 -10 1787.50 199.725  28
  -3  -3  10 1885.25 229.375  34
  -3   3  10 2063.04 199.592  26
   3   3 -10 1711.12 200.052  41
  -3   3  10 1904.38 175.831  52
   3   3 -10 1730.05 181.982  50
  -3  -3   9 6825.55 410.487  49
   3   3  -9 7419.48 403.322  28
   3  -3  -9 5419.13 308.119  16
  -3   3   9 7359.74 445.310  43
   3  -3  -9 5887.17 352.886  21
  -3   3   9 6735.95 352.883  26
  -3  -3   9 6301.67 396.105  25
   3   3  -9 6656.00 379.311  41
  -3   3   9 7207.68 332.921  52
  -3  -3   9 6525.07 373.646  47
   3  -3  -9 6888.80 381.505  28
   3   3  -9 6350.21 338.093  50
   3  -3  -8 6793.21 373.698  21
  -3   3   8 7370.29 353.814  26
  -3  -3   8 7392.03 421.198  25
   3  -3  -8 6895.08 369.345  28
   3   3  -8 7895.29 401.800  28
   3   3  -7 2633.19 223.748  28
   3  -3  -7 2314.64 187.216  16
  -3   3   7 2799.36 212.304  26
  -3  -3   7 2765.82 239.098  19
   3  -3  -7 2895.07 234.492  28
  -3  -3   7 2284.44 207.077  12
  -3  -3   6 939.231 131.643  12
   3   3  -6 1079.63 137.800  28
   3   3  -6 1110.07 127.350  20
  -3  -3   6 1046.78 142.610  19
  -3   3   6 1100.10 129.592  26
  -3  -3   6 951.208 146.676  25
   3  -3  -6 968.018 131.860  28
   3   3  -5 18692.2 528.582  28
   3   3  -5 19023.1 469.245  18
  -3  -3   5 18182.3 590.252  25
   3   3  -5 17741.7 487.789  20
  -3  -3   5 17804.4 539.767  19
   3  -3  -5 18499.3 501.291   9
  -3   3   5 16564.2 466.651  26
  -3   3   5 16026.8 519.784  18
  -3  -3   5 17202.8 502.242  12
   3  -3  -5 17546.9 527.216  28
   3   3  -4 52484.1 846.700  28
  -3   3   4 49888.5 769.760  26
  -3  -3   4 53239.4 963.373  25
  -3  -3   4 53849.8 954.959  24
   3   3  -4 52235.0 823.911  20
  -3  -3   4 49238.0 815.890  12
  -3  -3   4 50057.8 867.248  19
  -3   3   4 48265.5 913.499  18
   3  -3  -4 52149.0 798.859   9
   3  -3  -4 52139.4 865.346  28
   3   3  -4 55691.0 806.698  18
  -3   3   3 2128.40 154.678  26
  -3  -3   3 2098.31 187.679  24
   3   3  -3 1328.03 136.048  20
   3  -3  -3 1843.44 143.138  13
  -3  -3   3 1466.36 146.764  19
  -3   3   3 1361.50 162.411  18
   3  -3  -3 1564.26 144.805  28
   3   3  -3 1784.67 153.028  28
   3  -3  -3 1290.32 121.570   9
  -3  -3   2 27595.2 550.098  15
  -3  -3   2 26869.5 660.645  24
   3   3  -2 26208.5 569.582  20
   3  -3  -2 26674.2 536.576  13
  -3   3   2 25987.3 681.812  18
  -3  -3   1 6766.08 333.975  24
   3   3  -1 6496.91 282.113  20
  -3  -3   1 6476.35 288.533  23
  -3   3   1 7047.56 356.868  18
   3  -3  -1 6785.24 274.426  13
   3  -3   0 141345. 1329.44  14
   3   3   0 132836. 1050.97  22
  -3  -3   0 136802. 1515.64  24
  -3   3   0 128385. 1520.27  18
  -3  -3   0 143717. 1443.39  15
   3   3   1 59755.5 749.103  22
  -3  -3  -1 63154.8 1016.26  15
  -3  -3  -1 59679.9 1021.96  24
   3  -3   1 59286.1 908.314  14
  -3   3  -1 65071.5 1078.61  18
   3   3   2 135091. 1190.49  22
  -3  -3  -2 142798. 1618.89  15
  -3  -3  -2 142185. 1610.35  24
  -3   3  -2 136310. 1212.37  24
  -3   3  -2 148755. 1621.59  18
   3  -3   3 2773.73 197.261  27
  -3  -3  -3 1625.38 188.864  15
  -3  -3  -3 1815.82 189.959  24
  -3   3  -3 1937.76 158.319  24
  -3   3  -3 2505.30 212.107  18
   3   3   3 1477.17 133.128  22
   3   3   3 1620.33 141.523  18
   3   3   4 2900.22 192.989  22
   3  -3   4 3052.60 213.406  27
  -3  -3  -4 2881.11 244.913  24
  -3  -3  -4 2722.21 245.870  15
   3  -3   4 2870.28 200.874  26
  -3   3  -4 2876.62 206.543  24
   3  -3   5 76932.3 1045.21  26
  -3  -3  -5 77313.8 1274.91  24
  -3   3  -5 78604.1 1128.11  24
   3  -3   5 72757.1 1039.15  27
   3   3   5 74166.8 998.715  22
  -3  -3  -5 71396.8 1252.01  15
   3  -3   6 51419.4 881.551  26
   3   3   6 50549.7 851.410  22
  -3  -3  -6 49556.6 1028.80  24
  -3   3  -6 51141.1 955.640  24
  -3   3  -7 76295.3 1629.74  48
  -3  -3  -7 78876.1 1769.37  46
   3  -3   7 90909.6 1202.73  26
  -3  -3  -7 78577.4 1583.32  56
   3   3   7 88959.4 1152.45  22
   3  -3   7 82095.0 1358.51  14
  -3  -3  -7 84699.1 1372.43  24
  -3   3  -7 88396.2 1307.54  24
   3   3   7 88909.6 1610.19  33
  -3  -3  -7 73396.2 1280.64  15
   3   3   7 87945.3 1560.72  51
  -3   3  -7 89204.7 1549.20  30
   3   3   8 22909.6 587.376  22
  -3  -3  -8 23256.4 958.381  46
   3  -3   8 23694.5 632.467  26
   3  -3   8 21045.3 699.822  14
  -3  -3  -8 23327.3 712.781  24
  -3  -3  -8 20286.3 668.105  15
  -3   3  -8 25389.6 713.100  24
   3   3   8 23335.8 843.248  33
  -3   3  -8 23775.3 812.822  30
  -3  -3  -8 22991.2 829.029  56
   3   3   8 22577.7 799.428  51
  -3  -3  -9 14453.1 726.399  46
   3  -3   9 13919.4 610.010  54
   3  -3   9 13341.3 478.840  26
   3   3   9 13488.8 445.251  22
  -3  -3  -9 13535.9 530.932  24
  -3   3  -9 14182.9 534.308  24
   3   3   9 12976.7 624.055  33
  -3   3  -9 13563.3 606.502  30
   3   3   9 13327.8 607.457  51
   3   3  10 7233.44 316.219  22
  -3  -3 -10 7831.96 497.477  46
   3  -3  10 6446.74 327.631  26
   3   3  10 7035.80 417.356  51
   3  -3  10 6624.96 328.011  25
   3  -3  10 7040.36 424.087  54
  -3   3 -10 7575.34 377.642  24
   3   3  10 6957.93 445.035  33
  -3   3 -10 6327.15 399.167  30
   3   3  11 2348.99 228.139  51
   3   3  11 2806.55 266.316  33
   3  -3  11 2736.55 257.127  54
  -3  -3 -11 2568.65 241.004  57
  -3   3 -11 2991.73 259.191  30
   3  -3  11 2448.06 261.773  51
  -3  -3 -12 297.393 80.6180  57
   3   3  12 282.677 84.3590  33
   3   3  12 256.539 75.0732  51
  -3   3 -12 420.953 94.0378  30
   3  -3  12 382.723 91.9003  54
   3  -3  12 328.659 100.621  51
  -3  -3 -13 1927.27 145.643  57
   3   3  13 2047.46 164.043  33
   3  -3  13 2090.63 169.256  54
   3  -3  13 2256.62 186.686  51
  -3   3 -13 2161.12 161.948  30
   3   4 -13 692.562 117.238  48
   3  -4 -13 568.224 112.110  46
  -3   4  13 660.199 106.834  43
   3  -4 -13 704.410 112.779  36
  -3  -4  13 659.667 107.239  34
   3  -4 -13 657.589 101.572  32
  -3  -4  12 577.103 110.092  49
   3   4 -12 746.361 143.796  48
   3  -4 -12 568.158 106.635  38
   3  -4 -12 488.483 108.323  36
  -3  -4  12 590.235 115.950  34
   3  -4 -12 457.141 103.973  32
  -3   4  12 643.739 122.475  43
  -3   4  11 3478.66 287.242  43
   3   4 -11 2893.99 234.555  41
   3  -4 -11 3069.01 249.927  38
   3  -4 -11 3698.55 295.906  36
  -3  -4  11 3567.39 293.462  34
   3   4 -11 4095.26 335.577  48
  -3   4  11 3597.95 218.001  52
  -3  -4  11 3449.95 277.047  49
  -3  -4  10 1899.18 223.252  49
   3   4 -10 2472.52 270.445  48
   3   4 -10 2279.77 226.527  28
  -3   4  10 2138.28 236.860  43
   3  -4 -10 1663.23 185.764  21
  -3   4  10 2093.66 177.241  52
   3   4 -10 1913.43 204.924  41
   3  -4 -10 1966.27 209.584  38
   3  -4 -10 2215.19 242.208  36
   3  -4 -10 2000.96 206.641  28
  -3  -4   9 592.729 124.577  49
  -3   4   9 680.933 137.612  43
   3   4  -9 529.228 116.854  28
   3   4  -9 373.525 108.666  41
   3  -4  -9 565.585 117.342  21
   3  -4  -9 530.784 118.116  38
   3  -4  -9 840.443 138.155  28
  -3   4   9 580.413 101.250  52
  -3  -4   9 546.619 121.780  47
  -3  -4   8 5301.73 342.991  47
   3  -4  -8 5091.05 319.465  11
  -3   4   8 5766.18 398.508  43
   3  -4  -8 5610.58 368.072  21
   3   4  -8 5787.60 364.387  41
  -3   4   8 5698.68 343.653  37
  -3  -4   8 4785.49 337.198  12
   3  -4  -8 5125.72 321.489  16
   3   4  -8 6127.96 373.134  28
  -3   4   8 5841.03 297.243  52
   3  -4  -8 5692.52 358.517  28
   3   4  -8 4436.55 283.585  50
   3  -4  -7 11712.3 477.818  11
  -3   4   7 13834.1 447.503  52
  -3   4   7 12931.7 581.646  43
   3   4  -7 13189.8 533.464  28
   3   4  -7 13215.2 542.874  41
  -3  -4   7 12382.0 546.465  24
  -3   4   7 11983.0 503.460  37
   3  -4  -7 11269.0 457.757  16
  -3  -4   7 12174.9 536.844  19
  -3  -4   7 13932.2 558.042  47
   3  -4  -7 13411.2 540.258  28
  -3  -4   7 11204.5 498.470  12
   3   4  -7 11839.1 453.060  50
   3   4  -6 6596.08 368.243  28
  -3  -4   6 6889.62 390.637  47
  -3   4   6 6509.27 399.654  43
  -3  -4   6 6398.80 391.339  24
  -3   4   6 6367.41 362.196  37
  -3  -4   6 6285.05 379.096  19
   3   4  -6 6392.74 366.689  41
  -3  -4   6 5558.93 342.022  12
   3  -4  -6 5966.64 318.212  16
   3  -4  -6 7172.93 392.775  28
  -3   4   5 15633.7 597.034  18
   3   4  -5 18622.5 548.090  18
   3   4  -5 18429.6 595.270  28
  -3  -4   5 18726.1 667.677  24
  -3  -4   5 18317.4 620.181  19
   3  -4  -5 19043.4 627.294  28
   3  -4  -5 16615.9 520.301  16
  -3  -4   5 15245.0 543.828  12
  -3  -4   4 57253.0 1147.97  24
  -3  -4   4 51177.0 966.237  12
   3  -4  -4 48189.1 861.832  16
  -3  -4   4 53613.8 1030.80  19
   3  -4  -4 54884.5 909.189   9
  -3   4   4 49386.5 1080.52  18
   3  -4  -4 60238.9 1079.84  28
   3   4  -4 60206.8 979.740  18
   3   4  -3 3864.09 250.767  18
  -3  -4   3 3627.32 293.325  24
  -3  -4   3 3583.08 263.370  19
   3  -4  -3 3721.46 229.828   9
  -3   4   3 3335.52 287.970  18
   3  -4  -3 4044.60 273.798  28
  -3  -4   2 39648.3 945.239  24
  -3  -4   2 38736.4 820.477  23
   3  -4  -2 38034.4 711.574   9
   3   4  -2 40146.1 804.374  18
  -3  -4   1 1748.71 207.445  24
  -3   4   1 1658.05 207.919  18
   3  -4  -1 1779.77 152.781   9
   3   4  -1 1887.23 181.307  18
  -3  -4   0 3744.20 297.427  24
  -3   4   0 3665.59 297.992  18
   3  -4   0 4462.05 236.420   9
   3   4   0 3430.94 241.455  18
  -3  -4  -1 17346.2 596.051  15
  -3  -4  -1 16958.1 633.398  24
  -3   4  -1 16944.0 634.161  18
   3   4   1 15549.5 507.006  18
  -3  -4  -2 4361.86 314.011  15
  -3  -4  -2 3677.57 297.639  24
   3  -4   2 3801.06 270.760  14
  -3   4  -2 4790.21 334.647  18
   3   4   2 4308.58 272.274  18
   3   4   2 4344.51 228.530  22
   3  -4   3 14427.3 457.814  26
   3   4   3 14985.1 444.017  22
   3   4   3 13613.4 476.359  18
  -3  -4  -3 15630.9 614.658  24
  -3   4  -3 15690.4 593.467  18
  -3  -4  -3 12884.1 475.937  28
  -3  -4  -3 15019.8 602.366  15
   3   4   4 13297.5 431.082  22
  -3  -4  -4 14267.4 605.097  15
  -3  -4  -4 14910.1 602.916  24
  -3  -4  -5 77297.4 1771.04  46
   3   4   5 79433.3 1178.88  45
   3  -4   5 79891.7 1102.11  26
  -3  -4  -5 69379.5 1593.18  56
  -3   4  -5 77451.4 1762.10  58
  -3   4  -5 76693.2 1387.22  29
  -3   4  -5 75427.9 1414.09  30
  -3  -4  -5 75155.8 1356.56  24
   3   4   5 76767.1 1528.45  33
  -3  -4  -5 87765.4 1473.29  32
   3   4   5 73998.1 1054.07  22
  -3  -4  -5 78185.6 1431.94  15
   3   4   5 81028.0 1479.88  51
  -3  -4  -6 33300.8 1179.57  46
   3   4   6 34273.8 765.575  45
   3  -4   6 35299.8 738.931  26
  -3   4  -6 34958.5 979.617  30
  -3  -4  -6 34388.6 954.376  15
  -3   4  -6 36431.8 940.450  29
  -3  -4  -6 35356.1 919.823  24
   3  -4   6 32683.2 875.285  14
   3   4   6 34300.0 1042.49  33
  -3   4  -6 35919.5 1181.30  58
  -3  -4  -6 32743.7 1094.04  56
   3   4   6 36399.3 750.197  22
   3   4   6 35946.7 998.012  51
  -3  -4  -7 3782.63 401.288  46
   3   4   7 4552.47 268.584  22
   3  -4   7 4271.04 259.802  26
  -3  -4  -7 4310.75 388.749  56
  -3  -4  -7 4085.83 311.235  24
   3   4   7 4123.72 363.460  33
  -3   4  -7 4218.73 344.847  30
  -3   4  -7 4381.91 408.391  58
  -3   4  -7 4664.28 330.652  29
   3   4   7 4180.77 345.661  51
  -3  -4  -8 5091.59 446.527  46
   3  -4   8 5112.97 284.722  26
   3  -4   8 5094.19 299.783  25
   3   4   8 5182.05 282.641  22
  -3  -4  -8 4920.69 326.677  24
   3   4   8 5146.83 402.500  33
  -3  -4  -8 4757.99 388.647  56
  -3   4  -8 5219.60 373.852  30
   3   4   8 5295.01 375.052  51
  -3   4  -9 8020.26 445.095  30
  -3  -4  -9 8136.26 525.408  46
  -3  -4  -9 7965.20 454.570  56
   3  -4   9 7762.18 417.051  54
   3   4   9 7224.31 453.691  33
   3   4   9 7816.53 428.957  51
  -3  -4 -10 7760.88 459.242  46
   3   4  10 6841.12 411.106  33
  -3  -4 -10 7787.65 389.162  56
  -3  -4 -10 7033.45 385.103  57
   3   4  10 7055.92 372.785  51
  -3   4 -10 6636.53 373.440  30
   3  -4  10 6975.76 374.985  54
  -3  -4 -11 3013.33 224.733  57
   3   4  11 3065.44 239.798  33
   3  -4  11 3104.51 227.740  54
   3   4  11 2596.27 200.291  51
   3  -4  11 3003.45 246.823  51
  -3   4 -11 2861.80 219.708  30
  -3  -4 -12 2476.35 166.869  57
   3   4  12 2597.34 148.612  37
   3   4  12 2599.89 184.942  33
   3  -4  12 2507.87 168.805  54
  -3   4 -12 2417.36 170.844  30
   3  -4  12 2788.66 202.664  51
   3   5 -12 974.832 123.599  48
   3  -5 -12 910.643 134.041  46
  -3   5  12 968.475 115.863  43
   3  -5 -12 1078.47 118.139  36
  -3  -5  12 1053.13 116.710  34
   3  -5 -12 969.386 112.041  32
  -3  -5  11 681.680 109.107  49
   3   5 -11 576.996 114.751  48
  -3   5  11 474.240 104.511  43
   3  -5 -11 871.141 123.948  36
  -3  -5  11 724.647 121.323  34
   3  -5 -11 739.599 120.058  32
  -3  -5  10 1456.43 170.608  49
   3   5 -10 1164.07 167.950  48
  -3   5  10 1432.75 178.098  43
   3  -5 -10 1471.32 151.728  38
   3  -5 -10 1628.46 180.478  36
  -3  -5  10 1597.95 185.677  34
  -3  -5   9 156.437 80.2681  49
   3   5  -9 45.2849 67.9283  48
  -3   5   9 130.860 75.6939  43
   3   5  -9 109.374 76.1465  41
   3  -5  -9 118.902 58.5635  38
  -3   5   9 42.7118 50.1606  37
   3  -5  -9 138.478 72.5791  36
  -3   5   8 2965.37 196.019  52
  -3  -5   8 3302.69 256.084  47
   3   5  -8 2850.65 241.588  31
  -3   5   8 2789.33 269.490  43
   3   5  -8 2813.74 246.997  41
  -3   5   8 2692.00 234.657  37
   3  -5  -8 3366.53 274.441  36
  -3  -5   7 3813.19 289.409  47
  -3   5   7 3607.59 216.530  52
  -3   5   7 3173.39 293.350  43
   3  -5  -7 3908.68 313.472  21
   3  -5  -7 4128.77 310.608  28
   3   5  -7 3858.81 292.045  41
  -3  -5   7 3846.28 315.799  24
   3   5  -7 3938.90 303.675  31
  -3   5   7 3840.83 288.773  37
  -3  -5   6 194.893 87.4471  47
  -3   5   6 274.917 93.7493  43
   3   5  -6 310.225 94.6295  41
   3  -5  -6 308.166 97.0233  28
  -3   5   6 194.911 73.1767  37
  -3  -5   6 355.079 102.670  24
   3   5  -6 197.891 92.3073  31
  -3   5   5 4951.42 359.982  43
   3   5  -5 4913.31 328.665  41
  -3  -5   5 5489.90 387.092  24
  -3   5   5 5818.32 361.194  37
   3  -5  -5 6002.43 383.642  28
   3  -5  -4 20061.1 620.350  16
   3  -5  -4 20810.8 678.675  11
   3   5  -4 19373.4 642.677  41
  -3  -5   4 20418.8 749.939  24
  -3   5   4 18608.0 641.714  37
  -3  -5   4 20417.9 700.704  19
   3  -5  -4 22396.7 734.222  28
  -3   5   4 16533.4 684.061  18
  -3  -5   4 21317.8 681.196  23
  -3  -5   4 19061.8 648.335  12
   3   5  -4 19218.9 629.493  18
  -3  -5   3 33577.4 872.719  42
   3  -5  -3 30457.4 751.042  16
   3  -5  -3 30932.5 825.536  11
  -3  -5   3 31071.1 922.399  24
  -3   5   3 29963.7 810.343  37
  -3  -5   3 29831.4 837.684  19
  -3   5   3 27956.9 897.727  18
   3   5  -3 31159.4 812.507  18
  -3  -5   3 27146.9 772.706  12
   3  -5  -2 28939.3 718.997  16
   3  -5  -2 27961.5 776.050  11
   3   5  -2 28077.8 676.687  45
  -3  -5   2 28977.4 839.652  42
  -3  -5   2 28281.7 880.693  24
  -3   5   2 26889.3 761.281  37
  -3  -5   2 25372.8 769.030  19
  -3   5   2 26839.7 888.267  18
   3   5  -2 29265.7 796.868  18
   3   5  -1 15132.3 512.276  45
   3  -5  -1 14870.5 556.474  11
  -3   5   1 13388.5 573.406  29
  -3  -5   1 14984.6 643.767  24
  -3   5   1 12689.5 522.423  37
  -3   5   1 13236.8 623.659  18
   3   5  -1 15536.9 586.977  18
   3   5   0 8063.28 386.714  45
  -3   5   0 7652.03 447.200  29
  -3  -5   0 8732.34 491.346  24
  -3   5   0 7922.18 410.709  37
  -3   5   0 8388.76 493.003  18
   3   5   0 7869.15 419.878  18
  -3   5  -1 7037.55 413.982  40
  -3  -5  -1 7397.37 457.662  24
  -3   5  -1 7425.71 457.473  18
  -3   5  -1 6499.90 515.062  58
  -3  -5  -1 7637.72 483.875  56
   3   5   1 6464.19 378.824  18
  -3   5  -1 7002.67 433.025  29
  -3   5  -2 4757.93 333.397  40
   3   5   2 4920.66 312.368  45
  -3   5  -2 4885.20 366.812  29
  -3  -5  -2 4386.77 387.586  56
   3   5   2 4598.14 314.380  18
  -3  -5  -2 5141.61 381.523  24
  -3   5  -2 4483.21 345.635  18
  -3   5  -2 4442.68 434.286  58
  -3  -5  -2 4482.81 328.823  15
   3   5   3 20578.1 538.048  22
   3   5   3 21993.9 649.900  45
  -3   5  -3 18645.7 682.348  30
  -3   5  -3 18930.8 644.244  40
  -3  -5  -3 19778.9 729.802  24
  -3   5  -3 18874.4 895.152  58
   3   5   3 20136.8 659.217  18
  -3  -5  -3 18889.2 814.519  56
  -3   5  -3 20118.1 737.075  29
  -3  -5  -3 19120.6 630.215  28
  -3  -5  -4 25177.1 945.699  46
   3   5   4 22659.1 582.089  22
   3   5   4 24035.5 674.483  45
   3   5   4 22050.2 781.225  51
   3  -5   4 23635.0 625.620  25
  -3  -5  -4 21757.1 749.690  24
  -3   5  -4 22270.5 966.496  58
  -3   5  -4 21370.7 737.058  30
  -3   5  -4 22688.8 773.150  29
  -3  -5  -4 21877.3 882.764  56
  -3  -5  -5 7607.96 530.837  46
   3   5   5 6921.90 325.216  22
   3   5   5 7319.79 364.215  45
  -3   5  -5 7131.28 428.280  29
   3  -5   5 7362.45 357.166  25
  -3  -5  -5 6722.70 409.808  24
   3   5   5 6262.08 449.041  33
  -3   5  -5 6948.29 532.573  58
  -3   5  -5 6664.53 412.569  30
  -3  -5  -5 6507.98 479.560  56
   3   5   5 7995.87 465.840  51
  -3  -5  -6 8298.21 548.305  46
   3   5   6 7964.27 347.670  22
   3   5   6 7935.42 363.212  45
   3  -5   6 7803.69 371.865  25
  -3  -5  -6 7874.64 420.947  24
   3   5   6 7450.91 478.016  33
  -3   5  -6 6910.58 508.162  58
   3   5   6 7621.31 446.041  51
  -3   5  -6 7049.40 421.071  30
  -3  -5  -6 7400.73 496.908  56
  -3   5  -6 8162.59 435.523  29
  -3  -5  -7 1041.03 196.793  46
   3   5   7 1060.47 127.819  45
   3   5   7 1166.38 188.403  33
  -3   5  -7 1068.50 155.740  29
  -3   5  -7 1220.92 167.263  30
  -3  -5  -7 1119.70 190.636  56
   3   5   7 1181.15 173.670  51
  -3  -5  -8 4032.18 342.947  46
   3   5   8 3511.45 302.659  33
  -3  -5  -8 3228.82 285.079  56
  -3   5  -8 3326.31 265.037  30
   3   5   8 3582.29 274.368  51
  -3   5  -9 4992.81 293.777  30
  -3  -5  -9 5761.76 370.934  46
   3   5   9 4729.21 318.021  33
  -3  -5  -9 4982.83 278.461  57
  -3  -5  -9 5343.11 319.228  56
  -3  -5 -10 5864.53 269.308  56
   3   5  10 5901.64 251.703  37
  -3   5 -10 5727.94 274.452  30
  -3  -5 -10 5997.31 264.865  57
   3  -6 -10 1855.42 172.608  46
  -3  -6  10 2286.91 164.056  34
   3  -6 -10 2094.58 150.036  32
   3   6 -10 2104.74 185.324  58
  -3  -6  10 2194.62 153.270  49
  -3  -6   9 1092.67 126.569  49
   3  -6  -9 1117.97 153.671  46
  -3   6   9 983.033 110.239  37
  -3  -6   9 966.647 128.932  34
   3  -6  -9 946.024 121.771  32
   3   6  -9 1484.04 180.326  58
  -3  -6   8 1153.88 124.089  47
  -3   6   8 793.250 116.245  37
   3  -6  -8 1033.70 134.496  32
   3   6  -8 879.751 115.052  31
  -3  -6   8 1151.48 141.872  49
  -3  -6   7 921.210 125.739  47
   3   6  -7 577.290 98.2021  41
  -3   6   7 668.374 117.273  37
   3   6  -7 759.855 119.472  31
  -3  -6   6 1576.24 173.502  47
   3   6  -6 1463.91 178.876  31
   3   6  -6 1149.61 149.931  41
  -3   6   6 1721.23 180.012  40
  -3   6   6 1210.12 156.875  37
  -3  -6   5 1918.74 198.150  47
  -3   6   5 1915.07 204.857  40
  -3   6   5 1815.13 197.344  37
   3   6  -5 1643.70 201.197  31
  -3   6   4 1088.33 163.024  40
  -3   6   4 760.207 128.546  37
   3   6  -4 998.309 161.830  31
   3   6  -3 10169.5 502.196  31
  -3   6   3 10632.1 504.138  40
  -3   6   3 8894.59 434.612  37
  -3  -6   3 9541.31 428.552  42
  -3  -6   2 2408.75 231.582  42
  -3   6   2 2781.56 265.657  40
   3   6  -2 2431.27 251.254  31
  -3  -6   2 2357.75 254.816  24
  -3   6   2 2187.17 217.421  37
  -3  -6   1 8113.04 431.012  42
   3   6  -1 8316.32 372.397  45
  -3   6   1 7380.25 404.686  29
  -3   6   1 7719.06 434.949  40
  -3  -6   1 7608.38 452.713  24
  -3   6   1 7995.45 404.695  37
   3   6  -1 8018.52 443.009  31
   3   6   0 1494.63 168.267  45
  -3  -6   0 1525.93 194.649  42
   3   6   0 1504.45 197.254  31
  -3   6   0 1377.38 192.338  40
  -3  -6   0 1339.16 200.764  24
  -3   6   0 1145.41 174.304  29
   3   6   1 14472.7 555.136  31
   3   6   1 15199.3 521.202  45
  -3   6  -1 13393.3 573.539  29
  -3   6  -1 14237.5 569.416  40
  -3  -6  -1 13933.5 593.597  24
  -3  -6  -2 5132.61 358.826  56
   3   6   2 5216.83 308.926  45
  -3   6  -2 4812.26 344.604  29
  -3   6  -2 4808.25 325.534  40
   3   6   3 5308.80 305.030  45
  -3   6  -3 4865.93 339.855  29
  -3   6  -3 4250.20 290.467  40
  -3  -6  -3 4971.59 359.271  56
   3   6   4 5162.81 292.079  45
  -3   6  -4 5108.90 337.975  29
  -3  -6  -4 5668.67 380.812  56
   3   6   5 1458.01 150.214  45
  -3  -6  -5 1269.52 156.796  42
   3   6   5 1300.12 141.713  37
  -3   6  -5 1297.13 165.073  29
  -3  -6  -5 1292.29 182.338  56
   3   6   6 560.883 90.2246  45
  -3  -6  -6 589.167 103.228  42
  -3   6  -6 643.441 112.840  29
   3   6   6 635.444 97.9332  37
  -3  -6  -6 580.390 122.443  56
   3   6   7 1707.64 127.535  45
  -3  -6  -7 1490.82 132.489  42
  -3   6  -7 1844.20 157.409  29
   3   6   7 1847.65 149.086  37
  -3  -6  -7 2053.66 190.528  56
   3   6   8 1967.72 136.476  37
  -3  -6  -8 1855.19 156.946  56
  -3  -7   6 1280.18 120.586  49
   3   7  -6 1301.21 120.539  31
  -3  -7   5 1009.17 109.697  47
  -3   7   5 829.568 97.7850  40
   3   7  -5 1092.31 124.066  31
  -3  -7   4 213.343 67.7084  47
   3   7  -4 180.696 73.8713  31
  -3   7   4 190.514 62.2621  40
  -3   7   3 2201.54 183.122  40
  -3  -7   3 2375.84 184.594  47
   3   7  -3 2199.13 190.625  31
  -3   7   2 2413.80 200.259  40
   3   7  -2 2040.97 182.481  31
   3   7  -1 238.292 59.8746  45
  -3  -7   1 287.393 75.0541  42
  -3   7   1 252.611 78.3640  40
   3   7  -1 199.218 71.7170  31
   3   7   0 4963.33 234.601  45
  -3  -7   0 4990.39 268.608  42
  -3   7   0 4804.53 278.527  40
   3   7   0 4382.08 246.125  31
  -3   7   0 4675.27 254.218  29
   3   7   1 1440.19 132.184  45
  -3   7  -1 1170.85 136.370  29
  -3  -7  -1 1432.18 146.983  42
  -3  -7  -2 1156.21 131.635  42
   3   7   2 1215.30 121.288  45
  -3   7  -2 950.698 121.676  29
  -3  -7  -3 1020.00 119.529  42
   3   7   3 1027.30 109.630  45
  -3   7  -3 1012.32 124.031  29
   3   7   4 261.579 58.6467  45
  -3  -7  -4 342.537 66.7149  42
  -3   7  -4 280.757 63.9448  29
  -4   0  16 72.2588 39.5456  43
   4   0 -16 69.2830 37.8202  39
  -4   0  15 4267.46 262.650  43
   4   0 -15 3934.75 245.699  39
  -4   0  14 10029.1 461.342  43
   4   0 -14 8880.28 411.107  39
  -4   0  13 9030.30 416.320  47
  -4   0  13 8448.55 461.273  43
  -4   0  13 9354.50 443.638  26
   4   0 -13 8515.65 421.854  39
   4   0 -12 77.1780 53.2793  28
  -4   0  12 3.57505 54.2403  43
  -4   0  12 87.6283 64.2615  26
   4   0 -12 53.9944 50.7914  39
  -4   0  12 57.9282 60.0523  47
  -4   0  11 115848. 1607.83  47
  -4   0  11 119626. 1629.26  26
  -4   0  11 116896. 1766.97  43
   4   0 -11 113142. 1472.09  28
  -4   0  10 29844.6 812.737  47
  -4   0  10 31204.9 895.921  43
  -4   0  10 30251.7 796.436  26
   4   0 -10 32520.1 782.614  39
   4   0 -10 29077.8 724.674  28
   4   0  -9 238.019 73.8114  28
  -4   0   9 176.888 71.7103  26
   4   0  -9 214.425 69.8075  21
   4   0  -8-43.5061 31.3289  28
   4   0  -8-77.1850 51.9202  21
   4   0  -7 56401.9 831.328  28
  -4   0   7 54888.7 892.004  26
  -4   0   6 17440.7 464.330  26
   4   0  -6 17590.6 482.301  21
  -4   0   6 16551.2 458.404  23
   4   0  -6 16653.2 415.053  28
   4   0  -5 156910. 1376.36  21
  -4   0   5 154876. 1286.23  26
  -4   0   5 156343. 1358.05  23
   4   0  -4 33620.0 534.262  10
   4   0  -4 34644.9 620.728  21
  -4   0   4 31320.1 585.545  23
   4   0  -4 30165.0 515.153  22
   4   0  -4 31447.2 462.071   9
  -4   0   4 31494.7 543.783  26
  -4   0   3 9283.85 277.295  26
   4   0  -3 10231.3 325.697  21
   4   0  -3 10694.9 307.337  10
  -4   0   3 9512.85 313.232  23
   4   0  -3 9151.35 283.626  22
  -4   0   2 4105.64 180.126  26
   4   0  -2 4481.48 206.338  21
   4   0  -2 4715.74 204.608  22
  -4   0   2 4495.27 180.556   6
   4   0  -2 4444.47 204.307  10
   4   0  -2 4322.71 185.939  13
  -4   0   2 4283.30 206.611  23
   4   0  -1 192911. 1291.49  21
   4   0  -1 191646. 1194.10  13
   4   0  -1 193794. 1322.16  22
  -4   0   0 116357. 1022.20  23
   4   0   0 115686. 1053.35  22
  -4   0  -1 18426.6 414.367  24
   4   0   1 16457.8 415.349  22
  -4   0  -2 15451.9 364.794  23
  -4   0  -2 14436.9 392.872  24
   4   0   2 15004.1 397.511  27
   4   0   2 14408.8 413.768  22
  -4   0  -3 68830.3 914.226  24
   4   0   3 71248.1 922.105  22
   4   0   4 140487. 1323.50  27
   4   0   4 140596. 1209.62  26
  -4   0  -4 152695. 1441.94  24
  -4   0  -4 154154. 1190.83  23
   4   0   4 152821. 1342.13  22
   4   0   5 5370.85 270.541  27
  -4   0  -5 4367.90 263.881  24
   4   0   5 5157.13 240.379  26
  -4   0  -5 5037.48 227.940  23
   4   0   5 4733.26 241.019  22
   4   0   6 12938.2 431.019  27
   4   0   6 13180.3 400.224  26
  -4   0  -6 13063.0 473.155  24
   4   0   6 13204.2 402.400  22
   4   0   7 6334.84 314.369  27
   4   0   7 6012.46 283.443  26
  -4   0  -7 6012.84 335.670  24
   4   0   8 9484.28 374.234  26
  -4   0  -8 10743.7 464.081  24
  -4   0  -8 9879.00 488.514  35
  -4   0  -8 9272.30 457.951  57
   4   0   8 9490.86 520.248  54
   4   0   8 10556.5 567.859  51
   4   0   9 2640.36 203.874  26
   4   0   9 2817.43 276.044  55
  -4   0  -9 2943.38 248.050  24
  -4   0  -9 3087.56 279.992  35
   4   0   9 2817.78 292.204  54
   4   0   9 3080.78 311.537  51
  -4   0  -9 3434.58 277.078  57
   4   0  10 16831.4 638.267  55
   4   0  10 17475.5 727.778  51
  -4   0 -10 17657.0 595.175  24
  -4   0 -10 16712.3 633.273  35
   4   0  10 17221.0 707.300  54
  -4   0 -10 16661.4 585.442  57
  -4   0 -11 12937.1 531.193  35
   4   0  11 12681.1 591.745  51
  -4   0 -12 5534.24 319.519  35
   4   0  12 5367.77 353.346  51
   4   0  13 74.6213 50.0428  51
  -4   0 -13 35.9482 47.7061  35
  -4   1  15 383.184 87.9947  43
  -4  -1  15 308.590 80.8520  43
   4   1 -15 360.634 80.2687  39
   4  -1 -15 457.139 83.1933  39
   4  -1 -15 348.383 71.5647  35
  -4   1  14 5561.64 337.180  43
  -4  -1  14 5529.97 339.370  43
   4   1 -14 5048.12 303.345  39
   4  -1 -14 5520.76 311.247  39
  -4   1  13 4827.44 308.147  47
  -4   1  13 4994.77 348.184  43
  -4  -1  13 4896.64 348.891  43
   4   1 -13 4562.33 312.693  39
   4  -1 -13 5382.47 326.177  39
   4  -1 -13 4563.53 308.473  38
   4   1 -13 4357.00 252.903  50
  -4   1  12 13401.4 543.492  47
  -4  -1  12 13801.1 539.700  47
   4  -1 -12 13941.2 514.640  28
  -4   1  12 13684.5 596.305  43
  -4  -1  12 14855.4 628.432  43
  -4   1  12 14457.6 568.666  26
  -4  -1  12 15040.4 561.852  26
   4   1 -12 13755.9 546.458  39
   4  -1 -12 15568.9 570.637  39
   4  -1 -12 15543.3 588.762  38
   4   1 -12 13460.7 524.632  28
   4   1 -12 12529.1 452.343  50
   4   1 -11 53092.6 1035.27  28
  -4  -1  11 54328.9 1092.54  47
   4   1 -11 53982.9 940.940  50
  -4   1  11 50645.3 1161.98  43
  -4  -1  11 54606.7 1079.74  26
  -4   1  11 53472.5 1095.04  26
  -4   1  11 51927.4 852.043  52
   4   1 -11 52413.8 1055.05  39
   4  -1 -11 57655.5 1070.53  39
   4  -1 -11 54210.3 1092.01  38
  -4   1  11 51230.7 1091.93  47
   4  -1 -11 48005.9 961.202  28
   4   1 -10 51074.5 983.524  28
  -4   1  10 51025.2 1080.12  47
  -4  -1  10 53706.5 1079.96  47
  -4   1  10 52706.3 1156.30  43
  -4  -1  10 51543.9 1024.95  26
   4   1 -10 53079.5 1012.50  39
   4  -1 -10 55428.8 1019.38  39
   4  -1 -10 58100.0 1095.00  38
  -4   1  10 53240.4 1063.46  26
  -4   1  10 54181.8 869.924  52
   4   1 -10 53551.4 925.925  50
   4  -1 -10 48791.2 941.774  28
   4   1  -9 48013.0 911.568  28
  -4   1   9 46336.5 949.785  26
   4  -1  -9 46354.5 878.149  28
  -4  -1   8 2107.71 188.747  26
  -4   1   8 2238.16 198.914  26
   4   1  -8 1889.59 173.496  21
  -4  -1   8 1924.02 194.493  23
   4   1  -8 1927.32 175.690  28
   4  -1  -8 1825.50 175.582  21
   4  -1  -8 1989.28 173.570  28
   4   1  -7 33836.2 675.036  28
  -4   1   7 32414.2 701.422  26
   4  -1  -7 31827.6 705.515  21
   4   1  -7 31481.3 682.176  21
  -4  -1   7 33265.3 750.924  23
   4  -1  -7 32224.4 647.505  28
   4   1  -6 62667.6 841.031  28
  -4  -1   6 59632.8 846.656  26
   4  -1  -6 60419.9 928.354  21
  -4   1   6 61914.6 903.162  26
   4   1  -6 59867.0 901.181  21
   4  -1  -6 60752.5 806.081   9
  -4  -1   6 60297.9 963.928  23
   4  -1  -5 13290.3 423.503  21
  -4  -1   5 13368.6 367.174  26
  -4   1   5 12496.2 382.225  26
   4   1  -5 12698.6 402.075  21
  -4  -1   5 13164.4 432.128  23
   4  -1  -5 11769.8 341.602   9
   4   1  -4 50662.6 682.531  10
   4  -1  -4 47725.9 769.164  21
  -4   1   4 48298.3 708.034  26
   4   1  -4 45758.4 737.571  21
  -4  -1   4 44602.4 760.900  23
  -4   1   4 48242.4 673.672  23
   4  -1  -4 45917.1 643.355   9
   4  -1  -3 89144.5 1007.29  21
   4   1  -3 81902.8 879.743  10
  -4   1   3 84577.2 906.434  26
   4   1  -3 86345.9 978.332  21
   4  -1  -3 88057.9 882.740  10
   4  -1  -3 85867.1 920.673  13
  -4  -1   3 84831.4 1005.67  23
  -4   1   3 83720.0 864.132  23
   4  -1  -2 10854.4 339.623  21
  -4   1   2 10101.1 306.052  26
   4   1  -2 10186.6 315.918  10
   4   1  -2 10383.8 329.474  21
   4  -1  -2 10241.8 312.645  13
  -4  -1   2 9954.27 334.466  23
  -4   1   2 10447.7 301.221  23
   4   1  -2 9607.46 304.700  22
   4  -1  -1 78925.6 866.676  21
  -4   1   1 81374.6 852.186  26
   4  -1  -1 79088.1 859.865  13
  -4  -1   1 78972.6 912.745  23
   4  -1  -1 77692.8 862.884  22
  -4   1   1 79615.9 828.712  23
  -4   1   0 26894.3 477.789  23
  -4  -1   0 28064.1 539.698  24
  -4  -1   0 28328.8 532.571  23
   4  -1   0 27603.6 523.708  22
   4   1   1 235204. 1596.81  22
  -4  -1  -1 225127. 1671.78  15
  -4  -1  -1 224324. 1604.68  24
   4  -1   1 236421. 1717.45  14
   4   1   1 225078. 1459.50  20
   4   1   1 250302. 1673.08  10
  -4  -1  -1 232352. 1497.54  23
  -4   1  -1 224864. 1412.63  23
   4  -1   1 244600. 1592.10  22
   4   1   2 315636. 1679.35  27
  -4  -1  -2 303803. 1998.68  15
  -4  -1  -2 326457. 1724.18  23
   4  -1   2 333912. 2129.07  14
  -4  -1  -2 326056. 2014.99  24
  -4   1  -2 305026. 1733.64  24
  -4   1  -2 306204. 1673.96  23
   4  -1   2 329147. 1912.15  22
   4   1   2 324612. 1880.26  22
   4   1   3 98228.2 985.831  27
  -4  -1  -3 90691.5 904.273  23
  -4  -1  -3 95018.6 1154.51  15
   4  -1   3 98770.6 1144.96  27
   4  -1   3 95667.9 1201.96  14
  -4  -1  -3 96138.9 1157.53  24
  -4   1  -3 92832.6 1040.97  24
  -4   1  -3 101997. 992.597  23
   4  -1   3 86779.4 1045.70  22
   4   1   3 94794.9 1036.54  22
   4  -1   4 7889.20 341.766  27
   4   1   4 8031.40 296.156  27
  -4  -1  -4 7852.99 341.205  15
  -4   1  -4 8541.09 300.912  23
   4  -1   4 7971.98 362.725  14
  -4  -1  -4 8242.66 359.928  24
  -4   1  -4 7982.25 329.576  24
   4  -1   4 8059.94 327.958  22
   4  -1   5 60822.2 971.633  27
   4   1   5 58094.8 839.747  27
   4  -1   5 58206.8 878.328  26
  -4  -1  -5 54431.8 922.613  15
   4  -1   5 52474.2 974.709  14
  -4  -1  -5 57068.0 985.502  24
  -4   1  -5 58659.4 954.312  24
   4   1   5 59049.3 853.892  22
   4  -1   6 25510.1 635.468  27
   4  -1   6 25092.8 594.426  26
  -4  -1  -6 23939.8 668.198  24
  -4   1  -6 24856.1 652.693  24
   4   1   6 25217.5 574.136  22
   4  -1   7 548.771 105.391  27
   4  -1   7 884.878 120.496  26
   4   1   7 453.455 85.5210  22
   4  -1   7 504.585 111.532  14
  -4  -1  -7 522.546 108.957  24
  -4   1  -7 544.383 106.110  24
   4   1   8 54388.5 859.850  22
   4  -1   8 52339.6 921.370  26
   4   1   8 52434.9 1132.70  55
  -4  -1  -8 53364.4 1050.73  24
  -4   1  -8 51959.7 1118.58  35
  -4   1  -8 54879.6 1052.91  24
  -4  -1  -8 53472.6 1130.15  35
  -4  -1  -8 51523.0 1133.37  57
   4  -1   8 52706.8 1205.73  54
   4   1   8 52990.9 1255.29  51
   4  -1   8 50336.5 1254.79  51
   4  -1   9 9364.42 398.226  26
  -4  -1  -9 9194.00 477.971  57
  -4  -1  -9 9469.18 444.006  24
  -4   1  -9 9900.98 492.372  35
  -4  -1  -9 9359.00 477.020  35
  -4   1  -9 10194.2 461.269  24
   4   1   9 9552.27 539.022  51
   4  -1   9 9545.14 522.819  54
   4  -1   9 9455.02 550.375  51
   4  -1  10 5704.91 309.416  26
  -4  -1 -10 5940.83 368.683  57
  -4  -1 -10 6035.74 350.881  24
  -4   1 -10 6344.42 386.195  35
  -4  -1 -10 6616.81 395.480  35
  -4   1 -10 6780.26 374.343  24
   4   1  10 5986.77 419.608  51
   4  -1  10 6105.40 435.020  51
   4  -1  10 6304.58 421.438  54
   4  -1  11 1419.71 181.393  55
  -4  -1 -11 1676.22 182.569  57
  -4   1 -11 1531.95 185.452  35
  -4  -1 -11 2175.89 215.355  35
   4  -1  11 1270.05 186.025  54
   4   1  11 1646.13 206.893  51
   4  -1  11 1413.14 208.846  51
  -4  -1 -12 3878.57 242.312  57
  -4   1 -12 3658.98 254.562  35
  -4  -1 -12 3799.89 256.880  35
   4   1  12 3867.12 289.384  51
   4  -1  12 3651.38 292.773  51
  -4   1 -13 826.111 106.390  35
  -4  -1 -13 841.545 107.854  35
   4   1  13 768.952 115.910  51
   4  -1  13 806.191 122.711  51
   4   2 -15 603.949 95.1781  48
  -4  -2  15 701.844 100.790  43
  -4   2  15 508.602 88.6829  43
   4   2 -15 503.205 82.0192  39
   4  -2 -15 682.045 93.3046  35
  -4   2  14 3343.47 243.729  43
  -4  -2  14 3231.94 244.532  43
   4   2 -14 2763.52 206.212  39
   4  -2 -14 2944.93 203.091  39
  -4   2  13 56.0669 56.8252  43
  -4  -2  13 31.2987 62.1929  43
   4   2 -13 139.116 70.8686  39
   4  -2 -13 2.75868 57.3621  39
   4  -2 -13 14.9755 62.0229  38
   4  -2 -13-103.747 64.3435  36
  -4   2  13-16.7799 41.7836  52
   4  -2 -12 140.359 65.6006  28
  -4  -2  12 218.560 78.8404  47
   4   2 -12 176.863 74.2891  28
  -4   2  12 319.982 97.6429  43
  -4   2  12 152.439 65.8461  26
   4   2 -12 258.172 80.8952  50
   4   2 -12 394.408 96.4009  39
   4  -2 -12 370.713 91.3317  39
   4  -2 -12 184.909 75.5971  38
   4  -2 -12 156.182 65.4449  36
  -4  -2  12 257.170 81.4504  34
  -4   2  12 199.681 61.6465  52
  -4   2  11 366.443 106.188  47
  -4  -2  11 200.310 78.6211  47
  -4   2  11 303.216 74.9821  52
  -4   2  11 417.895 108.266  43
  -4   2  11 321.763 85.3611  26
   4  -2 -11 291.552 84.3759  39
   4  -2 -11 319.108 95.3163  38
  -4  -2  11 292.243 95.2784  34
   4  -2 -11 286.981 86.0461  28
   4   2 -11 323.194 91.6744  50
   4   2 -11 237.066 94.3524  28
  -4  -2  11 468.756 117.552  49
   4   2 -10 39105.9 917.198  28
   4   2 -10 34433.0 859.483  17
   4  -2 -10 32363.6 784.420  21
  -4  -2  10 36722.9 905.757  47
  -4   2  10 34712.9 953.833  43
  -4   2  10 37570.9 888.731  26
  -4   2  10 37469.6 752.553  52
   4   2 -10 33083.5 824.528  39
  -4   2  10 35227.4 923.601  47
  -4  -2  10 34147.2 922.337  34
  -4  -2  10 34700.1 903.189  23
   4  -2 -10 36414.9 822.663  39
   4   2 -10 38139.0 812.406  50
   4  -2 -10 34754.5 811.304  28
  -4  -2  10 35718.8 946.351  49
   4   2  -9 48315.3 990.813  28
  -4  -2   9 46719.9 1013.05  47
  -4   2   9 48050.6 1088.50  43
  -4  -2   9 47798.6 1068.20  49
   4  -2  -9 43030.7 911.341  21
  -4   2   9 49215.0 986.476  26
   4  -2  -9 47152.0 909.909  39
  -4  -2   9 45867.5 1031.90  23
  -4   2   9 46947.4 1050.65  47
  -4   2   9 52521.5 1183.78  30
  -4   2   9 49308.6 856.717  52
   4   2  -9 48815.3 898.980  50
   4  -2  -9 45216.0 902.042  28
  -4   2   8 58129.6 1026.15  26
  -4  -2   8 60401.2 1156.99  23
   4  -2  -8 57919.8 973.214  28
   4   2  -7 8646.29 374.840  28
   4  -2  -7 8739.34 399.917  21
  -4   2   7 8002.36 362.228  26
   4   2  -7 7430.98 358.893  20
  -4  -2   7 8061.40 410.934  23
   4  -2  -7 8276.47 350.696  28
   4   2  -6 35440.1 709.510  28
   4  -2  -6 33669.9 762.762  21
  -4   2   6 33716.5 704.999  26
   4   2  -6 32425.4 738.306  20
  -4  -2   6 33353.3 709.853  19
   4  -2  -6 33857.5 676.422   9
  -4  -2   6 34994.4 813.008  23
   4   2  -5 8864.36 332.546  28
   4  -2  -5 8002.59 356.542  21
  -4   2   5 8561.29 336.594  26
   4   2  -5 7789.91 354.342  20
  -4  -2   5 7868.61 326.861  19
  -4   2   5 7980.52 354.323  18
  -4  -2   5 8269.60 383.374  23
   4  -2  -5 8098.32 318.832   9
   4  -2  -4 49145.0 847.961  21
  -4   2   4 41598.1 717.961  26
   4   2  -4 46136.3 827.297  20
  -4  -2   4 45790.5 737.702  19
  -4   2   4 43167.1 819.333  18
  -4  -2   4 47680.7 868.622  23
   4  -2  -4 47458.2 737.995   9
   4  -2  -3 49903.2 826.582  21
  -4   2   3 50081.6 758.298  26
   4   2  -3 51213.9 850.316  20
  -4  -2   3 48331.5 725.516  19
   4  -2  -3 49624.5 770.057  13
  -4   2   3 51762.6 895.053  18
  -4  -2   3 47372.5 836.065  23
   4   2  -2 62274.8 816.404  10
   4  -2  -2 61786.7 881.729  21
  -4   2   2 60928.4 816.467  26
   4   2  -2 59230.9 883.848  20
  -4  -2   2 55304.9 856.210  24
  -4  -2   2 56763.4 754.542  19
   4  -2  -2 61334.6 849.518  13
  -4   2   2 59191.9 962.741  18
  -4  -2   2 60183.7 904.717  23
  -4   2   2 59967.6 704.143  23
  -4  -2   1 14668.2 434.928  15
   4  -2  -1 14721.2 409.746  21
   4   2  -1 13732.6 386.324  10
   4   2  -1 13294.9 406.775  20
  -4   2   1 14964.7 362.316  23
  -4  -2   1 14335.5 443.241  24
  -4   2   1 14192.6 473.773  18
   4  -2  -1 14327.2 411.638  13
  -4  -2   1 14655.7 431.931  23
   4   2  -1 14089.6 362.957  22
   4   2   0 133415. 1214.46  10
   4  -2   0 129977. 1315.74  14
   4   2   0 137907. 1258.38  20
  -4  -2   0 137383. 1395.62  24
  -4   2   0 140134. 1490.05  18
  -4  -2   0 135526. 1266.44  23
  -4   2   0 132237. 1101.46  23
  -4  -2   0 142933. 1394.04  15
   4   2   0 137933. 1164.66  22
  -4  -2  -1 132799. 1389.37  15
   4   2   1 146347. 1291.97  10
  -4   2  -1 144780. 1195.98  23
   4  -2   1 133573. 1391.99  14
   4   2   1 143639. 1237.68  20
  -4  -2  -1 142743. 1456.55  24
  -4   2  -1 148100. 1531.54  18
  -4  -2  -1 146162. 1260.60  23
   4  -2   1 137331. 1265.73  22
   4   2   1 143815. 1219.91  22
  -4  -2  -2 105216. 1294.32  15
  -4   2  -2 114859. 1115.78  23
   4   2   2 104729. 1105.46  10
   4  -2   2 103624. 1277.05  14
  -4  -2  -2 108817. 1309.36  24
  -4   2  -2 113413. 1334.10  18
   4  -2   2 108405. 1132.04  22
   4   2   2 108108. 1100.41  22
   4  -2   3 63321.0 978.069  27
  -4  -2  -3 61175.8 1010.49  15
   4   2   3 63233.5 863.253  10
  -4   2  -3 66051.8 880.076  23
   4  -2   3 60528.1 1024.10  14
  -4  -2  -3 57924.7 998.242  24
  -4   2  -3 66214.6 919.810  24
  -4   2  -3 68450.3 1035.06  18
   4  -2   3 63406.8 895.365  22
   4   2   3 62496.0 865.401  22
   4  -2   4 11054.2 428.626  27
  -4  -2  -4 11225.7 447.349  15
   4  -2   4 11075.2 459.927  14
  -4  -2  -4 11727.7 462.716  24
  -4   2  -4 12866.6 433.081  24
   4   2   4 12027.4 393.779  22
   4  -2   5 29969.0 785.159  14
  -4  -2  -5 30917.8 783.258  24
  -4   2  -5 32118.6 729.149  24
   4  -2   5 31640.1 737.526  27
   4  -2   5 31114.5 691.226  26
   4   2   5 31136.3 652.260  22
   4   2   6 3048.70 213.424  22
   4  -2   6 2857.58 228.747  27
  -4  -2  -6 2654.31 231.186  15
   4  -2   6 3256.72 230.715  26
   4  -2   6 2387.94 233.616  14
  -4  -2  -6 2695.45 240.847  24
  -4   2  -6 2972.83 240.821  24
   4   2   7 99470.2 1216.41  22
  -4  -2  -7 101821. 1864.24  46
   4  -2   7 101904. 1316.86  27
   4  -2   7 95369.0 1266.41  26
  -4  -2  -7 86445.5 1314.26  15
   4  -2   7 85488.0 1412.03  14
  -4  -2  -7 90762.8 1397.58  24
  -4   2  -7 97031.4 1509.34  35
  -4   2  -7 107614. 1485.89  24
  -4  -2  -7 95128.0 1604.21  57
  -4   2  -7 94948.5 1578.37  30
   4   2   7 96880.1 1659.31  51
   4  -2   8 599.321 107.874  27
   4   2   8 302.355 79.5806  22
   4  -2   8 391.660 86.7598  26
  -4  -2  -8 368.565 119.830  46
   4  -2   8 292.619 96.0133  14
  -4   2  -8 388.582 103.170  35
  -4  -2  -8 342.834 102.713  24
  -4   2  -8 402.452 102.304  24
  -4  -2  -8 364.738 110.061  57
   4  -2   8 388.131 103.263  54
  -4   2  -8 375.475 115.370  30
   4   2   8 189.347 100.401  51
   4   2   9 5654.32 282.613  22
   4  -2   9 5400.72 310.611  26
  -4   2  -9 6280.46 406.619  30
  -4  -2  -9 5041.79 330.193  24
  -4   2  -9 5551.12 361.316  35
  -4  -2  -9 5257.60 344.079  35
  -4   2  -9 5509.15 340.195  24
  -4  -2  -9 5692.88 390.510  57
   4  -2   9 5240.81 374.133  54
   4   2   9 5464.93 397.415  51
   4  -2   9 5453.92 412.423  51
  -4  -2 -10 1191.36 177.078  57
   4  -2  10 1302.35 150.622  26
  -4   2 -10 1497.81 192.031  30
  -4  -2 -10 1451.85 171.507  24
  -4   2 -10 1608.32 190.280  35
  -4  -2 -10 1762.33 193.835  35
  -4   2 -10 1527.68 172.013  24
   4  -2  10 1405.12 192.708  54
   4   2  10 1151.43 181.318  51
   4  -2  10 1414.91 216.101  51
  -4  -2 -11 930.083 129.855  35
  -4   2 -11 732.729 120.460  35
   4  -2  11 941.911 147.666  54
  -4   2 -11 712.519 122.981  30
   4   2  11 621.316 133.738  51
   4  -2  11 844.081 148.716  51
  -4  -2 -11 840.320 131.439  57
  -4  -2 -12 55.5770 53.3146  57
  -4   2 -12 115.496 57.0369  35
  -4  -2 -12 61.9011 43.3921  35
   4   2  12 130.312 70.0879  51
   4  -2  12 46.4247 49.1431  55
   4  -2  12-16.8731 42.8030  54
  -4   2 -12-6.95262 34.8532  30
   4  -2  12 140.408 78.3856  51
  -4  -2 -13 1517.21 119.423  57
  -4   2 -13 1387.17 115.730  35
   4  -2  13 1556.45 149.959  51
   4   2  13 1391.16 129.448  51
   4   3 -14 5080.93 290.384  48
  -4   3  14 4893.13 263.448  43
  -4  -3  14 4893.14 262.603  43
   4  -3 -14 4319.31 245.059  36
   4   3 -13 1786.61 205.985  48
  -4   3  13 1495.09 171.080  43
   4  -3 -13 1358.06 164.793  38
   4  -3 -13 1537.10 176.844  36
  -4  -3  13 1347.24 158.094  34
  -4   3  13 1449.06 126.067  52
  -4   3  12 2701.95 245.489  43
   4   3 -12 2686.99 214.309  41
   4  -3 -12 3006.04 252.364  38
   4  -3 -12 3236.34 274.515  36
  -4  -3  12 2746.61 250.117  34
  -4   3  12 2664.69 188.466  52
   4   3 -11 2972.72 248.560  28
  -4  -3  11 3087.19 248.271  47
  -4   3  11 2794.06 267.506  43
  -4   3  11 2959.97 238.516  26
   4   3 -11 2771.97 235.718  41
   4  -3 -11 3472.92 287.990  38
  -4  -3  11 2997.76 272.643  34
  -4  -3  11 2669.25 250.487  23
  -4   3  11 3224.02 218.854  52
   4   3 -11 2681.33 215.002  50
   4  -3 -11 2739.05 230.240  28
  -4  -3  11 2872.38 261.694  49
  -4   3  10 4648.44 353.030  43
   4  -3 -10 4239.29 296.783  21
  -4   3  10 4563.83 267.422  52
   4   3 -10 4433.97 305.926  41
   4  -3 -10 5422.46 357.352  38
   4   3 -10 4569.12 313.904  28
  -4  -3  10 4385.55 336.500  34
  -4  -3  10 4474.58 338.821  23
   4   3 -10 4157.79 277.173  50
  -4  -3  10 4625.66 318.754  47
   4  -3 -10 4093.24 286.983  28
  -4  -3  10 4625.04 342.110  49
  -4   3  10 4838.68 311.209  26
   4   3  -9 46201.3 991.561  28
  -4  -3   9 47742.7 1041.92  47
   4  -3  -9 36437.1 777.739  16
  -4   3   9 42410.9 1045.44  43
   4  -3  -9 40712.0 957.709  21
  -4   3   9 46105.2 949.543  26
  -4   3   9 44067.2 829.529  52
   4   3  -9 41040.3 938.451  41
  -4   3   9 47102.3 1108.97  30
  -4  -3   9 43993.2 1071.42  23
  -4  -3   9 39012.3 991.228  49
   4   3  -9 45192.6 895.152  50
   4  -3  -9 44515.8 936.108  28
   4   3  -8 36238.5 857.586  28
  -4  -3   8 36402.7 910.579  47
  -4   3   8 38783.7 769.688  52
   4  -3  -8 32207.9 724.494  16
  -4   3   8 37108.8 954.691  43
   4  -3  -8 35428.9 893.751  21
  -4   3   8 38691.9 856.805  26
   4   3  -8 37993.6 886.146  41
  -4  -3   8 37881.0 990.611  23
  -4  -3   8 38045.9 958.405  49
  -4   3   8 40272.0 1011.99  30
   4  -3  -8 38649.5 852.399  28
   4   3  -8 39832.1 823.874  50
   4   3  -7 19183.3 600.000  28
   4  -3  -7 17366.0 617.617  21
  -4   3   7 17996.2 567.873  26
   4   3  -7 18854.1 555.171  20
  -4  -3   7 17239.5 593.104  19
  -4  -3   7 20317.9 714.977  23
   4   3  -6 30717.8 729.499  28
   4  -3  -6 32907.8 819.603  21
  -4   3   6 32343.7 729.895  26
   4   3  -6 28507.1 689.511  20
  -4  -3   6 29935.8 751.256  19
   4  -3  -6 30333.3 707.692   9
  -4  -3   6 32429.3 874.092  23
   4   3  -5 410.728 86.9879  28
   4  -3  -5 492.235 93.4365   9
  -4   3   5 906.838 124.448  26
   4  -3  -5 623.472 120.163  21
   4   3  -5 369.183 84.8782  20
  -4  -3   5 398.421 87.6504  19
  -4  -3   5 1009.63 151.687  23
  -4   3   5 373.565 97.5306  18
   4   3  -4 3277.38 218.523  28
  -4   3   4 3442.58 224.487  26
  -4  -3   4 3358.78 257.400  24
   4   3  -4 3493.89 240.659  20
  -4  -3   4 3252.75 229.030  19
  -4   3   4 2811.10 243.868  18
  -4  -3   4 3319.69 261.030  23
   4  -3  -4 3211.30 218.905   9
   4  -3  -3 3348.14 238.967  21
  -4   3   3 3555.92 222.545  26
  -4  -3   3 3990.26 275.469  24
   4   3  -3 3764.52 244.869  20
   4  -3  -3 3980.37 238.888  13
  -4  -3   3 3037.06 217.423  19
  -4   3   3 3399.08 268.975  18
  -4  -3   3 3718.70 261.855  23
   4  -3  -3 3562.47 222.983   9
  -4  -3   2 14905.0 458.745  15
   4  -3  -2 14681.9 470.073  21
  -4  -3   2 14450.7 520.799  24
   4   3  -2 13594.9 448.095  20
   4  -3  -2 13688.0 442.900  13
  -4   3   2 12622.9 518.282  18
  -4  -3   2 14689.9 497.787  23
   4  -3  -1 47973.1 816.446  21
  -4  -3   1 46211.4 840.845  15
  -4  -3   1 45654.7 931.670  24
   4   3  -1 46971.8 813.769  20
  -4   3   1 44469.9 977.668  18
   4  -3  -1 48390.1 838.448  13
  -4  -3   1 43212.3 819.769  23
   4   3   0 4101.05 208.976  22
  -4  -3   0 4260.97 269.383  15
   4  -3   0 4236.57 260.242  14
  -4  -3   0 4361.70 295.301  24
  -4   3   0 3768.39 288.848  18
  -4  -3   0 4259.97 246.676  23
   4   3   1 18245.3 456.117  22
  -4  -3  -1 17183.5 564.839  15
  -4  -3  -1 18975.4 616.767  24
  -4   3  -1 18767.5 629.122  18
   4  -3   1 18732.1 496.554  22
  -4  -3  -2 2488.35 226.615  15
   4  -3   2 2417.40 216.675  14
  -4  -3  -2 2355.54 226.976  24
  -4   3  -2 2276.24 222.483  18
   4   3   3 10441.3 373.927  22
   4  -3   3 11620.5 449.568  27
  -4  -3  -3 9444.02 449.317  15
   4  -3   3 9740.08 445.623  14
  -4  -3  -3 10461.1 473.628  24
  -4   3  -3 11597.0 484.295  18
  -4   3  -3 9998.00 373.057  24
   4   3   4 1757.93 165.290  22
   4  -3   4 1511.23 173.640  27
  -4  -3  -4 1571.50 194.566  15
   4  -3   4 1483.44 190.857  14
  -4  -3  -4 1967.35 217.645  24
  -4   3  -4 1794.01 169.015  24
   4   3   5 64723.6 983.835  22
   4  -3   5 58157.6 1025.88  27
   4  -3   5 66383.9 1068.07  26
  -4  -3  -5 55482.9 1129.54  15
   4  -3   5 55933.3 1138.49  14
  -4  -3  -5 60516.9 1182.61  24
  -4   3  -5 63391.4 1050.44  24
   4   3   6 48837.2 872.560  22
  -4  -3  -6 49515.6 1399.52  46
   4  -3   6 53397.8 956.925  27
   4   3   6 46089.0 861.828  45
   4  -3   6 52329.8 950.621  26
  -4  -3  -6 45052.7 1021.70  15
   4  -3   6 45224.8 1040.93  14
  -4  -3  -6 49040.5 1072.30  24
  -4   3  -6 48585.4 1056.95  35
  -4   3  -6 51925.4 991.458  24
  -4  -3  -6 49950.2 1258.99  56
  -4   3  -6 51860.0 1104.74  29
  -4   3  -6 49546.3 1174.57  30
   4   3   6 46671.2 1145.22  51
   4   3   7 14118.1 468.585  22
  -4  -3  -7 13598.6 732.413  46
   4  -3   7 15126.5 496.188  27
   4  -3   7 14614.2 506.700  26
  -4  -3  -7 12275.9 534.344  15
   4  -3   7 12996.8 563.919  14
  -4  -3  -7 13927.9 570.150  24
  -4   3  -7 13218.4 554.456  35
  -4   3  -7 14474.9 535.537  24
  -4  -3  -7 14195.3 657.963  56
  -4   3  -7 13478.0 616.921  30
   4   3   7 13697.5 625.890  51
   4   3   8 4794.16 271.376  22
  -4  -3  -8 5062.97 427.487  46
   4  -3   8 5007.03 295.908  26
  -4  -3  -8 5126.28 373.968  56
  -4  -3  -8 4662.51 361.631  57
  -4  -3  -8 4482.16 317.487  24
  -4   3  -8 4835.87 329.493  35
  -4   3  -8 5190.42 323.418  24
   4   3   8 4741.58 370.141  33
   4   3   8 5147.20 379.287  51
  -4   3  -8 4401.04 351.794  30
   4   3   9 2226.75 177.260  22
   4  -3   9 2082.98 191.090  26
  -4  -3  -9 2012.74 204.855  24
  -4   3  -9 2138.66 209.062  35
  -4   3  -9 2328.10 211.719  24
   4   3   9 1945.12 227.899  33
  -4   3  -9 2064.55 234.100  30
  -4  -3  -9 2261.43 242.895  57
   4  -3   9 2082.06 219.369  54
   4   3   9 2181.46 246.401  51
  -4   3 -10-54.4320 50.4434  35
   4   3  10 72.7258 68.9921  33
  -4  -3 -10-69.0825 63.8674  57
   4  -3  10 149.810 73.0187  54
  -4   3 -10 70.7730 69.2319  30
   4   3  10 152.477 72.6512  51
   4  -3  10 218.207 85.2123  51
  -4  -3 -11 1011.42 137.619  57
  -4   3 -11 1144.37 145.686  30
  -4   3 -11 1013.66 119.106  35
   4   3  11 1041.57 142.283  51
   4  -3  11 886.362 130.614  54
   4  -3  11 1167.74 166.681  51
  -4   3 -12 2060.95 160.515  30
   4  -3  12 1884.86 160.185  55
   4  -3  12 1871.53 149.917  54
  -4  -3 -12 1867.23 154.080  57
   4   3  12 1933.37 158.478  51
   4  -3  12 1705.05 165.284  51
   4   4 -13 6541.05 322.633  48
  -4   4  13 6528.16 294.111  43
  -4  -4  13 6805.03 298.458  43
   4  -4 -13 6327.35 298.260  36
  -4  -4  13 5931.17 268.724  34
   4  -4 -13 6397.33 270.406  32
   4   4 -12 391.930 104.323  48
  -4   4  12 421.355 93.4717  43
   4  -4 -12 262.114 82.2565  38
   4  -4 -12 308.142 88.3206  36
  -4  -4  12 270.704 77.7711  34
   4  -4 -12 365.704 92.0665  32
   4   4 -11 1246.79 183.683  48
  -4   4  11 848.484 143.317  43
  -4  -4  11 1144.23 139.421  47
   4   4 -11 835.861 124.718  41
   4  -4 -11 1062.03 149.579  38
   4  -4 -11 953.020 151.089  36
  -4  -4  11 896.133 142.068  34
  -4   4  11 891.163 111.567  52
  -4  -4  11 875.981 143.989  49
  -4  -4  10 442.737 104.198  49
  -4  -4  10 541.021 107.795  47
  -4   4  10 746.660 137.388  43
   4   4 -10 435.353 103.715  41
   4  -4 -10 568.308 117.658  38
  -4  -4  10 541.666 115.243  34
  -4   4  10 543.640 92.8260  52
  -4  -4   9 20.2752 46.0117  49
   4   4  -9-158.546 68.5310  28
  -4  -4   9 40.7241 40.4861  47
  -4   4   9-0.37623 41.0043  43
   4   4  -9 154.778 73.2199  41
   4  -4  -9 13.9525 48.2224  21
  -4  -4   9 218.267 77.4073  23
  -4   4   9-21.6679 42.3355  52
  -4  -4   8 14099.4 589.368  49
   4   4  -8 15051.8 568.094  28
  -4  -4   8 14253.3 569.903  47
  -4   4   8 14091.4 600.429  43
   4  -4  -8 12842.6 561.131  21
   4   4  -8 14350.5 568.231  41
  -4  -4   8 15019.2 635.677  23
  -4   4   8 14719.7 466.514  52
   4   4  -8 12514.9 468.886  50
   4   4  -7 25467.5 729.330  28
  -4  -4   7 25697.7 776.730  47
   4  -4  -7 23169.1 649.881  16
  -4   4   7 23263.2 758.936  43
   4  -4  -7 24807.6 782.205  21
   4   4  -7 25402.6 753.934  41
  -4  -4   7 22934.9 725.929  19
  -4   4   7 23372.1 703.899  37
  -4  -4   7 24740.0 814.799  23
  -4   4   7 24262.5 600.144  52
   4   4  -7 24718.8 647.981  50
   4   4  -6 32041.4 803.399  28
   4  -4  -6 29504.6 723.308  16
   4  -4  -6 32193.1 876.530  21
   4   4  -6 33576.2 848.423  41
  -4  -4   6 32094.6 875.879  47
  -4   4   6 30717.1 863.826  30
  -4   4   6 31166.4 815.264  37
  -4  -4   6 30644.2 831.607  19
  -4  -4   6 34224.3 939.062  23
  -4   4   6 33052.0 685.884  52
  -4  -4   5 27386.2 807.865  47
   4  -4  -5 27623.3 793.019  21
   4   4  -5 28861.6 772.626  41
  -4  -4   5 27588.8 833.685  24
  -4   4   5 27504.8 766.685  37
  -4  -4   5 27031.5 764.386  19
   4  -4  -5 28566.0 715.280   9
  -4   4   5 24552.0 780.903  18
  -4  -4   5 30576.3 872.835  23
   4   4  -5 28852.7 709.329  18
  -4  -4   4 63757.9 1266.42  24
  -4  -4   4 50135.1 1015.79  19
   4  -4  -4 58526.1 992.768   9
  -4   4   4 53121.7 1175.32  18
  -4  -4   4 64814.3 1222.54  23
   4   4  -4 63747.2 1056.46  18
  -4  -4   3 15786.2 630.135  24
  -4  -4   3 13722.8 521.944  19
  -4   4   3 14367.7 622.034  18
  -4  -4   3 15927.0 587.243  23
   4  -4  -3 15334.4 503.426   9
   4   4  -3 15771.3 532.720  18
   4  -4  -2 47528.7 872.681   9
  -4  -4   2 47521.1 1092.32  24
  -4  -4   2 42621.9 901.552  19
  -4   4   2 42493.7 1075.58  18
  -4  -4   2 47999.6 968.204  23
   4   4  -2 45143.5 904.915  18
  -4  -4   1 344.064 107.069  24
   4  -4  -1 109.248 55.3377  13
   4  -4  -1 127.523 50.1109   9
  -4   4   1 214.433 98.1075  18
   4   4  -1 364.092 88.1615  18
  -4  -4   0 1580.44 179.695  15
   4  -4   0 1076.07 141.815  13
  -4  -4   0 966.551 165.640  24
  -4   4   0 1166.89 177.951  18
   4   4   0 1107.79 151.119  18
  -4  -4  -1 11310.4 495.132  15
  -4  -4  -1 11827.5 552.128  24
  -4   4  -1 11361.7 547.463  18
   4   4   1 10936.0 443.597  18
   4  -4   2 10685.6 446.855  27
   4   4   2 9452.39 355.048  22
   4   4   2 9204.57 408.309  45
  -4  -4  -2 8540.69 451.560  15
  -4   4  -2 9097.33 487.897  30
   4  -4   2 8687.08 436.760  14
  -4  -4  -2 9465.19 496.314  24
   4   4   2 9078.82 402.530  18
  -4   4  -2 8814.25 476.770  18
  -4  -4  -2 8966.58 545.152  56
  -4   4  -2 9436.56 501.035  29
   4   4   2 9262.54 484.331  51
   4   4   3 16903.5 493.791  22
  -4  -4  -3 18104.5 809.892  46
   4   4   3 16526.3 552.191  45
  -4   4  -3 15743.6 656.822  30
  -4  -4  -3 16771.7 649.861  15
  -4  -4  -3 16973.2 770.504  56
   4  -4   3 14739.5 582.603  14
  -4  -4  -3 16896.7 659.301  24
  -4   4  -3 17521.3 653.589  18
   4   4   3 15267.1 658.930  33
  -4   4  -3 16538.0 670.136  29
   4   4   3 15857.9 527.377  18
   4   4   3 15944.4 647.748  51
   4   4   4 7136.91 328.427  22
  -4  -4  -4 8000.24 558.211  46
   4   4   4 6739.42 354.596  45
  -4   4  -4 6944.70 443.962  30
  -4  -4  -4 6960.00 425.098  15
   4  -4   4 8202.94 382.641  26
   4  -4   4 6319.78 391.658  14
  -4  -4  -4 7096.68 429.087  24
   4   4   4 6789.31 445.777  33
  -4  -4  -4 6855.02 504.554  56
  -4   4  -4 7557.30 453.419  29
   4   4   4 7351.35 450.633  51
   4   4   5 24330.9 614.557  22
  -4  -4  -5 25062.5 995.885  46
   4   4   5 23062.4 642.719  45
   4  -4   5 26107.7 668.531  26
  -4  -4  -5 22854.3 902.837  56
  -4  -4  -5 21773.3 740.863  24
   4   4   5 22499.8 817.170  33
  -4   4  -5 22684.7 806.773  30
  -4   4  -5 24553.6 800.986  29
   4   4   5 22950.2 800.493  51
  -4   4  -6 15430.0 660.408  30
   4   4   6 15653.9 489.320  22
  -4  -4  -6 16947.6 815.657  46
   4   4   6 15374.4 511.200  45
   4  -4   6 16161.4 523.259  26
  -4  -4  -6 15696.5 637.666  57
  -4  -4  -6 15205.6 608.138  24
   4   4   6 15066.9 665.109  33
  -4  -4  -6 15048.4 713.375  56
  -4   4  -6 14934.1 609.451  29
   4   4   6 17139.4 688.900  51
   4   4   7 2178.82 181.184  22
  -4  -4  -7 2822.23 319.314  46
   4  -4   7 2177.23 189.688  26
  -4  -4  -7 2163.83 228.288  24
   4   4   7 2012.32 175.444  45
   4   4   7 2279.00 259.072  33
  -4  -4  -7 2174.32 239.498  57
  -4  -4  -7 1880.76 245.459  56
  -4   4  -7 2215.27 248.284  30
   4   4   7 2551.36 261.658  51
  -4  -4  -8 314.545 116.159  46
   4   4   8 308.077 92.5662  51
   4   4   8 161.760 76.0482  33
  -4  -4  -8 428.509 115.192  56
  -4   4  -8 614.465 127.052  30
  -4  -4  -8 485.186 118.059  57
   4   4   9 114.411 72.7887  51
  -4  -4  -9 29.3217 56.1410  56
   4   4   9-29.2085 56.6741  33
  -4  -4  -9-5.91210 55.6672  57
  -4   4  -9 56.1347 55.9841  30
  -4   4 -10 982.119 133.236  30
   4   4  10 1064.32 141.257  51
  -4  -4 -10 1057.79 134.502  57
   4   4  10 1059.02 142.149  33
   4  -4  10 988.077 143.775  51
  -4   4 -11 1048.28 116.684  30
  -4  -4 -11 1250.44 121.000  57
   4   4  11 1158.16 117.662  51
   4  -4  11 1206.39 132.154  51
  -4  -5  11 184.049 60.5470  49
   4   5 -11 68.2275 54.9183  48
  -4   5  11 86.1413 53.4997  43
   4  -5 -11 188.718 56.0371  38
   4  -5 -11 157.610 59.6317  36
  -4  -5  11 235.008 65.4400  34
   4  -5 -11 186.401 60.0298  32
   4   5 -10 1584.77 177.810  48
  -4  -5  10 1990.45 164.256  47
  -4   5  10 1334.51 162.620  43
   4   5 -10 1646.67 161.497  41
   4  -5 -10 1668.70 153.037  38
   4  -5 -10 1803.43 180.659  36
  -4  -5  10 1886.16 181.669  34
  -4  -5  10 1492.18 161.570  49
  -4  -5   9 2614.43 225.783  49
  -4  -5   9 2941.55 224.544  47
  -4   5   9 2778.64 239.145  43
   4   5  -9 3233.18 242.972  41
   4  -5  -9 3045.62 220.197  38
   4  -5  -9 3457.49 262.213  36
  -4   5   9 2783.90 175.643  52
  -4  -5   8 2594.60 234.896  49
  -4  -5   8 2862.48 236.916  47
  -4   5   8 2635.06 242.712  43
   4   5  -8 3149.20 251.568  41
   4  -5  -8 3396.85 243.691  38
  -4   5   8 2766.04 227.477  37
  -4   5   8 2743.07 181.894  52
   4   5  -8 3270.87 251.797  31
  -4   5   7 2368.22 172.717  52
  -4  -5   7 2437.96 230.223  47
  -4   5   7 2491.47 238.956  43
   4  -5  -7 2127.96 230.177  21
   4   5  -7 2206.72 217.908  41
  -4   5   7 2262.40 216.254  37
   4   5  -7 2075.55 216.377  31
  -4  -5   6 5457.59 353.762  47
   4  -5  -6 5343.56 361.383  21
   4   5  -6 5791.97 353.339  41
  -4   5   6 5237.98 337.318  37
  -4  -5   6 5558.10 372.850  23
  -4  -5   5 16071.1 614.006  47
   4  -5  -5 14445.4 587.381  21
   4   5  -5 15451.3 580.118  41
  -4  -5   5 14912.8 631.741  24
  -4   5   5 15184.0 583.116  37
  -4  -5   5 15343.8 601.399  23
   4  -5  -4 16196.4 607.740  21
  -4  -5   4 16373.8 597.583  42
   4   5  -4 16553.6 589.139  41
  -4  -5   4 16072.3 669.349  24
  -4   5   4 15122.8 584.443  37
  -4  -5   4 16530.5 609.865  23
   4  -5  -3 12248.7 515.238  21
  -4  -5   3 13027.1 555.020  42
   4   5  -3 12969.5 510.825  41
  -4  -5   3 12503.1 597.470  24
  -4   5   3 11385.0 508.359  37
   4   5  -2 8764.58 381.390  45
  -4  -5   2 9648.75 492.269  42
  -4  -5   2 9743.58 529.353  24
   4   5  -1 2589.94 216.207  45
  -4  -5   1 2748.50 275.244  42
  -4  -5   1 2528.41 276.503  24
  -4   5   1 2230.23 228.231  37
  -4   5   1 1880.95 218.648  29
   4   5   0 19812.9 607.118  45
  -4  -5   0 20367.2 746.535  42
  -4   5   0 17229.1 654.576  30
  -4  -5   0 20170.7 757.090  24
  -4   5   0 18198.9 699.837  29
   4   5   1 13154.2 497.294  45
  -4  -5  -1 12717.1 596.797  42
  -4   5  -1 12610.1 589.150  29
  -4   5  -1 12376.4 560.689  30
  -4  -5  -1 13309.0 615.278  24
  -4  -5  -1 14237.6 639.376  56
   4   5   2 5637.53 330.757  45
  -4  -5  -2 5361.29 386.749  42
  -4   5  -2 4586.73 321.423  40
  -4  -5  -2 5599.12 394.703  24
  -4  -5  -2 5641.21 420.389  56
  -4   5  -2 5173.36 368.275  30
  -4   5  -2 6047.63 411.042  29
   4   5   3 9158.17 414.276  45
  -4  -5  -3 8903.19 491.823  42
  -4  -5  -3 8933.55 488.506  24
  -4  -5  -3 9845.61 560.771  56
  -4   5  -3 8524.80 480.015  29
  -4   5  -3 8526.26 473.385  30
  -4  -5  -4 8362.36 527.269  46
   4   5   4 7704.91 328.151  22
   4   5   4 7897.47 377.203  45
   4   5   4 8124.63 463.396  51
  -4   5  -4 8074.71 457.609  29
  -4  -5  -4 8219.60 453.823  42
  -4  -5  -4 6974.44 420.879  24
  -4   5  -4 7677.27 443.964  30
  -4  -5  -4 8230.68 516.299  56
  -4  -5  -5 1253.26 214.163  46
   4   5   5 1124.11 144.090  45
  -4  -5  -5 780.000 158.238  56
  -4  -5  -5 886.624 144.171  42
  -4   5  -5 657.214 134.469  30
  -4   5  -5 706.224 136.871  29
   4   5   5 1390.40 192.232  51
   4   5   6 51.2787 49.9361  45
  -4  -5  -6 80.5731 68.7696  56
  -4   5  -6 3.82458 53.8378  30
  -4   5  -6 180.519 77.8465  29
   4   5   6 21.1581 56.3650  51
   4   5   7 2025.60 161.093  45
  -4   5  -7 1947.84 205.202  30
  -4  -5  -7 1993.68 221.642  56
   4   5   7 2107.89 214.422  51
  -4  -5  -8 535.055 111.751  56
  -4  -5  -8 519.203 89.2534  57
  -4   5  -8 332.977 87.6632  30
   4   5   8 345.550 93.3405  51
  -4  -5  -9 3152.53 180.716  57
   4   5   9 3459.31 191.032  37
  -4   5  -9 3214.40 210.733  30
  -4  -5  -9 3172.36 204.569  56
   4  -5   9 3144.39 210.064  51
  -4  -6   9 1769.82 149.387  34
   4  -6  -9 1917.95 153.166  32
  -4  -6   9 1730.08 139.160  49
  -4  -6   8 1764.63 156.591  49
  -4  -6   8 1864.67 152.005  47
  -4   6   8 1793.01 148.995  37
   4   6  -8 1838.73 147.685  31
  -4  -6   7 5779.25 300.912  49
   4   6  -7 5862.71 289.174  41
  -4   6   7 6104.27 300.999  37
   4   6  -7 6580.17 317.284  31
  -4  -6   7 6425.05 304.706  47
  -4  -6   6 1595.00 166.045  47
   4   6  -6 1530.21 154.253  41
  -4   6   6 1853.94 183.667  40
  -4   6   6 1578.87 167.460  37
   4   6  -6 1721.23 183.630  31
  -4  -6   5 317.720 92.9248  47
   4   6  -5 189.208 76.6035  41
  -4   6   5 311.761 83.3938  40
  -4   6   5 230.934 75.3026  37
   4   6  -5 229.661 84.4339  31
  -4  -6   4 155.232 70.9849  47
  -4   6   4 49.7144 66.2131  40
  -4   6   4 5.08990 49.4943  37
   4   6  -4 141.417 73.0394  31
   4   6  -3 4579.93 327.528  31
  -4  -6   3 4462.53 286.222  42
  -4   6   3 4863.22 332.644  40
   4   6  -2 9000.08 455.401  31
  -4  -6   2 8421.17 407.198  42
  -4   6   2 8798.33 449.905  40
   4   6  -1 4344.14 257.111  45
  -4  -6   1 4715.15 315.574  42
   4   6  -1 4987.89 333.950  31
  -4   6   1 4733.62 328.578  40
  -4   6   1 4250.45 297.300  29
   4   6   0 8625.62 368.924  45
  -4  -6   0 9193.34 451.954  42
  -4   6   0 8628.64 433.777  40
   4   6   0 9085.41 437.668  31
  -4   6   0 8288.15 426.834  29
  -4  -6  -1 2822.96 254.766  42
   4   6   1 2865.83 218.711  45
   4   6   1 3026.06 245.868  31
  -4   6  -1 2866.59 259.042  29
  -4   6  -1 2905.47 248.754  40
   4   6   2 1340.72 154.762  45
  -4  -6  -2 1433.46 177.653  56
  -4  -6  -2 1317.77 175.389  42
  -4   6  -2 1392.03 165.864  40
  -4   6  -2 1346.73 176.764  29
   4   6   3 136.227 63.3140  45
  -4  -6  -3 113.807 66.8944  42
  -4  -6  -3 117.895 64.3357  56
  -4   6  -3 92.4390 58.4009  29
   4   6   4 540.684 94.7995  45
  -4  -6  -4 451.249 94.8483  42
  -4  -6  -4 476.214 102.525  56
  -4   6  -4 466.643 99.4940  29
   4   6   5 504.396 89.1693  45
  -4  -6  -5 528.703 96.3244  42
  -4  -6  -5 680.555 121.591  56
  -4   6  -5 413.734 95.3761  29
   4   6   6 2020.62 139.879  45
  -4  -6  -6 1673.71 134.677  42
  -4   6  -6 1939.01 156.608  30
   4   6   6 2107.25 142.718  37
  -4  -6  -6 2341.52 193.637  56
  -4  -6  -7 270.034 64.3961  56
   4   7  -5 1915.23 140.577  31
  -4  -7   4 2485.46 160.913  47
  -4   7   4 2518.78 170.668  40
   4   7  -4 2466.47 172.792  31
  -4  -7   3 130.822 53.9832  47
   4   7  -3 79.3169 50.5850  31
  -4   7   3 184.649 63.2186  40
  -4  -7   2 6358.84 270.183  47
  -4  -7   2 6224.48 244.632  42
  -4   7   2 6579.97 295.307  40
   4   7  -2 6104.91 276.954  31
  -4  -7   1 5399.90 248.438  47
  -4  -7   1 5716.13 248.170  42
  -4   7   1 5919.85 281.429  40
   4   7  -1 5767.18 259.135  31
  -4  -7   0 1489.57 131.395  47
   4   7   0 1731.29 122.432  45
  -4  -7   0 1750.43 143.061  42
  -4  -7  -1 3056.67 171.966  47
  -4  -7  -1 3288.58 192.515  42
   4   7   2 569.531 73.7142  45
  -4  -7  -2 531.829 77.3959  42
  -5   0  15 15918.3 457.395  43
   5   0 -15 14707.6 428.423  39
  -5   0  14 4550.51 261.600  47
  -5   0  14 4186.52 280.807  43
   5   0 -14 4178.48 264.168  39
  -5   0  13 9955.17 440.522  47
  -5   0  13 9937.20 472.028  43
   5   0 -13 9185.06 416.304  39
  -5   0  12 2345.67 234.715  47
  -5   0  12 2334.02 239.789  43
  -5   0  12 2367.56 229.597  26
   5   0 -12 2639.87 234.237  39
   5   0 -11 3861.87 268.324  28
  -5   0  11 3605.12 300.782  47
  -5   0  11 3956.20 327.215  43
  -5   0  11 4086.82 305.342  26
   5   0 -11 3708.74 277.322  39
   5   0 -11 3787.22 244.557  50
  -5   0  10 24785.4 774.025  47
  -5   0  10 26998.3 762.106  26
   5   0 -10 25543.7 702.489  39
   5   0 -10 26035.7 641.205  50
  -5   0   9 277.905 100.161  47
  -5   0   9 220.861 77.2911  26
   5   0  -9 401.995 88.7161  21
   5   0  -9 301.228 74.2860  50
  -5   0   8 16766.2 552.871  26
   5   0  -8 15482.7 525.256  21
  -5   0   7 4081.23 258.759  26
   5   0  -7 4070.80 265.366  21
  -5   0   6 9219.02 365.137  26
   5   0  -6 9248.45 392.086  21
  -5   0   6 9322.16 377.139  23
   5   0  -5 62452.6 827.877  10
  -5   0   5 63182.4 893.608  26
   5   0  -5 66238.9 1010.49  21
  -5   0   5 62023.6 946.496  23
   5   0  -5 59153.8 846.193  22
  -5   0   4 17720.2 453.692  26
   5   0  -4 18491.8 455.229  10
   5   0  -4 17316.5 498.752  21
  -5   0   4 16656.0 476.948  23
   5   0  -4 15978.6 440.019  22
   5   0  -3 38.4483 34.9606  22
  -5   0   3 78.3772 36.7650  26
   5   0  -3 96.2077 43.7072  21
   5   0  -3 47.1423 39.8535  10
  -5   0   3 26.2342 37.6250  23
   5   0  -2 114467. 1182.83  22
  -5   0   2 119581. 1099.37  26
   5   0  -2 121421. 1212.47  21
   5   0  -2 123318. 1249.00  10
   5   0  -2 115052. 1094.07  13
   5   0  -1 9014.29 320.330  21
   5   0  -1 7915.83 326.637  10
   5   0  -1 7899.38 283.281  13
  -5   0   1 7932.65 309.485  23
   5   0  -1 9259.42 342.416  22
   5   0   0 5611.27 245.939  21
   5   0   0 5094.08 228.651  13
   5   0   0 5024.63 263.721  22
  -5   0   0 5477.41 253.389  23
  -5   0  -1 122745. 1180.90  23
   5   0   1 125072. 1253.30  27
   5   0   2 478.021 84.9661  27
   5   0   2 576.313 103.254  22
  -5   0  -2 569.567 92.5205  24
   5   0   3 11.6557 37.3576  27
  -5   0  -3 16.8241 43.3311  24
  -5   0  -3 19.3144 31.9089  23
   5   0   4 14403.5 469.113  27
  -5   0  -4 14342.8 486.477  24
  -5   0  -4 14107.7 411.746  23
   5   0   4 15076.6 473.487  22
   5   0   5 1010.08 129.615  27
   5   0   5 1226.57 130.626  26
  -5   0  -5 1414.35 137.085  23
  -5   0  -5 1207.33 152.277  24
   5   0   5 1281.74 144.840  22
   5   0   6 1990.65 184.904  27
   5   0   6 1906.16 162.466  26
  -5   0  -6 2207.69 209.872  24
   5   0   6 1975.44 173.416  22
  -5   0  -7 41.5072 56.8641  35
  -5   0  -7 52.7095 52.3549  24
  -5   0  -7 7.12711 42.0439  57
   5   0   7 211.246 85.0572  55
   5   0   7-148.283 81.8149  51
  -5   0  -8 9846.59 450.915  24
  -5   0  -8 9603.89 490.666  35
   5   0   8 10366.1 537.097  55
   5   0   8 9295.24 533.023  51
  -5   0  -8 10125.0 486.381  57
  -5   0  -9 763.406 129.559  57
  -5   0  -9 694.308 140.465  35
  -5   0  -9 768.977 127.547  24
   5   0   9 469.416 120.904  55
   5   0   9 543.762 142.990  51
  -5   0 -10 1090.65 147.257  57
  -5   0 -10 1158.82 165.271  35
   5   0  10 1170.26 163.293  55
   5   0  10 1118.91 175.967  51
  -5   0 -11 3598.96 228.415  57
  -5   0 -11 3757.64 261.760  35
   5   0  11 3619.28 246.665  55
   5   0  11 3776.73 294.332  51
  -5   0 -12 6207.15 291.310  35
   5   0  12 6055.15 318.710  51
  -5   1  15 3357.92 205.486  43
  -5  -1  15 3683.68 215.307  43
   5   1 -15 2995.08 186.009  39
   5  -1 -15 3478.73 204.680  39
  -5  -1  14 9989.31 366.489  47
  -5   1  14 9509.69 404.239  43
  -5  -1  14 8974.94 398.661  43
   5   1 -14 8401.54 361.850  39
   5  -1 -14 9185.89 381.060  39
  -5   1  13 3721.66 269.771  47
  -5  -1  13 3985.85 273.017  47
  -5   1  13 3372.30 270.516  43
  -5  -1  13 3807.25 294.049  43
   5   1 -13 3501.63 257.038  39
   5  -1 -13 3921.79 270.990  39
   5  -1 -13 2995.47 230.308  38
   5   1 -13 3658.11 227.393  50
  -5   1  12 275.977 88.9537  47
  -5  -1  12-20.6424 55.3326  47
  -5   1  12 142.971 70.6956  43
  -5  -1  12 104.184 51.2709  43
  -5   1  12 92.4152 60.4053  26
   5   1 -12 94.8044 50.6120  39
   5  -1 -12 285.507 87.8186  39
   5  -1 -12 115.655 60.9921  38
   5   1 -12 72.9597 58.4179  50
   5   1 -11 21710.3 643.951  28
  -5   1  11 19453.4 688.432  47
  -5  -1  11 21461.3 707.868  47
  -5   1  11 20677.0 722.533  43
  -5  -1  11 21206.0 743.681  43
  -5  -1  11 21105.2 660.223  26
  -5   1  11 21996.2 698.279  26
   5   1 -11 20433.1 642.004  39
   5  -1 -11 21662.4 657.658  39
   5  -1 -11 22309.5 678.439  38
  -5   1  11 22383.5 557.786  52
   5   1 -11 21866.1 603.313  50
   5   1 -10 11.6615 46.3763  28
  -5   1  10 149.403 82.2843  47
  -5  -1  10 101.969 71.7653  47
  -5   1  10 267.016 92.0534  43
  -5  -1  10 283.242 74.9483  26
  -5   1  10 268.678 91.1105  26
   5  -1 -10 107.037 49.5318  21
   5   1 -10 128.909 60.8609  39
   5  -1 -10 144.623 71.3087  39
  -5   1  10 200.550 70.7111  52
   5   1 -10 226.105 74.7818  50
  -5   1   9 10062.0 493.157  47
  -5  -1   9 10933.9 507.626  47
  -5  -1   9 10966.0 460.808  26
  -5   1   9 10675.9 470.667  26
   5  -1  -9 9647.99 433.200  21
   5   1  -9 10159.6 426.684  39
   5  -1  -9 11348.3 456.752  39
  -5   1   9 10574.0 401.079  52
   5   1  -9 9771.20 401.954  50
  -5  -1   8 1981.85 188.719  26
  -5   1   8 1925.23 194.251  26
   5  -1  -8 1865.86 190.977  21
   5   1  -8 1759.02 178.136  21
  -5  -1   8 1959.14 199.552  23
  -5  -1   7 12555.5 438.484  26
  -5   1   7 12396.3 462.512  26
   5  -1  -7 11573.4 460.028  21
  -5  -1   7 12217.0 490.741  23
   5  -1  -6 24999.4 658.690  21
   5   1  -6 24885.6 651.112  21
   5  -1  -6 26403.8 569.817   9
  -5  -1   6 25402.5 686.820  23
  -5   1   5 1808.60 163.649  26
   5   1  -5 1823.84 176.615  21
  -5  -1   5 1985.21 185.186  23
   5  -1  -5 1968.55 155.294   9
   5   1  -4 17322.5 455.703  10
  -5   1   4 15186.1 449.151  26
   5   1  -4 17238.6 507.662  21
   5  -1  -4 16273.6 425.660  10
  -5  -1   4 14598.2 483.976  23
  -5   1   4 14503.8 414.071  23
   5   1  -3 7456.40 304.944  10
   5  -1  -3 8176.29 336.286  21
  -5   1   3 8039.04 314.793  26
   5   1  -3 7617.81 330.350  21
   5  -1  -3 7692.98 307.260  10
   5  -1  -3 6757.99 294.334  13
  -5  -1   3 8849.24 364.777  23
  -5   1   3 8029.48 305.089  23
   5  -1  -3 7504.22 313.598  22
   5   1  -3 7520.88 307.871  22
   5  -1  -2 7786.33 319.181  21
  -5   1   2 7548.53 298.940  26
   5   1  -2 7545.48 311.753  10
   5   1  -2 6769.87 301.591  21
   5  -1  -2 6897.29 293.751  13
  -5  -1   2 6789.86 308.573  23
  -5   1   2 7312.50 288.700  23
   5  -1  -2 7461.21 314.418  22
   5   1  -2 7124.69 306.098  22
   5  -1  -1 24512.4 536.318  21
   5   1  -1 25481.0 586.006  10
   5  -1  -1 23871.3 543.973  13
  -5  -1   1 22644.6 552.187  23
   5  -1  -1 22628.6 549.514  22
  -5   1   1 25040.6 532.786  23
   5   1  -1 22203.1 547.665  22
   5  -1   0 17373.3 483.487  22
  -5  -1   0 16358.8 459.512  23
   5   1   0 17505.8 475.200  20
   5   1   0 17137.6 487.919  10
  -5   1   0 17329.9 445.688  23
   5  -1   1 15131.1 462.447  22
   5   1   1 15019.0 417.703  20
   5   1   1 14839.6 466.532  10
  -5  -1  -1 13323.9 427.165  24
  -5  -1  -1 14098.0 413.122  23
  -5   1  -1 14467.4 406.286  23
   5   1   1 14342.9 442.537  22
   5  -1   2 17823.1 527.250  27
   5   1   2 17566.2 449.567  27
   5   1   2 18825.7 539.260  10
  -5  -1  -2 17887.7 517.732  24
  -5  -1  -2 16987.8 449.730  23
   5  -1   2 18976.2 546.297  22
   5   1   2 18428.7 506.639  22
   5   1   3 65128.2 886.183  27
  -5   1  -3 62592.4 887.555  23
   5   1   3 62685.7 1006.34  10
  -5  -1  -3 61527.7 1001.87  24
  -5   1  -3 64349.2 935.411  24
  -5  -1  -3 62085.5 846.283  23
   5  -1   3 61223.0 1006.80  22
   5   1   3 64681.5 958.345  22
   5  -1   4 1201.58 155.547  27
   5   1   4 1129.29 125.934  27
   5   1   4 1420.20 156.383  10
  -5  -1  -4 1145.66 151.477  24
  -5   1  -4 1353.94 151.833  24
  -5   1  -4 1518.18 147.784  23
   5  -1   4 1178.26 141.430  22
   5   1   4 1194.90 136.900  22
   5  -1   5 11124.1 449.069  27
   5   1   5 10097.2 376.430  27
   5  -1   5 10486.6 404.316  26
  -5  -1  -5 9860.46 433.492  24
  -5   1  -5 10706.1 433.218  24
   5  -1   5 10816.5 406.237  22
   5   1   5 10128.2 388.970  22
   5  -1   6 7131.25 356.965  27
   5  -1   6 6810.17 330.410  26
  -5  -1  -6 6431.24 362.412  24
  -5   1  -6 6636.49 400.610  35
  -5   1  -6 6525.77 353.464  24
  -5   1  -6 6534.89 377.755  57
   5   1   6 6582.99 415.057  55
   5   1   6 6796.33 433.969  51
  -5  -1  -6 6733.01 411.070  57
   5   1   6 6359.44 311.406  22
   5   1   7 9738.94 386.089  22
   5  -1   7 9874.97 424.188  27
   5  -1   7 9676.64 397.820  26
  -5  -1  -7 9868.56 456.436  24
  -5   1  -7 8819.28 473.707  35
  -5  -1  -7 8800.24 461.241  35
  -5   1  -7 10368.4 455.681  24
  -5   1  -7 9193.07 450.683  57
  -5  -1  -7 9224.51 485.745  57
   5   1   7 8993.71 487.677  55
   5   1   7 9799.77 536.159  51
   5  -1   7 8849.75 514.975  51
   5   1   8 2067.33 173.952  22
   5  -1   8 2114.41 190.035  26
  -5  -1  -8 2230.54 217.830  24
  -5   1  -8 2174.34 236.966  35
  -5  -1  -8 2149.86 231.787  35
  -5   1  -8 2154.43 214.115  24
  -5  -1  -8 1863.53 220.345  57
   5   1   8 1851.83 219.299  55
  -5   1  -8 2107.46 209.849  57
   5   1   8 1952.10 249.556  51
   5  -1   8 2319.78 271.002  51
   5  -1   9 2600.42 205.234  26
  -5  -1  -9 2997.69 248.976  24
  -5   1  -9 2556.13 247.778  35
  -5  -1  -9 2950.73 260.703  35
  -5   1  -9 2872.46 240.781  24
  -5  -1  -9 2848.36 256.602  57
   5   1   9 2845.67 257.714  55
   5  -1   9 2968.82 273.679  54
   5   1   9 2574.82 276.287  51
   5  -1   9 2537.79 266.497  51
  -5   1 -10 1857.44 198.614  35
  -5  -1 -10 1379.78 170.103  35
  -5  -1 -10 1653.10 185.663  57
   5  -1  10 1486.38 187.499  55
   5   1  10 1574.75 173.831  55
   5   1  10 1597.69 201.206  51
   5  -1  10 1207.82 186.415  51
   5  -1  11 2123.97 199.014  55
  -5   1 -11 2404.99 206.641  35
  -5  -1 -11 2408.23 203.548  35
  -5  -1 -11 2161.18 186.217  57
   5   1  11 2297.13 223.642  51
   5  -1  11 2577.13 238.245  51
  -5   1 -12 1464.73 141.294  35
  -5  -1 -12 1728.44 143.654  35
  -5  -1 -12 1427.28 127.261  57
   5  -1  12 1491.92 135.982  55
   5   1  12 1758.48 165.691  51
   5  -1  12 1609.77 165.141  51
  -5  -2  15 1650.91 131.973  43
   5   2 -14 107.618 57.2462  48
  -5   2  14-24.6464 54.0399  43
  -5  -2  14-24.4072 46.0080  43
   5   2 -14 40.2113 43.5964  39
   5  -2 -14 46.5015 42.3119  39
  -5  -2  13 109.981 57.0512  47
  -5   2  13 99.5658 61.0294  43
  -5  -2  13 85.1573 70.1688  43
   5   2 -13 104.972 56.8047  39
   5  -2 -13 187.939 72.7745  39
   5  -2 -13-3.43665 45.1384  38
   5  -2 -13 77.5648 52.1972  36
  -5   2  13 58.7757 36.5960  52
   5   2 -13 35.8933 38.9948  50
  -5   2  12 11401.2 493.682  47
  -5  -2  12 11071.5 463.642  47
  -5   2  12 10721.5 486.206  43
  -5  -2  12 10896.2 504.894  43
   5   2 -12 10211.2 427.679  39
   5  -2 -12 11057.4 476.066  38
  -5   2  12 11736.3 386.897  52
   5   2 -12 10522.4 405.307  50
   5   2 -11 4198.83 288.980  28
  -5   2  11 4368.68 326.260  47
  -5  -2  11 4423.89 315.242  47
  -5   2  11 4139.32 314.833  43
  -5   2  11 4604.18 312.472  26
   5  -2 -11 4537.84 294.090  39
   5  -2 -11 4830.97 327.223  38
  -5   2  11 4375.07 254.243  52
   5   2 -11 4580.29 279.774  50
   5   2 -10 14148.6 528.437  28
  -5   2  10 13281.8 582.516  47
  -5  -2  10 14032.9 575.051  47
  -5   2  10 13646.4 578.816  43
  -5   2  10 15115.9 570.960  26
   5  -2 -10 12144.2 500.838  21
   5  -2 -10 14221.7 521.990  39
  -5  -2  10 13023.4 561.835  23
  -5   2  10 14485.8 473.340  52
   5   2 -10 14024.3 494.232  50
  -5  -2  10 11984.3 542.292  49
  -5   2   9 25047.7 795.599  47
  -5  -2   9 24590.8 768.782  47
   5  -2  -9 22722.9 693.828  21
  -5   2   9 25353.9 730.442  26
   5   2  -9 23485.4 670.568  41
   5  -2  -9 26081.5 697.779  39
  -5  -2   9 24221.6 781.011  23
  -5   2   9 25569.4 845.749  30
  -5   2   9 25582.0 640.595  52
   5   2  -9 25755.3 664.114  50
  -5  -2   9 23655.1 751.145  49
  -5  -2   8 22554.7 726.515  47
   5  -2  -8 19207.3 644.105  21
  -5   2   8 22920.7 674.996  26
   5   2  -8 22470.8 644.900  41
  -5   2   8 22897.4 783.253  30
   5   2  -8 19815.3 628.094  20
   5  -2  -8 22340.8 631.388  39
  -5  -2   8 21338.9 728.621  23
  -5   2   8 22272.2 737.559  47
  -5   2   8 22652.5 598.420  52
   5   2  -8 23293.6 621.432  50
   5  -2  -7 4494.43 303.449  21
  -5   2   7 4751.58 298.596  26
   5   2  -7 4455.28 305.388  20
  -5  -2   7 5277.17 353.554  23
   5  -2  -6 23804.5 687.221  21
  -5   2   6 22014.3 613.769  26
   5   2  -6 21518.3 653.833  20
   5  -2  -6 22636.2 587.977   9
  -5  -2   6 23865.3 728.092  23
   5  -2  -5 6570.54 348.564  21
  -5   2   5 6184.01 316.165  26
   5  -2  -5 5807.40 297.061   9
   5   2  -5 5588.07 331.067  20
  -5  -2   5 5780.86 347.315  23
  -5   2   4 36437.6 736.538  26
   5   2  -4 34834.3 797.668  20
  -5  -2   4 36676.3 839.457  23
   5  -2  -4 35484.0 707.319   9
   5  -2  -3 37033.2 766.575  21
  -5   2   3 37051.7 732.128  26
   5   2  -3 35808.7 779.170  20
   5  -2  -3 37008.9 748.447  13
  -5  -2   3 35486.6 796.127  23
   5   2  -2 83846.1 1055.88  10
   5  -2  -2 80624.8 1096.00  21
   5   2  -2 81311.2 1146.94  20
   5  -2  -2 82115.8 1116.33  13
  -5  -2   2 78826.1 1134.52  23
  -5   2   2 77449.6 921.571  23
  -5   2   1 36517.1 651.364  23
   5   2  -1 37920.0 719.761  10
   5  -2  -1 38775.3 719.004  21
   5   2  -1 34074.9 718.179  20
   5  -2  -1 34221.3 721.248  13
  -5  -2   1 34979.6 732.292  23
   5   2  -1 33624.9 637.686  22
   5  -2  -1 33270.6 696.237  22
   5   2   0 18218.0 507.398  10
   5   2   0 18422.0 509.092  20
  -5  -2   0 16134.3 514.973  24
  -5  -2   0 16731.0 494.077  23
   5  -2   0 18145.5 516.805  22
  -5   2   0 18001.2 465.310  23
   5   2   0 17041.4 461.374  22
  -5  -2  -1 25144.3 588.380  23
   5   2   1 27483.1 633.168  10
   5   2   1 28460.8 606.774  20
  -5  -2  -1 27273.1 684.683  24
  -5   2  -1 27347.7 590.199  23
   5  -2   1 29722.1 666.128  22
   5   2   1 26324.6 590.089  22
   5  -2   2 19738.0 590.960  27
  -5  -2  -2 17092.8 581.950  15
   5   2   2 17943.6 514.508  10
   5  -2   2 16779.3 575.516  14
  -5  -2  -2 17768.5 572.247  24
  -5  -2  -2 16781.5 457.926  23
  -5   2  -2 19643.5 512.215  23
   5   2   2 17228.6 485.815  22
  -5   2  -3 1968.82 172.740  23
   5  -2   3 2138.06 204.528  27
  -5  -2  -3 1705.53 192.743  15
   5   2   3 1827.64 166.450  10
   5  -2   3 1409.02 176.514  14
  -5  -2  -3 1773.79 188.336  24
   5  -2   3 1738.70 173.875  22
   5   2   3 1783.56 165.600  22
   5  -2   4 9227.89 430.403  27
  -5  -2  -4 8505.85 429.081  15
   5  -2   4 8784.76 446.724  14
  -5  -2  -4 8150.86 411.726  24
  -5   2  -4 9208.26 391.634  24
   5   2   4 9210.98 373.774  22
   5  -2   5 2077.20 210.528  27
   5  -2   5 2261.15 203.496  26
   5  -2   5 1874.87 211.830  14
  -5  -2  -5 1732.30 221.531  57
  -5  -2  -5 1862.42 203.188  24
  -5   2  -5 2538.85 247.092  35
  -5   2  -5 2891.75 233.376  24
  -5  -2  -5 2127.12 240.976  56
   5   2   5 2238.00 247.847  51
  -5   2  -5 2239.59 247.307  30
   5   2   5 1876.92 215.965  55
   5   2   5 2211.69 188.094  22
   5   2   6 2476.69 199.822  22
   5  -2   6 2781.71 236.756  27
   5  -2   6 2545.98 213.044  26
  -5   2  -6 2381.82 263.052  30
   5  -2   6 1841.46 219.629  14
  -5  -2  -6 2432.11 233.290  24
  -5   2  -6 2030.04 224.187  35
  -5   2  -6 2330.60 222.041  24
  -5  -2  -6 2488.01 257.650  56
  -5  -2  -6 2606.39 267.164  57
   5   2   6 2303.61 237.979  55
   5   2   6 2220.69 254.084  51
   5   2   7 1604.12 163.244  22
   5  -2   7 1819.45 190.062  27
   5  -2   7 1391.93 162.580  26
  -5  -2  -7 1204.05 183.461  56
   5   2   7 1299.42 179.637  55
  -5  -2  -7 1410.29 185.358  24
  -5   2  -7 1630.95 205.503  35
  -5   2  -7 1577.02 179.700  24
  -5  -2  -7 1453.66 203.567  57
  -5   2  -7 1938.11 236.853  30
   5   2   7 1310.08 205.600  51
   5  -2   7 1405.24 210.323  51
   5   2   8 1006.45 128.449  22
   5  -2   8 1040.31 135.649  26
  -5  -2  -8 952.122 160.927  57
   5   2   8 1229.36 163.505  55
  -5   2  -8 1246.05 165.241  24
  -5   2  -8 1020.08 157.635  35
  -5  -2  -8 875.260 138.977  24
  -5   2  -8 1093.75 171.344  30
   5  -2   8 1457.56 207.555  51
   5   2   8 893.099 169.360  51
  -5   2  -9 1065.94 166.479  30
  -5   2  -9 1531.54 184.801  35
  -5  -2  -9 1436.48 185.761  57
   5   2   9 1091.08 176.313  51
   5  -2   9 1044.60 173.948  51
  -5   2 -10 379.896 100.781  35
  -5  -2 -10 142.139 69.2232  57
  -5   2 -10 318.556 79.1403  30
   5   2  10 171.347 89.4281  51
   5  -2  10 227.590 97.6117  51
  -5   2 -11 362.088 83.5776  35
  -5  -2 -11 378.382 80.3497  57
   5  -2  11 348.849 89.3328  55
   5   2  11 411.968 94.3084  51
   5  -2  11 455.820 96.8502  51
  -5   2 -12 155.460 47.3823  35
  -5  -2 -12 187.530 52.3985  57
   5  -2  12 221.798 54.6476  55
   5   2  12 68.0921 45.0648  51
   5  -2  12 263.160 66.3043  51
   5   3 -14 4277.84 243.024  48
  -5   3  14 4367.13 214.972  43
  -5  -3  14 4376.40 218.312  43
   5   3 -13 198.805 71.5775  48
  -5   3  13 68.4970 52.3772  43
  -5  -3  13 14.3785 46.3559  43
   5  -3 -13 51.9827 48.9122  38
   5  -3 -13 36.7501 48.1207  36
  -5   3  13 87.3496 42.5605  52
  -5  -3  12 866.997 121.352  47
  -5   3  12 870.990 135.068  43
   5  -3 -12 920.158 117.180  39
   5  -3 -12 879.331 138.278  38
   5  -3 -12 904.180 148.001  36
  -5   3  12 844.772 105.722  52
   5   3 -12 777.202 112.220  50
  -5  -3  11 355.055 93.7850  47
  -5   3  11 472.480 112.782  43
   5   3 -11 425.648 100.585  41
   5  -3 -11 284.520 77.0916  39
   5  -3 -11 610.547 125.802  38
  -5   3  11 408.663 82.6031  52
   5   3 -11 427.776 91.6568  50
  -5  -3  11 446.094 102.279  49
   5   3 -10 5460.88 327.630  28
  -5  -3  10 5362.52 344.591  47
  -5   3  10 4876.73 338.409  43
   5  -3 -10 4147.49 295.730  21
  -5   3  10 4907.37 312.241  26
   5   3 -10 5052.88 316.615  41
   5  -3 -10 5296.02 300.102  39
  -5  -3  10 4406.52 333.889  23
  -5   3  10 4990.53 274.437  52
   5   3 -10 4845.59 288.977  50
  -5  -3  10 5102.61 342.312  49
  -5  -3   9 13146.7 562.221  49
   5   3  -9 13767.7 519.519  28
  -5  -3   9 14199.2 578.956  47
  -5   3   9 14091.6 466.352  52
   5  -3  -9 12472.7 532.626  21
  -5   3   9 14134.4 535.613  26
   5   3  -9 12642.0 514.054  41
   5  -3  -9 13949.6 497.245  39
  -5  -3   9 14217.8 620.663  23
  -5   3   9 13147.4 593.153  30
   5   3  -9 14133.4 493.773  50
  -5  -3   8 28282.5 822.771  49
  -5  -3   8 30698.0 860.079  47
   5  -3  -8 28623.9 815.611  21
  -5   3   8 29485.8 768.799  26
   5   3  -8 29107.5 780.046  41
   5  -3  -8 29505.5 722.507  39
  -5  -3   8 31284.0 930.823  23
  -5   3   8 29650.1 892.813  30
  -5   3   8 30057.6 689.078  52
   5   3  -8 30996.0 729.855  50
  -5  -3   7 43938.9 1004.17  49
  -5   3   7 43613.5 1083.14  30
  -5  -3   7 48127.9 1077.86  47
   5  -3  -7 44500.7 1009.80  21
  -5   3   7 46138.1 945.702  26
   5   3  -7 47310.8 981.155  41
   5   3  -7 44906.6 918.882  20
  -5  -3   7 45919.2 1125.21  23
  -5   3   7 47079.7 863.564  52
   5   3  -7 50741.7 913.916  50
  -5  -3   6 18407.1 659.667  47
   5  -3  -6 16991.7 620.237  21
  -5   3   6 17777.6 574.979  26
   5   3  -6 17740.6 590.566  41
  -5   3   6 16475.7 653.750  30
   5   3  -6 17212.7 572.703  20
   5  -3  -6 17973.6 574.330   9
  -5  -3   6 18941.3 706.150  23
  -5   3   6 15715.6 491.464  52
   5   3  -6 17979.4 531.306  50
   5  -3  -5 4095.24 298.418  21
  -5   3   5 4579.58 285.414  26
   5   3  -5 3734.47 268.778  20
   5  -3  -5 4184.03 273.256   9
  -5  -3   5 3929.67 316.208  23
   5  -3  -4 50030.6 992.805  21
  -5   3   4 50991.8 927.075  26
   5   3  -4 48395.4 942.544  20
  -5   3   4 44830.5 1048.50  18
  -5  -3   4 50549.2 1070.05  23
   5  -3  -4 44967.2 875.777   9
   5  -3  -3 48405.1 939.545  21
   5   3  -3 47991.4 929.027  20
   5  -3  -3 48095.4 920.534  13
  -5   3   3 43931.9 1046.41  18
  -5  -3   3 47249.1 997.624  23
   5  -3  -3 42994.1 842.678   9
   5  -3  -2 14989.7 503.247  21
  -5  -3   2 14769.3 556.662  24
   5   3  -2 15312.8 512.515  20
   5  -3  -2 16290.2 539.120  13
  -5   3   2 14666.5 609.427  18
  -5  -3   2 15104.3 539.497  23
  -5  -3   1 3965.81 294.281  24
   5   3  -1 4596.31 275.402  20
  -5   3   1 4513.13 338.694  18
   5  -3  -1 4605.73 291.591  13
  -5  -3   1 4408.36 280.355  23
  -5  -3   0 1081.83 156.743  15
   5  -3   0 946.759 125.700  22
  -5  -3   0 817.102 140.024  24
   5  -3   0 1001.85 141.447  13
  -5  -3   0 884.661 128.806  23
  -5   3   0 967.225 160.267  18
   5   3   0 911.033 112.713  22
  -5  -3  -1 5919.77 362.374  15
   5  -3   1 5805.23 351.430  14
  -5  -3  -1 5725.46 358.505  24
  -5   3  -1 6771.10 411.811  18
   5  -3   1 6388.93 320.987  22
   5   3   1 5923.48 283.833  22
   5   3   2 948.217 117.944  22
   5  -3   2 1057.06 154.616  27
  -5  -3  -2 987.613 153.979  15
   5  -3   2 1010.36 151.205  14
  -5  -3  -2 1028.03 152.427  24
  -5   3  -2 1208.95 174.272  18
   5   3   3 22391.0 583.116  22
  -5  -3  -3 25687.8 902.337  56
   5  -3   3 25503.7 729.791  27
  -5  -3  -3 23236.8 758.484  15
   5   3   3 23987.7 739.108  55
   5  -3   3 19840.1 689.120  14
  -5  -3  -3 23037.4 732.664  24
  -5   3  -3 21621.3 714.183  35
  -5   3  -3 22722.7 789.778  30
  -5   3  -3 24257.2 800.253  29
   5   3   4 1787.37 170.591  22
  -5  -3  -4 1661.18 240.727  56
   5  -3   4 1054.96 155.342  27
   5  -3   4 1178.27 155.929  26
  -5  -3  -4 1288.69 185.811  15
  -5  -3  -4 1225.02 172.986  57
   5  -3   4 852.377 149.053  14
  -5   3  -4 1046.09 158.771  35
  -5  -3  -4 873.326 151.977  24
   5   3   4 1281.41 172.229  55
  -5   3  -4 1170.84 184.284  30
   5   3   4 836.656 164.137  51
   5   3   5 4414.20 267.874  22
   5  -3   5 4406.57 303.115  27
  -5   3  -5 3430.53 321.426  30
   5  -3   5 4387.79 289.972  26
  -5  -3  -5 3907.62 318.989  15
   5  -3   5 3476.88 303.461  14
  -5  -3  -5 4172.99 316.093  24
  -5   3  -5 3708.22 299.087  35
   5   3   5 3799.11 298.745  55
  -5  -3  -5 3963.69 355.751  56
  -5  -3  -5 3559.19 311.510  57
   5   3   5 3875.96 326.270  51
   5   3   6 11993.3 436.214  22
   5  -3   6 12726.8 486.105  27
   5  -3   6 13114.8 490.821  26
  -5  -3  -6 11644.0 524.541  24
  -5   3  -6 11667.0 529.872  35
  -5   3  -6 12254.8 475.648  24
   5   3   6 11879.1 517.634  55
  -5  -3  -6 11570.8 559.738  57
  -5   3  -6 11234.4 569.783  30
   5   3   6 11879.4 572.779  51
  -5  -3  -6 11567.6 587.630  56
   5  -3   7 417.063 91.6091  27
   5   3   7 321.391 77.8827  22
  -5   3  -7 468.741 113.913  35
  -5  -3  -7 351.396 103.627  24
  -5   3  -7 152.052 64.8359  24
  -5  -3  -7 256.708 104.436  57
  -5  -3  -7 115.483 68.4752  56
   5   3   7 250.305 84.4709  55
  -5   3  -7 429.359 117.716  30
   5   3   7 141.881 75.2122  51
  -5  -3  -8 2047.07 222.908  56
  -5   3  -8 2346.08 219.665  35
  -5  -3  -8 2189.71 232.148  57
  -5   3  -8 2252.03 239.905  30
   5   3   8 2124.32 235.589  51
   5  -3   8 2189.26 234.357  51
  -5   3  -9 2442.48 213.440  35
  -5  -3  -9 2368.71 226.191  57
  -5   3  -9 2426.28 230.802  30
   5   3   9 2374.83 235.266  51
   5  -3   9 2429.40 231.857  51
  -5  -3 -10 24.9611 48.6824  57
  -5   3 -10 31.4071 34.7768  35
  -5   3 -10 7.73842 41.0879  30
   5   3  10 2.10704 52.2211  51
   5  -3  10 54.7351 47.0043  51
  -5   3 -11 90.8111 39.7990  35
  -5  -3 -11 14.0758 29.8855  57
   5  -3  11-20.3286 41.1567  55
  -5   3 -11-17.3952 30.2972  30
   5   3  11 86.3802 50.7009  51
   5  -3  11-44.5427 34.9202  51
   5   4 -13 6261.87 276.665  48
   5  -4 -13 6877.26 280.592  36
   5   4 -12 2548.28 212.795  48
  -5  -4  12 2238.15 155.502  47
  -5   4  12 1901.83 159.313  43
   5  -4 -12 2289.61 183.173  38
   5  -4 -12 2544.47 204.305  36
   5  -4 -12 2138.47 175.868  32
  -5   4  12 2304.42 142.907  52
   5   4 -11 385.936 102.963  48
  -5  -4  11 319.518 77.0390  47
  -5   4  11 365.044 88.8295  43
   5   4 -11 380.068 81.8458  41
   5  -4 -11 288.844 88.3293  38
   5  -4 -11 332.949 91.4862  36
  -5  -4  11 295.913 77.0043  34
  -5   4  11 409.724 72.4321  52
  -5  -4  11 194.922 73.0179  49
  -5  -4  10 1361.68 162.699  47
  -5   4  10 1010.89 145.145  43
   5   4 -10 1247.57 152.938  41
   5  -4 -10 1478.95 174.935  38
  -5  -4  10 1253.77 155.641  34
  -5   4  10 1133.18 127.656  52
  -5  -4  10 975.079 145.194  49
  -5  -4   9 722.207 122.269  49
  -5  -4   9 689.490 123.497  47
   5   4  -9 633.176 106.435  50
   5   4  -9 650.706 122.865  41
  -5   4   9 731.191 104.210  52
  -5  -4   8 7275.82 405.201  49
  -5  -4   8 7601.28 418.321  47
   5  -4  -8 7119.19 408.745  21
   5   4  -8 7073.82 389.230  41
  -5   4   8 7517.33 423.936  30
  -5  -4   8 7104.88 438.198  23
  -5   4   8 7070.29 318.138  52
   5   4  -8 7061.78 336.992  50
  -5  -4   7 6512.37 387.187  49
  -5  -4   7 7325.02 420.057  47
  -5   4   7 7976.91 450.660  30
   5  -4  -7 6691.56 406.794  21
   5   4  -7 7058.96 393.706  41
  -5  -4   7 7208.09 448.458  23
  -5   4   7 7007.08 320.550  52
  -5  -4   6 10147.2 500.540  47
   5  -4  -6 8896.12 464.027  21
   5   4  -6 9895.54 467.431  41
  -5   4   6 9001.53 440.547  37
  -5  -4   6 9937.80 521.722  23
  -5   4   6 9294.96 491.058  30
  -5   4   6 9603.93 374.163  52
  -5  -4   5 13210.2 570.698  47
   5   4  -5 13193.4 492.405  18
  -5   4   5 13009.1 582.139  30
   5  -4  -5 12737.8 547.068  21
  -5  -4   5 13441.4 547.668  42
   5   4  -5 13727.3 541.899  41
  -5   4   5 11934.0 515.956  37
   5  -4  -5 13438.4 509.369   9
  -5   4   5 11947.4 574.389  18
  -5  -4   5 13039.0 584.655  23
  -5   4   5 13573.7 438.983  52
  -5  -4   4 4628.47 340.501  47
   5  -4  -4 4969.83 335.575  21
  -5  -4   4 4932.66 344.494  42
   5   4  -4 4812.54 319.353  41
  -5   4   4 4171.51 310.293  37
  -5   4   4 4274.90 356.404  18
   5  -4  -4 4852.13 305.841   9
  -5  -4   4 4839.04 350.734  23
   5   4  -4 4802.49 304.004  18
  -5   4   4 4955.05 363.078  30
  -5  -4   3 7091.63 419.837  47
   5  -4  -3 6622.26 372.954  21
  -5  -4   3 7420.47 431.914  42
   5   4  -3 7142.22 379.362  41
  -5  -4   3 6473.19 415.539  24
  -5   4   3 5665.83 362.927  37
  -5   4   3 6165.88 430.101  18
  -5  -4   3 6747.13 391.056  23
   5  -4  -3 6601.51 355.707   9
  -5   4   3 6731.22 423.412  30
   5   4  -3 7014.86 373.729  18
   5   4  -2 1501.41 163.251  45
  -5  -4   2 1861.09 224.075  42
   5   4  -2 1920.20 193.192  41
  -5  -4   2 1619.39 206.169  24
   5  -4  -2 1776.89 186.536  13
  -5   4   2 1655.54 224.911  18
  -5  -4   2 1900.92 207.640  23
   5  -4  -2 1829.61 186.109   9
  -5   4   2 1543.93 205.519  30
  -5   4   2 1730.78 208.835  29
   5   4  -2 2251.22 216.217  18
   5   4  -1 1787.21 179.145  45
  -5  -4   1 1533.93 212.678  42
   5   4  -1 2034.78 197.137  41
  -5  -4   1 1947.39 230.171  24
   5  -4  -1 1949.74 202.345  13
  -5   4   1 2007.56 245.693  18
  -5   4   1 1920.46 232.910  30
   5  -4  -1 1801.24 180.485  22
  -5   4   1 2013.78 230.560  29
   5   4  -1 1945.61 201.055  18
   5  -4  -1 2116.02 200.679   9
   5   4   0 2719.79 223.798  45
  -5  -4   0 2545.53 241.631  15
  -5  -4   0 2397.30 257.896  42
  -5  -4   0 2471.77 264.355  24
   5  -4   0 2733.38 243.150  13
  -5   4   0 2373.58 274.637  18
  -5   4   0 2340.14 253.903  30
  -5   4   0 2345.28 257.889  29
   5   4   0 2359.86 218.310  18
  -5  -4   0 2762.45 282.474  56
   5  -4   0 2314.88 203.504  22
   5   4   1 13634.2 504.811  45
  -5  -4  -1 14056.3 586.845  15
  -5  -4  -1 12708.6 593.426  42
  -5  -4  -1 13194.8 593.472  24
  -5   4  -1 14477.6 645.408  18
   5  -4   1 14756.7 569.563  13
  -5  -4  -1 14469.6 664.155  56
  -5   4  -1 12556.1 593.526  30
  -5   4  -1 13728.8 625.813  29
   5   4   1 13236.3 566.857  51
   5   4   1 13033.0 503.754  18
   5   4   2 25410.6 597.394  22
   5  -4   2 27865.0 773.983  27
   5   4   2 24761.2 683.729  45
  -5  -4  -2 22906.7 767.432  15
  -5  -4  -2 24103.1 810.294  42
  -5   4  -2 23761.4 826.001  30
  -5  -4  -2 25199.9 813.715  24
  -5   4  -2 24528.6 827.187  18
   5  -4   2 26482.2 773.974  13
  -5  -4  -2 24847.4 891.817  56
  -5   4  -2 24883.1 847.965  29
   5   4   2 22069.1 640.525  18
   5   4   2 25941.1 807.409  51
   5   4   3 6993.82 323.698  22
  -5   4  -3 7460.95 466.184  30
   5  -4   3 7831.89 406.372  27
   5  -4   3 8107.71 400.717  26
  -5   4  -3 7182.87 456.399  29
   5   4   3 7286.32 370.661  45
  -5  -4  -3 7569.48 506.410  56
  -5  -4  -3 7464.91 440.895  42
  -5  -4  -3 7654.92 447.325  24
   5   4   3 7893.41 456.629  51
  -5   4  -4 1516.46 216.076  29
   5   4   4 1222.76 142.358  22
   5  -4   4 1836.50 186.914  26
   5   4   4 1515.28 168.191  45
  -5  -4  -4 1570.73 207.703  42
  -5  -4  -4 1657.25 242.715  56
  -5  -4  -4 1793.36 218.018  24
  -5   4  -4 1742.36 230.766  30
   5   4   4 1681.84 213.373  51
   5   4   5 83.9379 52.2652  45
   5   4   5 101.340 46.3946  22
   5  -4   5 45.1047 44.4663  26
  -5  -4  -5-115.955 59.1886  24
  -5  -4  -5 15.0619 74.3622  56
  -5   4  -5 54.1880 68.3117  30
   5   4   5-47.8937 61.4443  51
   5   4   6 5126.91 283.239  45
  -5  -4  -6 5302.19 390.595  56
  -5   4  -6 4716.45 356.386  30
  -5  -4  -6 5380.85 340.918  57
   5   4   6 5305.37 369.055  51
   5   4   7 2513.16 185.156  45
  -5  -4  -7 2799.52 266.340  56
  -5  -4  -7 2906.58 244.093  57
  -5   4  -7 2364.85 242.894  30
   5   4   7 2394.52 240.971  51
  -5  -4  -8 409.783 102.693  56
  -5   4  -8 336.850 97.3372  30
   5   4   8 393.767 102.239  51
   5  -4   8 447.241 97.7369  51
  -5  -4  -8 443.149 96.3873  57
  -5  -4  -9-24.0951 45.5859  56
  -5  -4  -9-37.1464 39.1533  57
  -5   4  -9 1.45235 45.2648  30
   5   4   9 51.2529 48.6470  51
   5  -4   9 57.3837 41.3951  51
  -5  -4 -10 155.375 44.8361  57
  -5   4 -10 179.808 60.0356  30
   5   4  10 140.235 51.6353  51
   5  -5 -11 6985.93 286.347  36
   5  -5 -11 6534.00 276.813  32
  -5  -5  10 1048.82 116.825  47
   5   5 -10 1003.35 117.989  41
   5  -5 -10 1195.01 128.015  38
   5  -5 -10 1163.74 136.486  36
  -5  -5  10 737.406 103.989  34
  -5  -5  10 759.726 103.409  49
  -5  -5   9 518.220 96.1365  49
  -5  -5   9 514.373 92.8894  47
   5   5  -9 470.304 96.1430  41
   5  -5  -9 553.280 99.1912  38
  -5  -5   9 459.804 91.7307  34
  -5   5   9 504.558 74.9888  52
  -5  -5   8 828.420 125.465  49
  -5  -5   8 742.335 125.690  47
   5   5  -8 780.735 128.302  41
   5   5  -8 671.908 107.656  31
  -5   5   8 746.493 92.4143  52
  -5  -5   7 1339.12 165.068  49
  -5  -5   7 952.914 146.250  47
   5   5  -7 1346.02 162.703  41
  -5   5   7 1190.98 152.236  37
  -5  -5   6 5005.99 328.247  47
   5   5  -6 4926.60 310.746  41
  -5   5   6 4252.15 292.100  37
  -5  -5   5 49.4593 53.2284  47
  -5  -5   5 213.791 73.7884  42
   5   5  -5 56.9328 54.1692  41
   5  -5  -5 107.831 62.5318  21
  -5   5   5 29.1986 39.2894  37
  -5   5   5 84.5250 55.8614  30
  -5  -5   4 4917.56 340.450  47
   5  -5  -4 4024.12 293.326  21
  -5  -5   4 4408.10 310.734  42
   5   5  -4 4297.77 300.173  41
  -5   5   4 4422.41 319.224  30
  -5  -5   3 888.851 149.236  47
  -5  -5   3 1089.48 165.683  42
   5   5  -3 1158.16 150.099  41
  -5  -5   3 1036.55 172.234  24
  -5   5   3 1081.05 159.266  30
   5   5  -2 213.640 65.6901  45
  -5  -5   2 164.533 65.8973  42
   5   5  -2 357.404 87.2575  41
  -5  -5   2-77.6294 60.7787  24
   5  -5  -2-10.0416 44.5503  22
  -5   5   2 96.2924 66.9206  30
   5   5  -1 444.805 96.7760  45
  -5  -5   1 322.137 103.798  42
  -5  -5   1 586.446 131.283  24
  -5   5   1 522.580 120.389  30
  -5   5   1 364.331 105.731  29
   5   5   0 9125.05 404.327  45
  -5  -5   0 9602.47 502.862  42
  -5  -5   0 8738.30 488.974  24
  -5   5   0 9162.25 485.465  30
  -5   5   0 8789.93 481.547  29
   5   5   1 5335.52 312.855  45
  -5  -5  -1 5414.26 378.365  42
  -5   5  -1 5267.84 335.881  40
  -5  -5  -1 4928.59 363.070  24
  -5   5  -1 5286.87 370.615  30
  -5  -5  -1 5690.18 383.685  56
  -5   5  -1 5184.28 373.438  29
   5   5   2 8040.17 380.588  45
  -5  -5  -2 7991.99 447.288  42
  -5  -5  -2 7710.30 442.473  24
  -5   5  -2 7414.75 437.308  30
  -5  -5  -2 8178.41 470.943  56
  -5   5  -2 8241.71 467.871  29
   5   5   3 3267.34 238.034  45
  -5  -5  -3 2862.39 263.021  42
  -5  -5  -3 3219.39 297.573  56
  -5   5  -3 2910.58 272.016  30
  -5   5  -3 2678.47 262.945  29
   5   5   4 1559.64 165.165  45
  -5  -5  -4 1367.52 173.611  42
  -5  -5  -4 1993.58 237.961  56
  -5   5  -4 1430.85 188.967  30
   5   5   5 2922.31 208.231  45
  -5  -5  -5 2789.22 219.088  42
  -5  -5  -5 3277.65 287.061  56
  -5   5  -5 2943.16 260.512  30
   5   5   6 143.106 56.8781  45
  -5  -5  -6 133.937 82.8185  56
  -5   5  -6 269.417 87.2066  30
   5   5   7 485.226 73.3897  45
  -5  -5  -7 483.597 103.631  56
  -5   5  -7 371.555 86.7268  30
   5   5   8 44.6838 35.8710  37
  -5  -5  -8 69.9398 51.9904  56
  -5   5  -8-41.0983 38.7016  30
  -5  -6   8 1786.65 132.650  47
   5   6  -8 1825.88 134.430  41
  -5  -6   7 197.202 56.9129  49
  -5  -6   7 208.199 62.8085  47
   5   6  -7 135.880 54.8849  41
  -5   6   7 274.220 63.5953  40
   5   6  -7 163.712 53.3869  31
  -5  -6   6 699.722 97.7734  49
  -5  -6   6 723.795 105.724  47
   5   6  -6 892.659 112.748  41
  -5   6   6 932.265 123.790  40
   5   6  -6 815.198 117.656  31
  -5  -6   5 1363.59 136.368  49
  -5  -6   5 1554.17 162.271  47
   5   6  -5 1258.16 135.855  41
  -5   6   5 1479.68 167.455  40
   5   6  -5 1539.56 165.402  31
  -5  -6   4 1617.37 167.802  47
   5   6  -4 1807.07 189.896  31
  -5  -6   4 1590.96 151.126  42
  -5   6   4 1900.68 194.662  40
  -5  -6   3 2011.65 190.346  47
   5   6  -3 2389.95 221.391  31
  -5  -6   3 2083.86 184.787  42
  -5   6   3 2317.04 219.236  40
  -5  -6   2 4644.63 286.478  47
  -5  -6   2 5192.09 299.535  42
   5   6  -2 5125.13 320.052  31
  -5   6   2 5425.01 328.048  40
  -5  -6   1 2882.51 226.381  47
   5   6  -1 3026.13 198.212  45
   5   6  -1 2901.20 238.064  31
  -5  -6   1 2956.91 233.099  42
  -5   6   1 3010.22 242.181  40
  -5  -6   0 8197.99 363.083  47
   5   6   0 9019.04 344.921  45
  -5  -6   0 8763.23 400.900  42
  -5   6   0 8549.26 388.442  40
   5   6   0 8497.62 383.129  31
   5   6   1 620.431 99.1312  45
  -5  -6  -1 676.926 118.861  42
  -5   6  -1 703.434 110.500  40
   5   6   2 881.567 112.393  45
  -5  -6  -2 994.272 129.736  56
  -5  -6  -2 729.680 118.040  42
  -5   6  -2 639.222 107.704  30
   5   6   3 1544.43 138.719  45
  -5  -6  -3 1746.68 166.601  56
  -5  -6  -3 1456.88 151.673  42
  -5   6  -3 1331.36 142.978  30
   5   6   4 941.082 102.744  45
  -5  -6  -4 809.295 102.572  42
  -5  -6  -4 948.650 122.667  56
  -5   6  -4 1023.65 118.231  30
   5   6   5 934.961 92.1734  45
  -5  -6  -5 1094.93 117.796  56
  -5   6  -5 879.535 103.207  30
   6   0 -15 4654.36 207.134  39
  -6   0  14 8988.74 346.397  43
   6   0 -14 8930.36 344.811  39
  -6   0  13 135.959 69.1021  47
  -6   0  13 123.952 53.9825  43
   6   0 -13 116.586 63.7897  39
  -6   0  12 13460.7 537.581  47
  -6   0  12 12699.5 513.390  43
   6   0 -12 14698.0 515.238  39
   6   0 -12 14187.6 432.593  50
  -6   0  11 1974.91 225.544  47
  -6   0  11 1966.70 206.770  26
   6   0 -11 2372.95 213.911  39
   6   0 -11 2131.26 184.369  50
  -6   0  10 11104.7 526.737  47
  -6   0  10 11619.2 495.731  26
   6   0 -10 9837.35 438.510  21
   6   0 -10 10931.1 458.855  39
   6   0 -10 11532.1 432.246  50
  -6   0   9 269.063 95.3626  47
  -6   0   9 171.306 78.7452  42
  -6   0   9-55.5650 50.6837  26
   6   0  -9 126.507 76.2956  21
   6   0  -9 275.803 80.8979  39
   6   0  -9 54.9296 48.4834  50
  -6   0   8 685.091 127.693  47
  -6   0   8 668.041 122.305  42
  -6   0   8 492.210 104.601  26
   6   0  -8 619.137 111.432  21
   6   0  -8 682.867 114.084  39
  -6   0   8 674.058 105.990  52
   6   0  -8 729.793 113.876  50
  -6   0   7 65.5365 52.8973  26
   6   0  -7 60.2969 53.9623  21
  -6   0   6-30.5963 31.1166  26
   6   0  -6-1.44225 51.9773  21
   6   0  -5 203.183 68.3636  22
  -6   0   5 415.099 84.3991  26
   6   0  -5 235.871 79.6528  21
   6   0  -5 328.653 70.9200  10
  -6   0   5 256.511 73.3224  23
   6   0  -4 9583.69 371.168  10
  -6   0   4 9058.95 359.658  26
   6   0  -4 9312.88 406.507  21
  -6   0   4 8607.72 379.470  23
   6   0  -4 9683.83 389.954  22
  -6   0   3 2292.84 176.313  26
   6   0  -3 2515.96 204.503  21
   6   0  -3 2130.12 182.968  10
  -6   0   3 1730.87 168.214  23
   6   0  -3 2006.90 180.434  22
  -6   0   2 11428.4 416.367  23
   6   0  -2 12576.0 439.161  21
   6   0  -2 11878.9 439.721  10
   6   0  -2 11386.7 387.568  13
   6   0  -2 12867.6 465.786  22
   6   0  -1 4636.17 259.560  21
   6   0  -1 4168.88 268.272  10
   6   0  -1 4368.56 239.418  13
  -6   0   1 3998.38 244.453  23
   6   0  -1 4706.47 291.876  22
   6   0   0 216.817 63.9101  27
   6   0   0 154.131 77.2297  22
   6   0   0 42.7056 38.1227  13
  -6   0   0 226.851 65.0159  23
   6   0   1 337.333 82.5717  27
   6   0   1 369.735 95.7552  22
   6   0   1 275.696 67.5905  13
  -6   0  -1 310.330 78.1455  23
   6   0   2 55072.3 967.549  27
   6   0   2 57094.3 1031.49  22
   6   0   3 115.708 58.2063  27
   6   0   3 76.4544 62.0854  22
  -6   0  -3 22.7446 43.7685  23
   6   0   4 5082.95 293.592  27
  -6   0  -4 4647.20 289.321  24
  -6   0  -4 4807.41 338.374  57
  -6   0  -4 4647.73 261.189  23
   6   0   4 5376.15 381.562  55
   6   0   4 4952.67 294.836  22
   6   0   5 3998.91 265.387  27
  -6   0  -5 3911.86 275.257  24
  -6   0  -5 3965.11 307.265  35
  -6   0  -5 4092.42 315.438  57
   6   0   5 3573.52 321.321  55
  -6   0  -5 4083.16 248.196  23
   6   0   5 3979.54 262.486  22
   6   0   6 9323.19 405.276  27
  -6   0  -6 9748.74 440.920  24
  -6   0  -6 8744.18 464.957  35
  -6   0  -6 9655.44 485.875  57
   6   0   6 9652.58 526.691  55
   6   0   6 9665.57 510.675  51
   6   0   6 10164.1 403.775  22
  -6   0  -7 9080.25 473.413  35
  -6   0  -7 10302.6 454.132  24
  -6   0  -7 9882.01 482.856  57
   6   0   7 9942.39 528.621  55
   6   0   7 10437.5 530.324  51
  -6   0  -8 6332.29 368.909  57
  -6   0  -8 5999.73 372.815  35
  -6   0  -8 6477.27 351.937  24
   6   0   8 5777.20 387.015  55
   6   0   8 6443.79 409.324  51
  -6   0  -9 13956.9 532.076  35
  -6   0  -9 12712.6 481.212  57
   6   0   9 12644.8 527.272  55
   6   0   9 13436.8 559.679  51
  -6   0 -10 2147.19 188.274  35
   6   0  10 1911.55 182.891  55
  -6   0 -10 1909.90 168.946  57
   6   0  10 1842.38 190.364  51
  -6   0 -11 3588.29 212.270  35
   6   0  11 3004.27 186.053  55
  -6   0 -11 2971.55 168.180  57
   6   0  11 3176.59 214.559  51
  -6  -1  14 2471.78 173.492  47
  -6   1  14 2187.45 164.735  43
  -6  -1  14 2157.40 167.520  43
   6   1 -14 1999.04 155.367  39
   6  -1 -14 2361.02 176.067  39
  -6   1  13 3238.69 241.670  47
  -6  -1  13 3246.76 236.042  47
  -6   1  13 2875.65 221.262  43
  -6  -1  13 3028.85 232.722  43
   6   1 -13 2671.02 202.047  39
   6  -1 -13 3122.14 223.134  39
   6   1 -13 3032.28 191.514  50
  -6   1  12 7162.46 389.308  47
  -6  -1  12 7101.08 378.657  47
  -6   1  12 6660.76 361.428  43
  -6  -1  12 6659.51 372.597  43
   6   1 -12 6316.05 333.579  39
   6   1 -12 7275.81 322.798  50
  -6   1  11 5591.32 366.964  47
  -6  -1  11 5887.12 369.609  47
  -6  -1  11 5672.06 361.008  43
  -6   1  11 5652.39 346.825  26
   6   1 -11 4993.31 302.413  39
   6  -1 -11 5577.02 328.077  39
  -6   1  11 6106.46 286.040  52
   6   1 -11 5710.86 302.490  50
  -6   1  10 20535.2 716.353  47
  -6  -1  10 20351.6 709.841  47
  -6   1  10 22178.6 694.807  26
   6   1 -10 20554.9 614.845  39
   6  -1 -10 21103.9 638.696  39
  -6   1  10 20069.5 551.702  52
   6   1 -10 21172.0 594.240  50
  -6   1   9 24112.7 779.468  47
  -6  -1   9 25129.0 790.221  47
  -6   1   9 23661.3 713.084  26
   6  -1  -9 21537.2 671.795  21
   6   1  -9 24652.3 659.114  39
   6  -1  -9 22214.4 653.934  39
  -6   1   9 22834.3 602.479  52
   6   1  -9 23716.1 636.114  50
   6  -1  -9 20668.4 571.792  50
  -6  -1   8 1098.41 169.333  47
  -6   1   8 1108.13 165.649  47
  -6  -1   8 1452.77 177.634  42
  -6   1   8 1359.74 173.660  26
   6  -1  -8 901.130 142.930  21
   6  -1  -8 1095.22 140.804  39
  -6  -1   8 1239.00 164.934  23
  -6   1   8 1142.86 181.034  30
  -6   1   8 1079.66 136.759  52
   6   1  -8 1116.82 140.249  50
   6  -1  -8 974.797 127.133  50
  -6   1   7 2675.78 250.871  47
  -6  -1   7 2286.94 234.806  47
  -6   1   7 2173.24 231.249  42
  -6  -1   7 2436.86 232.532  42
  -6   1   7 2415.94 218.890  26
   6  -1  -7 2038.43 209.190  21
   6   1  -7 1968.51 207.231  21
  -6  -1   7 2467.54 231.716  23
  -6   1   7 2459.39 254.879  30
  -6   1   7 1854.56 179.261  52
   6   1  -7 2197.17 194.588  50
   6  -1  -7 2245.09 193.979  50
  -6   1   6 41352.1 862.146  26
   6  -1  -6 39451.4 893.705  21
   6   1  -6 37475.0 869.245  21
  -6  -1   6 39216.7 899.882  23
   6  -1  -6 36404.7 791.150  22
   6  -1  -5 4734.00 260.396   9
  -6   1   5 4115.47 265.598  26
   6  -1  -5 4559.93 294.391  21
   6   1  -5 4513.45 300.830  21
  -6  -1   5 4694.01 306.482  23
  -6   1   5 4815.89 262.453  23
   6  -1  -5 4497.12 280.074  22
   6   1  -4 2293.40 186.069  10
   6  -1  -4 2636.87 219.221  21
  -6   1   4 2631.11 205.885  26
  -6  -1   4 2154.10 206.674  23
  -6   1   4 2324.65 188.137  23
   6  -1  -4 2368.74 201.164  22
   6  -1  -4 2573.97 191.495   9
  -6   1   3 2122.19 176.725  23
   6   1  -3 1744.85 165.419  10
   6  -1  -3 2092.39 188.729  21
  -6   1   3 1745.76 167.200  26
   6  -1  -3 1847.84 171.553  10
   6  -1  -3 1782.14 172.221  13
  -6  -1   3 1611.34 173.701  23
   6  -1  -3 2077.25 186.986  22
   6   1  -3 1349.21 151.339  22
   6   1  -2 1357.56 154.582  10
   6  -1  -2 1005.87 131.593  10
   6  -1  -2 1170.93 138.267  13
  -6  -1   2 1022.27 138.103  23
  -6   1   2 1040.31 121.946  23
   6  -1  -2 1361.48 156.336  22
   6   1  -2 976.579 134.619  22
   6  -1  -1 52.7290 46.9459  22
   6   1  -1 100.260 54.6673  22
   6   1  -1 179.695 65.4090  10
   6  -1  -1 110.558 54.4471  13
  -6  -1   1-6.69006 36.1607  23
  -6   1   1 128.048 58.0460  23
   6   1   0 6213.41 329.512  10
   6   1   0 7152.38 334.791  20
   6  -1   0 6367.39 320.902  13
  -6  -1   0 6425.30 314.997  23
  -6   1   0 7404.38 326.135  23
   6  -1   0 6697.12 348.014  22
   6   1   0 6411.24 328.274  22
   6  -1   1 52400.4 967.267  27
   6   1   1 56535.6 1020.97  10
   6  -1   1 52785.4 927.738  13
  -6  -1  -1 57448.5 922.098  23
  -6   1  -1 58794.0 910.974  23
   6  -1   1 53004.0 1012.90  22
   6   1   1 56644.4 969.206  22
   6  -1   2 6617.43 354.483  27
   6   1   2 6049.55 342.092  10
  -6   1  -2 6513.71 307.428  23
  -6  -1  -2 5903.39 288.689  23
   6  -1   2 6244.67 356.567  22
   6   1   2 6608.15 333.227  22
   6  -1   3 28149.6 751.999  27
   6   1   3 28176.1 739.527  10
  -6  -1  -3 26473.8 692.351  24
  -6  -1  -3 30226.7 642.483  23
  -6   1  -3 31148.7 687.247  23
   6  -1   3 28729.5 739.771  22
   6   1   3 29178.3 697.909  22
   6  -1   4 6502.92 363.167  27
   6   1   4 5911.84 293.963  27
   6  -1   4 6454.91 330.788  26
   6   1   4 6435.37 411.987  55
  -6  -1  -4 6432.76 403.215  56
   6   1   4 5635.58 336.351  10
  -6  -1  -4 6375.24 350.086  24
  -6   1  -4 5528.58 370.229  35
  -6   1  -4 5956.73 373.946  57
  -6  -1  -4 6416.62 397.586  57
  -6   1  -4 6097.71 312.682  23
   6  -1   4 6528.65 347.481  22
   6   1   4 5950.37 317.284  22
   6  -1   5 16425.1 564.515  27
   6  -1   5 16864.3 532.541  26
  -6  -1  -5 15886.2 565.227  24
  -6   1  -5 16088.7 635.239  35
  -6   1  -5 16850.0 552.586  24
  -6  -1  -5 15594.0 617.879  56
   6   1   5 16844.0 672.387  55
  -6  -1  -5 15204.6 625.308  57
  -6   1  -5 16643.9 624.040  57
   6   1   5 17509.8 670.443  51
   6  -1   5 17349.9 538.754  22
   6   1   5 16493.3 526.509  22
   6  -1   6 166.772 68.4621  27
  -6   1  -6 128.885 61.1636  57
   6   1   6 184.450 64.5668  22
   6  -1   6 227.421 67.0468  26
  -6   1  -6 192.249 77.2584  35
  -6  -1  -6 178.419 67.0727  24
  -6   1  -6 59.3087 54.8552  24
  -6  -1  -6 292.645 98.4232  57
   6   1   6 125.670 82.6303  55
   6  -1   6-54.6458 81.6043  55
   6   1   6 18.5889 62.6388  51
   6   1   7 19598.9 548.444  22
   6  -1   7 20131.6 600.398  27
   6  -1   7 19557.2 558.003  26
  -6   1  -7 18280.1 630.190  57
  -6  -1  -7 19257.5 625.852  24
  -6   1  -7 18359.9 673.069  35
  -6   1  -7 19214.9 610.430  24
  -6  -1  -7 18968.4 678.695  57
   6   1   7 18680.7 691.501  55
   6  -1   7 18730.0 727.699  55
   6   1   7 17842.1 694.203  51
   6  -1   7 18317.1 691.261  51
  -6   1  -8 4623.37 329.405  35
  -6  -1  -8 5145.77 327.584  35
  -6   1  -8 5172.46 318.468  57
  -6  -1  -8 5296.45 345.576  57
   6   1   8 4888.98 337.396  55
   6  -1   8 4913.81 362.286  55
   6   1   8 4839.01 349.656  51
   6  -1   8 5004.58 353.935  51
  -6  -1  -9 32.1259 59.1744  57
  -6   1  -9 19.0510 45.6791  57
  -6   1  -9 14.2392 48.2745  35
  -6  -1  -9 60.7827 54.6369  35
   6   1   9 95.1826 60.4480  55
   6  -1   9 135.148 78.8701  55
   6   1   9 79.7579 67.2376  51
   6  -1   9 41.4904 55.8008  51
  -6  -1 -10 2644.59 200.950  57
  -6   1 -10 2583.60 208.940  35
  -6  -1 -10 2725.37 197.653  35
   6   1  10 2583.65 194.645  55
   6  -1  10 2490.19 213.363  55
   6   1  10 2477.54 215.110  51
   6  -1  10 2648.88 220.740  51
   6  -1  11 1382.03 116.909  41
  -6   1 -11 2139.90 162.520  35
  -6  -1 -11 1923.28 141.046  35
  -6  -1 -11 1933.00 143.586  57
   6  -1  11 1814.65 149.340  55
   6   1  11 2037.52 165.938  51
   6  -1  11 1957.55 161.902  51
  -6  -2  14 581.275 85.0664  43
   6  -2 -14 590.420 83.8019  39
  -6  -2  13 1460.44 146.240  47
  -6  -2  13 1186.53 135.673  43
   6  -2 -13 1341.11 139.703  39
   6  -2 -13 969.044 120.587  38
  -6   2  13 1284.71 107.284  52
   6   2 -13 1232.82 121.639  50
  -6  -2  12 3782.43 266.038  47
  -6  -2  12 3349.47 251.996  43
   6  -2 -12 4237.21 261.138  39
   6  -2 -12 3508.84 247.982  38
  -6   2  12 3942.77 212.794  52
   6   2 -12 3522.09 221.979  50
  -6   2  11 4387.01 318.918  47
  -6  -2  11 4920.69 325.472  47
  -6  -2  11 4654.85 318.737  43
   6  -2 -11 4682.03 293.029  39
   6  -2 -11 4674.49 305.291  38
  -6   2  11 4931.05 258.548  52
   6   2 -11 4959.84 276.882  50
  -6   2  10 3984.42 315.355  47
  -6  -2  10 4198.32 317.533  47
  -6   2  10 4093.34 297.196  26
   6  -2 -10 3250.69 259.390  21
   6  -2 -10 3778.37 269.942  39
  -6  -2  10 3209.61 274.140  23
  -6   2  10 3848.46 241.883  52
   6   2 -10 3926.22 256.790  50
  -6   2   9 1792.44 221.621  47
  -6  -2   9 1422.44 193.388  47
  -6   2   9 1952.08 208.467  26
   6  -2  -9 1602.73 189.091  21
   6   2  -9 1459.52 170.540  41
   6   2  -9 1673.96 186.211  20
   6  -2  -9 1758.81 187.583  39
  -6  -2   9 1521.73 193.481  23
  -6   2   9 1751.37 229.305  30
  -6   2   9 1865.20 176.963  52
   6   2  -9 1816.92 179.607  50
  -6   2   8 4067.31 320.577  47
  -6  -2   8 4610.36 339.178  47
  -6  -2   8 4050.91 293.288  42
   6  -2  -8 3843.63 297.746  21
  -6   2   8 4464.21 307.310  26
   6   2  -8 4383.99 290.397  41
  -6   2   8 4569.14 359.493  30
   6   2  -8 3858.54 291.555  20
   6  -2  -8 4422.74 292.302  39
  -6  -2   8 4156.42 328.008  23
  -6   2   8 4130.94 264.988  52
   6   2  -8 4302.59 273.836  50
  -6   2   7 2909.59 268.732  47
  -6  -2   7 2743.50 261.603  47
  -6  -2   7 2790.58 248.140  42
   6  -2  -7 2682.12 245.929  21
  -6   2   7 2589.71 232.628  26
   6   2  -7 2754.94 231.156  41
   6   2  -7 2619.97 243.779  20
   6  -2  -7 2604.97 218.408   9
  -6  -2   7 2673.62 263.362  23
  -6   2   7 2657.34 273.196  30
  -6   2   7 2507.54 206.617  52
   6   2  -7 3031.95 226.746  50
  -6   2   6 35178.1 892.718  47
  -6  -2   6 36019.9 920.616  47
  -6  -2   6 37628.7 921.100  42
   6  -2  -6 35919.5 876.230  21
  -6   2   6 38714.0 861.638  26
   6   2  -6 35000.9 804.926  41
   6   2  -6 36287.0 895.124  20
   6  -2  -6 34592.0 774.991   9
  -6  -2   6 36192.6 937.849  23
  -6   2   6 33323.7 731.714  52
   6   2  -6 35025.0 754.525  50
  -6   2   6 33950.7 945.072  30
   6  -2  -5 12771.0 513.234  21
  -6   2   5 12011.9 470.693  26
   6   2  -5 12768.4 525.419  20
  -6  -2   5 13156.1 553.137  23
   6  -2  -5 12183.6 461.611   9
   6  -2  -4 9071.38 420.141  21
  -6   2   4 10395.7 429.597  26
   6   2  -4 9084.61 439.035  20
  -6  -2   4 9504.39 453.670  23
   6  -2  -4 9563.62 399.511   9
   6  -2  -4 9401.41 415.503  22
   6  -2  -3 3014.60 232.189  21
   6   2  -3 3131.00 256.327  20
   6  -2  -3 3205.06 248.497  13
  -6  -2   3 2911.69 245.036  23
  -6   2   3 3279.44 210.949  23
   6  -2  -3 2663.30 224.670  22
   6   2  -2 3927.56 256.369  10
  -6   2   2 4615.64 253.537  23
   6  -2  -2 4451.35 273.055  21
   6   2  -2 3940.65 272.094  20
   6  -2  -2 4056.02 275.788  13
  -6  -2   2 3968.21 278.124  23
   6  -2  -2 4231.79 279.403  22
   6   2  -1 4346.32 273.144  10
   6   2  -1 3482.80 246.112  20
   6  -2  -1 3954.23 275.274  13
  -6  -2   1 3780.72 263.974  23
  -6   2   1 4257.09 246.280  23
   6  -2  -1 4038.49 270.196  22
   6   2  -1 3875.17 238.232  22
  -6  -2   0 12181.8 450.373  23
   6   2   0 12572.9 466.747  10
   6   2   0 12146.6 438.989  20
   6  -2   0 11976.9 477.864  13
  -6   2   0 13035.9 438.330  23
   6  -2   0 12435.3 476.253  22
   6   2   0 11477.4 418.050  22
   6   2   1 2552.57 212.725  10
   6   2   1 2494.95 194.100  20
   6  -2   1 2459.83 224.056  13
  -6  -2  -1 2075.89 186.470  23
  -6   2  -1 2728.49 207.905  23
   6  -2   1 2470.70 219.286  22
   6   2   1 2459.51 196.361  22
   6  -2   2 17770.2 607.971  27
   6   2   2 16343.8 541.814  10
  -6  -2  -2 15358.3 554.560  24
  -6  -2  -2 15829.8 478.687  23
  -6   2  -2 18504.1 545.996  23
   6  -2   2 17491.3 592.151  22
   6   2   2 16753.8 516.841  22
   6  -2   3 12143.9 518.702  27
  -6   2  -3 12676.2 534.536  57
  -6  -2  -3 12814.3 603.683  56
   6  -2   3 10863.0 466.280  22
   6   2   3 11703.2 491.936  41
  -6  -2  -3 11453.8 489.455  24
  -6   2  -3 10933.2 523.844  35
  -6  -2  -3 12300.6 534.972  57
  -6   2  -3 11331.0 551.208  30
   6   2   3 12278.9 547.220  55
   6   2   3 12363.4 448.987  22
   6  -2   4 9572.82 465.617  27
   6  -2   4 9860.01 435.233  26
   6   2   4 9162.62 436.167  41
  -6  -2  -4 8764.80 434.721  24
  -6   2  -4 9335.08 487.168  35
  -6   2  -4 9500.79 466.620  57
  -6  -2  -4 8339.27 462.963  57
   6   2   4 9881.38 500.729  55
  -6   2  -4 9290.50 506.502  30
  -6  -2  -4 9376.60 513.887  56
   6   2   4 10033.7 495.637  51
   6   2   4 9572.76 399.983  22
   6   2   5 11095.4 430.638  22
   6  -2   5 12041.5 500.515  27
   6  -2   5 12279.1 474.662  26
  -6  -2  -5 11325.7 555.916  56
   6   2   5 10228.6 454.398  41
  -6  -2  -5 11201.3 493.553  24
  -6   2  -5 10580.1 523.084  35
  -6   2  -5 10667.5 488.923  57
  -6  -2  -5 11297.5 542.814  57
   6   2   5 10841.4 526.145  55
   6   2   5 11038.8 533.992  51
  -6   2  -5 10271.2 531.469  30
   6   2   6 35834.1 761.513  22
   6  -2   6 36561.9 833.560  27
   6  -2   6 35752.3 797.067  26
  -6  -2  -6 35418.9 943.027  56
  -6   2  -6 35388.7 863.309  57
  -6  -2  -6 34072.8 853.023  24
  -6   2  -6 33151.6 915.846  35
  -6  -2  -6 33361.3 922.764  57
   6   2   6 34852.6 917.610  55
  -6   2  -6 34340.6 955.747  30
   6   2   6 34984.5 956.594  51
   6   2   7 4010.84 249.315  22
   6  -2   7 4452.97 281.030  27
   6  -2   7 4213.55 266.395  26
  -6  -2  -7 3764.57 278.721  24
  -6   2  -7 3685.18 297.735  35
  -6   2  -7 3758.99 267.910  57
  -6  -2  -7 3514.26 296.655  57
   6   2   7 3381.03 273.968  55
  -6   2  -7 3768.83 307.528  30
   6   2   7 4346.48 334.012  51
  -6  -2  -7 3607.02 282.097  56
  -6   2  -8 2581.52 237.006  35
   6   2   8 2341.54 214.395  55
  -6  -2  -8 2387.65 233.293  57
  -6   2  -8 2813.97 246.042  30
   6   2   8 2511.41 245.480  51
   6  -2   8 2860.88 255.159  51
  -6   2  -9 1020.91 143.943  35
  -6  -2  -9 890.603 128.303  57
   6   2   9 948.869 128.739  55
   6  -2   9 991.730 149.979  55
   6   2   9 871.322 132.561  51
   6  -2   9 899.763 134.054  51
  -6   2 -10 1545.84 148.722  35
  -6  -2 -10 1605.04 152.882  57
   6  -2  10 1414.81 151.567  55
   6   2  10 1761.04 167.653  51
   6  -2  10 1693.91 158.524  51
  -6   2 -11 645.219 82.2749  35
  -6  -2 -11 632.308 82.4582  57
   6  -2  11 575.521 78.8130  55
   6   2  11 693.854 90.9735  51
   6   3 -13 830.153 118.468  48
  -6  -3  13 581.256 80.0255  47
  -6  -3  13 550.151 79.9692  43
   6  -3 -13 526.231 88.1973  38
   6  -3 -13 554.616 90.0679  36
  -6   3  13 617.274 71.1970  52
  -6  -3  12-29.5745 41.9612  47
  -6  -3  12-19.6193 43.9791  43
   6  -3 -12-3.95538 35.4329  39
   6  -3 -12 18.4784 49.1813  38
   6  -3 -12-7.35685 55.1969  36
  -6   3  12 4.53220 34.4118  52
   6   3 -12-20.6824 45.0755  50
  -6  -3  11 629.890 114.900  47
   6   3 -11 627.155 104.398  41
   6  -3 -11 566.404 99.9358  39
   6  -3 -11 521.130 109.224  38
  -6   3  11 503.076 87.5998  52
   6   3 -11 566.774 94.8440  50
  -6  -3  10 5898.46 348.229  47
   6   3 -10 5687.54 314.241  41
   6  -3 -10 6944.83 335.672  39
  -6   3  10 6417.27 296.799  52
   6   3 -10 6452.57 311.928  50
  -6  -3   9 10262.9 486.498  47
   6  -3  -9 9446.52 452.784  21
   6   3  -9 9601.81 432.358  41
  -6   3   9 11009.4 465.630  26
   6  -3  -9 11234.6 442.289  39
  -6  -3   9 10496.7 514.022  23
  -6   3   9 10232.6 510.280  30
  -6   3   9 10570.7 394.522  52
   6   3  -9 10391.1 408.052  50
  -6  -3   8 3067.45 271.316  47
   6  -3  -8 2686.16 251.190  21
  -6   3   8 3004.40 247.968  26
   6   3  -8 3034.46 251.957  41
   6  -3  -8 3037.56 241.144  39
   6   3  -8 2783.65 227.801  20
  -6  -3   8 3007.09 284.566  23
  -6   3   8 3176.68 294.796  30
  -6   3   8 3096.27 221.622  52
   6   3  -8 3172.19 232.546  50
  -6  -3   7 17458.6 660.326  47
  -6  -3   7 16461.8 590.242  42
   6  -3  -7 16531.8 614.730  21
  -6   3   7 18457.5 609.595  26
   6   3  -7 16280.4 576.131  41
   6   3  -7 16619.9 574.686  20
  -6  -3   7 17503.4 693.858  23
  -6   3   7 16222.6 670.017  30
  -6   3   7 16485.8 515.824  52
   6   3  -7 18339.1 547.291  50
  -6  -3   6 1867.35 220.818  47
  -6   3   6 2023.24 242.513  30
  -6  -3   6 1872.82 212.344  42
   6  -3  -6 1794.21 206.545  21
   6   3  -6 1885.45 201.882  41
  -6   3   6 2207.14 213.407  26
   6   3  -6 2120.90 214.962  20
   6  -3  -6 1990.82 202.174   9
  -6  -3   6 1825.98 226.889  23
  -6   3   6 2082.98 186.549  52
   6   3  -6 1987.82 182.842  50
  -6  -3   5 3839.17 310.116  47
  -6   3   5 3235.51 299.744  30
  -6  -3   5 3355.33 286.005  42
   6  -3  -5 3518.93 281.343  21
   6   3  -5 3256.86 263.282  41
   6   3  -5 3516.46 273.041  20
   6  -3  -5 3231.76 256.126   9
  -6  -3   5 3622.32 303.513  23
  -6   3   5 3288.96 228.973  52
  -6  -3   4 160.545 65.1560  47
  -6  -3   4 111.381 55.8882  42
   6   3  -4 83.7368 58.8853  41
   6  -3  -4 87.7662 64.2074  21
   6   3  -4 67.5674 65.7383  20
  -6  -3   4 108.842 67.0988  23
  -6   3   4-24.7792 34.3446  30
   6  -3  -4 18.9487 52.1022   9
  -6   3   4 73.9609 46.4161  52
  -6  -3   3 9297.72 462.076  47
  -6  -3   3 9862.12 496.938  42
   6  -3  -3 9908.74 432.206  21
   6   3  -3 10231.0 449.389  41
   6   3  -3 9086.08 422.529  20
   6  -3  -3 9624.89 452.679  13
  -6  -3   3 9274.21 459.968  23
  -6   3   3 8453.49 480.664  30
   6  -3  -3 10420.6 448.220   9
   6  -3  -3 9243.33 422.614  22
  -6   3   3 9160.03 370.795  52
  -6  -3   2 1562.69 199.611  42
   6   3  -2 1324.31 163.609  41
   6   3  -2 1485.68 170.070  20
   6  -3  -2 1414.60 181.393  13
  -6  -3   2 1359.36 172.681  23
  -6   3   2 1531.91 205.503  30
   6  -3  -2 1535.31 177.516  22
  -6  -3   1 5499.81 377.140  42
   6   3  -1 5332.82 325.481  41
   6   3  -1 5968.57 331.737  20
   6  -3  -1 5933.62 361.120  13
  -6  -3   1 5498.87 328.356  23
  -6   3   1 5408.68 386.177  30
  -6   3   1 6194.67 354.333  53
   6  -3  -1 4947.42 308.105  22
  -6  -3   1 6093.39 399.263  56
  -6  -3   0 3866.85 313.440  42
   6   3   0 3793.06 273.868  41
  -6  -3   0 4027.21 302.036  24
   6  -3   0 4207.37 306.926  13
  -6   3   0 4216.18 310.421  57
  -6   3   0 4218.18 346.043  30
  -6   3   0 4819.24 308.476  53
   6  -3   0 4141.94 277.593  22
  -6  -3   0 3987.87 269.101  23
  -6  -3   0 4425.40 352.475  56
   6   3   0 4091.94 241.995  22
   6   3   1 808.819 116.570  22
  -6   3  -1 896.226 167.031  30
   6   3   1 744.163 137.227  55
  -6  -3  -1 592.704 124.588  42
   6   3   1 605.333 108.551  41
  -6  -3  -1 779.749 137.628  24
   6  -3   1 802.139 145.540  13
  -6  -3  -1 1032.47 180.425  56
  -6   3  -1 703.851 132.551  57
   6  -3   1 879.094 132.475  22
   6   3   2 4160.04 256.000  22
   6  -3   2 4985.90 338.211  27
  -6  -3  -2 4396.45 321.242  42
  -6   3  -2 4021.81 343.538  30
   6   3   2 4643.72 301.284  41
  -6  -3  -2 5069.20 346.240  24
   6  -3   2 4787.36 333.747  13
  -6   3  -2 4775.97 331.215  57
   6   3   2 5014.63 349.150  55
  -6  -3  -2 4421.86 373.327  56
   6  -3   3 513.003 122.012  27
   6   3   3 725.023 110.952  22
  -6  -3  -3 853.509 140.716  24
  -6   3  -3 533.172 113.000  57
  -6  -3  -3 565.169 146.731  56
   6   3   3 758.579 140.038  55
  -6   3  -3 553.842 136.988  30
   6   3   3 603.937 132.589  51
   6   3   4 3239.08 232.513  22
   6  -3   4 3114.96 259.830  27
   6  -3   4 3602.97 270.263  26
  -6  -3  -4 2946.14 263.201  24
  -6   3  -4 3245.74 288.715  35
  -6   3  -4 3542.62 275.880  57
   6   3   4 3118.97 276.842  55
  -6   3  -4 3528.42 321.771  30
  -6  -3  -4 3168.93 315.046  56
   6   3   4 3508.64 297.578  51
   6   3   5 5413.62 293.529  22
   6  -3   5 5471.55 333.165  27
   6  -3   5 5911.33 334.964  26
  -6  -3  -5 5302.35 390.828  56
  -6  -3  -5 4701.23 327.442  24
  -6   3  -5 4862.22 344.457  35
  -6   3  -5 5083.85 380.626  30
  -6  -3  -5 5085.19 348.388  57
   6   3   5 5637.37 362.389  55
   6   3   5 5391.69 371.551  51
   6   3   6 4860.52 269.181  22
   6   3   6 4656.52 268.972  45
   6  -3   6 5286.60 303.429  26
  -6   3  -6 4997.07 339.746  35
  -6  -3  -6 4361.00 317.337  57
   6   3   6 4876.11 320.555  55
  -6   3  -6 4551.34 345.534  30
   6   3   6 5351.45 364.484  51
  -6  -3  -6 4813.49 355.020  56
   6   3   7 2507.86 180.021  45
  -6   3  -7 2735.43 236.829  35
  -6   3  -7 2959.98 267.233  30
  -6  -3  -7 2968.74 253.634  57
  -6  -3  -7 2775.66 252.924  56
   6   3   7 2922.86 232.367  55
   6   3   7 2948.85 260.633  51
  -6  -3  -8 1335.86 155.618  56
  -6   3  -8 1367.14 157.740  35
  -6   3  -8 1383.24 167.731  30
  -6  -3  -8 1237.70 156.498  57
   6   3   8 1349.45 165.638  51
  -6   3  -9 488.626 85.3169  35
  -6  -3  -9 524.988 92.6341  57
   6  -3   9 450.802 92.3571  55
  -6   3  -9 390.489 86.5972  30
   6   3   9 495.662 99.8845  51
   6  -3  10 438.419 78.4395  55
   6   3  10 533.387 85.6167  51
  -6  -3 -10 445.227 74.6650  57
   6   4 -12 222.715 63.2047  48
   6  -4 -12 138.674 52.6396  38
   6  -4 -12 187.697 59.9952  36
  -6   4  12 165.794 40.4054  52
   6   4 -11 1142.38 142.803  48
  -6  -4  11 868.334 109.670  47
   6   4 -11 807.375 97.9401  41
   6  -4 -11 939.426 120.653  38
   6  -4 -11 1117.66 140.445  36
  -6   4  11 804.113 88.0605  52
  -6  -4  10 481.903 95.7914  47
   6   4 -10 351.380 88.9795  41
   6  -4 -10 445.848 98.8154  38
  -6   4  10 365.849 66.2594  52
  -6  -4   9 109.814 73.0873  47
   6   4  -9 109.005 61.5316  41
   6   4  -9 151.903 53.8730  50
  -6  -4   8 232.340 79.4815  47
   6   4  -8 329.149 87.7572  41
   6  -4  -8 373.392 86.6246  39
  -6   4   8 317.001 93.0995  30
  -6   4   8 258.215 67.8822  52
   6   4  -8 260.088 67.7270  50
  -6  -4   7 1562.31 191.069  47
   6   4  -7 1571.40 182.484  41
   6  -4  -7 1802.09 173.668  39
  -6   4   7 1397.02 141.575  52
  -6   4   7 1298.68 186.483  30
  -6  -4   6 2928.69 266.848  47
  -6  -4   6 3259.53 261.553  42
   6  -4  -6 3164.47 266.385  21
   6   4  -6 3576.45 272.256  41
  -6  -4   6 3301.24 290.080  23
  -6   4   6 3166.89 287.466  30
  -6   4   6 3346.35 215.265  52
  -6  -4   5 4320.46 324.375  47
  -6  -4   5 4298.42 312.537  42
   6  -4  -5 4185.25 306.535  21
   6   4  -5 4587.32 312.347  41
  -6   4   5 4325.15 340.134  30
  -6  -4   5 4693.84 344.921  23
  -6   4   5 4297.94 246.577  52
  -6  -4   4 113.357 76.4606  47
   6   4  -4-45.3240 48.8046  41
   6  -4  -4 69.0403 65.2304  21
  -6  -4   4 68.8515 66.5977  23
   6  -4  -4 72.9770 59.4879  22
  -6   4   4-81.4919 54.6577  30
  -6  -4   3 1158.62 173.483  47
  -6  -4   3 1361.87 189.297  42
   6   4  -3 1393.07 175.387  41
  -6  -4   3 1296.92 170.995  23
  -6   4   3 1485.97 203.180  30
   6  -4  -3 1350.31 163.527  22
  -6  -4   2 3929.89 304.243  47
   6  -4  -2 3755.94 270.643  22
   6   4  -2 4126.85 261.794  45
  -6  -4   2 4014.42 328.073  42
   6   4  -2 4180.83 291.205  41
  -6   4   2 4201.53 337.856  30
   6   4  -1 7838.61 370.550  45
  -6  -4   1 7493.13 447.774  42
   6   4  -1 8037.87 393.146  41
  -6   4   1 6891.69 444.170  30
   6  -4  -1 6919.17 364.124  22
   6   4   0 3469.70 251.144  45
  -6  -4   0 2662.21 271.473  42
   6   4   0 3382.86 255.673  41
  -6  -4   0 2975.75 277.655  24
  -6  -4   0 3554.72 308.980  56
  -6   4   0 3127.91 304.262  30
   6  -4   0 3072.59 241.465  22
   6  -4   1 5688.86 355.220  27
   6   4   1 4955.14 303.423  45
  -6  -4  -1 5018.49 360.925  42
  -6  -4  -1 5090.28 358.875  24
  -6  -4  -1 5069.29 381.853  56
  -6   4  -1 5352.06 395.958  30
   6  -4   2 586.082 122.617  27
   6   4   2 473.674 106.444  45
  -6  -4  -2 602.923 122.163  42
  -6  -4  -2 737.450 139.607  24
  -6   4  -2 892.510 164.031  30
  -6  -4  -2 687.240 150.623  56
   6   4   2 432.082 110.427  51
   6   4   3 2135.54 174.765  22
   6  -4   3 2082.78 215.989  27
   6  -4   3 1993.04 199.641  26
   6   4   3 1932.79 186.648  45
  -6  -4  -3 1791.91 199.493  42
  -6  -4  -3 1974.29 245.110  56
  -6  -4  -3 2279.30 235.215  24
  -6   4  -3 1981.52 247.645  30
   6   4   3 2136.95 229.804  51
   6   4   4 398.190 84.0440  45
  -6  -4  -4 342.624 112.170  56
  -6   4  -4 399.910 115.295  30
   6   4   4 213.254 83.1604  51
   6   4   5 1808.64 167.141  45
  -6  -4  -5 1968.40 233.028  56
  -6   4  -5 1768.68 216.800  30
   6   4   5 2331.82 229.237  51
   6   4   6 848.865 112.351  45
  -6  -4  -6 1074.39 164.230  56
  -6   4  -6 1130.39 163.126  30
   6   4   6 1055.83 149.412  51
   6   4   7 745.980 90.2200  45
  -6  -4  -7 938.368 116.081  57
  -6  -4  -7 880.937 131.582  56
   6   4   7 912.074 134.211  51
  -6   4  -7 948.708 137.308  30
  -6  -4  -8 2174.19 151.866  57
  -6  -4  -8 2156.30 166.393  56
  -6   4  -8 2363.59 185.420  30
   6   4   8 2346.86 182.793  51
  -6  -5  10 1859.54 130.379  47
   6   5 -10 1890.55 133.214  41
   6  -5 -10 2278.44 162.877  36
  -6  -5   9 1345.25 129.860  47
   6   5  -9 1239.69 126.321  41
   6  -5  -9 1596.67 142.630  38
  -6   5   9 1153.45 91.9011  52
  -6  -5   8 549.611 97.5334  47
   6   5  -8 528.541 95.1164  41
  -6   5   8 494.312 68.9108  52
  -6  -5   7 136.886 66.7752  47
   6   5  -7 102.165 61.2003  41
   6   5  -7 202.415 66.0210  31
  -6   5   7 220.053 71.7913  30
  -6  -5   6-7.05421 49.4591  47
  -6  -5   6 202.685 66.9076  42
   6   5  -6 57.5923 52.3885  41
  -6   5   6 118.369 59.7929  30
  -6  -5   5 882.871 139.379  47
  -6  -5   5 760.604 121.205  42
   6   5  -5 887.703 135.223  41
  -6   5   5 789.279 135.361  30
  -6  -5   4 114.568 70.1935  47
  -6  -5   4 119.198 65.7635  42
   6   5  -4 78.0941 60.5216  41
  -6   5   4 240.641 87.9024  30
  -6  -5   3 508.250 101.839  47
  -6  -5   3 462.430 108.595  42
   6   5  -3 324.916 85.4404  41
  -6   5   3 386.088 100.489  30
  -6  -5   2 370.395 88.6813  47
  -6  -5   2 413.020 103.773  42
   6   5  -2 578.059 99.6772  41
  -6   5   2 485.781 107.186  30
   6   5  -1 1846.53 170.639  45
  -6  -5   1 1808.57 206.796  42
  -6   5   1 2085.75 219.949  30
  -6   5   0 52.3725 52.4617  30
   6   5   0 97.7736 50.3682  45
  -6  -5   0 51.2485 59.2480  42
   6   5   1 1517.40 158.833  45
  -6  -5  -1 1536.88 187.503  42
  -6  -5  -1 1835.12 201.822  56
  -6   5  -1 1836.24 214.356  30
  -6   5  -2 963.998 153.945  30
   6   5   2 1077.78 135.159  45
  -6  -5  -2 815.243 136.896  42
  -6  -5  -2 942.497 148.387  56
   6   5   3 1017.16 127.281  45
  -6  -5  -3 1010.88 140.589  42
  -6  -5  -3 1066.30 159.243  56
  -6   5  -3 1073.03 158.322  30
   6   5   4 958.012 115.391  45
  -6  -5  -4 1088.19 127.131  42
  -6  -5  -4 1123.42 152.896  56
  -6   5  -4 1037.15 148.696  30
   6   5   5 119.052 46.2047  45
  -6  -5  -5 250.155 74.2276  56
  -6   5  -5 237.447 75.7164  30
   6   5   6 1191.85 104.559  45
  -6   5  -6 1377.39 139.596  30
  -6  -5  -6 1253.29 134.872  56
  -6  -6   6 255.800 57.3396  47
  -6   6   6 280.329 63.1530  40
   6   6  -6 266.587 59.8592  31
  -6  -6   5 38.2651 42.4649  47
   6   6  -5 98.7711 37.7939  41
  -6   6   5 44.7747 46.8916  40
   6   6  -5 148.337 54.3185  31
  -6  -6   4 53.4026 45.0774  47
  -6  -6   4 54.9091 38.7881  42
  -6   6   4 23.8355 59.7866  40
   6   6  -4 145.496 59.3668  31
  -6  -6   3 216.432 65.6473  47
  -6  -6   3 288.868 69.3711  42
  -6   6   3 246.137 73.2134  40
   6   6  -3 238.715 74.8650  31
  -6  -6   2 144.454 51.2839  47
  -6  -6   2 123.694 53.4567  42
  -6   6   2 209.656 62.7371  40
   6   6  -2 118.248 59.2879  31
   6   6  -1 1114.84 103.036  45
  -6  -6   1 1306.86 140.429  42
   6   6  -1 1117.36 131.033  31
  -6   6   1 1133.04 128.417  40
  -6   6   1 840.334 111.775  30
   6   6   0 1226.65 110.504  45
  -6  -6   0 1240.80 134.623  42
  -6   6   0 1185.16 127.805  40
  -6   6   0 1325.16 134.667  30
   6   6   0 1317.17 131.699  31
   6   6   1 72.3574 34.0357  45
  -6  -6  -1 123.146 52.8519  42
  -6   6  -1 171.442 54.2962  30
   6   6   2 9.73909 28.8487  45
  -6  -6  -2 55.6024 36.6352  42
  -6   6  -2 3.67078 21.9457  30
   6   6   3 32.5762 26.9739  45
  -7   0  14-0.43855 23.6877  47
   7   0 -14 8.05136 33.4481  39
  -7   0  13 3542.55 225.338  47
   7   0 -13 2699.96 186.634  39
  -7   0  12 408.790 102.547  47
   7   0 -12 297.686 79.6040  39
   7   0 -12 499.033 82.6025  50
  -7   0  11 1052.95 154.769  47
   7   0 -11 954.766 129.676  39
   7   0 -11 929.953 117.678  50
  -7   0  10 29404.9 838.487  47
   7   0 -10 29451.3 713.759  39
   7   0 -10 30982.5 688.969  50
  -7   0   9 4448.31 330.089  47
  -7   0   9 4117.49 288.938  26
   7   0  -9 3443.80 270.438  21
   7   0  -9 3974.36 268.906  39
  -7   0   9 4035.37 241.126  52
   7   0  -9 3699.25 251.610  50
  -7   0   8 12203.6 544.106  47
  -7   0   8 12865.4 557.557  42
  -7   0   8 13546.0 520.067  26
   7   0  -8 12617.5 525.442  21
   7   0  -8 12097.2 462.701  39
  -7   0   8 12450.0 440.759  52
   7   0  -8 11243.1 442.585  50
  -7   0   7 2777.27 255.486  47
  -7   0   7 2586.23 253.457  42
  -7   0   7 2509.19 221.856  26
   7   0  -7 2743.14 250.141  21
   7   0  -7 2499.92 207.786  39
   7   0  -7 2505.28 214.749  50
  -7   0   6 12494.2 531.250  47
   7   0  -6 12866.6 468.000  44
  -7   0   6 13123.1 564.324  42
  -7   0   6 13669.1 496.962  26
   7   0  -6 11911.8 515.101  21
  -7   0   6 12613.5 490.832  23
   7   0  -6 11966.5 459.361  50
   7   0  -5 2829.42 221.737  44
   7   0  -5 3832.71 248.837  10
  -7   0   5 3878.06 307.461  42
  -7   0   5 3412.90 243.198  26
   7   0  -5 2907.62 253.161  21
  -7   0   5 2764.89 236.393  53
  -7   0   5 3097.93 239.441  23
   7   0  -5 2876.59 235.404  22
   7   0  -5 3070.87 233.319  50
   7   0  -4 8971.28 388.701  44
  -7   0   4 9454.06 471.791  42
   7   0  -4 9541.23 406.664  10
   7   0  -4 9683.16 447.666  21
  -7   0   4 8975.57 406.575  23
  -7   0   4 8797.67 418.798  53
   7   0  -4 9167.30 429.841  22
   7   0  -4 8841.80 391.598  50
   7   0  -3 2750.99 224.731  10
   7   0  -3 2444.26 221.040  21
  -7   0   3 2618.81 216.096  23
   7   0  -3 2654.91 236.398  22
   7   0  -2 27828.5 733.076  10
   7   0  -2 26365.3 748.522  22
   7   0  -1 17217.9 589.900  10
  -7   0   1 18543.2 569.803  23
   7   0  -1 16636.0 601.983  22
  -7   0   0 1032.42 140.807  23
   7   0   0 1014.79 153.957  41
   7   0   0 1245.72 168.237  10
   7   0   0 1162.34 171.110  22
  -7   0   0 972.943 154.253  57
  -7   0  -1 114969. 1617.41  57
   7   0   1 114639. 1593.09  10
  -7   0  -1 118740. 1385.94  23
   7   0   1 115886. 1635.75  55
   7   0   1 118270. 1586.38  22
   7   0   2 12748.6 482.311  27
   7   0   2 12428.1 536.611  10
  -7   0  -2 12858.7 557.318  57
  -7   0  -2 13746.8 470.261  23
   7   0   2 12284.2 552.664  55
   7   0   2 12743.3 511.837  22
   7   0   3 951.313 133.962  27
   7   0   3 601.832 130.703  10
  -7   0  -3 948.889 163.126  57
  -7   0  -3 1112.72 137.253  23
   7   0   3 797.731 153.736  55
   7   0   3 900.406 136.748  22
   7   0   4 12820.4 469.546  27
  -7   0  -4 12234.4 530.129  35
  -7   0  -4 12479.6 559.462  57
   7   0   4 12555.9 586.525  55
  -7   0  -4 13313.1 457.264  23
   7   0   4 12839.1 483.127  22
   7   0   5 1468.77 161.269  27
  -7   0  -5 1150.46 172.989  35
  -7   0  -5 1265.13 185.778  57
   7   0   5 1167.31 181.876  55
   7   0   5 1269.40 149.234  22
   7   0   6 548.050 96.9132  22
  -7   0  -6 564.659 122.196  57
  -7   0  -6 500.657 117.416  35
   7   0   6 494.166 130.945  55
  -7   0  -7 13581.8 528.459  35
  -7   0  -7 14045.6 530.225  57
   7   0   7 13615.3 563.608  55
   7   0   8 65.1054 62.8481  55
   7   0   8 120.293 63.2711  41
  -7   0  -8-39.8320 50.3639  35
  -7   0  -8 62.8846 64.4994  57
   7   0   9 1138.63 122.216  41
  -7   0  -9 1329.25 139.241  35
  -7   0  -9 1248.39 130.573  57
   7   0   9 1182.84 137.934  55
   7   0   9 1055.38 120.640  51
  -7   0 -10 69.2986 35.0917  57
  -7   0 -10 43.7500 31.5113  35
   7   0  10 55.1374 36.1058  55
  -7   1  13 1070.49 129.138  47
  -7  -1  13 1084.73 122.747  47
   7   1 -13 843.985 97.3987  39
   7  -1 -13 1048.96 117.978  39
   7   1 -13 1075.13 104.840  50
  -7   1  12 1672.58 179.276  47
  -7  -1  12 1625.39 174.228  47
   7   1 -12 1479.08 143.898  39
   7  -1 -12 1701.80 162.065  39
  -7   1  12 1697.00 125.546  52
   7   1 -12 1687.98 145.218  50
  -7   1  11 584.612 125.718  47
  -7  -1  11 589.270 122.818  47
   7   1 -11 455.245 92.4275  39
   7  -1 -11 517.367 107.415  39
  -7   1  11 714.700 95.7251  52
   7   1 -11 656.670 105.778  50
  -7   1  10 517.414 118.516  47
  -7  -1  10 596.061 127.426  47
   7  -1 -10 530.068 107.681  39
  -7   1  10 690.096 108.310  52
   7  -1 -10 831.931 113.069  50
   7   1 -10 470.478 96.8757  50
  -7   1   9 10154.8 495.516  47
  -7  -1   9 10508.4 502.783  47
  -7  -1   9 10546.6 474.390  42
  -7   1   9 10912.5 476.646  26
   7  -1  -9 9235.22 439.608  21
   7  -1  -9 9164.70 413.905  39
  -7   1   9 10062.8 393.397  52
   7   1  -9 9926.04 405.280  50
   7  -1  -9 9744.28 388.601  50
  -7   1   8 375.918 100.139  47
  -7  -1   8 377.727 105.727  47
  -7  -1   8 559.298 118.621  42
  -7   1   8 457.445 109.579  26
   7  -1  -8 475.757 108.812  21
   7  -1  -8 538.529 109.363  39
  -7  -1   8 613.239 119.340  23
  -7   1   8 328.475 99.8807  30
  -7   1   8 416.160 94.7003  52
   7   1  -8 674.525 111.346  50
   7  -1  -8 453.236 94.5648  50
  -7   1   7 4446.03 327.096  47
  -7  -1   7 4919.28 346.358  47
  -7  -1   7 4861.75 343.422  42
  -7   1   7 5338.47 330.950  26
   7  -1  -7 5192.55 339.874  21
  -7  -1   7 4967.13 334.362  23
  -7   1   7 5039.79 366.674  30
  -7   1   7 4414.22 276.249  52
   7   1  -7 4408.71 279.329  50
   7  -1  -7 4458.76 281.052  50
  -7  -1   6 889.778 143.343  47
   7  -1  -6 834.559 123.607  44
   7  -1  -6 846.073 126.965  22
  -7   1   6 1049.36 174.893  42
  -7  -1   6 866.380 150.695  42
  -7   1   6 1210.10 156.482  26
   7  -1  -6 856.218 137.227  21
  -7  -1   6 960.113 152.876  23
  -7   1   6 881.597 148.384  30
  -7   1   6 1055.81 150.362  53
   7   1  -6 658.840 116.199  50
   7  -1  -6 751.130 117.581  50
   7   1  -5 2460.14 204.506  44
   7  -1  -5 2186.19 191.517  44
  -7   1   5 2184.24 233.229  42
  -7  -1   5 2331.89 245.195  42
  -7   1   5 2264.06 210.160  26
   7  -1  -5 2247.66 221.721  21
   7   1  -5 2183.51 202.278  41
  -7  -1   5 2322.11 227.016  23
  -7   1   5 2771.09 211.429  23
  -7   1   5 2185.86 215.153  53
   7  -1  -5 2260.32 211.377  22
  -7   1   5 2392.65 244.805  30
   7   1  -5 2226.18 195.921  50
   7  -1  -5 1992.75 194.585  50
   7   1  -4 11342.2 433.019  44
  -7   1   4 11283.6 516.380  30
   7  -1  -4 11074.8 435.293  44
   7   1  -4 10589.6 429.095  10
  -7   1   4 10639.0 503.794  42
  -7  -1   4 11000.6 516.133  42
   7  -1  -4 11133.8 471.813  21
   7   1  -4 11000.7 448.921  41
  -7  -1   4 11346.6 488.526  23
  -7   1   4 10666.2 468.445  53
  -7  -1   4 10583.3 450.633  53
  -7   1   4 11531.4 433.262  23
   7  -1  -4 11382.1 478.100  22
   7   1  -4 9935.82 410.170  50
   7   1  -3 24747.0 639.120  44
   7  -1  -3 25565.9 668.685  44
   7   1  -3 26078.9 684.116  10
  -7   1   3 25903.7 768.562  42
  -7  -1   3 27014.5 797.672  42
   7  -1  -3 27831.5 721.793  21
   7   1  -3 25478.1 693.225  41
   7  -1  -3 27091.6 702.354  10
  -7   1   3 25918.4 656.623  23
  -7   1   3 24034.8 707.656  53
  -7  -1   3 23890.2 690.700  23
   7  -1  -3 27360.4 748.749  22
   7   1  -3 24276.4 668.976  22
   7   1  -3 24556.9 637.162  50
  -7   1   3 24580.9 720.770  57
   7   1  -2 17772.1 540.989  44
  -7  -1   2 18275.8 647.656  42
   7   1  -2 18041.3 584.110  10
   7  -1  -2 18922.4 573.293  21
   7   1  -2 17000.1 577.344  41
   7   1  -2 18833.7 623.232  20
   7  -1  -2 17559.3 586.738  10
   7  -1  -2 16775.0 563.241  13
  -7   1   2 17689.3 618.304  57
  -7  -1   2 17263.8 568.361  23
  -7   1   2 17617.8 541.325  23
  -7   1   2 17984.3 614.755  53
   7  -1  -2 18800.2 630.626  22
   7   1  -2 17840.8 573.161  22
   7   1  -1 20353.6 582.970  44
  -7  -1   1 19149.3 648.850  42
   7   1  -1 19762.8 624.314  10
  -7   1   1 19802.6 663.025  57
   7   1  -1 19622.0 636.479  41
   7   1  -1 20927.8 628.650  20
   7  -1  -1 17668.5 610.632  10
   7  -1  -1 18515.6 589.808  13
  -7  -1   1 19513.0 590.563  23
  -7   1   1 19240.1 560.984  23
  -7   1   1 19535.2 644.942  53
  -7  -1   1 21005.4 749.946  56
   7  -1  -1 19948.8 657.413  22
   7   1  -1 19293.8 603.923  22
   7  -1   0 30885.7 781.929  27
  -7  -1   0 32503.7 941.848  56
   7   1   0 29003.5 699.005  44
   7   1   0 28665.4 764.653  10
   7   1   0 29218.8 788.995  41
   7  -1   0 24408.7 736.358  41
   7  -1   0 29360.9 811.466  10
   7  -1   0 26221.5 706.282  13
  -7   1   0 33445.6 876.379  57
  -7  -1   0 29495.3 710.578  23
  -7   1   0 32687.6 730.125  23
   7   1   0 31675.4 819.553  55
  -7   1   0 29733.9 791.258  53
   7  -1   0 29971.4 820.373  22
   7   1   0 31868.3 769.994  22
   7  -1   1 44628.0 963.161  27
   7   1   1 44407.7 992.597  41
   7   1   1 47126.4 990.022  10
  -7  -1  -1 51825.1 928.235  23
   7  -1   1 44783.8 927.208  13
  -7   1  -1 51281.1 1097.34  57
  -7  -1  -1 48302.2 1023.43  57
  -7   1  -1 53615.1 935.979  23
   7   1   1 50425.4 1072.57  55
  -7   1  -1 49726.9 1016.43  53
  -7  -1  -1 53795.1 1214.59  56
   7  -1   1 45757.1 1010.50  22
   7   1   1 49564.3 957.571  22
   7  -1   2 24380.0 717.621  27
   7   1   2 24411.8 747.607  41
   7   1   2 25373.6 733.622  10
  -7   1  -2 25435.0 783.145  35
   7  -1   2 22562.9 657.538  13
  -7   1  -2 25544.3 785.799  57
  -7  -1  -2 24875.4 761.005  57
  -7  -1  -2 24610.2 825.015  56
  -7  -1  -2 26543.0 641.411  23
  -7   1  -2 27547.9 678.557  23
   7   1   2 26235.1 800.475  55
   7  -1   2 25246.8 791.537  55
  -7   1  -2 24048.9 699.719  53
   7  -1   2 24199.2 723.998  22
   7   1   2 25127.9 683.154  22
   7  -1   3 52217.2 1032.10  27
   7  -1   3 48937.2 919.752  26
  -7  -1  -3 55619.1 916.613  23
  -7   1  -3 50640.6 1108.02  57
   7   1   3 49556.0 1067.62  41
   7   1   3 47339.3 997.623  10
  -7   1  -3 49815.6 1111.07  35
  -7  -1  -3 49148.8 1092.73  57
  -7  -1  -3 48112.3 1139.54  56
   7   1   3 50396.8 1133.88  55
   7  -1   3 50909.2 1159.57  55
  -7   1  -3 56614.2 970.913  23
  -7   1  -3 43498.9 915.846  53
   7  -1   3 53652.1 1040.29  22
   7   1   3 51014.2 956.982  22
   7  -1   4 3676.46 268.542  27
   7  -1   4 4130.55 262.024  26
  -7   1  -4 3723.31 301.325  57
   7   1   4 3462.24 285.532  41
  -7   1  -4 3621.74 306.764  35
  -7  -1  -4 3552.85 300.745  57
  -7  -1  -4 3797.58 312.160  56
   7   1   4 3898.89 323.780  55
   7  -1   4 3834.45 327.208  55
   7  -1   4 3721.53 263.678  22
   7   1   4 3886.94 264.661  22
   7  -1   5 5828.15 329.515  27
   7  -1   5 6058.84 308.880  26
   7   1   5 5521.54 351.553  41
  -7  -1  -5 5745.14 369.132  56
  -7   1  -5 5980.63 383.306  35
  -7   1  -5 5832.89 370.453  57
  -7  -1  -5 5743.51 376.810  57
   7   1   5 5963.00 393.061  55
   7  -1   5 6146.32 406.577  55
   7  -1   5 6224.37 321.756  22
   7   1   5 5848.60 315.241  22
   7  -1   6 1106.73 139.136  27
   7   1   6 1077.58 150.201  41
  -7   1  -6 1070.51 172.076  35
  -7   1  -6 1153.56 161.703  57
  -7  -1  -6 1009.81 162.777  57
   7   1   6 1133.12 171.544  55
   7  -1   6 1043.89 168.887  55
   7   1   7 4965.35 298.108  41
  -7   1  -7 5448.89 338.362  35
  -7   1  -7 4921.35 303.814  57
  -7  -1  -7 5183.88 330.456  57
   7   1   7 5378.41 339.778  55
   7  -1   7 4906.49 337.786  55
   7   1   7 5520.34 333.188  51
   7   1   8 1543.49 147.990  41
  -7   1  -8 1825.84 184.223  35
  -7   1  -8 1812.59 168.142  57
  -7  -1  -8 1812.55 181.453  57
   7   1   8 1753.43 182.319  55
   7  -1   8 1612.90 183.070  55
   7   1   8 2049.30 187.998  51
   7  -1   9 251.932 71.6522  41
  -7   1  -9 363.763 75.5269  35
  -7   1  -9 396.514 72.9888  57
  -7  -1  -9 376.437 80.3355  57
   7   1   9 398.471 77.8120  55
   7  -1   9 326.965 75.9288  55
   7   1   9 268.033 69.1570  51
  -7   1 -10 1651.53 129.115  35
  -7  -1 -10 1528.65 120.366  57
   7  -1  10 1489.31 123.183  55
  -7  -2  13 1568.52 133.607  47
   7  -2 -13 1427.14 123.632  39
   7   2 -13 1245.97 103.636  50
  -7  -2  12 826.293 118.075  47
   7  -2 -12 845.564 112.315  39
   7  -2 -12 564.093 89.9630  38
  -7   2  12 714.172 85.3216  52
   7   2 -12 667.148 92.5046  50
  -7  -2  11 184.016 76.7265  47
   7  -2 -11 214.619 69.4846  39
   7  -2 -11 242.517 72.4620  38
  -7   2  11 239.597 57.7828  52
   7   2 -11 205.441 67.4049  50
  -7   2  10 836.820 142.955  47
  -7  -2  10 816.999 137.192  47
   7  -2 -10 952.612 137.194  39
  -7   2  10 721.960 104.382  52
   7   2 -10 1043.09 132.210  50
  -7   2   9 1604.84 199.058  47
  -7  -2   9 1562.46 194.744  47
  -7  -2   9 1644.56 176.519  42
   7  -2  -9 1604.93 177.002  39
  -7   2   9 1383.69 200.635  30
  -7   2   9 1726.72 165.771  52
   7   2  -9 1483.48 155.787  50
  -7   2   8 8701.13 453.676  47
  -7  -2   8 9057.14 464.796  47
  -7  -2   8 9254.05 446.320  42
  -7   2   8 10032.5 456.184  26
   7   2  -8 8907.82 403.568  41
   7  -2  -8 9050.17 445.258  21
   7   2  -8 8864.70 431.688  20
   7  -2  -8 9180.78 417.618  39
  -7  -2   8 9168.49 467.251  23
  -7   2   8 9011.49 488.912  30
  -7   2   8 8856.28 379.794  52
   7   2  -8 9526.18 396.405  50
  -7   2   7 469.263 112.683  47
  -7  -2   7 498.029 115.536  47
   7  -2  -7 595.191 110.352  22
  -7  -2   7 388.416 104.568  42
  -7   2   7 435.757 108.154  26
   7   2  -7 487.187 101.789  41
   7  -2  -7 533.636 121.697  21
   7   2  -7 516.695 120.386  20
  -7  -2   7 536.911 120.827  23
  -7   2   7 261.439 99.7300  30
  -7   2   7 565.019 104.769  52
   7   2  -7 896.523 123.029  50
   7  -2  -7 487.340 97.4303  50
  -7  -2   6 7589.34 426.462  47
  -7  -2   6 7456.16 424.463  42
   7  -2  -6 8036.95 420.292  21
   7   2  -6 8169.52 395.658  41
   7   2  -6 7601.98 416.868  20
  -7  -2   6 6842.05 413.142  23
  -7   2   6 8494.89 478.473  30
   7  -2  -6 7372.71 389.305  22
  -7   2   6 7473.03 360.220  52
   7   2  -6 7588.82 357.261  50
   7  -2  -6 7035.65 354.919  50
  -7  -2   5 8942.12 451.548  47
  -7  -2   5 9185.48 481.361  42
   7  -2  -5 9875.02 459.538  21
   7   2  -5 9787.89 437.871  41
   7   2  -5 8348.51 437.543  20
   7  -2  -5 8608.48 402.510   9
  -7  -2   5 9894.10 489.079  23
  -7   2   5 10638.6 476.834  53
  -7   2   5 9224.98 496.345  30
   7  -2  -5 9321.93 439.033  22
  -7   2   5 8665.95 383.405  52
   7   2  -5 9477.88 394.918  50
   7  -2  -5 9033.75 405.922  50
   7  -2  -4 32497.8 732.434  44
  -7  -2   4 32178.2 899.348  42
   7  -2  -4 34899.9 839.215  21
   7   2  -4 32548.9 796.394  41
   7   2  -4 32482.2 846.420  20
  -7  -2   4 32259.5 863.402  23
  -7   2   4 31346.9 909.197  30
   7  -2  -4 31501.5 772.320   9
  -7   2   4 35493.8 874.142  53
   7  -2  -4 32165.2 810.314  22
   7   2  -4 31992.0 712.882  50
   7   2  -3 24606.6 629.217  44
   7  -2  -3 22751.0 636.667  44
  -7  -2   3 23291.0 763.782  42
   7  -2  -3 25308.7 683.030  21
   7   2  -3 24796.6 700.472  41
   7   2  -3 24421.5 709.940  20
  -7  -2   3 23014.0 711.134  23
  -7   2   3 23215.6 779.866  30
  -7   2   3 23916.1 605.459  23
  -7   2   3 25632.5 742.752  53
   7  -2  -3 23715.5 697.961  22
   7   2  -2 26126.6 640.496  44
   7   2  -2 27388.7 714.475  10
  -7  -2   2 23584.7 765.466  42
   7   2  -2 27632.1 744.094  41
   7   2  -2 25628.2 715.689  20
   7  -2  -2 23856.2 714.761  13
  -7   2   2 27178.3 797.166  57
  -7  -2   2 27715.7 849.062  56
  -7   2   2 26811.1 835.412  30
  -7   2   2 29273.0 681.568  23
  -7  -2   2 24726.0 711.203  23
  -7   2   2 28246.7 783.388  53
   7  -2  -2 27283.7 754.302  22
   7   2  -1 8432.73 361.468  44
   7   2  -1 8862.62 408.876  10
  -7  -2   1 8179.74 443.678  42
   7   2  -1 9526.53 443.635  41
   7   2  -1 8458.63 394.842  20
   7  -2  -1 8040.12 419.839  10
   7  -2  -1 8533.64 427.841  13
  -7   2   1 9963.29 487.273  57
  -7  -2   1 8601.92 403.950  23
  -7  -2   1 8202.46 478.249  56
  -7   2   1 8115.69 464.411  30
   7   2  -1 9017.11 436.395  55
  -7   2   1 8927.72 384.816  23
  -7   2   1 8999.76 442.823  53
   7  -2  -1 9152.91 441.327  22
   7   2  -1 8726.47 373.547  22
   7  -2   0 1934.50 208.540  27
   7   2   0 1734.60 186.278  10
  -7  -2   0 2032.35 216.483  42
   7   2   0 1829.39 200.376  41
   7   2   0 2038.87 188.817  20
   7  -2   0 1514.06 186.259  13
  -7   2   0 2127.03 226.932  57
  -7  -2   0 1849.80 183.644  23
  -7  -2   0 1843.15 235.648  56
  -7   2   0 1905.62 229.666  30
   7   2   0 2004.89 213.717  55
  -7   2   0 2071.80 190.522  23
  -7   2   0 1866.30 201.545  53
   7  -2   0 1908.24 206.081  22
   7   2   0 1876.00 178.571  22
   7  -2   1 560.548 121.220  27
   7  -2   1 584.354 123.131  22
   7   2   1 528.602 103.739  22
  -7  -2  -1 521.059 125.270  56
   7   2   1 438.993 103.928  41
   7   2   1 679.382 122.726  10
   7  -2   1 590.024 119.600  13
  -7   2  -1 537.903 121.458  57
   7   2   1 692.060 137.416  55
  -7   2  -1 776.978 126.762  23
  -7  -2  -1 576.193 105.349  23
  -7   2  -1 1059.41 171.544  30
  -7   2  -1 197.318 86.5455  53
   7  -2   2 35297.7 889.160  27
   7   2   2 35480.3 869.896  41
  -7   2  -2 37565.5 954.049  57
  -7  -2  -2 36790.8 1033.93  56
  -7   2  -2 36373.5 984.087  30
   7   2   2 36904.0 937.900  55
  -7   2  -2 38392.9 823.900  23
   7  -2   2 32932.3 847.137  22
   7   2   2 34824.1 772.702  22
   7  -2   3 12415.5 524.351  27
   7   2   3 11249.7 490.752  41
   7   2   3 12484.6 555.144  55
  -7   2  -3 12385.2 564.607  35
  -7   2  -3 11662.1 526.308  57
  -7  -2  -3 11396.9 510.325  57
  -7  -2  -3 11896.3 580.330  56
  -7   2  -3 11420.0 552.329  30
   7  -2   3 11476.5 538.477  55
   7  -2   3 12381.5 496.879  22
   7   2   3 11920.6 450.054  22
   7  -2   4 13200.4 518.305  27
   7  -2   4 13197.4 489.031  26
   7   2   4 12270.8 498.158  41
  -7  -2  -4 11671.3 479.075  24
  -7   2  -4 12220.7 559.021  35
  -7   2  -4 12968.2 541.489  57
  -7  -2  -4 12422.5 541.266  57
  -7  -2  -4 12376.9 574.805  56
  -7   2  -4 12885.1 576.908  30
   7   2   4 12492.9 547.451  55
   7  -2   4 11855.9 551.715  55
   7   2   4 12605.9 456.127  22
   7  -2   5 128.957 61.4662  27
   7   2   5 169.442 60.9008  22
   7  -2   5 51.2669 46.7383  26
   7   2   5 139.946 59.1353  41
  -7   2  -5 123.905 89.3594  35
  -7  -2  -5-16.8789 51.2957  57
  -7  -2  -5 57.0792 45.1520  56
   7   2   5 163.827 74.3869  55
   7  -2   5-87.3766 65.7507  55
  -7   2  -5 286.405 85.6523  57
  -7   2  -6 2251.81 228.342  35
  -7   2  -6 2228.75 206.614  57
  -7  -2  -6 2031.89 209.984  57
  -7  -2  -6 1958.31 203.383  56
   7   2   6 2380.19 227.856  55
   7  -2   6 1858.97 212.531  55
   7   2   6 2394.14 227.838  51
  -7   2  -7 616.793 99.1243  57
  -7   2  -7 474.310 103.098  35
  -7  -2  -7 491.241 105.766  57
  -7  -2  -7 553.909 104.906  56
   7   2   7 711.917 122.323  55
   7  -2   7 630.755 129.124  55
   7   2   7 617.235 113.312  51
  -7   2  -8 415.871 91.5465  35
  -7  -2  -8 746.250 112.337  57
   7   2   8 546.261 94.3168  55
   7  -2   8 432.646 94.8598  55
   7   2   8 428.848 87.0905  51
  -7   2  -9 801.234 101.474  35
  -7  -2  -9 922.789 107.892  57
   7   2   9 955.676 100.745  55
   7  -2   9 903.997 111.654  55
   7   2   9 787.896 99.2073  51
  -7  -3  12 280.694 60.7757  47
   7  -3 -12 415.771 67.4103  39
   7  -3 -12 304.369 65.3868  38
   7  -3 -12 265.058 63.4107  36
  -7   3  12 321.003 52.6904  52
  -7  -3  11 1657.06 154.694  47
   7  -3 -11 1792.38 148.484  39
   7  -3 -11 1685.30 159.593  38
  -7   3  11 1842.11 133.193  52
   7   3 -11 1445.43 127.088  50
  -7  -3  10 789.822 128.684  47
   7   3 -10 914.839 118.018  41
   7  -3 -10 1130.78 131.572  39
  -7   3  10 924.390 108.974  52
   7   3 -10 873.003 109.990  50
  -7  -3   9 983.731 149.684  47
   7   3  -9 908.339 129.539  41
   7  -3  -9 1239.49 145.749  39
  -7   3   9 917.855 153.878  30
  -7   3   9 862.216 113.354  52
   7   3  -9 1077.96 127.257  50
  -7  -3   8 1447.81 178.460  47
  -7  -3   8 1485.35 161.826  42
   7   3  -8 1412.79 167.960  41
   7  -3  -8 1414.68 162.527  39
  -7   3   8 1398.20 189.691  30
  -7   3   8 1436.75 147.304  52
   7   3  -8 1648.99 156.721  50
  -7  -3   7 304.328 94.7599  47
   7  -3  -7 218.829 72.2838  22
  -7  -3   7 390.860 97.0440  42
   7   3  -7 162.957 71.5382  41
   7  -3  -7 215.403 80.4038  21
   7   3  -7 75.8681 59.3177  20
  -7  -3   7 377.700 99.1294  23
  -7   3   7 78.5564 66.3599  30
  -7   3   7 250.897 72.0642  52
   7   3  -7 285.295 75.1078  50
  -7  -3   6 4901.78 342.508  47
  -7  -3   6 5503.32 353.339  42
   7  -3  -6 5262.44 334.624  21
   7   3  -6 5288.82 322.882  41
   7   3  -6 5456.58 327.716  20
  -7  -3   6 5528.78 372.293  23
   7  -3  -6 4996.74 319.431  22
  -7   3   6 5193.54 287.824  52
  -7   3   6 5453.77 384.938  30
  -7  -3   5 25063.8 761.607  47
  -7  -3   5 25808.1 787.312  42
   7  -3  -5 25118.0 716.780  21
   7   3  -5 23263.3 683.240  41
   7   3  -5 25899.8 719.981  20
  -7  -3   5 25921.5 799.170  23
  -7   3   5 25199.7 831.537  30
   7  -3  -5 23385.9 690.716  22
  -7   3   5 24907.4 626.051  52
  -7  -3   4 10350.9 485.059  47
  -7  -3   4 10769.2 520.774  42
   7  -3  -4 10656.5 453.735  21
   7   3  -4 11672.5 485.014  41
   7   3  -4 10983.9 471.612  20
  -7  -3   4 10714.8 506.520  23
  -7   3   4 10177.9 532.025  30
   7  -3  -4 9004.50 433.903  22
  -7   3   4 10110.2 400.044  52
  -7  -3   3 25865.8 815.941  42
   7   3  -3 27482.3 744.660  41
   7   3  -3 26554.8 726.353  20
  -7  -3   3 24493.1 744.565  23
  -7   3   3 25104.1 836.017  30
   7  -3  -3 24016.2 697.745  22
  -7   3   3 24715.6 618.174  52
   7  -3  -2 598.940 121.584  22
  -7  -3   2 594.080 130.602  42
   7   3  -2 781.597 127.136  41
   7   3  -2 652.306 122.273  20
  -7  -3   2 880.811 154.896  56
  -7  -3   2 822.798 138.629  23
  -7   3   2 537.298 132.819  30
  -7  -3   1 6578.79 416.773  56
  -7  -3   1 5929.90 389.924  42
   7   3  -1 6472.00 363.583  41
  -7  -3   1 6556.05 353.446  23
  -7   3   1 6102.82 419.084  30
   7  -3  -1 6266.18 357.981  22
   7  -3   0 11967.5 511.226  27
  -7  -3   0 11342.4 530.447  42
   7   3   0 12448.3 498.440  41
  -7  -3   0 11924.0 577.289  56
  -7   3   0 11896.4 582.783  30
   7  -3   0 11696.4 493.302  22
   7  -3   1-23.3898 59.9375  27
   7  -3   1-155.864 70.9183  22
   7   3   1-30.3742 34.9234  22
  -7  -3  -1-20.8556 41.7712  42
   7   3   1 83.4222 66.5412  41
  -7  -3  -1 211.153 92.3096  56
  -7   3  -1 222.730 89.1525  57
  -7   3  -1 153.707 77.1786  30
   7   3   2 9653.92 383.709  22
   7  -3   2 9193.19 451.339  27
   7   3   2 10015.9 431.965  41
  -7  -3  -2 10333.8 547.725  56
  -7   3  -2 9843.19 525.142  30
  -7   3  -2 9677.26 469.513  57
   7   3   3 4443.10 260.633  22
   7  -3   3 4592.95 312.977  27
   7  -3   3 4929.84 305.827  26
   7   3   3 4741.02 287.430  41
  -7   3  -3 4732.39 320.577  57
  -7  -3  -3 4646.01 364.615  56
  -7   3  -3 4546.83 351.882  30
   7   3   3 4543.60 322.799  55
  -7   3  -4 2086.19 204.328  57
  -7  -3  -4 1661.20 207.329  56
  -7   3  -4 1633.24 207.525  30
   7   3   4 1955.40 205.803  55
   7  -3   4 1511.94 184.668  55
  -7   3  -5 4185.54 269.788  57
  -7  -3  -5 4027.95 270.021  57
  -7  -3  -5 3810.67 302.506  56
  -7   3  -5 4168.24 309.528  30
   7   3   5 4335.78 290.061  55
   7  -3   5 3709.39 277.818  55
   7   3   5 3903.97 275.235  51
   7   3   6 3192.82 198.033  45
  -7  -3  -6 3672.40 247.006  57
  -7  -3  -6 3620.15 266.899  56
  -7   3  -6 3722.39 271.768  30
   7  -3   6 3386.17 250.483  55
   7   3   6 3669.06 255.147  51
  -7  -3  -7 4438.95 250.330  57
  -7  -3  -7 3913.28 240.913  56
  -7   3  -7 4518.17 264.978  30
   7  -3   7 3806.33 245.191  55
   7   3   7 4358.39 255.817  51
  -7  -3  -8 170.389 49.9327  57
   7  -3   8 195.638 59.0301  55
   7   3   8 247.048 60.7155  51
  -7  -4  10 770.974 99.7447  47
   7   4 -10 711.382 90.2364  41
   7  -4 -10 991.139 120.744  38
  -7   4  10 759.589 81.6663  52
  -7  -4   9 3453.41 227.391  47
   7   4  -9 3445.22 215.388  41
   7  -4  -9 4144.77 210.780  39
  -7   4   9 3600.99 183.092  52
  -7  -4   8 954.819 137.099  47
   7   4  -8 1117.67 136.833  41
   7  -4  -8 1235.36 128.724  39
  -7   4   8 1070.98 146.210  30
  -7   4   8 974.043 107.362  52
  -7  -4   7 1355.09 165.214  47
  -7   4   7 1623.50 194.055  30
  -7  -4   7 1612.62 162.542  42
   7   4  -7 1421.16 161.884  41
   7  -4  -7 1509.36 152.936  39
  -7   4   7 1590.10 137.529  52
  -7  -4   6 1689.14 188.164  47
  -7  -4   6 1602.74 174.248  42
   7   4  -6 1636.30 177.716  41
  -7   4   6 1671.02 205.224  30
  -7   4   6 1913.09 154.594  52
  -7  -4   5 1674.83 191.804  47
  -7  -4   5 1384.56 168.174  42
   7   4  -5 1833.19 189.265  41
  -7   4   5 1740.96 205.834  30
  -7   4   5 1626.96 144.562  52
  -7  -4   4 862.026 133.490  47
  -7  -4   4 719.497 134.420  42
   7   4  -4 828.322 133.122  41
  -7   4   4 840.304 156.950  30
  -7  -4   3 389.772 109.000  42
   7   4  -3 634.247 115.407  41
  -7   4   3 499.165 119.417  30
   7   4  -2 6797.98 317.167  45
  -7  -4   2 6757.54 404.572  42
   7   4  -2 7863.74 380.338  41
  -7   4   2 6639.73 420.536  30
   7   4  -1 9936.74 395.977  45
  -7  -4   1 8918.08 464.161  42
   7   4  -1 10973.0 440.706  41
  -7   4   1 9777.80 510.202  30
  -7  -4   1 10819.3 483.801  56
   7   4   0 911.582 125.659  45
  -7  -4   0 762.937 140.649  42
   7   4   0 901.215 129.699  41
  -7  -4   0 737.534 137.483  56
  -7   4   0 904.917 161.982  30
   7   4   1 7348.75 344.323  45
  -7  -4  -1 6937.07 388.196  42
   7   4   1 7776.60 350.165  41
  -7  -4  -1 7606.78 428.588  56
  -7   4  -1 7174.48 434.419  30
   7   4   2 231.638 71.2723  45
  -7  -4  -2 488.978 102.623  42
  -7  -4  -2 253.445 95.5848  56
  -7   4  -2 280.528 94.8855  30
   7   4   3 3275.84 221.402  45
  -7  -4  -3 3549.29 288.682  56
  -7   4  -3 3561.27 290.243  30
   7   4   4 7589.72 315.144  45
  -7  -4  -4 7937.73 409.890  56
  -7   4  -4 7801.46 404.435  30
   7   4   5 5810.09 254.199  45
  -7  -4  -5 5791.93 323.170  56
  -7   4  -5 6060.39 331.751  30
   7   4   6 4092.43 186.429  45
  -7  -4  -6 4065.01 241.613  56
  -7   4  -6 4236.60 248.735  30
   7  -4   6 3994.92 210.915  55
  -7  -5   8 1420.35 123.137  47
   7   5  -8 1590.50 126.773  41
  -7  -5   7 786.189 102.241  47
   7   5  -7 665.180 96.8850  41
   7   5  -7 910.915 102.780  31
  -7   5   7 876.248 112.501  30
  -7  -5   6 73.2853 41.6752  47
  -7  -5   6 92.4962 44.1716  42
   7   5  -6 29.4191 45.7660  41
  -7   5   6 172.548 67.3502  30
  -7  -5   5 182.252 59.9974  47
  -7  -5   5 225.593 64.4164  42
   7   5  -5 250.150 69.7892  41
  -7  -5   4 581.659 100.516  47
  -7  -5   4 589.722 101.095  42
   7   5  -4 682.900 107.825  41
  -7   5   4 581.214 105.733  30
  -7  -5   3 1239.77 141.028  47
  -7  -5   3 1627.71 169.646  42
   7   5  -3 1599.08 154.383  41
  -7   5   3 1617.51 184.693  30
  -7  -5   2 59.2735 55.5601  42
   7   5  -2 116.487 52.6575  41
  -7   5   2 67.7100 57.7800  30
   7   5  -1 1680.74 141.843  45
  -7  -5   1 1260.45 154.209  42
  -7   5   1 1387.84 169.947  30
   7   5   0 290.098 65.2144  45
  -7  -5   0 313.509 82.1938  42
  -7   5   0 430.041 92.4043  30
   7   5   1 1546.24 139.260  45
  -7  -5  -1 1468.51 155.954  42
  -7  -5  -1 1615.38 155.854  56
  -7   5  -1 1505.06 171.508  30
   7   5   2 1346.77 123.387  45
  -7  -5  -2 1102.77 124.010  42
  -7  -5  -2 1385.14 146.472  56
  -7   5  -2 1295.09 154.332  30
   7   5   3 2084.06 145.310  45
  -7  -5  -3 2284.19 180.706  56
  -7   5  -3 2525.72 195.382  30
   7   5   4 56.5458 31.6746  45
  -7  -5  -4 63.8957 44.1582  56
  -7   5  -4 66.5767 50.1170  30
  -8   0  12 1431.75 142.623  47
   8   0 -12 1422.50 123.867  39
   8   0 -12 1651.52 117.666  50
  -8   0  11 1404.34 158.945  47
   8   0 -11 1289.17 130.219  39
   8   0 -11 1410.56 127.523  50
  -8   0  10 4291.50 288.762  47
   8   0 -10 4736.94 257.875  39
   8   0 -10 4488.84 244.385  50
   8   0  -9 15358.8 478.222  39
  -8   0   9 15950.8 445.817  52
   8   0  -9 15849.8 483.484  50
  -8   0   8 2669.50 243.341  47
  -8   0   8 3259.65 277.755  42
   8   0  -8 2714.59 209.144  39
  -8   0   8 2876.85 204.705  52
   8   0  -8 3292.45 233.238  50
  -8   0   7 24096.6 714.347  47
  -8   0   7 26033.0 793.395  42
   8   0  -7 25023.3 630.696  39
  -8   0   7 23220.7 598.116  52
   8   0  -7 23234.5 626.942  50
  -8   0   6 2882.21 268.978  42
   8   0  -6 2208.05 189.104  39
  -8   0   6 2513.86 208.565  23
  -8   0   6 2255.49 209.833  53
   8   0  -6 2423.29 211.277  50
   8   0  -5 1744.40 174.691  44
  -8   0   5 1729.60 213.087  42
  -8   0   5 1797.60 184.912  23
  -8   0   5 1771.29 189.527  53
   8   0  -5 1654.49 175.907  50
   8   0  -4 1813.94 184.728  44
  -8   0   4 1946.41 224.427  42
  -8   0   4 1946.73 192.545  23
  -8   0   4 1752.58 195.750  53
   8   0  -4 1856.70 202.161  22
   8   0  -4 1757.35 182.142  50
   8   0  -3 60418.9 1040.41  44
  -8   0   3 60617.9 1197.65  42
   8   0  -3 63253.5 1086.90  41
  -8   0   3 61102.7 1050.18  23
  -8   0   3 58653.9 1131.58  53
   8   0  -3 57368.0 1126.31  22
   8   0  -3 59300.8 1039.20  50
   8   0  -2 415.129 103.208  44
   8   0  -2 393.119 104.607  22
  -8   0   2 387.811 106.365  42
   8   0  -2 515.472 114.768  41
  -8   0   2 508.691 113.887  23
  -8   0   2 297.642 104.320  53
   8   0  -1 67650.2 1124.20  44
   8   0  -1 68057.5 1190.67  41
  -8   0   1 74571.4 1149.50  23
  -8   0   1 70063.3 1261.70  53
  -8   0   1 70794.0 1238.04  57
   8   0  -1 72540.4 1259.74  22
   8   0   0 2998.88 241.453  44
   8   0   0 3111.68 265.936  41
  -8   0   0 3332.92 278.833  57
  -8   0   0 3248.97 240.751  23
  -8   0   0 3093.58 266.321  53
   8   0   0 3520.19 281.359  22
   8   0   1 5559.69 353.860  41
  -8   0  -1 5832.27 369.911  57
  -8   0  -1 5883.42 319.455  23
  -8   0  -1 5439.01 345.376  53
   8   0   1 6029.70 351.362  22
   8   0   2 5782.33 362.383  41
  -8   0  -2 5509.31 362.580  57
  -8   0  -2 5819.28 310.100  23
   8   0   2 5047.89 341.136  55
  -8   0  -2 5331.64 331.709  53
   8   0   2 5476.44 323.680  22
   8   0   3 84.9703 61.9187  22
   8   0   3 36.2811 61.4720  41
  -8   0  -3-135.918 76.8553  57
   8   0   3-2.39765 42.7171  55
  -8   0  -3-24.3111 35.8151  23
  -8   0  -3-33.5451 42.4725  53
   8   0   4 84.2076 61.0046  41
  -8   0  -4 34.7734 66.4690  57
   8   0   4 92.5747 53.9493  55
  -8   0  -4 10.5930 18.4065  53
   8   0   5 353.618 91.3290  41
  -8   0  -5 342.720 94.9495  57
   8   0   5 438.892 110.636  55
   8   0   6 735.164 118.827  41
  -8   0  -6 796.510 127.057  57
   8   0   6 783.152 125.982  55
   8   0   7 596.618 95.7240  41
  -8   0  -7 567.192 93.6771  57
   8   0   7 653.605 102.964  55
   8   0   8 1567.26 123.821  41
  -8   0  -8 1802.71 141.620  57
   8   0   8 1663.73 141.367  55
  -8   1  12 431.964 81.0013  47
  -8  -1  12 321.897 74.2746  47
   8  -1 -12 441.125 75.6504  39
   8   1 -12 465.405 69.3771  50
  -8   1  11 1974.35 182.173  47
  -8  -1  11 1713.89 170.786  47
   8  -1 -11 1758.09 154.123  39
  -8   1  11 1921.54 129.357  52
   8   1 -11 1806.30 143.539  50
   8  -1 -11 1757.87 129.684  50
  -8   1  10 5947.72 330.380  47
  -8  -1  10 6200.59 341.282  47
   8  -1 -10 6323.70 304.083  39
  -8   1  10 6681.02 272.688  52
   8   1 -10 6480.71 288.343  50
   8  -1 -10 6597.18 277.447  50
  -8   1   9 3878.23 281.221  47
  -8  -1   9 3887.60 287.348  47
  -8  -1   9 4697.52 301.013  42
   8  -1  -9 4373.79 266.496  39
  -8   1   9 4381.12 244.162  52
   8   1  -9 4296.02 251.052  50
   8  -1  -9 4545.40 253.750  50
  -8   1   8 17957.9 605.276  47
  -8  -1   8 18883.2 631.543  47
  -8  -1   8 19973.0 656.504  42
   8  -1  -8 19076.3 563.753  39
  -8   1   8 18775.1 527.661  52
   8   1  -8 19575.6 551.308  50
   8  -1  -8 18941.7 538.546  50
  -8  -1   7 8886.58 437.714  47
  -8  -1   7 9308.00 467.589  42
  -8  -1   7 8149.43 397.246  23
   8  -1  -7 8869.91 434.293  21
   8   1  -7 8838.04 451.047  20
   8  -1  -7 8560.92 385.176  39
  -8   1   7 9137.42 458.964  30
  -8   1   7 8288.90 366.909  52
  -8  -1   7 7998.81 328.687  52
   8   1  -7 8632.51 373.437  50
   8  -1  -7 8912.78 386.150  50
  -8  -1   6 8860.99 467.412  42
   8  -1  -6 8050.00 418.594  21
   8   1  -6 8392.74 444.990  20
  -8  -1   6 8225.89 406.273  23
  -8   1   6 9101.16 462.729  30
   8  -1  -6 7642.05 391.594  22
  -8   1   6 7716.42 361.954  52
   8   1  -6 8470.63 377.444  50
   8  -1  -6 8565.19 390.476  50
   8  -1  -5 2227.79 198.786  44
  -8  -1   5 2550.09 256.722  42
   8   1  -5 2416.91 209.559  41
   8  -1  -5 2383.96 228.695  21
   8   1  -5 2370.61 244.967  20
  -8  -1   5 2057.08 206.870  23
  -8   1   5 2222.24 228.665  30
  -8   1   5 2178.15 223.157  53
  -8  -1   5 2358.05 214.236  53
   8  -1  -5 2227.61 221.212  22
   8   1  -5 1948.14 184.973  50
   8  -1  -5 2239.09 207.276  50
   8   1  -4 11986.9 453.284  44
   8  -1  -4 11557.9 451.877  44
  -8   1   4 11651.6 533.293  42
  -8  -1   4 11913.3 545.793  42
   8   1  -4 11677.1 468.051  41
   8  -1  -4 10843.1 470.684  21
   8   1  -4 12079.8 523.313  20
  -8  -1   4 11213.3 477.987  23
  -8   1   4 11595.5 436.885  23
  -8   1   4 12195.8 512.893  53
  -8  -1   4 10918.1 469.387  53
   8  -1  -4 11755.6 516.367  22
   8   1  -4 11053.9 433.212  50
   8  -1  -4 11541.3 465.765  50
   8   1  -3 11317.8 440.110  44
   8  -1  -3 11233.0 455.372  44
  -8   1   3 11960.6 526.600  42
  -8  -1   3 10479.7 506.145  42
   8   1  -3 11285.8 469.235  41
   8   1  -3 12153.7 515.909  20
  -8  -1   3 10861.0 464.879  23
  -8   1   3 11512.2 442.837  23
  -8   1   3 11828.1 516.463  53
  -8  -1   3 10870.5 481.943  53
   8  -1  -3 10853.3 501.011  22
   8   1  -3 11649.3 441.748  50
   8  -1  -2 37925.0 857.280  27
   8   1  -2 41397.5 842.548  44
   8  -1  -2 40757.3 875.068  44
  -8   1   2 40119.4 932.755  42
  -8  -1   2 38435.1 948.259  42
   8   1  -2 40243.3 899.669  41
   8   1  -2 40335.0 890.274  20
  -8   1   2 43472.2 988.598  57
  -8  -1   2 39659.1 866.934  23
  -8   1   2 42852.8 853.637  23
  -8   1   2 41771.6 968.773  53
  -8  -1   2 36175.7 887.920  53
   8  -1  -2 36678.9 932.802  22
   8   1  -2 42195.8 882.819  22
   8   1  -2 41209.0 818.635  50
   8  -1  -1 897.715 133.995  27
   8   1  -1 427.190 94.0496  44
   8  -1  -1 724.424 136.817  22
   8   1  -1 647.001 114.779  22
  -8  -1   1 453.237 110.272  42
   8   1  -1 597.943 118.383  41
   8  -1  -1 563.256 118.769  41
  -8   1   1 483.195 117.811  57
  -8   1   1 573.750 104.287  23
  -8   1   1 627.040 114.702  53
  -8  -1   1 886.337 137.419  23
   8  -1   0 6195.91 357.234  27
   8   1   0 7265.61 354.175  44
   8   1   0 6815.57 384.267  41
   8  -1   0 6763.37 376.954  41
  -8   1   0 7168.49 416.634  57
  -8  -1   0 7138.70 353.278  23
  -8   1   0 8145.10 373.196  23
   8   1   0 7312.91 389.266  55
  -8   1   0 7497.90 408.581  53
   8  -1   0 6592.89 393.062  22
   8   1   0 7257.17 371.046  22
   8  -1   1 8848.42 425.514  27
   8   1   1 11096.5 430.789  44
   8   1   1 9932.43 469.657  41
   8  -1   1 9471.92 453.334  41
  -8   1  -1 10241.1 495.870  57
  -8  -1  -1 10098.5 462.096  57
  -8  -1  -1 9920.32 405.941  23
   8   1   1 10084.1 468.782  55
  -8   1  -1 11080.7 435.497  23
  -8   1  -1 9631.80 452.485  53
   8  -1   1 10112.5 469.721  22
   8   1   1 10390.8 437.323  22
   8  -1   2 3517.70 258.849  27
   8   1   2 3811.23 248.810  44
   8   1   2 4004.43 299.269  41
   8  -1   2 3049.10 262.398  41
  -8   1  -2 3713.48 298.987  57
  -8  -1  -2 3775.73 291.753  57
  -8  -1  -2 4383.46 263.231  23
   8   1   2 4252.58 305.919  55
  -8   1  -2 4350.49 271.809  23
  -8   1  -2 3752.03 273.809  53
   8  -1   2 4179.38 285.162  22
   8   1   2 4043.94 267.910  22
   8  -1   3 11986.0 459.560  27
   8   1   3 11236.9 485.460  41
   8  -1   3 10033.6 467.951  41
  -8   1  -3 11857.0 519.757  57
  -8  -1  -3 11598.4 506.819  57
   8   1   3 12454.0 527.575  55
   8  -1   3 11262.8 499.320  55
  -8   1  -3 11413.0 444.988  53
   8  -1   3 12678.7 472.198  22
   8   1   3 11423.0 435.965  22
   8   1   4 859.981 133.836  41
   8  -1   4 524.784 123.882  41
  -8   1  -4 841.309 138.678  57
  -8  -1  -4 880.131 144.304  57
   8   1   4 863.389 143.883  55
   8  -1   4 707.549 127.531  55
   8   1   5 2619.59 215.830  41
   8  -1   5 1976.22 202.064  41
  -8   1  -5 2547.01 227.166  57
  -8  -1  -5 2475.91 225.566  57
   8   1   5 2487.31 228.204  55
   8  -1   5 2195.32 213.247  55
  -8  -1  -5 2365.72 192.073  53
   8   1   6 761.645 114.945  41
   8  -1   6 789.542 118.248  41
  -8   1  -6 822.124 123.538  57
  -8  -1  -6 850.622 126.030  57
   8  -1   6 1098.15 146.460  55
   8   1   6 660.142 112.476  55
   8   1   7 71.9059 44.1434  41
   8  -1   7 29.1250 37.5131  41
  -8   1  -7 129.128 58.3145  57
  -8  -1  -7 82.0861 48.4005  57
   8   1   7 58.8551 49.3117  55
   8  -1   7 97.3202 58.0436  55
   8  -1   8 1999.89 139.924  41
  -8   1  -8 2106.67 138.114  57
  -8  -1  -8 1919.80 142.953  57
   8   1   8 2065.87 148.212  55
   8  -1   8 1986.05 148.090  55
  -8  -2  12 684.266 88.4735  47
   8  -2 -12 811.318 88.2927  39
   8   2 -12 541.208 67.1199  50
  -8  -2  11 2057.18 171.013  47
   8  -2 -11 2119.36 159.786  39
  -8   2  11 2145.12 134.086  52
   8   2 -11 2041.40 141.993  50
  -8  -2  10 3352.11 235.259  47
   8  -2 -10 3815.88 230.484  39
   8  -2 -10 3579.21 216.668  38
  -8   2  10 3863.13 201.503  52
   8   2 -10 3866.40 210.818  50
  -8  -2   9 613.065 115.394  47
  -8  -2   9 552.110 97.8946  42
   8  -2  -9 757.440 117.563  39
  -8   2   9 797.776 105.312  52
   8   2  -9 591.973 94.9896  50
  -8  -2   8 5479.56 334.084  47
  -8  -2   8 6494.28 352.084  42
   8   2  -8 6430.32 311.808  41
   8  -2  -8 6543.03 331.151  39
  -8   2   8 6688.55 386.704  30
  -8   2   8 6428.42 303.788  52
   8   2  -8 6319.72 298.412  50
   8  -2  -8 6675.25 297.769  50
  -8  -2   7 8295.28 414.516  47
  -8  -2   7 8265.08 420.760  42
   8   2  -7 8630.54 379.087  41
  -8   2   7 8906.50 458.759  30
  -8   2   7 8654.39 363.411  52
   8   2  -7 8386.20 351.612  50
   8  -2  -7 8670.69 362.137  50
  -8  -2   6 20671.4 648.280  47
  -8  -2   6 21147.1 698.443  42
   8   2  -6 22540.9 632.741  41
   8   2  -6 20090.8 642.887  20
  -8  -2   6 21245.5 674.087  23
  -8   2   6 21694.6 727.982  30
  -8   2   6 21753.7 587.051  52
   8   2  -6 20718.4 555.417  50
   8  -2  -6 21875.0 600.265  50
   8  -2  -5 321.565 94.0768  22
  -8  -2   5 287.630 104.346  42
   8   2  -5 326.248 99.2372  41
   8  -2  -5 360.010 97.7166  21
   8   2  -5 226.100 100.304  20
  -8  -2   5 168.238 76.5566  23
  -8   2   5 547.618 124.041  30
  -8   2   5 219.698 72.8872  52
   8   2  -5 242.020 70.6929  50
   8  -2  -5 254.639 90.1405  50
   8  -2  -4 39946.5 804.627  44
  -8  -2   4 36941.8 951.755  42
   8   2  -4 38242.5 848.300  41
   8   2  -4 36611.7 868.950  20
  -8  -2   4 38597.7 911.265  23
  -8   2   4 38882.0 988.787  30
   8  -2  -4 37703.0 891.091  22
   8   2  -4 38585.9 754.857  50
   8  -2  -3 3011.83 234.937  44
  -8  -2   3 3118.72 278.006  42
   8   2  -3 3090.35 249.094  41
   8   2  -3 2871.58 240.300  20
  -8  -2   3 3115.05 256.606  23
  -8   2   3 3172.05 290.573  30
  -8   2   3 3722.49 290.624  53
  -8  -2   3 2834.20 234.533  53
   8  -2  -3 3077.68 261.567  22
   8  -2  -2 5666.84 339.383  27
   8  -2  -2 5975.60 332.333  44
  -8  -2   2 5722.40 370.880  42
   8   2  -2 6544.91 363.367  41
   8   2  -2 5855.15 328.256  20
  -8  -2   2 6179.16 345.996  23
  -8   2   2 5954.69 391.508  30
  -8   2   2 6393.42 321.484  23
  -8   2   2 6898.19 387.429  53
   8  -2  -2 5817.43 364.131  22
   8  -2  -1 761.662 126.783  27
   8   2  -1 925.709 121.284  44
   8  -2  -1 829.495 141.607  22
  -8  -2   1 894.802 150.329  42
   8   2  -1 889.376 136.736  41
  -8   2   1 842.899 149.487  57
  -8  -2   1 930.461 133.287  23
  -8   2   1 1401.77 157.491  23
  -8   2   1 578.021 126.601  30
  -8   2   1 993.089 151.722  53
   8  -2   0 2998.30 248.321  27
  -8  -2   0 3260.86 262.622  42
   8   2   0 3645.09 273.648  41
  -8   2   0 3489.98 288.658  57
  -8  -2   0 3458.47 316.920  56
  -8  -2   0 3723.28 252.640  23
  -8   2   0 3213.68 287.044  30
  -8   2   0 3639.57 251.116  23
  -8   2   0 3780.63 282.068  53
   8  -2   0 3307.48 274.356  22
   8   2   0 3349.52 230.890  22
   8  -2   1 3166.26 256.354  27
   8   2   1 3810.66 278.747  41
   8  -2   1 3044.32 247.619  41
  -8   2  -1 3705.01 297.269  57
  -8  -2  -1 3773.61 323.704  56
  -8   2  -1 3346.50 286.062  30
   8   2   1 3903.86 289.756  55
  -8   2  -1 3871.11 273.422  53
   8  -2   1 3127.76 258.467  22
   8   2   1 3475.32 237.925  22
   8   2   2 7629.75 380.868  41
   8  -2   2 5797.75 340.268  41
  -8   2  -2 7892.57 420.000  57
  -8  -2  -2 6677.47 421.683  56
   8   2   2 6504.83 373.261  55
  -8   2  -2 7247.28 349.547  53
   8   2   3 5212.66 306.667  41
   8  -2   3 4186.62 284.353  41
  -8   2  -3 5398.15 337.031  57
  -8  -2  -3 4396.87 288.431  57
  -8  -2  -3 4966.20 351.209  56
   8   2   3 5104.41 327.896  55
   8   2   4-6.00204 43.7090  41
   8  -2   4-61.2790 51.4616  41
  -8   2  -4 78.0829 58.8661  57
  -8  -2  -4 100.874 64.6564  57
  -8  -2  -4-41.5601 53.2406  56
   8   2   4-15.2561 61.7398  55
   8  -2   4-30.2548 43.2120  55
   8   2   5 1075.01 123.359  41
   8  -2   5 848.172 125.614  41
  -8   2  -5 1132.56 141.681  57
  -8  -2  -5 1033.25 140.408  57
   8   2   5 1086.06 146.191  55
   8  -2   5 1028.84 139.626  55
   8   2   6 771.982 94.2900  41
   8  -2   6 765.253 106.948  41
  -8   2  -6 715.803 104.664  57
  -8  -2  -6 893.100 117.019  57
   8   2   6 1043.44 127.541  55
   8  -2   6 805.699 116.647  55
   8  -2   7 1123.32 115.387  41
  -8   2  -7 1256.02 110.740  57
  -8  -2  -7 1161.21 117.187  57
   8  -2   7 1259.27 122.364  55
  -8  -3  10 536.620 90.4900  47
   8  -3 -10 605.303 86.9244  39
   8  -3 -10 588.838 87.8496  38
  -8   3  10 567.697 73.8482  52
   8   3 -10 488.653 70.4867  50
  -8  -3   9 5777.20 293.760  47
   8   3  -9 6081.37 268.880  41
   8  -3  -9 6589.72 287.611  39
  -8   3   9 6624.11 253.177  52
   8   3  -9 5834.05 238.456  50
  -8  -3   8 2769.20 217.859  47
  -8  -3   8 3452.90 228.887  42
   8   3  -8 3432.91 220.249  41
   8  -3  -8 3712.89 232.767  39
  -8   3   8 3271.15 257.102  30
  -8   3   8 3637.13 203.261  52
   8   3  -8 3333.87 189.046  50
  -8  -3   7 891.816 137.835  47
  -8  -3   7 1105.96 147.028  42
   8   3  -7 786.404 118.258  41
   8  -3  -7 1046.43 134.986  39
  -8   3   7 856.078 144.433  30
  -8   3   7 1007.34 119.436  52
   8   3  -7 1001.09 112.447  50
  -8  -3   6 8970.04 406.007  47
  -8  -3   6 9350.45 430.305  42
   8   3  -6 9898.81 408.108  41
  -8   3   6 8543.22 445.105  30
  -8   3   6 9595.84 359.735  52
  -8  -3   5 17536.4 612.969  42
   8   3  -5 18082.7 559.810  41
  -8   3   5 16898.4 636.462  30
  -8   3   5 17028.1 484.064  52
   8  -3  -5 17864.4 515.605  50
  -8  -3   4 1392.30 184.482  42
   8   3  -4 1559.86 175.495  41
  -8   3   4 1412.07 196.019  30
  -8   3   4 1521.62 149.288  52
   8  -3  -4 1412.38 157.565  50
  -8  -3   3 10120.9 484.848  42
   8   3  -3 11755.5 464.764  41
  -8   3   3 10601.5 516.561  30
  -8   3   3 10841.9 385.259  52
  -8  -3   2 8093.43 427.641  42
   8   3  -2 9225.49 409.369  41
  -8   3   2 8451.66 464.792  30
   8  -3  -1 504.414 94.2875  44
  -8  -3   1 480.425 112.577  42
   8   3  -1 483.053 102.070  41
  -8  -3   1 230.724 101.829  56
  -8   3   1 461.257 117.450  30
  -8  -3   0 6366.65 359.569  42
   8   3   0 7294.63 357.446  41
  -8  -3   0 7061.38 412.569  56
  -8   3   0 6795.48 409.633  30
  -8  -3  -1 2159.19 202.554  42
   8   3   1 2295.26 198.985  41
  -8  -3  -1 2228.70 233.741  56
  -8   3  -1 2257.65 236.980  30
   8   3   2 200.465 69.6626  41
  -8  -3  -2 102.722 78.0657  56
  -8   3  -2 295.711 97.0773  30
   8   3   3 2355.90 182.785  41
  -8  -3  -3 2101.71 220.271  56
  -8   3  -3 2595.52 233.581  30
   8   3   4 3319.85 201.609  45
   8  -3   4 2816.33 197.781  41
  -8  -3  -4 3342.37 256.214  56
  -8   3  -4 3650.57 251.977  30
   8   3   5 2031.79 143.528  45
   8  -3   5 1671.62 140.198  41
  -8  -3  -5 2114.37 185.830  56
  -8   3  -5 2242.63 178.435  30
   8   3   6 768.034 75.1127  45
   8  -3   6 541.970 75.7053  41
   8  -4  -9 1188.50 114.782  38
  -8  -4   8 1186.02 119.435  47
   8   4  -8 1166.49 114.038  41
   8  -4  -8 1447.89 118.326  39
  -8   4   8 1145.43 94.0492  52
  -8  -4   7 2121.37 167.024  47
  -8  -4   7 2397.54 168.088  42
   8   4  -7 2576.77 180.588  41
   8  -4  -7 2803.72 176.847  39
  -8   4   7 2542.71 207.790  30
  -8   4   7 2358.17 138.404  52
  -8  -4   6 468.675 84.8608  47
  -8  -4   6 401.503 82.4854  42
   8   4  -6 451.865 88.0111  41
   8  -4  -6 556.055 89.8249  39
  -8   4   6 360.338 89.1521  30
  -8   4   6 437.805 68.0728  52
  -8  -4   5 625.340 108.031  42
   8   4  -5 728.600 111.784  41
  -8   4   5 826.218 134.765  30
  -8  -4   4 415.486 90.9826  42
   8   4  -4 382.004 85.5920  41
  -8   4   4 244.766 82.9466  30
  -8  -4   3 2113.64 198.605  42
   8   4  -3 2229.77 186.704  41
  -8   4   3 2067.23 214.380  30
  -8  -4   2 147.275 66.7914  42
   8   4  -2 68.0991 47.2524  41
  -8   4   2 155.768 69.7561  30
   8   4  -1 4213.94 222.106  45
  -8  -4   1 3932.78 268.186  42
   8   4  -1 4344.73 249.235  41
  -8   4   1 4041.03 294.074  30
   8   4   0 740.097 97.5173  45
  -8  -4   0 477.022 96.6987  42
   8   4   0 681.078 99.9227  41
  -8  -4   0 718.984 119.381  56
  -8   4   0 595.612 127.244  30
   8   4   1 651.696 95.1125  45
  -8  -4  -1 570.564 94.1972  42
   8   4   1 555.343 85.0091  41
  -8  -4  -1 786.742 122.936  56
  -8   4  -1 689.051 124.503  30
   8   4   2 875.116 106.263  45
  -8  -4  -2 838.151 128.222  56
  -8   4  -2 1023.06 136.423  30
   8   4   3 1780.15 135.487  45
  -8  -4  -3 1692.01 164.401  56
  -8   4  -3 1785.69 165.663  30
   8   4   4 906.414 89.9059  45
  -8  -4  -4 825.442 105.845  56
  -8   4  -4 941.712 112.485  30
  -8  -5   4 524.072 77.1311  42
   8   5  -4 486.146 72.3938  41
  -8   5   4 363.542 78.9627  30
  -8  -5   3 127.236 47.3537  42
   8   5  -3 128.496 41.9809  41
  -8   5   3 111.774 50.2666  30
  -8  -5   2 1002.67 107.944  42
  -8   5   2 1061.82 124.563  30
  -8  -5   1 752.840 95.3158  42
  -8   5   1 943.560 113.100  30
  -8  -5   0 211.389 50.2850  42
  -8   5   0 289.638 65.8337  30
   9   0 -11 4640.95 178.931  50
  -9   0  10 797.794 107.246  47
   9   0 -10 830.336 89.9803  50
  -9   0   9 90.4498 43.9321  47
  -9   0   9 15.1601 36.0652  52
   9   0  -9 42.1400 41.3926  50
  -9   0   8 572.024 87.9130  52
   9   0  -8 393.985 82.2998  50
  -9   0   7 456.412 89.1479  52
   9   0  -7 510.179 94.4463  50
  -9   0   6 767.839 142.718  42
  -9   0   6 1014.43 133.645  53
  -9   0   6 639.117 96.8541  52
   9   0  -6 648.993 106.943  50
  -9   0   5 989.745 147.530  42
  -9   0   5 839.911 127.498  53
   9   0  -5 999.979 128.387  50
   9   0  -4 4593.94 268.623  44
  -9   0   4 4401.28 310.486  42
  -9   0   4 4325.00 291.178  53
   9   0  -4 4013.64 255.462  50
   9   0  -3 3013.16 223.209  44
  -9   0   3 3243.42 260.053  42
   9   0  -3 3103.84 225.839  41
  -9   0   3 3154.75 253.230  53
   9   0  -3 3110.87 225.313  50
   9   0  -2 7119.30 341.131  44
  -9   0   2 6049.10 338.683  42
   9   0  -2 6235.63 329.395  41
  -9   0   2 6478.61 363.664  53
   9   0  -2 6492.11 321.001  50
   9   0  -1 604.824 103.993  44
   9   0  -1 518.165 106.857  41
  -9   0   1 469.973 98.2516  57
  -9   0   1 562.826 120.227  53
   9   0  -1 586.622 99.0164  50
   9   0   0 3092.69 222.401  44
   9   0   0 2497.44 215.158  41
  -9   0   0 2783.28 233.446  57
  -9   0   0 3098.61 248.259  53
   9   0   0 2773.29 202.768  50
   9   0   1-41.3353 48.7561  44
   9   0   1-9.02110 42.7180  41
  -9   0  -1 48.8363 56.1399  57
  -9   0  -1 40.1640 52.3460  53
   9   0   1 68.8679 46.4309  50
   9   0   2 76.8877 49.4764  44
   9   0   2 86.2876 54.9154  41
  -9   0  -2 147.487 67.6685  57
   9   0   2 120.834 55.1518  55
  -9   0  -2 76.5854 56.9313  53
   9   0   3 39.6789 42.2602  44
   9   0   3 26.2221 43.9562  41
  -9   0  -3 27.8370 50.7592  57
   9   0   3 19.4163 46.0079  55
  -9   0  -3 26.9766 45.0355  53
   9   0   4 505.499 77.6904  44
   9   0   4 519.859 92.1173  41
  -9   0  -4 455.610 93.3518  57
   9   0   4 528.135 94.3023  55
  -9   0  -4 351.223 66.4118  53
   9   0   5 71.9514 31.9854  44
   9   0   5 54.1303 47.8503  41
  -9   0  -5 89.4117 53.1376  57
   9   0   5 94.9191 45.6992  55
   9   0   6 528.388 74.1266  41
  -9   0  -6 499.138 77.4982  57
   9   0   6 512.806 74.1122  55
  -9  -1  10 1379.22 128.552  47
   9  -1 -10 1662.79 128.774  39
  -9   1  10 1707.51 112.348  52
   9   1 -10 1713.27 124.905  50
   9  -1 -10 1781.04 118.472  50
  -9  -1   9 1141.09 129.905  47
   9  -1  -9 1111.53 117.670  39
  -9   1   9 1288.48 114.338  52
   9   1  -9 1236.70 118.507  50
   9  -1  -9 1118.77 110.862  50
  -9  -1   8 3337.97 243.433  42
   9  -1  -8 2696.31 187.360  39
  -9   1   8 3051.63 188.858  52
   9   1  -8 2833.09 186.104  50
   9  -1  -8 2976.69 189.914  50
  -9  -1   7 7089.94 373.032  42
   9  -1  -7 6366.92 294.578  39
  -9   1   7 6742.62 296.617  52
  -9  -1   7 6101.57 254.852  52
   9   1  -7 6762.15 295.881  50
   9  -1  -7 6931.88 307.511  50
  -9  -1   6 963.478 152.168  42
   9  -1  -6 843.112 113.386  39
  -9   1   6 856.658 120.759  52
   9   1  -6 841.651 113.403  50
   9  -1  -6 875.172 124.410  50
  -9  -1   5 6070.15 361.669  42
   9   1  -5 6280.65 309.113  41
  -9  -1   5 6385.24 318.228  53
  -9   1   5 5274.58 282.169  52
   9   1  -5 6466.21 303.901  50
   9  -1  -5 6034.76 309.826  50
   9  -1  -4 2228.50 187.311  44
  -9  -1   4 1881.56 204.652  42
   9   1  -4 2193.16 189.478  41
  -9   1   4 2307.99 215.434  53
  -9  -1   4 1666.35 178.179  53
   9   1  -4 2163.83 176.812  50
   9  -1  -4 2008.14 182.812  50
   9   1  -3 1070.87 130.734  44
   9  -1  -3 709.388 117.631  44
  -9  -1   3 662.494 124.031  42
   9   1  -3 839.541 124.267  41
  -9   1   3 889.986 142.476  53
  -9  -1   3 758.919 130.644  53
   9  -1  -3 944.240 128.047  50
   9   1  -3 684.666 100.051  50
   9   1  -2 2325.89 189.534  44
   9  -1  -2 2351.82 198.864  44
  -9  -1   2 2204.53 209.328  42
   9   1  -2 2175.50 194.725  41
  -9   1   2 2505.74 221.034  53
  -9  -1   2 1895.96 195.532  53
   9   1  -2 2194.11 174.293  50
   9  -1  -2 2223.56 194.639  50
   9   1  -1 1085.51 127.764  44
   9  -1  -1 845.431 127.354  44
   9   1  -1 886.730 133.280  41
  -9   1   1 874.636 141.419  57
  -9   1   1 1171.79 157.637  53
  -9  -1   1 846.000 135.509  53
   9   1   0 1140.17 132.737  44
   9  -1   0 877.301 127.343  44
   9   1   0 1013.27 139.370  41
   9  -1   0 1034.25 133.909  41
  -9   1   0 1178.82 158.534  57
  -9   1   0 1033.20 143.057  53
  -9  -1   0 911.460 137.152  53
   9   1   1 545.659 94.5673  44
   9  -1   1 442.168 95.9432  44
   9   1   1 496.678 106.034  41
   9  -1   1 492.234 95.6001  41
  -9   1  -1 555.489 116.044  57
   9   1   1 632.397 106.736  55
  -9   1  -1 618.987 112.107  53
  -9  -1  -1 449.703 103.437  53
   9   1   2 5149.11 243.091  44
   9  -1   2 5035.73 272.388  44
   9   1   2 5416.30 297.100  41
   9  -1   2 4799.80 281.579  41
  -9   1  -2 5583.95 324.804  57
  -9  -1  -2 4700.90 279.862  57
   9   1   2 5510.96 299.384  55
  -9   1  -2 5290.95 280.639  53
  -9  -1  -2 4667.88 280.962  53
   9  -1   3 1894.72 160.873  44
   9   1   3 1847.41 170.288  41
   9  -1   3 1700.93 164.511  41
  -9   1  -3 1923.56 183.848  57
  -9  -1  -3 1743.57 169.978  57
   9   1   3 2044.81 180.422  55
  -9   1  -3 1733.39 148.049  53
  -9  -1  -3 1688.41 161.919  53
   9  -1   4 1642.25 138.075  44
   9   1   4 1706.04 150.514  41
   9  -1   4 1443.30 143.017  41
  -9   1  -4 1863.16 169.379  57
  -9  -1  -4 1414.75 148.968  57
   9   1   4 1817.13 162.820  55
   9  -1   4 1532.52 139.958  55
  -9  -1  -4 1427.71 132.003  53
   9  -1   5 280.127 57.4666  44
   9   1   5 275.238 63.2599  41
   9  -1   5 215.598 57.3138  41
  -9   1  -5 278.571 65.0182  57
  -9  -1  -5 284.738 68.1619  57
   9   1   5 343.647 71.3190  55
   9  -1   5 276.549 62.1932  55
  -9  -1  -5 175.309 45.8079  53
   9  -1   6 1672.42 120.249  41
  -9   1  -6 1862.36 130.845  57
   9   1   6 1857.26 132.926  55
   9  -2 -10 1048.74 100.136  39
  -9   2  10 1178.90 87.4705  52
   9   2 -10 1064.05 89.2379  50
  -9  -2   9-0.84628 34.4316  47
   9  -2  -9 97.2015 48.1074  39
  -9   2   9 16.8222 30.2042  52
   9   2  -9 45.2795 35.5748  50
  -9  -2   8 7285.72 321.225  42
   9  -2  -8 7161.38 294.488  39
  -9   2   8 8201.95 288.652  52
   9   2  -8 7307.26 266.170  50
   9  -2  -8 7487.28 265.301  50
  -9  -2   7 1474.16 163.780  42
   9   2  -7 1477.75 139.089  41
   9  -2  -7 1391.49 136.706  39
  -9   2   7 1428.02 159.350  30
  -9   2   7 1675.58 143.931  52
   9   2  -7 1510.53 130.668  50
   9  -2  -7 1492.43 134.781  50
  -9  -2   6 10806.4 446.846  42
   9   2  -6 10697.2 380.595  41
  -9   2   6 10657.9 442.519  30
  -9   2   6 10747.8 367.558  52
   9   2  -6 10909.6 347.750  50
   9  -2  -6 10483.9 367.984  50
  -9  -2   5 1986.49 204.393  42
   9   2  -5 1815.41 171.766  41
  -9   2   5 2471.14 216.209  30
  -9   2   5 2326.69 179.678  52
   9   2  -5 2288.42 162.046  50
   9  -2  -5 2037.07 173.466  50
   9  -2  -4 2773.90 193.083  44
  -9  -2   4 2455.76 226.200  42
   9   2  -4 2919.17 213.398  41
  -9   2   4 2613.44 229.864  30
  -9   2   4 2615.91 193.461  52
   9  -2  -4 2627.95 200.902  50
   9  -2  -3 1191.49 132.983  44
  -9  -2   3 1110.61 157.145  42
   9   2  -3 1247.44 146.960  41
  -9   2   3 1234.07 160.031  30
  -9  -2   3 1216.69 140.284  53
  -9   2   3 1090.37 126.752  52
   9  -2  -3 1095.58 136.294  50
   9  -2  -2 7176.10 322.848  44
  -9  -2   2 6576.27 352.605  42
   9   2  -2 7679.34 354.667  41
  -9  -2   2 6187.14 327.568  53
  -9   2   2 6795.84 299.283  52
   9  -2  -1 1437.63 147.125  44
  -9  -2   1 1268.30 154.961  42
   9   2  -1 1467.47 161.587  41
  -9   2   1 1778.39 182.456  53
  -9  -2   1 1282.09 156.064  53
   9  -2   0 1083.90 132.509  44
   9   2   0 1287.83 150.836  41
  -9   2   0 1127.06 142.111  53
  -9  -2   0 965.370 139.211  53
   9  -2   1 841.565 115.524  44
   9   2   1 781.785 117.579  41
  -9   2  -1 890.412 120.386  53
  -9  -2  -1 561.496 101.823  53
   9   2   2 461.031 89.0181  41
   9  -2   2 284.581 62.4411  41
  -9   2  -2 485.962 101.655  57
  -9  -2  -2 402.540 87.0337  53
   9   2   3 1887.66 152.236  41
   9  -2   3 1740.25 146.562  41
  -9   2  -3 1907.89 169.191  57
  -9  -2  -3 1581.64 148.774  53
   9   2   4 23.5663 38.0819  41
   9  -2   4 60.1239 40.9509  41
  -9  -2  -4 26.6620 33.4582  53
   9  -2   5 255.523 51.2879  44
   9  -2   5 247.467 50.2951  41
  -9  -3   8 3530.86 181.894  42
   9  -3  -8 3758.25 188.419  39
  -9   3   8 3754.23 162.752  52
  -9  -3   7 1037.78 116.072  42
   9   3  -7 872.715 100.981  41
   9  -3  -7 925.857 107.644  39
  -9   3   7 1050.15 130.627  30
  -9   3   7 875.078 90.6592  52
  -9  -3   6 379.863 78.8042  42
   9   3  -6 425.219 75.8508  41
   9  -3  -6 456.781 82.4594  39
  -9   3   6 439.109 89.6105  30
  -9   3   6 411.488 69.2769  52
  -9  -3   5 1101.51 135.449  42
   9   3  -5 1256.64 131.092  41
  -9   3   5 1123.79 146.075  30
  -9   3   5 1131.15 107.938  52
   9  -3  -5 1030.62 110.973  50
  -9  -3   4 1447.23 161.779  42
   9   3  -4 1659.01 153.116  41
  -9   3   4 1509.27 168.442  30
  -9   3   4 1532.67 125.235  52
   9  -3  -4 1544.90 139.057  50
  -9  -3   3 1100.95 140.007  42
   9   3  -3 888.033 118.620  41
  -9   3   3 1173.70 150.746  30
   9  -3  -3 968.430 117.749  50
   9   3  -2 398.107 67.5583  45
  -9  -3   2 280.330 72.4099  42
   9   3  -2 475.636 89.1241  41
  -9   3   2 295.611 86.6284  30
  -9  -3   2 256.680 64.8052  53
   9  -3  -2 373.528 76.5463  50
   9   3  -1 286.081 66.9347  45
   9  -3  -1 148.343 48.2381  44
  -9  -3   1 247.485 73.1212  42
   9   3  -1 243.114 65.3645  41
  -9   3   1 233.892 74.7515  30
  -9  -3   1 233.312 68.8845  53
   9   3   0 321.114 68.3415  45
   9  -3   0 268.911 60.8595  44
  -9  -3   0 232.827 65.7176  42
   9   3   0 273.115 70.0869  41
  -9   3   0 315.797 86.1030  30
  -9  -3   0 303.590 73.5817  53
   9   3   1 1131.14 113.378  45
   9  -3   1 1086.68 108.151  44
   9   3   1 1215.88 124.390  41
  -9   3  -1 1390.31 147.519  30
  -9  -3  -1 987.491 118.084  53
   9   3   2 374.090 63.8590  45
   9  -3   2 407.404 68.7934  44
   9   3   2 304.441 61.7795  41
  -9  -3  -2 345.007 71.2620  53
   9   3   3 1404.99 108.987  45
   9  -3   3 1340.48 105.280  44
  -9  -3  -3 1245.85 116.124  53
  -9  -4   5 1338.58 116.550  42
   9   4  -5 1415.73 112.639  41
   9  -4  -5 1367.02 107.800  39
  -9   4   5 1309.08 126.197  30
  -9  -4   4 568.976 85.4195  42
   9   4  -4 610.050 81.7318  41
  -9   4   4 585.201 94.7189  30
  -9  -4   3 328.125 66.0815  42
   9   4  -3 359.192 61.3052  41
  -9   4   3 320.997 73.8464  30
  -9  -4   2 45.3982 41.3443  42
   9   4  -2-44.2773 36.0551  41
  -9   4   2 51.0799 39.7013  30
  -9  -4   1 2095.31 145.220  42
   9   4  -1 2158.25 137.242  41
  -9   4   1 2220.33 168.826  30
  10   0  -8 380.913 60.1711  50
 -10   0   7 355.839 61.1791  52
  10   0  -7 405.635 66.2142  50
 -10   0   6-8.95422 31.2350  52
  10   0  -6 36.8664 40.0547  50
 -10   0   5 397.237 71.2996  52
  10   0  -5 409.055 72.6622  50
 -10   0   4 626.721 98.1059  53
  10   0  -4 519.508 80.0770  50
 -10   0   3 244.320 71.4353  53
  10   0  -3 207.681 57.9727  50
  10   0  -2 2076.34 155.199  44
  10   0  -2 2072.79 150.325  41
 -10   0   2 2100.13 177.462  53
  10   0  -2 1861.23 141.314  50
  10   0  -1 1385.43 124.389  44
  10   0  -1 1502.05 132.947  41
 -10   0   1 1594.27 154.889  53
  10   0  -1 1446.97 122.134  50
  10   0   0 2122.77 147.765  44
  10   0   0 2042.16 154.256  41
 -10   0   0 2009.01 165.660  53
  10   0   1 91.7548 41.1412  44
  10   0   1 34.5804 41.2482  41
 -10   0  -1 33.4608 35.7628  53
  10   0   2 4107.14 173.996  44
  10   0   2 3992.64 196.704  41
 -10   0  -2 4287.84 199.312  53
  10   0   3 170.883 42.8619  41
  10   1  -8 1338.14 95.6517  50
 -10   1   7 503.778 68.1276  52
  10   1  -7 420.992 62.1037  50
  10  -1  -7 428.868 65.9696  50
 -10   1   6 43.9323 41.6690  52
  10   1  -6 20.1833 31.3040  50
  10  -1  -6 5.37449 32.1059  50
 -10  -1   5 285.483 74.0097  42
 -10   1   5 230.446 58.5727  52
 -10  -1   5 193.496 51.2983  52
  10   1  -5 267.154 56.2835  50
  10  -1  -5 302.897 61.7952  50
 -10  -1   4 1067.06 128.376  42
  10   1  -4 1153.01 111.070  41
 -10  -1   4 1155.88 120.773  53
 -10   1   4 897.898 102.696  52
  10   1  -4 925.518 94.8045  50
  10  -1  -4 948.585 106.880  50
  10  -1  -3 2335.81 160.404  44
 -10  -1   3 2116.78 172.140  42
  10   1  -3 2408.14 167.967  41
 -10  -1   3 2493.15 181.402  53
 -10   1   3 2203.01 156.896  52
  10  -1  -3 2178.10 157.358  50
  10  -1  -2 427.676 74.7129  44
  10   1  -2 464.189 79.3251  41
 -10   1   2 397.486 84.6568  53
 -10  -1   2 428.030 79.9978  53
  10  -1  -2 289.760 65.5345  50
  10  -1  -1 1688.97 136.894  44
  10   1  -1 1521.11 135.358  41
 -10   1   1 1742.28 153.799  53
 -10  -1   1 1468.67 143.785  53
  10  -1  -1 1452.62 126.541  50
  10  -1   0 1132.25 109.061  44
  10   1   0 1181.11 118.260  41
 -10   1   0 1194.47 121.041  53
 -10  -1   0 1204.24 126.592  53
  10  -1   0 1026.38 100.024  50
  10  -1   1 1078.61 101.207  44
  10   1   1 1069.40 108.993  41
  10  -1   1 920.093 93.2581  41
 -10   1  -1 1186.11 112.133  53
 -10  -1  -1 1050.18 113.457  53
  10  -1   1 938.465 90.1447  50
  10  -1   2 301.835 55.4186  44
  10   1   2 311.297 58.3209  41
 -10  -1  -2 298.880 59.4434  53
 -10  -2   6 398.466 76.5535  42
  10  -2  -6 331.973 59.0512  39
 -10   2   6 439.695 62.0855  52
  10  -2  -6 441.680 63.1309  50
 -10  -2   5 2740.37 184.934  42
  10   2  -5 2875.21 159.179  41
  10  -2  -5 2872.26 159.128  39
 -10   2   5 3209.59 162.044  52
  10  -2  -5 3007.75 160.642  50
  10   2  -4 6.48199 27.7268  41
  10  -2  -4 9.85829 31.0867  39
 -10   2   4 88.4725 39.6627  52
  10  -2  -4 31.2692 32.6066  50
 -10  -2   3 1836.42 150.931  42
  10   2  -3 1915.50 141.927  41
 -10  -2   3 2137.79 142.120  53
 -10   2   3 2037.24 129.965  52
  10  -2  -3 2095.51 143.820  50
  10  -2  -2 277.284 57.0085  44
 -10  -2   2 169.720 51.2784  42
  10   2  -2 304.469 60.8960  41
 -10  -2   2 357.810 69.2319  53
 -10   2   2 276.814 54.1714  52
  10  -2  -2 268.268 57.7082  50
  10  -2  -1 934.530 90.9613  44
  10   2  -1 892.428 98.1763  41
 -10  -2   1 845.628 100.752  53
  10  -2  -1 813.195 90.5575  50
  10  -2   0 858.139 84.8638  44
  10   2   0 958.841 98.1887  41
 -10  -2   0 773.450 95.4492  53
  10  -2   0 823.380 87.6493  50
  10  -2   1 406.957 57.9072  44
  10   2   1 437.890 66.1388  41
 -10  -2  -1 462.217 73.2882  53
  10  -2   1 452.259 61.1696  50
   0   0   0    0.00    0.00   0
TITL ez_aj-214_room in P2(1)/m
REM P2(1)/m (#11 in standard setting)
CELL 1.54184   8.713624   6.360608  13.361334  90.0000 100.2203  90.0000
ZERR    4.00   0.000224   0.000174   0.000341   0.0000   0.0024   0.0000
LATT  1
SYMM -x, y+1/2,-z
SFAC C H N O
UNIT 32.00 32.00 8.00 4.00
TREF
HKLF 4
END
;
_shelx_hkl_checksum              25872
_shelx_res_file
;
TITL SIR97 run in space group P 21
CELL  1.54184   8.7136   6.3606  13.3613   90.000  100.220   90.000
ZERR     2.00   0.0002   0.0002   0.0003    0.000    0.002    0.000
LATT  -1
SYMM  - X, 1/2 + Y, - Z
SFAC  C    H    N    O
UNIT  28   42   2    8
MERG   2
EQIV $1 x-1, y, z
HTAB C11 O2_$1
HTAB C12 O2_$2
EQIV $2 -x+2, y-0.5, -z+1
HTAB C15 O10_$3
EQIV $3 -x+2, y+0.5, -z+2
MPLA  4  C1 C2 C3 C4 C5
MPLA  6  C5 N6 C7 C8 O9 C10 O7 O10
MPLA  5  C1 C2 C3 C4 C5
MPLA  4  N6 C7 C10 O9 C5 C8 O7 O10
MPLA  4  C5 N6 O9 C10 C7 C8 O7 O10
MPLA  4  C1 C2 C3 C4 C5
FMAP   2
PLAN   25
SIZE     0.150   0.200   0.300
ACTA
BOND   $H
CONF
L.S.  10
TEMP    20.00
WGHT    0.049500    0.048600
EXTI    0.035677
FVAR      19.07935
C8    1    0.758239   -0.009935    0.773559    11.00000    0.04930    0.06157 =
         0.04528    0.00783    0.01060   -0.00088
O9    4    0.911981   -0.104810    0.805108    11.00000    0.06187    0.06469 =
         0.06441    0.02445    0.02063    0.01239
C10   1    1.045215   -0.023782    0.787887    11.00000    0.05419    0.06163 =
         0.04721    0.00761    0.01170    0.01036
C5    1    1.041142    0.153057    0.710983    11.00000    0.04565    0.05310 =
         0.04157    0.00333    0.00675    0.00300
N6    3    0.886691    0.215705    0.659144    11.00000    0.04590    0.04834 =
         0.04015    0.00326    0.00584    0.00117
C7    1    0.767522    0.143861    0.687799    11.00000    0.04685    0.05118 =
         0.03818    0.00031    0.00542    0.00163
C12   1    0.653020   -0.192194    0.732564    11.00000    0.09018    0.07310 =
         0.07096    0.00703    0.01679   -0.02451
AFIX 137
H12A  2    0.658745   -0.299327    0.783702    11.00000   -1.50000
H12B  2    0.686342   -0.249096    0.673402    11.00000   -1.50000
H12C  2    0.547459   -0.143372    0.714674    11.00000   -1.50000
AFIX   0
C13   1    0.714818    0.096991    0.870270    11.00000    0.05275    0.09420 =
         0.04144    0.00658    0.01238    0.00605
C14   1    0.721027   -0.068611    0.955424    11.00000    0.10512    0.14949 =
         0.06069    0.03959    0.03378    0.02229
AFIX 137
H14A  2    0.702212   -0.001458    1.016449    11.00000   -1.50000
H14B  2    0.822042   -0.133645    0.967932    11.00000   -1.50000
H14C  2    0.642687   -0.173669    0.934823    11.00000   -1.50000
AFIX   0
C15   1    0.829716    0.273077    0.907004    11.00000    0.08177    0.12375 =
         0.06199   -0.03390    0.01839   -0.00821
AFIX 137
H15A  2    0.798700    0.342770    0.963957    11.00000   -1.50000
H15B  2    0.830578    0.372317    0.852973    11.00000   -1.50000
H15C  2    0.932237    0.215046    0.927218    11.00000   -1.50000
AFIX   0
C16   1    0.551401    0.191315    0.848647    11.00000    0.06193    0.13203 =
         0.07096    0.00251    0.02157    0.02019
AFIX 137
H16A  2    0.544872    0.291831    0.794458    11.00000   -1.50000
H16B  2    0.530057    0.259904    0.908695    11.00000   -1.50000
H16C  2    0.476391    0.081596    0.829173    11.00000   -1.50000
AFIX   0
O7    4    0.623543    0.194898    0.638157    11.00000    0.04564    0.07553 =
         0.04884    0.00974    0.00410    0.00016
C11   1    0.617845    0.321545    0.548117    11.00000    0.05653    0.07120 =
         0.05045    0.01161   -0.00065    0.00363
AFIX 137
H11A  2    0.665137    0.246177    0.499241    11.00000   -1.50000
H11B  2    0.673401    0.450507    0.565592    11.00000   -1.50000
H11C  2    0.511202    0.352304    0.519549    11.00000   -1.50000
AFIX   0
O10   4    1.165848   -0.099847    0.830215    11.00000    0.06427    0.10323 =
         0.07520    0.03694    0.01241    0.02574
C4    1    1.130297    0.351986    0.755572    11.00000    0.05200    0.06553 =
         0.05387   -0.01027    0.00371   -0.00447
AFIX  23
H4A   2    1.064746    0.440517    0.789511    11.00000   -1.20000
H4B   2    1.223289    0.314575    0.803631    11.00000   -1.20000
AFIX   0
C3    1    1.172380    0.462692    0.663071    11.00000    0.07086    0.06284 =
         0.07733   -0.00010    0.01486   -0.01437
AFIX  23
H3A   2    1.094248    0.567041    0.637053    11.00000   -1.20000
H3B   2    1.272817    0.531801    0.680425    11.00000   -1.20000
AFIX   0
C2    1    1.177994    0.292550    0.585705    11.00000    0.04797    0.06732 =
         0.06040    0.01066    0.01479    0.00522
C1    1    1.133150    0.086334    0.627786    11.00000    0.05255    0.06044 =
         0.04818    0.00278    0.01250    0.00618
AFIX  23
H1A   2    1.224805    0.005336    0.656372    11.00000   -1.20000
H1B   2    1.068681    0.003560    0.575541    11.00000   -1.20000
AFIX   0
O2    4    1.212484    0.316868    0.502956    11.00000    0.09983    0.09149 =
         0.07655    0.02425    0.04604    0.01558
HKLF 4
REM  SIR97 run in space group P 21
REM R1 =  0.0315 for    2687 Fo > 4sig(Fo)  and  0.0325 for all    2784 data
REM    178 parameters refined using      1 restraints
END
WGHT      0.0499      0.0485
REM Highest difference peak  0.139,  deepest hole -0.117,  1-sigma level  0.027
Q1    1   0.7661  0.0708  0.7348  11.00000  0.05    0.14
Q2    1   0.7437  0.0454  0.8209  11.00000  0.05    0.12
Q3    1   1.0363  0.0467  0.7387  11.00000  0.05    0.11
Q4    1   1.0885  0.1068  0.6615  11.00000  0.05    0.10
Q5    1   1.0566  0.3935  0.8200  11.00000  0.05    0.10
Q6    1   0.5584  0.2208  0.6885  11.00000  0.05    0.09
Q7    1   1.1728  0.3761  0.6191  11.00000  0.05    0.09
Q8    1   0.7385  0.1005  1.0356  11.00000  0.05    0.08
Q9    1   1.1975  0.1879  0.6161  11.00000  0.05    0.08
Q10   1   0.9085 -0.1475  0.8816  11.00000  0.05    0.08
Q11   1   0.9504  0.3737  0.8565  11.00000  0.05    0.08
Q12   1   1.1261  0.1979  0.5978  11.00000  0.05    0.08
Q13   1   0.4784 -0.0379  0.8342  11.00000  0.05    0.07
Q14   1   0.7192 -0.0074  0.8983  11.00000  0.05    0.07
Q15   1   0.9450 -0.0128  0.8427  11.00000  0.05    0.07
Q16   1   0.9117  0.2798  0.7958  11.00000  0.05    0.07
Q17   1   1.2175  0.2333  0.8616  11.00000  0.05    0.07
Q18   1   1.1066  0.3362  0.8444  11.00000  0.05    0.07
Q19   1   1.2400 -0.0817  0.7623  11.00000  0.05    0.07
Q20   1   1.1649  0.2645  0.8464  11.00000  0.05    0.07
Q21   1   0.9089  0.2535  0.5807  11.00000  0.05    0.07
Q22   1   0.5099  0.1511  0.9160  11.00000  0.05    0.07
Q23   1   1.1590 -0.1090  0.7963  11.00000  0.05    0.07
Q24   1   0.8170  0.4176  0.8206  11.00000  0.05    0.07
Q25   1   0.6447  0.3633  0.9562  11.00000  0.05    0.07
;
_shelx_res_checksum              52790
_shelxl_version_number           .2013
loop_
_symmetry_equiv_pos_as_xyz
'x, y, z'
'-x, y+1/2, -z'
loop_
_atom_site_type_symbol
_atom_site_label
_atom_site_fract_x
_atom_site_fract_y
_atom_site_fract_z
_atom_site_U_iso_or_equiv
_atom_site_adp_type
_atom_site_calc_flag
_atom_site_occupancy
C C8 0.7582(2) -0.0099(3) 0.77356(13) 0.0518(4) Uani d 1
O O9 0.91198(16) -0.1048(2) 0.80511(11) 0.0625(4) Uani d 1
C C10 1.0452(2) -0.0238(3) 0.78789(14) 0.0540(4) Uani d 1
C C5 1.04114(19) 0.1531(3) 0.71098(12) 0.0469(4) Uani d 1
N N6 0.88669(16) 0.2157(2) 0.65914(10) 0.0450(3) Uani d 1
C C7 0.76752(19) 0.1439(3) 0.68780(12) 0.0457(4) Uani d 1
C C12 0.6530(3) -0.1922(5) 0.73256(19) 0.0778(7) Uani d 1
H H12A 0.6587 -0.2993 0.7837 0.117 Uiso calc 1
H H12B 0.6863 -0.2491 0.6734 0.117 Uiso calc 1
H H12C 0.5475 -0.1434 0.7147 0.117 Uiso calc 1
C C13 0.7148(2) 0.0970(4) 0.87027(14) 0.0623(6) Uani d 1
C C14 0.7210(4) -0.0686(7) 0.9554(2) 0.1028(11) Uani d 1
H H14A 0.7022 -0.0015 1.0164 0.154 Uiso calc 1
H H14B 0.822 -0.1336 0.9679 0.154 Uiso calc 1
H H14C 0.6427 -0.1737 0.9348 0.154 Uiso calc 1
C C15 0.8297(3) 0.2731(6) 0.90700(19) 0.0885(9) Uani d 1
H H15A 0.7987 0.3428 0.964 0.133 Uiso calc 1
H H15B 0.8306 0.3723 0.853 0.133 Uiso calc 1
H H15C 0.9322 0.215 0.9272 0.133 Uiso calc 1
C C16 0.5514(3) 0.1913(6) 0.8486(2) 0.0871(9) Uani d 1
H H16A 0.5449 0.2918 0.7945 0.131 Uiso calc 1
H H16B 0.5301 0.2599 0.9087 0.131 Uiso calc 1
H H16C 0.4764 0.0816 0.8292 0.131 Uiso calc 1
O O7 0.62354(14) 0.1949(3) 0.63816(9) 0.0572(4) Uani d 1
C C11 0.6178(2) 0.3215(4) 0.54812(15) 0.0606(5) Uani d 1
H H11A 0.6651 0.2462 0.4992 0.091 Uiso calc 1
H H11B 0.6734 0.4505 0.5656 0.091 Uiso calc 1
H H11C 0.5112 0.3523 0.5195 0.091 Uiso calc 1
O O10 1.16585(18) -0.0998(3) 0.83021(13) 0.0809(6) Uani d 1
C C4 1.1303(2) 0.3520(3) 0.75557(15) 0.0578(5) Uani d 1
H H4A 1.0647 0.4405 0.7895 0.069 Uiso calc 1
H H4B 1.2233 0.3146 0.8036 0.069 Uiso calc 1
C C3 1.1724(3) 0.4627(4) 0.66307(18) 0.0701(6) Uani d 1
H H3A 1.0942 0.567 0.6371 0.084 Uiso calc 1
H H3B 1.2728 0.5318 0.6804 0.084 Uiso calc 1
C C2 1.1780(2) 0.2925(4) 0.58571(15) 0.0579(5) Uani d 1
C C1 1.1331(2) 0.0863(4) 0.62779(14) 0.0533(4) Uani d 1
H H1A 1.2248 0.0053 0.6564 0.064 Uiso calc 1
H H1B 1.0687 0.0036 0.5755 0.064 Uiso calc 1
O O2 1.2125(2) 0.3169(4) 0.50296(14) 0.0856(6) Uani d 1
loop_
_atom_site_aniso_label
_atom_site_aniso_U_11
_atom_site_aniso_U_22
_atom_site_aniso_U_33
_atom_site_aniso_U_12
_atom_site_aniso_U_13
_atom_site_aniso_U_23
C8 0.0493(9) 0.0616(11) 0.0453(9) -0.0009(8) 0.0106(7) 0.0078(8)
O9 0.0619(8) 0.0647(9) 0.0644(8) 0.0124(7) 0.0206(6) 0.0245(7)
C10 0.0542(10) 0.0616(11) 0.0472(9) 0.0104(9) 0.0117(7) 0.0076(8)
C5 0.0457(8) 0.0531(10) 0.0416(8) 0.0030(7) 0.0067(6) 0.0033(7)
N6 0.0459(7) 0.0483(8) 0.0401(7) 0.0012(6) 0.0058(5) 0.0033(6)
C7 0.0468(9) 0.0512(10) 0.0382(8) 0.0016(7) 0.0054(6) 0.0003(7)
C12 0.0902(16) 0.0731(15) 0.0710(13) -0.0245(14) 0.0168(12) 0.0070(13)
C13 0.0527(9) 0.0942(16) 0.0414(8) 0.0061(11) 0.0124(7) 0.0066(10)
C14 0.105(2) 0.149(3) 0.0607(14) 0.022(2) 0.0338(14) 0.0396(18)
C15 0.0818(15) 0.124(2) 0.0620(13) -0.0082(16) 0.0184(11) -0.0339(15)
C16 0.0619(12) 0.132(3) 0.0710(14) 0.0202(15) 0.0216(10) 0.0025(16)
O7 0.0456(6) 0.0755(9) 0.0488(7) 0.0002(6) 0.0041(5) 0.0097(6)
C11 0.0565(10) 0.0712(13) 0.0504(10) 0.0036(10) -0.0007(8) 0.0116(10)
O10 0.0643(9) 0.1032(13) 0.0752(10) 0.0257(9) 0.0124(7) 0.0369(10)
C4 0.0520(9) 0.0655(13) 0.0539(10) -0.0045(9) 0.0037(7) -0.0103(9)
C3 0.0709(13) 0.0628(13) 0.0773(15) -0.0144(11) 0.0149(11) -0.0001(11)
C2 0.0480(9) 0.0673(12) 0.0604(11) 0.0052(9) 0.0148(8) 0.0107(10)
C1 0.0525(9) 0.0604(11) 0.0482(9) 0.0062(9) 0.0125(7) 0.0028(8)
O2 0.0998(12) 0.0915(12) 0.0765(10) 0.0156(11) 0.0460(9) 0.0243(10)
loop_
_atom_type_symbol
_atom_type_description
_atom_type_scat_dispersion_real
_atom_type_scat_dispersion_imag
_atom_type_scat_source
C C 0.0181 0.0091 'International Tables Vol C Tables 4.2.6.8 and 6.1.1.4'
H H 0 0 'International Tables Vol C Tables 4.2.6.8 and 6.1.1.4'
N N 0.0311 0.018 'International Tables Vol C Tables 4.2.6.8 and 6.1.1.4'
O O 0.0492 0.0322 'International Tables Vol C Tables 4.2.6.8 and 6.1.1.4'
loop_
_exptl_crystal_face_index_h
_exptl_crystal_face_index_k
_exptl_crystal_face_index_l
_exptl_crystal_face_perp_dist
0 -1 -1 0.2137
0 1 1 0.211
0 -1 1 0.1769
0 0 1 0.2318
1 0 0 0.2822
-1 0 0 0.4204
-1 1 -1 0.2426
3 2 -7 0.2556
1 0 -1 0.2874
0 2 -7 0.2065
0 0 -1 0.2161
1 1 -1 0.2925
-1 0 1 0.3818
-4 3 1 0.292
-5 0 -3 0.3778
loop_
_geom_angle_atom_site_label_1
_geom_angle_atom_site_label_2
_geom_angle_atom_site_label_3
_geom_angle
O9 C8 C12 104.63(19)
O9 C8 C7 108.34(14)
C12 C8 C7 109.20(16)
O9 C8 C13 106.55(14)
C12 C8 C13 114.24(17)
C7 C8 C13 113.32(18)
C10 O9 C8 125.09(15)
O10 C10 O9 118.72(19)
O10 C10 C5 121.94(18)
O9 C10 C5 119.24(16)
N6 C5 C10 115.66(15)
N6 C5 C1 106.71(13)
C10 C5 C1 109.34(15)
N6 C5 C4 108.54(15)
C10 C5 C4 113.26(15)
C1 C5 C4 102.30(15)
C7 N6 C5 120.02(15)
N6 C7 O7 120.63(16)
N6 C7 C8 128.47(15)
O7 C7 C8 110.85(14)
C8 C12 H12A 109.5
C8 C12 H12B 109.5
H12A C12 H12B 109.5
C8 C12 H12C 109.5
H12A C12 H12C 109.5
H12B C12 H12C 109.5
C15 C13 C16 108.0(3)
C15 C13 C14 109.2(2)
C16 C13 C14 108.5(2)
C15 C13 C8 110.12(16)
C16 C13 C8 111.65(17)
C14 C13 C8 109.3(2)
C13 C14 H14A 109.5
C13 C14 H14B 109.5
H14A C14 H14B 109.5
C13 C14 H14C 109.5
H14A C14 H14C 109.5
H14B C14 H14C 109.5
C13 C15 H15A 109.5
C13 C15 H15B 109.5
H15A C15 H15B 109.5
C13 C15 H15C 109.5
H15A C15 H15C 109.5
H15B C15 H15C 109.5
C13 C16 H16A 109.5
C13 C16 H16B 109.5
H16A C16 H16B 109.5
C13 C16 H16C 109.5
H16A C16 H16C 109.5
H16B C16 H16C 109.5
C7 O7 C11 115.83(14)
O7 C11 H11A 109.5
O7 C11 H11B 109.5
H11A C11 H11B 109.5
O7 C11 H11C 109.5
H11A C11 H11C 109.5
H11B C11 H11C 109.5
C3 C4 C5 104.02(15)
C3 C4 H4A 111
C5 C4 H4A 111
C3 C4 H4B 111
C5 C4 H4B 111
H4A C4 H4B 109
C2 C3 C4 105.49(19)
C2 C3 H3A 110.6
C4 C3 H3A 110.6
C2 C3 H3B 110.6
C4 C3 H3B 110.6
H3A C3 H3B 108.8
O2 C2 C3 125.6(2)
O2 C2 C1 125.3(2)
C3 C2 C1 109.15(16)
C2 C1 C5 103.42(16)
C2 C1 H1A 111.1
C5 C1 H1A 111.1
C2 C1 H1B 111.1
C5 C1 H1B 111.1
H1A C1 H1B 109
loop_
_geom_bond_atom_site_label_1
_geom_bond_atom_site_label_2
_geom_bond_distance
C8 O9 1.462(2)
C8 C12 1.519(3)
C8 C7 1.520(2)
C8 C13 1.565(3)
O9 C10 1.327(3)
C10 O10 1.203(2)
C10 C5 1.520(3)
C5 N6 1.456(2)
C5 C1 1.541(2)
C5 C4 1.548(3)
N6 C7 1.255(2)
C7 O7 1.351(2)
C12 H12A 0.96
C12 H12B 0.96
C12 H12C 0.96
C13 C15 1.524(4)
C13 C16 1.525(3)
C13 C14 1.544(4)
C14 H14A 0.96
C14 H14B 0.96
C14 H14C 0.96
C15 H15A 0.96
C15 H15B 0.96
C15 H15C 0.96
C16 H16A 0.96
C16 H16B 0.96
C16 H16C 0.96
O7 C11 1.441(2)
C11 H11A 0.96
C11 H11B 0.96
C11 H11C 0.96
C4 C3 1.523(3)
C4 H4A 0.97
C4 H4B 0.97
C3 C2 1.503(3)
C3 H3A 0.97
C3 H3B 0.97
C2 O2 1.206(2)
C2 C1 1.506(3)
C1 H1A 0.97
C1 H1B 0.97
loop_
_geom_hbond_atom_site_label_D
_geom_hbond_atom_site_label_H
_geom_hbond_atom_site_label_A
_geom_hbond_site_symmetry_A
_geom_hbond_distance_DH
_geom_hbond_distance_HA
_geom_hbond_distance_DA
_geom_hbond_angle_DHA
C11 H11C O2 1_455 0.96 2.58 3.476(3) 155
C12 H12B O2 2_746 0.96 2.69 3.548(3) 148.9
C15 H15A O10 2_757 0.96 2.74 3.596(3) 149.4
loop_
_geom_torsion_atom_site_label_1
_geom_torsion_atom_site_label_2
_geom_torsion_atom_site_label_3
_geom_torsion_atom_site_label_4
_geom_torsion
C12 C8 O9 C10 137.0(2)
C7 C8 O9 C10 20.6(3)
C13 C8 O9 C10 -101.6(2)
C8 O9 C10 O10 169.22(19)
C8 O9 C10 C5 -14.3(3)
O10 C10 C5 N6 174.52(19)
O9 C10 C5 N6 -1.8(3)
O10 C10 C5 C1 54.1(3)
O9 C10 C5 C1 -122.26(19)
O10 C10 C5 C4 -59.3(3)
O9 C10 C5 C4 124.4(2)
C10 C5 N6 C7 8.8(2)
C1 C5 N6 C7 130.67(17)
C4 C5 N6 C7 -119.74(18)
C5 N6 C7 O7 -177.67(15)
C5 N6 C7 C8 -0.5(3)
O9 C8 C7 N6 -13.4(3)
C12 C8 C7 N6 -126.8(2)
C13 C8 C7 N6 104.6(2)
O9 C8 C7 O7 164.06(15)
C12 C8 C7 O7 50.7(2)
C13 C8 C7 O7 -77.93(19)
O9 C8 C13 C15 63.4(2)
C12 C8 C13 C15 178.4(2)
C7 C8 C13 C15 -55.7(2)
O9 C8 C13 C16 -176.6(2)
C12 C8 C13 C16 -61.6(3)
C7 C8 C13 C16 64.4(3)
O9 C8 C13 C14 -56.6(2)
C12 C8 C13 C14 58.4(2)
C7 C8 C13 C14 -175.61(19)
N6 C7 O7 C11 4.3(3)
C8 C7 O7 C11 -173.34(17)
N6 C5 C4 C3 -73.95(18)
C10 C5 C4 C3 156.16(17)
C1 C5 C4 C3 38.61(19)
C5 C4 C3 C2 -25.7(2)
C4 C3 C2 O2 -177.5(2)
C4 C3 C2 C1 2.6(2)
O2 C2 C1 C5 -158.34(19)
C3 C2 C1 C5 21.5(2)
N6 C5 C1 C2 77.38(18)
C10 C5 C1 C2 -156.85(15)
C4 C5 C1 C2 -36.53(18)

_cod_database_fobs_code 2020813
