#------------------------------------------------------------------------------
#$Date: 2016-04-01 04:41:49 +0300 (Fri, 01 Apr 2016) $
#$Revision: 180667 $
#$URL: svn://www.crystallography.net/cod/cif/2/02/04/2020456.cif $
#------------------------------------------------------------------------------
#
# This file is available in the Crystallography Open Database (COD),
# http://www.crystallography.net/. The original data for this entry
# were provided by IUCr Journals, http://journals.iucr.org/.
#
# The file may be used within the scientific community so long as
# proper attribution is given to the journal article from which the
# data were obtained.
#
data_2020456
loop_
_publ_author_name
'Hern\'andez-T\'ellez, Guadalupe'
'Moreno, Gloria E.'
'Bern\`es, Sylvain'
'Mendoza, Angel'
'Portillo, Oscar'
'Sharma, Pankaj'
'Guti\'errez, Ren\'e'
_publ_section_title
;
 Crystal structures of ten enantiopure Schiff bases bearing a naphthyl
 group
;
_journal_coeditor_code           HB7571
_journal_issue                   4
_journal_name_full
'Acta Crystallographica Section E Crystallographic Communications'
_journal_page_first              583
_journal_paper_doi               10.1107/S2056989016004692
_journal_volume                  72
_journal_year                    2016
_chemical_formula_iupac          'C19 H16 F N'
_chemical_formula_moiety         'C19 H16 F N'
_chemical_formula_sum            'C19 H16 F N'
_chemical_formula_weight         277.33
_chemical_melting_point          395
_chemical_name_systematic
;
(<i>R</i>)-(--)-2-({[(4-Fluorophenyl)ethyl]imino}methyl)naphthalene
;
_space_group_crystal_system      monoclinic
_space_group_IT_number           4
_space_group_name_Hall           'P 2yb'
_space_group_name_H-M_alt        'P 1 21 1'
_symmetry_space_group_name_Hall  'P 2yb'
_symmetry_space_group_name_H-M   'P 1 21 1'
_atom_sites_solution_hydrogens   geom
_atom_sites_solution_primary     direct
_atom_sites_solution_secondary   difmap
_audit_creation_method           SHELXL-2014/7
_cell_angle_alpha                90
_cell_angle_beta                 99.420(15)
_cell_angle_gamma                90
_cell_formula_units_Z            2
_cell_length_a                   7.5950(11)
_cell_length_b                   5.8997(9)
_cell_length_c                   16.996(3)
_cell_measurement_reflns_used    1285
_cell_measurement_temperature    298(2)
_cell_measurement_theta_max      21.9510
_cell_measurement_theta_min      3.3330
_cell_volume                     751.3(2)
_computing_cell_refinement
;
CrysAlis PRO (Agilent, 2013)
;
_computing_data_collection
;
CrysAlis PRO (Agilent, 2013)
;
_computing_data_reduction
;
CrysAlis PRO (Agilent, 2013)
;
_computing_molecular_graphics
;
SHELXTL (Sheldrick, 2008)
;
_computing_publication_material
;
<i>CifTab</i> (Sheldrick, 2015)
;
_computing_structure_refinement
;
SHELXL2014 (Sheldrick, 2015)
;
_computing_structure_solution
;
SHELXS2013 (Sheldrick, 2008)
;
_diffrn_ambient_temperature      298(2)
_diffrn_detector_area_resol_mean 10.5564
_diffrn_measured_fraction_theta_full 0.996
_diffrn_measured_fraction_theta_max 0.996
_diffrn_measurement_device       'four-circle diffractometer'
_diffrn_measurement_device_type  'Agilent Xcalibur Atlas Gemini'
_diffrn_measurement_method       '\w scans'
_diffrn_radiation_monochromator  graphite
_diffrn_radiation_type           MoK\a
_diffrn_radiation_wavelength     0.71073
_diffrn_reflns_av_R_equivalents  0.0512
_diffrn_reflns_limit_h_max       9
_diffrn_reflns_limit_h_min       -9
_diffrn_reflns_limit_k_max       6
_diffrn_reflns_limit_k_min       -7
_diffrn_reflns_limit_l_max       20
_diffrn_reflns_limit_l_min       -20
_diffrn_reflns_number            7823
_diffrn_reflns_theta_full        25.022
_diffrn_reflns_theta_max         25.022
_diffrn_reflns_theta_min         3.154
_exptl_absorpt_coefficient_mu    0.080
_exptl_absorpt_correction_T_max  0.994
_exptl_absorpt_correction_T_min  0.970
_exptl_absorpt_correction_type   analytical
_exptl_absorpt_process_details
;
(CrysAlis PRO; Agilent, 2013)
;
_exptl_crystal_colour            colorless
_exptl_crystal_density_diffrn    1.226
_exptl_crystal_description       prism
_exptl_crystal_F_000             292
_exptl_crystal_size_max          0.7364
_exptl_crystal_size_mid          0.2109
_exptl_crystal_size_min          0.0853
_refine_diff_density_max         0.233
_refine_diff_density_min         -0.192
_refine_ls_extinction_method     none
_refine_ls_goodness_of_fit_ref   1.252
_refine_ls_hydrogen_treatment    constr
_refine_ls_matrix_type           full
_refine_ls_number_constraints    0
_refine_ls_number_parameters     190
_refine_ls_number_reflns         2627
_refine_ls_number_restraints     1
_refine_ls_restrained_S_all      1.252
_refine_ls_R_factor_all          0.1136
_refine_ls_R_factor_gt           0.0655
_refine_ls_shift/su_max          0.000
_refine_ls_shift/su_mean         0.000
_refine_ls_structure_factor_coef Fsqd
_refine_ls_weighting_details
'w=1/[\s^2^(Fo^2^)+(0.0500P)^2^] where P=(Fo^2^+2Fc^2^)/3'
_refine_ls_weighting_scheme      calc
_refine_ls_wR_factor_gt          0.1352
_refine_ls_wR_factor_ref         0.1530
_reflns_number_gt                1640
_reflns_number_total             2627
_reflns_threshold_expression     'I > 2\s(I)'
_cod_data_source_file            hb7571sup1.cif
_cod_data_source_block           4
_cod_database_code               2020456
_shelx_hkl_file
;
   0  -7   0 110.277 201.301   1
   0  -7   1 353.522 271.872   1
   0  -7  -1 524.754 392.467   3
   0  -7  -1 184.874 210.515   1
   0  -7   2 211.819 235.964   1
   0  -7  -2-124.056 172.890   1
   0  -7  -2 319.510 378.371   3
   0  -7  -3 616.699 313.541   1
   0  -7  -3-54.5266 285.745   3
   0  -7   4-231.192 294.211   1
   0  -7  -4 133.226 147.282   1
   0  -7  -4-344.269 316.893   3
   0  -7   5-95.8928 233.819   1
   0  -7  -5-46.3687 269.651   3
   0  -6   0 1390.92 448.169   1
   0  -6  -1 1711.32 481.611   1
   0  -6   1 1156.84 384.489   1
   0  -6   2-310.458 306.229   1
   0  -6  -2 31.5166 215.166   1
   0  -6  -3-170.884 262.047   1
   0  -6   3 387.264 319.929   1
   0  -6  -3 20.4666 300.858   3
   0  -6  -4 929.900 398.510   1
   0  -6  -4 797.090 389.949   3
   0  -6   4 321.869 288.331   1
   0  -6  -5 67.1257 243.690   3
   0  -6   5-205.533 233.969   1
   0  -6  -6 818.859 350.989   3
   0  -6   6 1329.85 474.364   1
   0  -6  -6 595.590 313.663   1
   0  -6   7 889.297 401.953   1
   0  -6  -7 336.712 254.977   3
   0  -6  -8 141.168 237.852   3
   0  -6   8 434.989 305.428   1
   0  -6   9 65.0714 258.148   1
   0  -6  -9-30.1686 225.343   3
   0  -6  10 278.171 281.341   1
   0  -6 -10 608.254 312.816   3
   0  -6  11-573.342 343.883   1
   0  -6 -11 377.560 280.749   3
   0  -5   0-20.3937 149.941   5
   0  -5   0-249.124 242.931   1
   0  -5   0-89.5763 263.133   6
   0  -5   1 1325.78 375.285   1
   0  -5  -1 1397.26 391.875   6
   0  -5  -1 738.804 299.768   1
   0  -5   1 763.201 273.668   6
   0  -5   1 1057.72 324.271   5
   0  -5  -1 1081.84 298.838   5
   0  -5   2 2569.42 499.086   5
   0  -5  -2 3268.21 537.631   6
   0  -5   2 2494.53 480.217   1
   0  -5  -2 2445.04 391.518   5
   0  -5   2 2853.20 478.569   6
   0  -5  -2 2298.77 483.436   1
   0  -5  -3 1739.20 421.670   6
   0  -5  -3 1970.38 458.021   1
   0  -5   3 2108.49 477.419   1
   0  -5   3 2617.39 485.530   6
   0  -5   3 2783.34 519.738   5
   0  -5   4 3040.83 565.380   1
   0  -5   4 2045.53 482.880   5
   0  -5  -4 1477.35 391.559   1
   0  -5   4 1676.58 384.051   6
   0  -5  -4 1199.74 368.690   6
   0  -5  -4 1636.84 445.756   3
   0  -5  -5 1388.89 401.780   6
   0  -5   5 1744.27 432.890   1
   0  -5  -5 658.986 331.593   3
   0  -5  -6 1946.26 452.685   6
   0  -5   6 2348.24 517.634   1
   0  -5  -6 1456.57 390.983   3
   0  -5  -7 107.684 232.454   3
   0  -5   7 1.00668 250.757   1
   0  -5  -7 647.802 274.877   6
   0  -5  -8 1263.39 365.220   3
   0  -5   8 1677.46 477.761   1
   0  -5  -9 1500.58 393.093   3
   0  -5   9 686.633 345.311   1
   0  -5  10 568.905 372.188   1
   0  -5 -10 605.975 272.206   3
   0  -5 -11 107.302 179.660   3
   0  -5  11-438.101 313.010   1
   0  -5 -12 577.527 223.245   3
   0  -5  12-151.545 317.782   1
   0  -5  13 686.232 331.926   1
   0  -5  14 492.545 340.938   1
   0  -5 -15 384.064 285.924   6
   0  -5  15 11.7982 130.779   1
   0  -4   0 13231.8 903.049   6
   0  -4   0 15101.3 1124.43   2
   0  -4   0 14169.6 966.727   1
   0  -4   0 16257.8 1200.75   4
   0  -4   0 14278.2 871.999   5
   0  -4   1 3596.00 587.042   4
   0  -4   1 3403.82 560.033   2
   0  -4  -1 3258.24 566.323   4
   0  -4   1 3284.65 487.498   1
   0  -4   1 3252.22 462.358   6
   0  -4  -1 2856.13 385.010   5
   0  -4   1 2847.52 434.784   5
   0  -4  -1 3061.00 527.468   2
   0  -4  -1 2942.75 456.529   6
   0  -4  -1 3266.98 477.386   1
   0  -4   2 1869.48 455.450   4
   0  -4  -2 1871.44 375.150   6
   0  -4  -2 1969.40 312.316   5
   0  -4   2 2107.29 396.644   1
   0  -4  -2 2502.44 467.229   2
   0  -4   2 2839.39 536.803   2
   0  -4  -2 1762.73 390.656   1
   0  -4   2 2023.38 403.458   5
   0  -4   2 1993.42 374.469   6
   0  -4  -2 1829.16 432.470   4
   0  -4   3 4582.12 562.198   6
   0  -4  -3 4405.93 543.625   6
   0  -4   3 3998.90 615.042   4
   0  -4  -3 3800.52 582.825   4
   0  -4   3 4883.53 614.863   5
   0  -4   3 3927.92 545.325   1
   0  -4  -3 4443.07 595.682   2
   0  -4   4 1031.18 328.539   1
   0  -4   4 1456.24 335.276   6
   0  -4   4 1522.34 391.829   5
   0  -4  -4 1295.17 370.671   2
   0  -4  -4 1114.07 323.193   6
   0  -4  -5 1529.06 363.521   2
   0  -4   5 1833.68 418.477   1
   0  -4   5 1374.87 383.516   5
   0  -4  -5 2137.11 420.853   6
   0  -4  -5 1277.16 333.891   3
   0  -4   5 1646.24 375.987   6
   0  -4  -6 11529.7 902.199   2
   0  -4   6 11501.5 1023.87   5
   0  -4   6 11883.4 1005.59   1
   0  -4  -6 12926.3 1006.03   6
   0  -4  -6 9988.46 810.520   3
   0  -4   6 11408.1 946.093   6
   0  -4   7 13954.5 1119.58   1
   0  -4  -7 11931.7 853.912   3
   0  -4  -7 14442.9 1098.89   6
   0  -4   7 14139.5 1068.03   6
   0  -4  -8 8166.92 700.990   3
   0  -4   8 9607.95 957.256   1
   0  -4   9 593.549 300.946   1
   0  -4  -9 287.567 177.773   3
   0  -4 -10 133.562 156.747   3
   0  -4  10 46.4476 234.409   1
   0  -4 -11 308.110 190.831   3
   0  -4  11 82.8614 216.854   1
   0  -4 -12 95.0186 130.897   3
   0  -4  12 418.950 309.692   1
   0  -4  13 1438.91 458.019   1
   0  -4 -14 40.6181 157.313   6
   0  -4  14 263.687 244.699   1
   0  -4 -15 730.550 349.360   6
   0  -4  15 743.460 418.917   1
   0  -4  16 106.431 241.449   1
   0  -4 -16 743.808 349.841   6
   0  -4 -17 410.553 276.672   6
   0  -4  17-277.790 334.758   1
   0  -3   0-119.705 180.616   4
   0  -3   0-29.1983 206.171   1
   0  -3   0-37.8310 129.127   5
   0  -3   0-253.627 166.689   6
   0  -3   0-99.8430 204.126   2
   0  -3   1 7159.63 592.359   5
   0  -3   1 6560.35 573.798   1
   0  -3  -1 6894.86 678.330   4
   0  -3  -1 6570.59 547.659   6
   0  -3   1 6477.40 662.795   4
   0  -3  -1 6627.68 632.919   2
   0  -3  -1 5633.11 538.173   1
   0  -3  -1 5994.97 458.163   5
   0  -3   1 6170.26 542.624   6
   0  -3  -2 2105.68 373.254   2
   0  -3  -2 2009.19 380.943   4
   0  -3   2 1668.76 348.665   4
   0  -3   2 2003.56 356.714   5
   0  -3  -2 1552.71 225.097   5
   0  -3  -2 1997.70 328.989   6
   0  -3   2 1954.47 342.680   1
   0  -3   2 1888.21 307.802   6
   0  -3  -3 5479.03 556.734   2
   0  -3   3 5094.49 553.077   5
   0  -3   3 5049.08 515.066   6
   0  -3  -3 4673.57 494.463   6
   0  -3   3 5411.02 541.231   1
   0  -3  -3 6229.87 643.151   4
   0  -3   4 10477.0 817.642   5
   0  -3   4 11897.1 815.539   1
   0  -3  -4 10702.1 845.040   4
   0  -3  -4 10763.9 759.059   2
   0  -3  -4 11235.8 794.343   6
   0  -3   4 10497.4 757.441   6
   0  -3   5 2368.51 417.928   1
   0  -3   5 1582.82 354.863   5
   0  -3  -5 1728.07 369.188   4
   0  -3  -5 1005.56 258.865   3
   0  -3  -5 1732.31 324.977   2
   0  -3   5 1651.54 335.706   6
   0  -3   6 1748.81 401.790   5
   0  -3  -6 2355.08 374.623   2
   0  -3   6 1479.75 350.501   1
   0  -3  -6 1556.50 287.106   3
   0  -3   6 1579.47 333.849   6
   0  -3  -6 1759.31 383.572   4
   0  -3  -7 2450.34 386.025   2
   0  -3   7 3228.43 519.008   5
   0  -3   7 2840.28 471.024   1
   0  -3  -7 2075.44 313.553   3
   0  -3   7 2617.71 431.293   6
   0  -3  -8 2746.15 346.571   3
   0  -3   8 3049.93 544.849   5
   0  -3  -8 2445.69 389.240   2
   0  -3   8 2498.69 457.796   1
   0  -3   8 3115.90 501.922   6
   0  -3  -9 721.951 244.599   2
   0  -3   9 1000.76 306.662   6
   0  -3  -9 515.049 173.802   3
   0  -3   9 354.477 229.998   1
   0  -3  10 694.935 289.487   1
   0  -3 -10 1511.95 344.706   2
   0  -3 -10 1296.59 232.240   3
   0  -3 -10 1257.68 379.304   1
   0  -3  11 278.836 256.458   1
   0  -3  12 967.602 384.674   1
   0  -3 -13 136.700 203.772   6
   0  -3  13 148.644 279.293   1
   0  -3  14 979.606 393.386   1
   0  -3 -14 687.496 316.970   6
   0  -3 -15 573.717 274.701   6
   0  -3  15 61.8864 241.069   1
   0  -3 -16 1154.38 414.654   6
   0  -3  16 578.711 349.286   1
   0  -3 -17-229.289 236.134   6
   0  -3  17 81.8002 209.957   1
   0  -3 -18 37.5767 197.164   6
   0  -3  18-438.721 333.203   1
   0  -2   0 79652.7 1525.78   6
   0  -2   0 86216.0 1623.87   1
   0  -2   0 80643.6 1452.53   5
   0  -2   0 83149.8 1851.52   4
   0  -2  -1 21531.9 794.583   6
   0  -2   1 21966.5 838.729   5
   0  -2   1 22953.3 851.189   1
   0  -2  -1 20748.3 658.357   5
   0  -2   1 21484.1 813.086   6
   0  -2  -1 22632.9 986.013   4
   0  -2  -2 10407.0 599.943   6
   0  -2   2 10715.7 613.384   1
   0  -2  -2 10263.7 421.468   5
   0  -2  -2 10279.4 679.261   4
   0  -2   2 10472.9 642.730   5
   0  -2   2 10365.3 579.005   6
   0  -2   3 3355.51 355.706   6
   0  -2  -3 3533.75 372.967   2
   0  -2  -3 3692.56 420.508   4
   0  -2   3 3949.27 403.219   1
   0  -2   3 3552.27 411.882   5
   0  -2  -4 20900.5 855.355   2
   0  -2   4 20407.6 925.057   1
   0  -2  -4 18784.9 772.890   3
   0  -2   4 19779.7 900.133   6
   0  -2  -4 21313.1 999.899   4
   0  -2   5 6492.36 559.700   6
   0  -2  -5 6985.95 592.028   4
   0  -2  -5 5894.48 425.181   3
   0  -2  -5 7061.32 504.206   2
   0  -2   5 6607.99 569.591   1
   0  -2  -6 81289.8 1479.91   3
   0  -2   6 81010.0 2021.82   6
   0  -2   6 85741.9 2097.65   1
   0  -2  -6 88130.0 1778.74   2
   0  -2   7 68579.9 1961.53   1
   0  -2   7 69577.2 1962.17   6
   0  -2  -7 67114.2 1289.20   3
   0  -2  -7 69881.2 1656.91   2
   0  -2  -8 12506.7 736.039   2
   0  -2  -8 12116.4 530.113   3
   0  -2   8 12552.2 894.079   6
   0  -2   8 11636.7 861.107   1
   0  -2   9 3770.32 525.597   6
   0  -2  -9 3274.15 420.888   2
   0  -2  -9 3450.52 503.331   1
   0  -2   9 4061.32 539.540   1
   0  -2  10 541.246 251.315   1
   0  -2  10 789.112 281.844   6
   0  -2  10 745.868 271.927   5
   0  -2 -10 671.272 248.246   2
   0  -2 -10 1020.59 327.800   1
   0  -2 -11 1062.16 323.970   6
   0  -2  11 1577.92 404.490   1
   0  -2 -11 1107.19 346.032   1
   0  -2 -12-101.305 181.082   6
   0  -2  12 330.223 225.107   1
   0  -2  13 1283.67 401.006   1
   0  -2 -13 1054.07 366.403   6
   0  -2  14 2722.71 570.473   1
   0  -2 -14 1924.87 488.172   6
   0  -2 -15 2.04448 247.908   6
   0  -2  15 88.0003 207.164   1
   0  -2 -16-359.250 278.694   6
   0  -2  16 445.554 316.616   1
   0  -2 -17 36.2405 201.928   6
   0  -2  17-163.008 265.750   1
   0  -2 -18 129.688 217.553   6
   0  -2  18 481.259 320.091   1
   0  -2 -19 198.367 278.302   6
   0  -1   0 32.1243 90.0211   1
   0  -1   0 45.5527 90.1876   4
   0  -1   1 140456. 1500.76   1
   0  -1  -1 139001. 1723.81   4
   0  -1  -1 134808. 1096.19   5
   0  -1  -2 80164.4 1353.98   4
   0  -1   2 76422.5 1231.17   1
   0  -1  -3 3689.13 243.872   3
   0  -1   3 3669.09 322.263   1
   0  -1   4 28571.0 921.461   1
   0  -1  -4 28654.2 606.229   3
   0  -1  -5 31166.7 857.709   2
   0  -1  -5 31912.3 595.862   3
   0  -1   5 32809.1 1072.56   1
   0  -1   6 2795.27 371.231   1
   0  -1  -6 2638.92 283.741   2
   0  -1   7 8561.85 635.810   1
   0  -1   8 1300.58 285.833   1
   0  -1  -8 1380.22 311.374   6
   0  -1  -9 781.102 274.329   1
   0  -1   9 872.680 254.257   1
   0  -1  -9 774.724 257.780   6
   0  -1 -10 2305.44 444.650   1
   0  -1  10 2526.07 416.517   1
   0  -1 -10 2299.39 430.708   6
   0  -1  10 2876.45 507.630   5
   0  -1  11 4220.96 582.653   1
   0  -1 -11 4382.39 614.306   1
   0  -1  11 4730.20 672.694   5
   0  -1 -11 3030.00 517.001   6
   0  -1  11 3659.28 557.118   6
   0  -1  12 2128.26 443.241   1
   0  -1 -12 1557.63 424.017   6
   0  -1 -13-63.1488 209.196   6
   0  -1  13 199.539 258.193   1
   0  -1 -14 1965.77 497.405   6
   0  -1  14 2229.80 503.801   1
   0  -1 -15 1193.75 423.292   6
   0  -1  15 1039.80 375.757   1
   0  -1 -16 573.829 340.526   6
   0  -1 -17 2012.92 554.885   6
   0  -1  17 2011.74 486.592   2
   0  -1  18 1543.41 480.657   2
   0  -1 -18 891.194 446.183   6
   0  -1 -19 1122.24 463.722   6
   0  -1  19 355.941 305.023   2
   0  -1 -20 426.399 309.546   6
   0  -1  20 1069.33 422.550   2
   0   0   3 1599.06 198.307   1
   0   0  -3 1457.79 185.319   6
   0   0   4-57.8555 123.737   1
   0   0  -4-47.9704 111.497   6
   0   0  -5 389.018 159.851   6
   0   0   5 284.465 156.775   1
   0   0   6 15868.5 765.614   1
   0   0  -6 14961.9 773.578   6
   0   0   7 16925.1 859.476   1
   0   0  -7 17107.6 879.097   6
   0   0   8-80.9419 178.217   1
   0   0  -8 130.959 181.066   6
   0   0  -9 1978.80 375.760   6
   0   0   9 1765.58 361.512   1
   0   0  10 76.7558 144.987   2
   0   0  10-75.6845 183.854   1
   0   0 -10-73.2037 170.995   6
   0   0 -11 655.573 280.911   6
   0   0  11 1007.63 266.786   2
   0   0  12 2360.93 504.713   5
   0   0 -12 2422.60 474.598   6
   0   0  12 1913.90 361.140   2
   0   0 -13 21584.2 1423.17   6
   0   0  13 20785.9 1158.43   2
   0   0  14 27026.6 1385.29   2
   0   0 -14 29211.7 1757.38   6
   0   0 -15 15823.4 1348.73   6
   0   0  15 13628.6 1045.13   2
   0   0  16 3979.32 309.855   3
   0   0 -16 5608.97 870.002   6
   0   0  16 4475.38 642.998   2
   0   0  17 625.702 344.088   2
   0   0 -17 952.913 418.482   6
   0   0  18 276.376 299.017   2
   0   0 -18 640.214 368.297   6
   0   0 -19-295.872 259.343   6
   0   0  19-75.0071 247.008   2
   0   0  20 60.6877 251.742   2
   0   0 -20-247.339 301.624   6
   0   1   0 39.6509 80.8279   5
   0   1   0-8.20930 84.9441   6
   0   1   1 134441. 1595.97   2
   0   1  -1 136078. 1575.65   5
   0   1  -1 134352. 1508.76   6
   0   1   1 134389. 1115.48   5
   0   1  -2 73865.4 1233.31   6
   0   1   2 75866.6 1205.80   2
   0   1  -2 72652.3 1317.64   5
   0   1   3 3812.49 289.802   2
   0   1  -3 3428.28 319.576   6
   0   1  -4 29908.7 982.615   6
   0   1   4 28520.9 795.987   2
   0   1   5 29551.8 664.429   3
   0   1   5 29767.9 865.671   2
   0   1  -5 32018.0 1092.89   6
   0   1   6 3301.74 314.161   2
   0   1  -6 3295.40 406.986   6
   0   1   6 2865.21 212.136   3
   0   1  -7 9036.49 685.777   6
   0   1   7 9328.81 554.658   2
   0   1   7 8519.83 353.189   3
   0   1   8 1388.51 257.708   2
   0   1   8 1301.04 150.958   3
   0   1  -8 1482.23 325.394   6
   0   1   9 770.212 211.387   2
   0   1   9 558.576 104.341   3
   0   1  -9 726.688 268.908   6
   0   1 -10 2272.39 441.986   6
   0   1  10 1863.49 182.342   3
   0   1  10 2610.66 383.024   2
   0   1 -11 3907.00 578.434   6
   0   1  11 4150.73 477.942   2
   0   1  11 2826.49 219.148   3
   0   1 -11 4285.26 601.639   1
   0   1  12 2277.75 402.836   2
   0   1 -12 2200.44 483.295   6
   0   1  12 1591.58 165.349   3
   0   1  13 15.0708 52.2988   3
   0   1  13-138.001 242.037   2
   0   1 -13 188.217 232.371   6
   0   1  14 2568.57 459.524   2
   0   1 -14 2023.36 535.360   6
   0   1  14 2398.39 527.853   5
   0   1  15 1086.91 350.652   2
   0   1 -15 1232.48 469.655   6
   0   1 -16 616.499 359.670   6
   0   1  16 69.7025 214.658   2
   0   1 -17 2385.65 633.310   6
   0   1  17 1410.54 415.666   2
   0   1  18 1003.44 411.903   2
   0   1 -18 1284.15 510.336   6
   0   1  19 407.995 296.332   2
   0   1 -19-51.2177 255.085   6
   0   1  20-642.417 358.790   2
   0   1 -20 316.443 374.531   6
   0   2   0 81415.5 1480.21   5
   0   2   0 79680.6 1556.77   6
   0   2  -1 21868.1 849.707   6
   0   2  -1 20757.8 830.003   5
   0   2   1 20971.1 682.870   5
   0   2  -1 23824.6 874.965   1
   0   2  -2 10182.5 610.574   6
   0   2  -2 10574.5 600.725   1
   0   2   2 9717.04 635.924   2
   0   2  -2 10333.2 636.122   5
   0   2   2 10080.0 442.723   5
   0   2  -3 3292.01 411.429   5
   0   2   3 3268.93 256.221   5
   0   2   3 3322.92 399.337   2
   0   2  -3 3324.97 385.337   6
   0   2  -3 3182.98 350.356   1
   0   2  -4 20139.0 937.719   6
   0   2  -4 21072.2 917.012   1
   0   2   4 21119.2 949.434   2
   0   2   4 19486.4 588.679   5
   0   2  -5 6456.67 576.468   6
   0   2   5 6582.72 560.314   2
   0   2  -5 6240.09 547.553   1
   0   2   5 7034.07 632.888   4
   0   2   6 80035.2 1893.49   2
   0   2  -6 82226.5 2103.01   6
   0   2  -6 86136.4 2095.85   1
   0   2   6 88671.4 2226.46   4
   0   2  -7 67682.9 2001.64   6
   0   2  -7 68778.7 1986.48   1
   0   2   7 70780.8 2027.88   4
   0   2   7 66392.0 1771.11   2
   0   2  -8 12125.4 888.770   1
   0   2   8 12354.4 873.448   4
   0   2  -8 11841.3 893.058   6
   0   2   8 11938.1 792.409   2
   0   2   9 3838.58 479.748   2
   0   2  -9 3252.84 516.506   6
   0   2  -9 4147.52 569.358   1
   0   2   9 3337.91 489.817   4
   0   2  10 757.181 283.474   4
   0   2  10 641.106 247.797   2
   0   2 -10 593.594 267.115   6
   0   2 -10 763.283 261.318   1
   0   2  11 1159.86 333.653   4
   0   2  11 1409.30 317.976   2
   0   2 -11 1140.21 356.322   6
   0   2 -12-27.1806 221.423   6
   0   2  12 82.5376 177.277   4
   0   2  12-0.65396 168.506   2
   0   2 -13 822.913 366.963   6
   0   2  13 995.388 327.235   2
   0   2  13 1509.00 411.842   4
   0   2 -14 1945.39 512.805   6
   0   2  14 2495.99 533.571   4
   0   2  14 2126.30 454.950   2
   0   2 -15 40.3618 230.262   6
   0   2  15-248.678 243.636   5
   0   2  15 305.902 260.576   4
   0   2  15 134.647 225.431   2
   0   2 -16-428.838 359.114   6
   0   2  16 281.107 270.971   4
   0   2  16 246.409 334.325   2
   0   2  17 115.346 236.810   2
   0   2 -17 137.542 252.591   6
   0   2  17-106.223 211.956   4
   0   2  18-21.4911 216.732   4
   0   2  18 28.9712 236.425   2
   0   2 -18 502.639 343.911   6
   0   2 -19-120.432 285.252   6
   0   2  19-327.013 312.412   4
   0   2  19 249.656 281.797   2
   0   3   0-49.8044 147.957   5
   0   3   0-21.2029 162.662   6
   0   3  -1 5897.58 548.580   5
   0   3   1 5740.53 469.824   5
   0   3  -1 6225.27 567.489   6
   0   3  -2 1835.06 340.002   6
   0   3   2 2076.50 278.321   5
   0   3  -2 1814.06 343.575   5
   0   3  -2 2361.79 375.186   1
   0   3  -3 5002.10 543.883   6
   0   3  -3 4182.37 526.371   5
   0   3   3 5021.83 398.577   5
   0   3  -3 5838.38 568.713   1
   0   3   3 4511.12 558.784   2
   0   3   4 10862.3 847.967   2
   0   3   4 9994.56 526.418   5
   0   3  -4 10559.2 795.651   6
   0   3  -4 11282.5 793.169   1
   0   3   5 1296.08 337.281   2
   0   3  -5 1802.99 371.129   6
   0   3   5 1833.84 426.928   4
   0   3  -5 1639.74 326.612   1
   0   3   5 1518.45 221.969   5
   0   3   6 1699.12 239.392   5
   0   3   6 1990.28 402.518   2
   0   3   6 1809.27 437.547   4
   0   3  -6 1973.65 383.702   1
   0   3  -6 1825.76 390.660   6
   0   3   7 2538.20 501.559   4
   0   3  -7 2620.44 467.768   6
   0   3   7 2143.46 262.024   5
   0   3  -7 2322.91 425.386   1
   0   3   7 1841.80 395.552   2
   0   3  -8 3387.85 525.082   1
   0   3   8 2329.80 274.459   5
   0   3   8 3049.20 542.559   4
   0   3   8 2522.19 463.034   2
   0   3  -8 2615.41 482.138   6
   0   3  -9 566.983 276.312   6
   0   3  -9 246.208 173.931   1
   0   3   9 371.060 224.639   2
   0   3   9 893.489 324.597   4
   0   3 -10 1467.24 405.206   6
   0   3  10 1321.46 385.059   2
   0   3  10 853.847 348.711   4
   0   3  11-490.994 268.172   2
   0   3  11 270.626 267.576   4
   0   3 -11 83.1291 191.645   6
   0   3  12 1165.12 388.375   4
   0   3  12 384.357 284.701   2
   0   3 -12 1217.88 421.157   6
   0   3 -13 16.4524 273.090   6
   0   3  13 162.090 268.681   2
   0   3  13-283.000 279.540   4
   0   3  14 406.429 302.512   4
   0   3  14 732.066 351.915   2
   0   3 -14 902.875 409.422   6
   0   3 -15-234.700 306.706   6
   0   3  15 321.794 319.124   4
   0   3  15 204.043 273.422   2
   0   3  16-50.7865 243.559   4
   0   3  16 307.588 302.854   2
   0   3 -17 129.858 270.837   6
   0   3  17-563.703 345.371   4
   0   3  17-84.2798 283.803   2
   0   3  18-224.426 330.451   2
   0   3  18-680.341 387.286   4
   0   4   0 15191.3 949.927   5
   0   4   0 14584.1 981.858   6
   0   4   1 3537.03 454.030   5
   0   4  -1 3797.77 515.286   5
   0   4  -1 3512.79 515.654   6
   0   4  -2 2257.64 426.133   5
   0   4   2 2383.55 344.237   5
   0   4  -2 2359.40 431.333   6
   0   4   3 4155.57 426.167   5
   0   4  -3 4046.51 586.322   6
   0   4   4 1421.73 395.026   2
   0   4  -4 1066.25 337.404   1
   0   4   4 1207.98 238.632   5
   0   4  -4 1312.21 358.294   6
   0   4  -5 1648.49 419.525   6
   0   4   5 1865.35 439.018   2
   0   4   5 1863.19 496.567   4
   0   4   5 1688.43 253.148   5
   0   4  -5 1649.16 384.119   1
   0   4   6 11142.0 1029.03   2
   0   4  -6 11982.8 996.385   1
   0   4  -6 11261.4 1004.68   6
   0   4   6 11331.6 1117.98   4
   0   4   6 11397.1 617.168   5
   0   4   7 13297.0 1229.53   4
   0   4  -7 11766.5 1063.59   6
   0   4   7 13452.7 1135.51   2
   0   4  -7 13551.4 1091.64   1
   0   4   7 11435.5 608.903   5
   0   4   8 8248.54 532.251   5
   0   4  -8 8630.02 930.831   6
   0   4   8 10533.2 1107.36   4
   0   4  -8 10285.8 996.822   1
   0   4   8 8852.98 961.081   2
   0   4   9 791.651 372.649   4
   0   4   9 652.430 392.122   2
   0   4  -9 315.357 267.973   6
   0   4   9 275.982 145.664   5
   0   4  10 46.1148 116.181   5
   0   4  10 232.255 287.926   2
   0   4 -10-89.2804 206.877   6
   0   4  10-300.043 310.671   4
   0   4  11-257.876 295.417   2
   0   4  11 234.079 154.449   5
   0   4  11-516.743 333.638   4
   0   4 -11 607.330 349.691   6
   0   4  12 137.950 268.365   4
   0   4  12 183.169 304.025   2
   0   4 -12-32.9565 268.720   6
   0   4  12-72.8028 132.783   5
   0   4  13 1128.41 258.957   5
   0   4 -13 1356.29 479.699   6
   0   4  13 1592.21 507.936   4
   0   4  13 1551.04 538.978   2
   0   4 -14-408.773 359.246   6
   0   4  14 81.0869 261.538   2
   0   4  14-436.652 343.412   4
   0   4  15 739.750 389.736   4
   0   4 -15 260.339 359.164   6
   0   4  15 1576.99 608.401   2
   0   4 -16-406.992 383.491   6
   0   4  16 139.355 279.582   4
   0   4  16 40.1991 351.453   2
   0   4  17-137.886 311.002   4
   0   4  17-228.352 346.246   2
   0   4 -17 204.422 306.326   6
   0   5  -1 977.917 356.061   6
   0   5   1 1200.93 309.349   5
   0   5  -2 2952.13 554.230   6
   0   5   2 3549.15 504.315   5
   0   5  -3 2462.89 508.025   6
   0   5   3 2286.35 391.884   5
   0   5   4 2170.80 340.245   5
   0   5  -4 2234.28 514.588   6
   0   5  -5 1005.93 400.285   6
   0   5   5 987.738 228.388   5
   0   5   6 1015.05 459.900   2
   0   5   6 1773.35 275.463   5
   0   5  -6 2351.48 534.382   6
   0   5   7-126.824 109.268   5
   0   5   7 17.3561 376.736   2
   0   5  -7 661.485 375.784   6
   0   5   8 1283.91 494.261   2
   0   5  -8 2109.38 565.562   6
   0   5   8 1975.67 590.438   4
   0   5   8 1257.25 193.524   5
   0   5   9 1571.59 553.174   4
   0   5   9 1078.13 470.082   2
   0   5  -9 1228.71 474.072   6
   0   5  10-71.5713 331.412   4
   0   5  10 552.475 335.056   2
   0   5 -10 401.084 365.607   6
   0   5  11-54.0803 347.481   4
   0   5 -11-202.360 296.249   6
   0   5  11-4.21548 294.965   2
   0   5  12-405.379 387.283   4
   0   5  12 876.107 448.315   2
   0   5 -12 499.769 388.499   6
   0   5 -13 763.877 415.015   6
   0   5  13 184.122 315.366   4
   0   5  13 421.602 397.563   2
   0   5  14 489.129 454.866   2
   0   5 -14-1.56390 343.964   6
   0   5  14 248.778 358.494   4
   0   5 -15 137.327 378.210   6
   0   5  15 931.013 481.636   2
   0   5  15 331.838 362.113   4
   0   6  -2-544.965 338.232   6
   0   6  -3 435.123 311.202   6
   0   6  -4 573.806 354.724   6
   0   6  -5 440.962 310.065   6
   0   6  -6 1317.19 475.714   6
   0   6  -7 288.259 349.832   6
   0   6  -8 454.551 357.089   6
   0   6  -9-79.2211 300.533   6
   0   6 -10 4.56471 192.063   6
   0   6  10 484.232 495.937   2
   0   6 -11-12.6560 329.219   6
   0   6  11 394.433 448.119   2
   0   7  -4 819.096 414.521   6
   0   7  -5 388.575 387.759   6
  -1  -7   5-540.531 366.694   1
   1  -7  -5-102.482 300.583   3
  -1  -7   4 377.541 294.467   1
   1  -7  -4 155.651 323.881   3
   1  -7  -3 489.804 316.693   3
  -1  -7   3-124.774 233.134   1
   1  -7  -2 62.0647 281.719   3
  -1  -7   2 521.577 326.624   1
   1  -7  -1 476.249 359.536   3
  -1  -7   1 508.291 324.797   1
  -1  -7   0 1487.14 495.464   1
   1  -7   0 361.862 299.766   3
  -1  -7  -1 73.4167 226.043   1
   1  -7   1-401.626 322.798   3
   1  -7   2 13.4577 227.596   3
  -1  -7  -2 438.089 305.697   1
   1  -7   3 58.2463 302.631   3
  -1  -7  -3-446.930 305.705   1
   1  -7   4-447.098 379.939   3
  -1  -7  -4 356.143 345.317   3
  -1  -7  -4-154.351 209.447   1
  -1  -7  -5 359.286 329.603   3
  -1  -7  -5 478.781 306.054   1
   1  -7   5 854.198 475.430   3
   1  -6 -11 398.322 267.078   3
  -1  -6  11 674.424 392.988   1
  -1  -6  10 262.246 337.590   1
   1  -6 -10 206.478 263.444   3
  -1  -6   9 267.425 275.898   1
   1  -6  -9 632.515 314.564   3
   1  -6  -8 713.064 346.271   3
  -1  -6   8 212.292 274.873   1
  -1  -6   7 1242.39 489.425   1
   1  -6  -7 505.813 253.408   1
   1  -6  -7 1007.95 432.794   3
   1  -6  -6 648.867 274.693   1
  -1  -6   6 20.5336 237.438   1
   1  -6  -5 116.559 208.888   1
  -1  -6   5 140.150 322.142   1
   1  -6  -5-243.642 310.466   3
  -1  -6   4 2221.58 592.276   1
   1  -6  -4 1932.73 530.884   3
   1  -6  -4 2064.57 451.177   1
   1  -6  -3 30.0874 263.227   3
  -1  -6   3 330.741 342.315   1
   1  -6  -3 102.929 206.285   1
  -1  -6   2 876.688 414.229   1
   1  -6  -2 578.483 353.249   3
   1  -6  -2 260.237 231.548   1
   1  -6  -1 1603.83 425.708   1
   1  -6  -1 1755.83 513.812   3
  -1  -6   1 1571.58 493.235   1
   1  -6   0 381.762 305.039   3
  -1  -6   0 262.704 359.218   1
   1  -6   0 155.911 232.836   1
   1  -6   1 264.546 221.898   1
  -1  -6  -1 163.388 254.286   1
   1  -6   1 66.9190 249.680   3
  -1  -6  -2 91.5955 258.721   1
   1  -6   2 537.981 274.120   1
  -1  -6  -3 504.313 312.313   1
   1  -6   3 327.728 228.291   1
  -1  -6  -4 577.892 343.911   1
   1  -6   4 218.625 211.379   1
  -1  -6  -5-116.111 243.087   1
   1  -6   5 353.934 277.973   1
  -1  -6  -6 299.397 301.612   3
   1  -6   6 327.247 272.231   1
  -1  -6  -6 262.617 344.319   1
  -1  -6  -7 422.388 302.280   3
   1  -6   7 1212.66 404.817   1
   1  -6   8-289.779 211.182   1
  -1  -6  -8 362.159 281.141   3
  -1  -6  -9 364.528 275.031   3
   1  -6   9-179.054 220.259   1
   1  -6  10 420.363 291.204   1
  -1  -6 -10-195.374 235.625   3
   1  -6  11-145.441 143.643   1
  -1  -5  15 600.946 356.761   1
  -1  -5  14 48.3986 298.299   1
   1  -5 -13 249.730 195.485   3
  -1  -5  13 429.682 368.091   1
   1  -5 -12-2.69925 145.122   3
  -1  -5  12 195.878 262.417   1
   1  -5 -11 729.839 270.307   3
  -1  -5  11 529.379 346.162   1
  -1  -5  10 1047.37 421.660   1
   1  -5 -10 270.285 213.969   3
   1  -5  -9 1000.33 331.958   3
  -1  -5   9 902.492 448.991   1
  -1  -5   8 4369.31 757.702   1
   1  -5  -8 3423.51 579.481   3
  -1  -5   7 10105.0 1099.32   1
  -1  -5   7 10148.5 935.898   6
   1  -5  -7 9936.30 934.060   3
   1  -5  -6 9209.39 895.830   3
  -1  -5   6 10920.1 1123.80   1
  -1  -5   6 10138.1 899.088   6
   1  -5  -5 3249.63 527.610   1
  -1  -5   5 2381.24 546.876   1
  -1  -5   5 3097.31 507.393   6
   1  -5  -5 2834.57 540.472   3
   1  -5  -4 505.472 317.653   3
  -1  -5   4 417.558 301.673   1
  -1  -5   4-249.626 208.994   6
   1  -5  -4 55.5005 167.830   1
  -1  -5   3 1540.94 466.641   1
   1  -5  -3 1117.18 313.575   1
  -1  -5   3 1338.19 341.714   6
   1  -5  -3 901.685 364.227   3
  -1  -5   3 690.329 375.032   5
   1  -5  -3 1042.50 206.364   5
  -1  -5   2 3455.36 625.970   1
  -1  -5   2 3773.33 593.070   5
   1  -5  -2 4590.78 457.498   5
   1  -5  -2 4284.76 652.909   3
   1  -5  -2 3950.38 540.278   1
  -1  -5   2 4310.05 546.221   6
   1  -5  -2 3623.14 594.319   6
  -1  -5   1 1297.66 331.621   6
  -1  -5   1 1490.63 465.028   1
   1  -5  -1 1116.65 385.253   6
   1  -5  -1 1420.27 297.915   5
   1  -5  -1 1232.23 387.406   3
  -1  -5   1 1254.53 368.713   5
   1  -5  -1 1264.79 338.829   1
  -1  -5   0 582.141 250.577   6
   1  -5   0 942.362 273.548   5
  -1  -5   0 643.673 329.515   1
   1  -5   0 721.939 258.553   6
   1  -5   0 834.748 275.545   1
  -1  -5   0 1092.16 328.691   5
  -1  -5  -1 497.371 331.992   1
  -1  -5  -1 478.259 248.602   5
   1  -5   1 485.584 233.636   5
   1  -5   1 719.066 272.059   1
  -1  -5  -1 685.432 268.547   6
   1  -5   2 397.396 255.393   5
   1  -5   2 852.732 278.276   1
  -1  -5  -2 890.654 279.554   6
  -1  -5  -2 517.944 237.473   5
  -1  -5  -2 508.966 323.509   1
   1  -5   3 72.2147 162.794   1
   1  -5   3 712.159 313.589   5
  -1  -5  -3 348.221 209.032   6
  -1  -5  -3 155.865 244.531   1
   1  -5   4 1877.15 449.848   1
  -1  -5  -4 688.659 299.497   6
   1  -5   4 1551.83 431.963   5
   1  -5   5 4425.12 645.266   1
  -1  -5  -5 3513.18 572.775   6
  -1  -5  -6 7335.16 768.066   6
   1  -5   6 9256.51 921.952   1
   1  -5   7 10833.1 1013.46   1
  -1  -5  -7 9898.58 896.949   3
  -1  -5  -7 8847.47 858.511   6
   1  -5   8 4516.92 679.934   1
  -1  -5  -8 5063.12 639.780   3
  -1  -5  -8 3492.83 592.528   6
  -1  -5  -9 926.076 315.427   3
   1  -5   9 990.717 370.899   1
   1  -5  10-32.6393 195.226   1
  -1  -5 -10-63.8641 189.200   3
  -1  -5 -11 591.025 209.507   3
   1  -5  11-162.945 295.642   1
   1  -5  12-87.3111 237.424   1
  -1  -5 -12 227.913 153.719   6
   1  -5  13 326.910 258.191   1
  -1  -5 -13 162.189 209.092   6
   1  -5  14-170.655 264.451   1
  -1  -5 -14 173.870 152.913   6
   1  -4 -17 201.030 240.101   6
  -1  -4  17 238.076 336.793   1
  -1  -4  16 215.959 298.666   1
  -1  -4  15 290.568 289.109   1
  -1  -4  14 200.052 297.354   1
  -1  -4  13 344.021 304.375   1
  -1  -4  12 341.960 296.234   1
   1  -4 -12 358.718 199.781   3
   1  -4 -11 44.5308 164.748   3
  -1  -4  11-416.876 304.871   1
   1  -4 -10 594.000 271.863   3
   1  -4 -10 81.8636 173.850   1
  -1  -4  10 450.544 282.017   1
   1  -4  -9 1852.93 399.105   1
   1  -4  -9 2814.59 460.012   2
   1  -4  -9 2550.58 420.510   3
  -1  -4   9 3484.39 646.271   1
  -1  -4   9 2986.37 519.365   6
   1  -4  -8 8740.97 744.543   3
  -1  -4   8 8610.53 810.258   6
   1  -4  -8 9439.02 772.356   2
  -1  -4   8 9474.38 998.453   1
  -1  -4   7 7477.53 732.391   6
   1  -4  -7 6860.99 682.914   3
   1  -4  -7 7570.38 877.501   6
   1  -4  -7 6906.44 683.965   2
  -1  -4   7 8036.45 902.938   1
   1  -4  -6 4275.77 655.740   6
  -1  -4   6 3631.98 510.927   6
   1  -4  -6 3415.27 524.568   3
   1  -4  -6 3382.50 489.745   2
  -1  -4   6 3787.77 637.294   1
   1  -4  -5 3771.69 515.677   2
   1  -4  -5 3212.08 492.906   3
  -1  -4   5 4354.85 649.755   5
  -1  -4   5 3575.87 481.768   6
   1  -4  -5 3799.72 580.918   6
  -1  -4   5 3932.31 617.168   1
  -1  -4   4 1353.76 312.116   6
  -1  -4   4 1580.34 393.534   5
  -1  -4   4 1799.23 418.769   1
   1  -4  -4 1229.59 360.284   6
   1  -4  -4 1287.91 342.225   3
   1  -4  -4 1351.19 311.432   2
   1  -4  -3 2241.87 431.575   3
  -1  -4   3 2000.12 439.737   5
   1  -4  -3 1953.18 406.790   2
  -1  -4   3 1961.57 460.508   1
   1  -4  -3 2136.16 360.605   1
  -1  -4   3 1867.77 329.481   6
   1  -4  -3 1596.03 212.350   5
   1  -4  -3 2135.31 420.937   6
   1  -4  -2 184.961 105.765   5
   1  -4  -2 66.7943 137.461   1
  -1  -4   2 158.665 212.157   4
  -1  -4   2 97.5918 171.983   6
  -1  -4   2 132.485 196.565   5
   1  -4  -2 229.904 228.744   2
  -1  -4   2 277.997 215.751   1
  -1  -4   2 360.424 265.880   2
   1  -4  -2-56.6504 158.187   6
   1  -4  -2 208.204 220.234   3
   1  -4  -2 534.140 312.234   4
   1  -4  -1 140.887 212.880   4
  -1  -4   1 114.833 151.122   6
   1  -4  -1-69.7438 140.239   1
   1  -4  -1 171.199 125.559   5
  -1  -4   1 75.4008 165.932   5
   1  -4  -1 298.791 221.894   6
  -1  -4   1-65.4872 263.586   1
  -1  -4   1 191.615 231.802   2
   1  -4  -1 272.570 220.512   2
  -1  -4   1 267.682 226.135   4
  -1  -4   0 1399.95 278.060   6
  -1  -4   0 1803.96 362.201   5
   1  -4   0 1162.59 337.386   4
   1  -4   0 1545.63 291.622   5
  -1  -4   0 1832.81 433.006   2
  -1  -4   0 1654.89 414.836   4
   1  -4   0 1439.49 284.043   1
   1  -4   0 1379.59 343.098   6
  -1  -4   0 1107.65 343.714   1
   1  -4   0 1576.89 377.499   2
  -1  -4  -1 1437.91 391.620   1
   1  -4   1 1628.96 331.963   5
   1  -4   1 1734.20 403.155   4
  -1  -4  -1 1600.03 390.074   4
   1  -4   1 1818.69 420.044   2
  -1  -4  -1 1538.04 398.947   2
   1  -4   1 1644.82 357.443   6
   1  -4   1 1438.13 296.634   1
  -1  -4  -1 1685.94 327.937   5
  -1  -4  -1 1872.24 315.693   6
   1  -4   2 2117.30 371.480   1
   1  -4   2 2139.49 425.505   6
  -1  -4  -2 1834.91 427.016   1
  -1  -4  -2 2252.19 460.563   2
  -1  -4  -2 1852.73 316.755   6
   1  -4   2 1942.64 394.849   5
  -1  -4  -2 1945.04 341.633   5
   1  -4   2 1792.18 412.221   4
  -1  -4  -2 2469.35 487.035   4
   1  -4   3 1462.15 330.291   1
   1  -4   3 1830.27 446.909   4
   1  -4   3 1086.39 313.930   6
  -1  -4  -3 1699.18 322.844   6
   1  -4   3 1385.70 359.548   5
  -1  -4  -3 1494.06 400.690   4
   1  -4   4 1754.61 460.511   4
   1  -4   4 680.070 294.528   6
   1  -4   4 704.198 269.361   5
  -1  -4  -4 1214.12 371.999   4
   1  -4   4 1346.14 364.080   1
  -1  -4  -4 979.753 277.489   6
   1  -4   5 6348.61 782.321   4
   1  -4   5 6708.98 774.376   5
   1  -4   5 6915.69 785.954   6
  -1  -4  -5 5698.62 600.472   6
   1  -4   5 7119.22 714.516   1
   1  -4   6 6373.50 793.306   5
   1  -4   6 6145.32 692.837   1
  -1  -4  -6 5629.25 627.663   6
   1  -4   7 969.082 378.770   1
  -1  -4  -7 290.535 242.172   3
  -1  -4  -8 1226.82 312.539   3
   1  -4   8 1682.86 429.727   1
  -1  -4  -9 910.358 265.130   3
   1  -4   9 1326.32 402.151   1
   1  -4  10 720.514 296.156   1
  -1  -4 -10 703.625 222.501   3
  -1  -4 -11 446.743 223.470   6
  -1  -4 -11 345.759 185.886   3
   1  -4  11 381.576 241.497   1
  -1  -4 -12 691.561 191.060   3
   1  -4  12 335.264 298.344   1
  -1  -4 -12 303.868 231.872   6
  -1  -4 -13 644.947 274.633   6
   1  -4  13 745.562 365.698   1
   1  -4  14 736.275 376.802   1
  -1  -4 -14 211.633 268.899   6
  -1  -4 -15-249.033 193.104   6
   1  -4  15-18.8019 213.693   1
   1  -4  16 90.0662 264.269   1
  -1  -4 -16-385.529 255.514   6
   1  -3 -19 682.081 362.245   6
  -1  -3  19 6.09244 203.096   1
  -1  -3  18 458.327 325.631   1
   1  -3 -18 374.120 293.305   6
   1  -3 -17 306.169 288.525   6
  -1  -3  17 227.694 295.877   1
   1  -3 -16 354.190 272.002   6
  -1  -3  16 657.729 339.194   1
  -1  -3  15 759.863 353.442   1
  -1  -3  14 1905.28 506.834   1
  -1  -3  13 516.845 300.770   1
  -1  -3  12-83.5344 202.158   1
   1  -3 -11 231.287 178.845   2
   1  -3 -11 134.296 217.112   1
  -1  -3  11-365.640 268.878   1
  -1  -3  10 229.070 213.098   6
   1  -3 -10 539.116 190.866   3
  -1  -3  10 512.768 289.635   1
   1  -3 -10 638.864 254.470   2
   1  -3 -10 328.092 209.222   1
   1  -3  -9 216.951 175.925   1
  -1  -3   9 105.147 213.842   1
   1  -3  -9 191.386 170.575   3
   1  -3  -9 201.252 162.859   2
  -1  -3   9 194.691 220.314   6
  -1  -3   8 2169.53 459.878   5
   1  -3  -8 2159.35 338.638   3
  -1  -3   8 2246.43 399.131   6
   1  -3  -8 2517.96 408.493   1
  -1  -3   8 2817.09 513.157   1
   1  -3  -8 2212.37 345.950   2
   1  -3  -7 6859.47 574.976   3
  -1  -3   7 7514.00 660.877   6
  -1  -3   7 8573.62 863.616   5
   1  -3  -7 7974.19 607.731   2
  -1  -3   7 7799.63 805.002   1
  -1  -3   6 266.412 206.630   5
  -1  -3   6 168.867 237.183   1
  -1  -3   6 312.149 175.719   6
   1  -3  -6 18.6563 178.535   3
   1  -3  -6-141.426 151.025   2
  -1  -3   5 15150.3 1063.10   5
   1  -3  -5 15752.9 1086.72   6
  -1  -3   5 13141.9 793.692   6
   1  -3  -5 13184.2 824.364   3
  -1  -3   5 13975.6 993.722   1
   1  -3  -5 13991.7 800.674   2
   1  -3  -5 14016.3 1008.17   4
   1  -3  -4 3188.71 444.455   3
  -1  -3   4 3189.67 483.244   1
  -1  -3   4 3188.45 487.816   5
   1  -3  -4 3176.64 400.725   2
   1  -3  -4 3271.44 491.863   4
   1  -3  -4 3182.97 471.797   6
  -1  -3   4 3012.51 366.545   6
   1  -3  -3 1527.26 311.959   2
  -1  -3   3 1984.60 373.857   5
   1  -3  -3 1611.93 346.101   6
  -1  -3   3 1912.03 410.404   1
   1  -3  -3 1643.95 365.090   4
   1  -3  -3 1343.97 322.591   3
  -1  -3   3 1543.90 265.277   6
   1  -3  -3 1176.44 130.938   5
  -1  -3   2 2049.08 406.531   1
   1  -3  -2 1892.01 214.538   5
   1  -3  -2 2308.12 391.408   2
  -1  -3   2 2090.31 383.410   5
   1  -3  -2 2365.03 406.945   6
   1  -3  -2 2721.69 453.703   3
  -1  -3   2 2341.21 325.858   6
   1  -3  -2 2149.16 402.021   4
   1  -3  -2 1607.61 274.403   1
   1  -3  -1 16724.2 710.423   5
  -1  -3   1 14143.1 885.422   5
  -1  -3   1 15183.7 1052.23   1
   1  -3  -1 16161.0 973.066   2
   1  -3  -1 17059.2 1058.64   4
   1  -3  -1 15517.8 751.857   1
  -1  -3   1 15250.9 735.704   6
   1  -3  -1 15529.1 954.183   6
   1  -3   0 53892.9 1746.41   6
  -1  -3   0 52858.4 1786.40   1
   1  -3   0 53255.0 1831.39   4
   1  -3   0 53211.5 1397.97   5
   1  -3   0 54036.5 1744.64   2
  -1  -3   0 50672.2 1812.24   4
  -1  -3   0 51768.8 1545.20   5
   1  -3   0 52339.1 1328.44   1
  -1  -3   0 51265.1 1270.23   6
   1  -3   1 17670.2 1015.68   6
   1  -3   1 19262.6 823.555   1
   1  -3   1 17888.0 879.719   5
  -1  -3  -1 18144.0 762.898   6
   1  -3   1 18518.1 1090.40   4
  -1  -3  -1 17958.7 1094.55   4
  -1  -3  -1 16983.4 874.024   5
   1  -3   2 4430.51 528.540   6
  -1  -3  -2 3813.34 411.437   5
  -1  -3  -2 4028.40 381.612   6
  -1  -3  -2 4108.04 537.643   4
   1  -3   2 3866.39 523.158   4
   1  -3   2 3870.56 446.723   5
   1  -3   2 4062.26 409.644   1
   1  -3   3 6229.31 629.372   6
   1  -3   3 5521.18 614.728   4
  -1  -3  -3 5819.95 481.970   6
   1  -3   3 5175.29 564.716   5
   1  -3   3 7013.21 570.135   1
  -1  -3  -3 5972.91 637.165   4
   1  -3   4 10809.3 881.350   4
  -1  -3  -4 11415.7 824.913   2
   1  -3   4 11604.7 778.102   1
   1  -3   4 10149.7 835.607   6
  -1  -3  -4 10613.2 846.353   4
   1  -3   4 10322.8 823.415   5
  -1  -3  -5 673.648 255.293   2
  -1  -3  -5 692.823 255.915   4
   1  -3   5 975.634 320.318   6
   1  -3   5 1039.97 289.228   5
   1  -3   5 795.484 250.179   1
   1  -3   6 3001.09 510.538   5
  -1  -3  -6 3076.09 455.688   2
   1  -3   6 3190.65 515.407   6
   1  -3   6 3604.87 500.802   1
  -1  -3  -6 2950.02 477.695   4
  -1  -3  -7 1787.50 354.050   2
  -1  -3  -7 1005.52 230.757   3
   1  -3   7 1509.56 365.091   1
   1  -3   7 1350.02 354.193   6
  -1  -3  -7 1015.66 309.725   4
   1  -3   7 1761.33 403.688   5
  -1  -3  -8 293.887 150.603   3
   1  -3   8 316.841 257.022   6
   1  -3   8 341.874 251.106   5
  -1  -3  -8 447.313 227.064   2
   1  -3   8 72.9462 160.121   1
   1  -3   9 1473.88 374.981   1
  -1  -3  -9 1610.81 248.064   3
  -1  -3 -10 616.378 165.934   3
   1  -3  10 353.411 244.828   1
  -1  -3 -10 661.646 243.373   6
  -1  -3 -11 617.632 266.182   6
  -1  -3 -11 819.133 165.555   3
   1  -3  11 1317.86 415.106   1
   1  -3  12 1404.13 434.782   1
  -1  -3 -12 1533.94 397.981   6
  -1  -3 -13 1715.33 439.854   6
   1  -3  13 1594.69 453.196   1
   1  -3  14 2324.86 598.557   1
  -1  -3 -14 2107.40 492.858   6
  -1  -3 -15 333.906 238.703   6
   1  -3  15-115.150 243.902   1
  -1  -3 -16-270.395 248.582   6
   1  -3  16-424.685 326.072   1
  -1  -3 -17 188.761 218.097   6
  -1  -3 -18-371.849 283.980   6
  -1  -2  20-39.3342 216.895   1
   1  -2 -20 245.970 290.992   6
   1  -2 -19-393.614 291.807   6
  -1  -2  19 570.782 327.095   1
  -1  -2  18-127.211 270.703   1
   1  -2 -18 179.293 217.643   6
  -1  -2  17 131.994 226.908   1
   1  -2 -17-37.3971 229.717   6
   1  -2 -16 327.004 262.761   6
  -1  -2  16 557.666 315.987   1
  -1  -2  15 4620.10 744.067   1
   1  -2 -15 4283.67 716.135   6
  -1  -2  14 397.994 297.155   1
   1  -2 -14 196.486 249.074   6
  -1  -2  13 1684.71 444.815   1
   1  -2 -12 303.659 248.132   1
  -1  -2  12 151.371 219.611   1
   1  -2 -11 314.522 192.990   1
  -1  -2  11 415.524 229.689   1
  -1  -2  10 3339.00 537.150   1
  -1  -2  10 3688.60 585.234   5
   1  -2 -10 2225.90 421.593   1
  -1  -2  10 2355.07 452.507   6
  -1  -2   9 2647.43 458.003   1
   1  -2  -9 3502.24 389.517   2
  -1  -2   9 3067.73 474.633   6
   1  -2  -9 3934.52 508.650   1
  -1  -2   8 7344.30 718.675   1
   1  -2  -8 6919.56 517.944   2
  -1  -2   8 7362.62 647.561   6
   1  -2  -8 6834.17 470.373   3
   1  -2  -8 7482.48 637.669   1
  -1  -2   7 327.794 241.209   1
   1  -2  -7 489.313 198.071   1
   1  -2  -7 280.304 145.145   3
   1  -2  -7 341.831 141.968   2
  -1  -2   7 129.739 151.672   6
   1  -2  -6 2615.12 289.906   2
  -1  -2   6 2403.99 348.856   6
   1  -2  -6 2640.76 342.390   1
   1  -2  -6 2950.73 325.970   3
  -1  -2   6 2531.29 419.138   1
   1  -2  -5 3367.00 331.303   2
   1  -2  -5 3332.94 364.350   3
  -1  -2   5 3229.28 466.774   1
  -1  -2   5 3767.12 392.629   6
  -1  -2   4 1084.60 288.856   1
   1  -2  -4 1343.96 260.860   3
   1  -2  -4 1059.07 197.151   2
  -1  -2   4 843.400 197.037   6
  -1  -2   3 7299.20 451.046   6
   1  -2  -3 7369.91 552.101   3
  -1  -2   3 7454.97 621.370   1
   1  -2  -3 7134.62 476.922   2
   1  -2  -3 7426.28 623.748   6
   1  -2  -3 8340.96 643.800   4
   1  -2  -2 27181.0 939.775   2
   1  -2  -2 28865.5 1142.17   6
  -1  -2   2 25251.2 1075.83   1
  -1  -2   2 27537.4 1081.80   5
   1  -2  -2 28270.1 1121.81   4
  -1  -2   2 26946.4 758.373   6
   1  -2  -1 13149.2 498.983   5
  -1  -2   1 12224.0 686.652   5
   1  -2  -1 11301.7 691.727   6
   1  -2  -1 12471.6 482.533   1
   1  -2  -1 13919.6 816.198   4
  -1  -2   1 11241.6 722.500   1
  -1  -2   1 12657.5 475.631   6
   1  -2  -1 12227.2 646.957   2
   1  -2   0 69419.0 1273.33   5
   1  -2   0 70891.1 1729.19   4
  -1  -2   0 70699.4 1086.45   6
   1  -2   0 69263.0 1104.05   1
  -1  -2   0 67234.9 1511.22   5
   1  -2   1 52899.3 1039.25   1
  -1  -2  -1 47980.4 1261.85   5
   1  -2   1 50756.4 1227.34   5
  -1  -2  -1 51512.4 1486.88   4
  -1  -2  -1 52238.9 955.761   6
   1  -2   1 52355.9 1487.72   4
   1  -2   2 23514.9 776.776   1
  -1  -2  -2 21571.4 977.443   4
   1  -2   2 21662.6 959.674   4
  -1  -2  -3 3781.86 424.951   4
   1  -2   3 3816.05 364.613   1
   1  -2   4 9971.07 611.135   1
  -1  -2  -4 9811.35 664.611   4
   1  -2   5 434.012 197.498   1
  -1  -2  -5 180.010 140.775   4
   1  -2   6 1000.70 249.546   1
  -1  -2  -7 2210.00 356.206   6
  -1  -2  -7 2117.69 362.938   2
   1  -2   7 2318.98 405.187   1
  -1  -2  -7 1460.79 198.157   3
   1  -2   8 212.166 227.851   1
  -1  -2  -8 108.942 80.9891   3
  -1  -2  -8 145.272 154.456   2
  -1  -2  -8 391.274 205.219   6
  -1  -2  -9 2634.68 407.587   2
   1  -2   9 3022.39 463.062   1
  -1  -2  -9 2327.61 401.427   6
   1  -2   9 3275.20 555.538   5
   1  -2   9 2399.79 447.542   6
   1  -2  10 347.257 222.994   1
  -1  -2 -10 210.549 189.523   2
  -1  -2 -10 595.885 221.182   6
   1  -2  11 1202.40 360.296   1
  -1  -2 -11 1075.29 315.047   6
  -1  -2 -12 1353.59 368.055   6
   1  -2  12 1446.32 420.842   1
   1  -2  13 184.695 278.691   1
  -1  -2 -13 676.952 305.895   6
  -1  -2 -14 407.487 316.322   6
   1  -2  14 464.163 316.533   1
  -1  -2 -15 200.012 312.807   6
  -1  -2 -16 57.4515 235.015   6
  -1  -2 -17 213.026 264.211   6
  -1  -2 -18-102.017 295.393   6
  -1  -2 -19 155.579 290.305   6
   1  -2  19 367.568 317.111   2
   1  -1 -20 716.811 402.055   6
  -1  -1  20 728.101 378.816   2
  -1  -1  19 113.939 249.309   2
   1  -1 -19 51.6829 281.505   6
   1  -1 -18 669.622 373.352   6
  -1  -1  18 135.571 289.791   1
  -1  -1  17 293.856 334.331   1
   1  -1 -17-207.743 267.466   6
  -1  -1  16 1060.07 403.880   1
   1  -1 -16 1000.01 410.942   6
  -1  -1  15 3726.01 666.569   1
   1  -1 -15 4334.75 715.986   6
   1  -1 -14 5807.90 798.573   6
  -1  -1  14 6245.90 790.209   1
  -1  -1  13 3680.97 580.943   1
   1  -1 -13 2754.56 558.288   6
   1  -1 -12 512.428 304.624   1
  -1  -1  12 1472.17 425.682   5
  -1  -1  12 797.530 304.230   1
   1  -1 -12 598.905 289.557   6
  -1  -1  11 1253.15 342.296   1
   1  -1 -11 1203.87 357.779   1
  -1  -1  11 1510.24 376.737   5
  -1  -1  10 1006.48 321.925   5
  -1  -1  10 1236.62 330.062   1
   1  -1 -10 1750.17 398.881   1
  -1  -1   9 9739.57 767.461   1
   1  -1  -9 11105.3 813.876   1
  -1  -1   9 11195.0 870.044   5
   1  -1  -8 41512.1 1438.90   1
  -1  -1   8 41467.5 1517.71   1
  -1  -1   7 35638.6 1339.81   1
   1  -1  -7 35483.3 1228.58   1
  -1  -1   6 517.937 222.122   1
   1  -1  -6 752.007 204.424   1
   1  -1  -5 4319.91 279.927   2
  -1  -1   5 4751.07 462.585   1
   1  -1  -5 4280.22 363.046   1
   1  -1  -4 55462.6 875.156   2
   1  -1  -4 54163.3 1006.37   3
   1  -1  -4 53333.8 1070.09   1
  -1  -1   4 52843.4 1156.06   6
  -1  -1   4 54335.6 1382.52   1
  -1  -1   3 52763.6 1296.72   1
   1  -1  -3 54631.7 905.120   1
  -1  -1   3 53352.0 1007.49   6
   1  -1  -3 54412.7 794.195   2
  -1  -1   2 128591. 1939.05   1
  -1  -1   2 127088. 1259.52   6
   1  -1  -2 127076. 1045.52   1
   1  -1  -2 125357. 1248.28   2
   1  -1  -1 271104. 2548.98   4
  -1  -1   1 269259. 2717.18   1
   1  -1   0 188186. 2021.19   4
   1  -1   1 105126. 1004.35   1
   1  -1   1 101652. 1472.86   4
  -1  -1  -2 91405.3 1043.33   6
   1  -1   2 92407.4 1213.88   1
  -1  -1  -2 87435.7 1394.40   4
  -1  -1  -3 4296.85 309.152   6
   1  -1   3 5154.42 389.875   1
  -1  -1  -4 1718.95 234.167   6
   1  -1   4 1624.11 254.828   1
  -1  -1  -5 4631.24 391.411   6
   1  -1   5 4143.56 394.038   1
   1  -1   6 18224.1 884.425   1
  -1  -1  -6 17663.2 830.158   6
  -1  -1  -7 44097.5 1411.27   6
   1  -1   7 43769.8 1460.61   1
   1  -1   8 2310.54 412.550   1
  -1  -1  -8 2348.68 388.386   6
  -1  -1  -9 2836.96 433.001   6
   1  -1   9 3554.85 498.123   1
  -1  -1 -10 1845.71 383.370   6
  -1  -1 -10 1425.57 367.870   1
   1  -1  10 1953.12 405.224   1
  -1  -1 -11 2631.10 475.322   6
  -1  -1 -12 1041.92 375.561   6
  -1  -1 -13 10294.0 997.121   6
  -1  -1 -14 13332.4 1183.97   6
   1  -1  15 2200.18 485.501   2
  -1  -1 -15 2005.96 538.182   6
  -1  -1 -16 811.642 367.545   6
   1  -1  16 692.657 309.338   2
   1  -1  17 922.326 393.690   2
  -1  -1 -17 926.029 392.548   6
  -1  -1 -18-19.7208 200.005   6
   1  -1  18 272.658 281.019   2
   1  -1  19-123.183 237.682   2
  -1  -1 -19-133.749 230.940   6
   1  -1  20 696.575 384.763   2
  -1  -1 -20 670.539 412.341   6
  -1   0  20 1179.83 450.170   2
   1   0 -20 1947.19 601.495   6
  -1   0  19 1373.67 448.128   2
   1   0 -19 1619.91 529.134   6
   1   0 -18 241.616 316.248   6
  -1   0  18 284.187 257.480   2
   1   0 -17 692.108 412.468   6
  -1   0  17 1010.76 375.554   2
  -1   0  16 50.9240 201.041   2
   1   0 -16 323.946 292.819   6
  -1   0  15 286.540 287.241   1
   1   0 -15 277.763 349.793   6
  -1   0  15 468.520 263.458   2
   1   0 -14-21.3045 292.586   6
  -1   0  14 562.906 261.144   2
  -1   0  14 909.447 328.077   1
  -1   0  13 2683.14 517.275   5
   1   0 -13 2982.21 553.000   6
  -1   0  13 2790.65 435.944   2
  -1   0  13 2771.51 507.935   1
   1   0 -12 307.171 247.029   6
  -1   0  12 481.655 249.503   5
   1   0 -12 199.663 220.330   1
  -1   0  12 302.353 233.459   1
   1   0 -11 1528.08 393.446   1
   1   0 -11 1487.43 378.509   6
  -1   0  11 1549.15 364.639   5
  -1   0  11 1425.04 341.444   1
   1   0 -10 411.452 257.438   6
  -1   0  10 237.730 145.574   5
  -1   0  10 244.934 166.459   1
   1   0  -9 2144.48 402.750   6
  -1   0   9 2583.88 397.097   5
  -1   0   9 2327.49 378.557   1
   1   0  -8 1356.19 303.864   6
  -1   0   8 1098.44 267.611   5
  -1   0   8 1038.46 261.392   1
  -1   0   7 1744.02 312.424   1
  -1   0   7 1406.25 278.291   5
  -1   0   6 9640.29 598.048   5
  -1   0   6 9501.49 591.712   1
  -1   0   5 64162.4 1397.09   5
   1   0  -5 63674.3 1432.91   5
  -1   0   5 63560.1 1376.44   1
   1   0  -4 246014. 2546.79   5
  -1   0   4 241739. 2432.94   1
  -1   0   3 152926. 1727.93   1
   1   0  -3 155383. 1800.73   5
  -1   0   2 2320.56 206.509   1
   1   0  -2 2178.47 210.650   5
   1   0   1 16976.1 401.591   2
  -1   0  -1 16918.9 498.342   6
  -1   0  -1 16884.9 353.940   3
  -1   0  -2 1505.08 220.977   6
  -1   0  -2 1612.01 132.399   3
  -1   0  -3 5106.51 470.362   6
   1   0   3 8231.74 283.007   3
  -1   0  -4 12928.5 656.242   6
   1   0   4 14374.9 570.621   2
  -1   0  -5 3533.56 390.547   6
   1   0   5 4310.93 358.961   2
  -1   0  -6 6495.79 555.351   6
   1   0   6 6816.67 470.599   2
   1   0   7 806.367 223.832   2
  -1   0  -7 663.149 234.842   6
   1   0   7 303.121 74.9448   3
   1   0   8 378.746 190.537   2
  -1   0  -8 49.5986 197.304   6
   1   0   9 191.253 186.378   2
   1   0   9 6.97992 147.508   6
  -1   0  -9 174.989 188.247   6
   1   0  10 2399.08 375.521   2
  -1   0 -10 1975.09 426.663   6
  -1   0 -11 2366.29 462.339   1
  -1   0 -11 3142.82 533.879   6
   1   0  11 3314.14 463.946   2
  -1   0 -12 312.111 257.122   6
   1   0  12 265.184 220.338   2
   1   0  12-13.1557 28.6783   3
   1   0  13 725.407 331.238   2
  -1   0 -13 717.326 353.007   6
   1   0  14 447.938 296.449   2
  -1   0 -14 679.572 362.542   6
   1   0  15 916.934 347.026   2
  -1   0 -15 624.550 335.027   6
  -1   0 -16 3470.42 684.838   6
   1   0  16 2808.90 537.304   2
  -1   0 -17 1793.29 546.520   6
   1   0  17 2264.67 545.598   2
  -1   0 -18 637.995 297.796   6
   1   0  18 268.917 327.388   2
   1   0  19 122.389 264.345   2
  -1   0 -19 785.820 425.967   6
   1   0  20-967.885 434.432   2
  -1   0 -20-196.086 276.214   6
  -1   1  20-208.697 301.684   2
   1   1 -20 678.901 471.345   6
   1   1 -19 743.174 420.192   6
  -1   1  19-173.720 259.090   2
   1   1 -18 529.159 432.064   6
  -1   1  18 282.832 251.896   2
  -1   1  17 155.082 296.425   2
   1   1 -17 431.797 345.517   6
  -1   1  16 372.386 259.330   2
  -1   1  16 869.908 199.369   3
   1   1 -15 5912.30 876.136   6
  -1   1  15 4901.07 734.619   5
  -1   1  15 4066.80 380.081   3
  -1   1  15 3993.91 570.117   2
  -1   1  14 7174.67 821.186   5
  -1   1  14 5496.95 615.601   2
  -1   1  14 5635.93 448.415   3
   1   1 -14 5608.22 814.033   6
  -1   1  13 4179.43 588.520   5
  -1   1  13 3640.99 476.777   2
  -1   1  13 3193.24 329.326   3
   1   1 -13 3551.40 620.688   6
  -1   1  12 818.875 265.328   2
   1   1 -12 818.659 317.139   6
  -1   1  12 1020.00 301.058   5
  -1   1  12 811.460 179.411   3
  -1   1  11 1686.67 340.498   5
   1   1 -11 1326.86 363.707   6
  -1   1  11 1401.74 281.690   2
  -1   1  11 1443.55 214.039   3
   1   1 -10 1517.74 374.691   6
  -1   1  10 1522.74 326.689   5
  -1   1  10 1339.02 209.457   3
  -1   1  10 1233.58 253.656   2
  -1   1   9 9940.03 504.414   3
  -1   1   9 11451.6 719.209   5
   1   1  -9 10729.4 816.941   6
  -1   1   9 10571.7 617.008   2
   1   1  -8 43112.3 1521.33   6
  -1   1   8 43650.4 1151.27   2
  -1   1   8 42778.1 1273.84   5
  -1   1   8 43337.3 1016.70   3
  -1   1   7 35747.0 1055.68   5
   1   1  -7 36645.6 1282.08   6
  -1   1   7 37762.2 985.675   2
  -1   1   7 36543.3 904.647   3
   1   1  -7 34986.2 1438.74   5
   1   1  -6 676.961 222.261   6
  -1   1   6 640.318 147.385   3
  -1   1   6 514.845 144.305   5
   1   1  -6 200.552 200.032   5
  -1   1   6 967.441 183.034   2
  -1   1   5 4574.05 302.691   5
   1   1  -5 3823.41 368.049   6
   1   1  -5 4418.46 490.824   5
  -1   1   5 4425.31 311.242   3
  -1   1   5 4307.75 299.324   2
  -1   1   4 54251.5 1053.26   3
   1   1  -4 52836.5 1138.87   6
  -1   1   4 55112.1 947.816   2
   1   1  -4 52873.3 1461.11   5
  -1   1   4 54310.5 826.205   5
   1   1  -3 51687.9 1342.22   5
  -1   1   3 55753.2 1107.20   3
  -1   1   3 52088.8 872.683   2
   1   1  -3 53498.7 1015.91   6
   1   1  -2 123890. 1925.10   5
  -1   1   2 126585. 1289.33   2
  -1   1   2 124140. 1628.53   3
   1   1  -2 126024. 1263.90   6
   1   1  -1 267244. 2622.15   5
  -1   1   1 270262. 2424.72   3
  -1   1   1 267048. 2724.82   6
  -1   1   0 189879. 2280.22   6
   1   1   0 192169. 2125.10   5
   1   1   0 187974. 2181.09   2
  -1   1   0 187300. 2074.99   3
  -1   1  -1 105439. 1772.88   6
   1   1   1 102612. 1619.24   2
  -1   1  -1 102909. 1027.72   1
   1   1   1 101190. 1497.74   5
  -1   1  -2 89869.9 1704.87   6
   1   1   2 94653.6 1550.23   2
  -1   1  -2 91643.5 1236.69   1
   1   1   3 2427.51 284.474   4
  -1   1  -3 2371.46 360.787   6
   1   1   3 2863.91 321.072   2
   1   1   4 1404.34 227.598   4
   1   1   4 1402.34 251.238   2
  -1   1  -4 1463.03 302.561   6
  -1   1  -4 2115.08 282.020   1
   1   1   5 4975.74 400.771   2
   1   1   5 5008.03 393.180   4
  -1   1  -5 5139.07 444.565   1
  -1   1  -5 4445.12 486.116   6
   1   1   6 17130.0 780.442   2
  -1   1  -6 17207.2 871.011   1
   1   1   6 19399.1 794.552   4
  -1   1  -6 18281.4 1008.46   6
   1   1   7 43624.0 1290.21   2
   1   1   7 45585.2 1269.67   4
  -1   1  -7 44770.1 1506.65   1
  -1   1  -7 46663.6 1650.99   6
  -1   1  -8 2130.80 424.671   6
   1   1   8 2303.08 346.911   2
  -1   1  -8 1552.69 344.416   1
   1   1   8 2572.24 344.908   4
   1   1   9 3696.61 430.556   2
  -1   1  -9 3205.09 471.412   1
  -1   1  -9 3958.46 563.052   6
  -1   1 -10 1700.29 416.826   6
  -1   1 -10 2342.38 440.146   1
   1   1  10 2099.63 367.052   2
  -1   1 -11 3110.20 529.669   1
  -1   1 -11 3472.35 568.187   6
   1   1  11 3066.39 447.280   2
  -1   1 -12 1111.82 370.599   6
   1   1  12 861.745 336.791   2
   1   1  13 9313.95 839.442   2
  -1   1 -13 9482.66 1005.17   6
  -1   1 -14 13516.2 1250.60   6
   1   1  14 12914.9 1016.44   2
  -1   1 -15 1831.77 515.482   6
   1   1  15 1701.45 448.548   2
   1   1  16 162.162 243.325   2
  -1   1 -16 792.495 397.888   6
   1   1  17 588.220 330.608   4
  -1   1 -17 793.633 389.418   6
   1   1  17 394.042 295.240   2
  -1   1 -18 382.271 319.894   6
   1   1  18 860.012 283.508   4
   1   1  18-207.683 262.389   2
  -1   1 -19 812.154 428.925   6
   1   1  19-296.421 319.486   2
   1   1  19 306.220 265.099   4
  -1   1 -20 115.455 183.245   6
   1   1  20 1142.22 458.539   2
   1   2 -20-66.9089 333.381   6
  -1   2  20 172.812 322.641   4
  -1   2  20 205.385 279.452   2
   1   2 -19 13.3694 295.602   6
  -1   2  19 114.966 266.375   4
  -1   2  19 55.0324 246.209   2
   1   2 -18-181.573 314.829   6
  -1   2  18-70.9296 220.161   2
  -1   2  18 74.6699 273.997   4
  -1   2  17 31.1095 272.616   2
   1   2 -17 364.375 299.035   6
  -1   2  17 182.895 315.034   4
  -1   2  16 337.986 210.027   5
  -1   2  16 482.244 292.516   2
   1   2 -16 52.5419 304.260   6
  -1   2  15 6116.70 721.833   5
   1   2 -15 5835.94 868.000   6
  -1   2  15 4928.67 756.375   4
  -1   2  15 4737.80 660.903   2
  -1   2  14-29.9251 159.021   5
  -1   2  14-20.4260 91.8588   3
   1   2 -14-43.2907 231.775   6
  -1   2  14 527.201 328.737   4
  -1   2  14 730.172 284.699   2
   1   2 -13 1975.23 474.164   6
  -1   2  13 1897.16 377.439   5
  -1   2  13 1413.05 359.973   2
  -1   2  13 1871.91 458.717   4
  -1   2  13 1892.68 281.352   3
   1   2 -12 89.7360 197.581   6
  -1   2  12 289.397 171.000   5
  -1   2  12 145.519 199.677   4
  -1   2  12 284.970 216.089   2
  -1   2  12 174.252 138.388   3
  -1   2  11 533.133 171.885   3
   1   2 -11 445.390 252.792   6
  -1   2  11 597.583 232.111   2
  -1   2  11 440.111 261.661   4
  -1   2  11 651.247 216.561   5
  -1   2  10 3089.95 521.227   4
  -1   2  10 3249.88 444.353   2
  -1   2  10 3474.42 391.721   5
   1   2 -10 2962.26 488.429   6
  -1   2  10 2769.88 333.332   3
   1   2 -10 2963.66 513.855   1
  -1   2   9 3214.53 420.230   2
  -1   2   9 3169.34 358.102   3
   1   2  -9 3489.85 500.738   6
  -1   2   9 3604.43 361.584   5
   1   2  -9 4068.98 574.080   1
  -1   2   9 3240.66 508.464   4
  -1   2   8 7379.62 589.964   2
  -1   2   8 6901.02 522.014   3
  -1   2   8 7292.50 446.213   5
   1   2  -8 6795.10 643.962   6
  -1   2   8 6724.87 684.029   4
  -1   2   7 346.938 105.037   5
  -1   2   7 503.521 183.409   3
   1   2  -7 255.970 203.803   6
   1   2  -7 130.463 215.660   5
  -1   2   7 56.4120 163.625   2
  -1   2   6 1932.92 167.690   5
   1   2  -6 2782.01 373.683   6
  -1   2   6 2725.87 351.540   2
  -1   2   6 2479.49 335.200   3
   1   2  -6 1978.00 415.763   5
   1   2  -5 3308.63 399.445   6
   1   2  -5 3089.44 468.744   5
  -1   2   5 3220.18 381.268   2
   1   2  -4 1186.19 313.220   5
   1   2  -4 1207.12 227.827   6
  -1   2   4 1377.64 279.979   2
  -1   2   3 6482.02 496.619   2
   1   2  -3 7117.88 461.988   6
   1   2  -3 7723.63 648.804   5
   1   2  -2 27328.4 807.419   6
   1   2  -2 25254.2 1085.27   5
   1   2  -1 11878.4 493.991   6
  -1   2   1 12194.1 760.814   6
   1   2  -1 12098.3 748.509   5
   1   2   0 69021.4 1748.79   2
   1   2   0 67670.2 1575.59   5
  -1   2   0 71528.8 1776.64   6
   1   2   0 73278.0 1126.70   6
   1   2   1 52196.7 1338.17   5
  -1   2  -1 52389.0 1558.62   6
   1   2   1 50298.7 1533.77   2
  -1   2  -1 51838.9 1061.21   1
   1   2   2 22838.5 868.720   5
  -1   2  -2 22446.5 749.134   1
   1   2   2 22691.7 1033.86   2
  -1   2  -2 21953.8 1042.62   6
   1   2   3 3981.70 452.613   2
   1   2   3 3613.26 359.350   5
  -1   2  -3 3327.22 444.179   6
   1   2   3 3672.64 442.863   4
  -1   2  -3 3888.61 357.671   1
   1   2   4 9253.55 552.961   5
  -1   2  -4 9472.44 595.333   1
   1   2   4 9704.50 701.262   2
  -1   2  -4 9799.07 753.527   6
   1   2   4 10045.4 728.173   4
   1   2   5 325.908 236.442   4
  -1   2  -5 468.467 204.858   1
   1   2   5 148.821 216.595   2
  -1   2  -5 511.264 290.644   6
  -1   2  -6 1527.49 363.303   6
  -1   2  -6 983.774 268.381   1
   1   2   6 1211.28 293.867   2
   1   2   6 831.453 263.525   4
  -1   2  -7 1438.80 392.465   6
   1   2   7 2249.97 437.826   4
  -1   2  -7 2021.45 369.956   1
   1   2   7 1992.78 378.726   2
   1   2   8 198.755 215.339   2
  -1   2  -8 246.641 266.315   6
  -1   2  -8 247.586 189.710   1
   1   2   8 672.226 294.725   4
   1   2   9 3158.15 466.760   2
   1   2   9 2525.62 438.321   4
  -1   2  -9 3092.27 496.008   1
  -1   2  -9 2782.48 518.300   6
   1   2  10 327.340 227.793   4
  -1   2 -10 398.789 280.147   6
  -1   2 -10 491.469 263.417   1
   1   2  10 431.405 271.068   2
  -1   2 -11 1547.20 434.781   6
   1   2  11 1143.04 328.706   2
   1   2  11 1587.28 355.110   4
   1   2  12 1934.11 403.958   4
   1   2  12 1314.09 369.348   2
  -1   2 -12 2104.53 516.873   6
  -1   2 -13 784.222 327.660   6
   1   2  13 245.684 221.016   4
   1   2  13 366.867 275.604   2
   1   2  14 530.675 308.022   4
   1   2  14 562.815 311.802   2
  -1   2 -14 1275.13 442.148   6
   1   2  15 438.302 255.099   4
   1   2  15 145.024 237.540   2
  -1   2 -15 568.143 381.939   6
  -1   2 -16 325.102 314.854   6
   1   2  16 479.985 254.461   4
   1   2  16 16.9345 212.998   2
   1   2  17-325.576 252.650   4
  -1   2 -17 416.367 372.967   6
   1   2  17 180.178 241.678   2
  -1   2 -18 234.711 287.517   6
   1   2  18-61.9865 195.947   4
   1   2  18 288.045 378.896   2
  -1   2 -19 683.690 482.215   6
   1   2  19 757.648 367.178   4
   1   2  19-105.688 342.196   2
  -1   3  19-859.439 451.703   4
   1   3 -19 489.741 434.786   6
  -1   3  19-124.468 320.185   2
   1   3 -18 891.506 449.958   6
  -1   3  18 522.978 332.221   2
  -1   3  18-193.382 263.961   4
   1   3 -17 119.582 300.493   6
  -1   3  17-308.390 293.535   2
  -1   3  17 47.1274 257.094   4
   1   3 -16 100.017 278.353   6
  -1   3  16 494.731 333.707   2
  -1   3  16-227.721 300.471   4
   1   3 -15 893.210 443.739   6
  -1   3  15 684.230 332.995   2
  -1   3  15 983.779 437.811   4
   1   3 -14 2236.59 556.696   6
  -1   3  14 2175.13 523.866   2
  -1   3  14 1420.86 501.065   4
  -1   3  13 254.799 165.037   5
   1   3 -13 494.390 356.313   6
  -1   3  13 573.054 314.421   2
  -1   3  13 873.878 355.453   4
  -1   3  12 467.480 294.264   4
   1   3 -12 576.278 312.294   6
  -1   3  12 344.549 161.119   5
  -1   3  12 724.432 324.310   2
  -1   3  11-206.298 290.072   2
   1   3 -11 2.57821 226.830   6
  -1   3  11 129.976 240.968   4
  -1   3  11 101.140 83.2258   5
  -1   3  10 345.188 115.634   5
  -1   3  10 267.639 233.112   2
   1   3 -10 301.438 237.522   6
  -1   3  10 692.692 323.627   4
   1   3  -9 41.6576 169.885   6
   1   3  -9 588.507 290.981   1
  -1   3   9 53.4423 61.1485   5
  -1   3   9 184.326 235.548   4
  -1   3   9 146.341 69.9180   5
  -1   3   9 93.9863 197.046   2
   1   3  -8 2506.59 444.686   6
   1   3  -8 2422.36 466.772   1
  -1   3   8 1671.30 386.030   2
  -1   3   8 2646.11 523.028   4
  -1   3   7 8421.56 757.012   2
   1   3  -7 6802.18 800.146   5
   1   3  -7 6905.25 683.109   6
   1   3  -7 7785.26 774.676   1
  -1   3   7 7973.23 852.588   4
   1   3  -6-36.6658 222.020   5
   1   3  -6 98.4904 169.971   6
  -1   3   6 234.831 182.489   2
   1   3  -6 36.2847 170.849   1
  -1   3   5 14155.6 917.648   2
   1   3  -5 13860.1 971.413   1
   1   3  -5 13535.9 1039.54   5
   1   3  -5 12664.1 825.342   6
   1   3  -4 2995.80 496.856   5
   1   3  -4 2826.81 390.289   6
  -1   3   4 2578.52 416.845   2
   1   3  -4 3830.15 524.582   1
   1   3  -3 2009.32 389.334   1
   1   3  -3 1932.92 398.939   5
   1   3  -3 1590.62 292.409   6
   1   3  -2 2642.02 458.635   5
   1   3  -2 1846.34 303.920   6
   1   3  -1 14955.7 965.209   5
   1   3  -1 15258.4 745.755   6
  -1   3   1 15635.7 1036.40   6
   1   3   0 53294.8 1672.98   5
  -1   3   0 52156.1 1809.21   6
   1   3   1 17745.4 940.558   5
   1   3   1 16944.9 1065.43   2
  -1   3  -1 18863.9 1099.93   6
   1   3   2 3619.98 521.803   2
   1   3   2 4296.34 469.413   5
  -1   3  -2 3636.30 515.913   6
  -1   3  -2 4580.66 441.529   1
  -1   3  -3 6710.09 550.074   1
   1   3   3 5491.55 514.219   5
   1   3   3 6637.84 699.807   2
  -1   3  -3 6699.36 706.814   6
  -1   3  -4 10890.6 909.259   6
   1   3   4 10997.2 919.420   2
   1   3   4 10378.8 700.803   5
  -1   3  -4 10776.4 732.371   1
  -1   3  -5 1082.33 269.782   1
   1   3   5 725.197 291.260   2
  -1   3  -5 862.297 310.063   6
   1   3   5 968.688 238.400   5
   1   3   5 1043.98 345.540   4
   1   3   6 3091.86 537.905   2
   1   3   6 2557.75 371.709   5
  -1   3  -6 3216.80 473.683   1
  -1   3  -6 2678.95 527.373   6
   1   3   6 3642.11 589.756   4
  -1   3  -7 1354.62 394.092   6
   1   3   7 1219.68 380.803   4
   1   3   7 1150.30 262.126   5
   1   3   7 1488.87 392.517   2
  -1   3  -7 1870.08 391.393   1
  -1   3  -8 334.532 293.231   6
   1   3   8-6.89922 202.222   2
   1   3   8 375.596 274.495   4
  -1   3  -8 466.609 245.049   1
  -1   3  -9 1341.74 395.851   6
  -1   3  -9 2473.01 470.198   1
   1   3   9 1358.63 394.891   2
   1   3   9 1183.37 375.293   4
  -1   3 -10 722.982 307.000   6
   1   3  10 539.730 309.916   4
   1   3  10 545.948 295.948   2
  -1   3 -11 938.571 403.857   6
   1   3  11 531.920 301.879   2
   1   3  11 776.507 328.964   4
   1   3  12 1416.74 423.680   2
   1   3  12 1552.27 456.465   4
  -1   3 -12 1814.23 516.319   6
  -1   3 -13 1103.03 446.924   6
   1   3  13 1787.45 498.319   2
   1   3  13 1501.42 464.467   4
  -1   3 -14 3244.20 700.114   6
   1   3  14 2247.76 544.358   2
   1   3  14 2139.38 507.611   4
   1   3  15 87.7332 225.916   4
   1   3  15 302.181 289.096   2
  -1   3 -16 362.125 335.313   6
   1   3  16-360.458 363.505   2
   1   3  16 355.617 322.528   4
  -1   3 -17-36.5731 325.496   6
   1   3  17-170.594 270.446   2
   1   3  17-82.1009 190.532   4
  -1   3 -18-214.003 399.646   6
   1   3  18-521.448 396.611   2
   1   3  18 407.695 270.569   4
  -1   4  17 606.029 462.002   2
  -1   4  17 50.7411 263.351   4
   1   4 -17 535.527 411.149   6
   1   4 -16 527.810 391.022   6
  -1   4  16 445.127 406.754   2
  -1   4  16 443.389 310.229   4
  -1   4  15 326.073 336.943   2
  -1   4  15-224.639 323.589   4
   1   4 -15-531.754 359.113   6
   1   4 -14-58.7388 236.480   6
  -1   4  14-370.882 352.581   4
  -1   4  14 248.530 307.028   2
  -1   4  13 1409.08 506.855   2
  -1   4  13 647.800 426.523   4
   1   4 -13 879.086 393.548   6
  -1   4  12 784.920 400.871   2
   1   4 -12 91.1073 268.055   6
  -1   4  12 79.1035 241.242   4
  -1   4  11 385.053 342.763   2
  -1   4  11 104.286 235.497   4
   1   4 -11 292.518 301.954   6
  -1   4  10 590.637 410.315   4
   1   4 -10 89.4386 243.250   6
  -1   4  10 100.169 264.272   2
  -1   4   9 3352.70 606.098   2
   1   4  -9 2653.04 534.417   6
  -1   4   9 2892.88 629.399   4
  -1   4   8 9843.94 967.985   2
   1   4  -8 9243.18 905.489   6
  -1   4   8 9113.65 1048.21   4
   1   4  -7 7227.07 907.937   5
   1   4  -7 6795.14 772.630   6
  -1   4   7 6876.83 810.364   2
  -1   4   7 8074.05 989.907   4
   1   4  -6 3821.14 652.169   5
  -1   4   6 3820.80 596.048   2
   1   4  -6 3766.20 572.352   6
   1   4  -6 3142.80 557.506   1
  -1   4   6 4079.76 727.512   4
   1   4  -5 4829.03 671.034   1
   1   4  -5 4101.28 659.536   5
   1   4  -5 3906.44 532.300   6
  -1   4   5 4564.96 744.077   4
   1   4  -4 1271.96 320.713   6
  -1   4   4 1349.49 432.963   4
   1   4  -4 1006.42 369.337   5
   1   4  -3 1843.08 444.517   5
  -1   4   3 2630.24 569.522   4
   1   4  -3 2009.15 388.305   6
   1   4  -2 183.765 161.399   6
   1   4  -2 154.170 211.610   5
   1   4  -1 13.9767 175.881   5
   1   4  -1-38.6956 164.520   6
   1   4   0 2153.47 423.067   5
  -1   4   0 1345.53 384.925   6
  -1   4  -1 1919.88 443.590   6
   1   4   1 1490.64 353.320   5
   1   4   2 2043.44 380.392   5
  -1   4  -2 1860.79 441.524   6
   1   4   3 1278.83 320.938   5
  -1   4  -3 1809.62 366.858   1
  -1   4  -3 1342.49 405.501   6
   1   4   3 1440.29 419.380   2
  -1   4  -4 962.669 359.362   6
   1   4   4 592.904 244.802   5
   1   4   4 940.169 409.512   2
  -1   4  -4 825.525 304.728   1
   1   4   5 5921.11 777.869   2
   1   4   5 6939.34 641.028   5
  -1   4  -5 6951.41 838.338   6
  -1   4  -5 6694.64 708.984   1
  -1   4  -6 5706.96 686.007   1
  -1   4  -6 6778.51 871.291   6
   1   4   6 6570.87 848.465   2
   1   4   6 6544.43 637.548   5
   1   4   7 449.886 406.248   4
   1   4   7 782.083 399.069   2
   1   4   7 861.694 274.246   5
  -1   4  -7 625.619 274.779   1
  -1   4  -7 578.351 356.150   6
  -1   4  -8 2275.81 562.454   6
   1   4   8 1627.77 347.368   5
  -1   4  -8 2874.96 536.947   1
   1   4   8 2638.59 606.788   4
   1   4   8 2264.11 538.305   2
   1   4   9 966.086 408.810   2
  -1   4  -9 1470.29 448.076   6
   1   4   9 1107.16 266.180   5
   1   4   9 1656.77 483.515   4
  -1   4 -10 703.367 369.022   6
   1   4  10 1108.19 427.526   4
   1   4  10 744.243 249.981   5
   1   4  10 735.273 403.431   2
   1   4  11 451.371 245.060   5
  -1   4 -11 578.418 338.738   6
   1   4  11 798.475 419.421   2
   1   4  11 661.958 364.500   4
   1   4  12 95.3031 409.612   2
   1   4  12 320.445 202.774   5
   1   4  12 102.427 245.813   4
  -1   4 -12 930.339 447.151   6
   1   4  13 839.158 421.497   2
  -1   4 -13 1592.00 537.773   6
   1   4  13 289.938 319.667   4
   1   4  13 816.876 266.428   5
   1   4  14 586.244 360.441   4
   1   4  14 187.864 319.603   2
  -1   4 -14 1370.02 530.828   6
   1   4  15 569.660 392.863   2
   1   4  15-32.3996 362.603   4
  -1   4 -15 398.668 412.015   6
  -1   4 -16 432.791 381.792   6
   1   4  16-119.923 333.376   2
   1   4  16 278.015 296.886   4
   1   5 -15 540.912 403.185   6
  -1   5  15 22.1223 351.557   2
  -1   5  15-328.331 351.343   4
  -1   5  14 476.316 368.414   2
   1   5 -14 253.268 284.859   6
  -1   5  14 473.717 372.819   4
   1   5 -13 185.490 332.472   6
  -1   5  13 34.7310 284.289   4
  -1   5  13-340.861 404.627   2
   1   5 -12-48.4238 307.114   6
  -1   5  12-221.858 343.075   2
  -1   5  12 738.758 404.050   4
  -1   5  11-348.613 353.883   2
   1   5 -11 328.802 302.029   6
  -1   5  11-29.9632 256.783   4
  -1   5  10 191.811 310.066   4
  -1   5  10 46.3645 308.805   2
   1   5 -10 65.2833 274.492   6
  -1   5   9 1036.68 486.590   4
   1   5  -9 840.150 410.409   6
  -1   5   9 1183.27 467.052   2
   1   5  -8 3634.27 668.234   6
  -1   5   8 5636.71 941.880   4
  -1   5   8 4111.18 742.110   2
   1   5  -7 11789.7 1116.05   6
  -1   5   7 12657.7 1359.81   4
   1   5  -6 10495.7 1031.06   6
  -1   5   6 9864.32 1201.09   4
   1   5  -5 4340.86 741.822   5
   1   5  -5 3457.41 592.151   6
   1   5  -4 76.2887 302.352   5
   1   5  -4-84.4973 207.223   6
   1   5  -3 1385.90 372.859   6
   1   5  -3 1057.84 416.895   5
   1   5  -2 3983.07 675.383   5
   1   5  -2 3794.20 552.737   6
   1   5  -1 1394.36 415.090   5
  -1   5   0 926.276 397.199   6
   1   5   0 1247.47 381.379   5
   1   5   1 880.076 350.451   5
  -1   5  -1 698.627 374.468   6
   1   5   2 688.343 268.934   5
  -1   5  -2 1065.66 425.841   6
   1   5   3 65.4606 148.693   5
  -1   5  -3 259.577 257.881   6
   1   5   4 1111.64 345.406   5
  -1   5  -4 1109.94 450.221   6
   1   5   5 3424.76 766.166   2
  -1   5  -5 3708.36 780.252   6
  -1   5  -5 4507.79 682.235   1
   1   5   5 3510.87 532.938   5
   1   5   6 9094.30 1106.55   2
  -1   5  -6 7983.47 903.571   1
   1   5   6 8389.99 756.489   5
  -1   5  -6 10236.4 1157.26   6
  -1   5  -7 10631.0 1194.80   6
  -1   5  -7 11502.2 1099.36   1
   1   5   7 9993.82 1160.62   2
   1   5   7 10877.0 837.360   5
   1   5   8 5096.00 576.571   5
  -1   5  -8 5398.73 886.427   6
   1   5   8 5748.20 928.455   2
  -1   5  -9 881.001 487.209   6
   1   5   9 1007.33 563.886   2
   1   5   9 52.0114 164.995   5
   1   5  10 229.168 363.551   2
  -1   5 -10 49.4571 265.841   6
  -1   5 -11 532.895 421.296   6
   1   5  11 595.145 408.008   2
   1   5  11 220.784 322.312   4
   1   5  12 544.458 405.231   4
  -1   5 -12-72.6076 344.180   6
   1   5  12 902.719 487.690   2
   1   5  13 670.508 441.129   2
   1   5  13 295.964 314.496   4
  -1   5 -13 766.119 455.808   6
  -1   5 -14 246.818 387.966   6
   1   5  14-201.188 392.662   2
   1   5  14 995.351 494.793   4
  -1   6  11 509.286 498.441   4
   1   6 -11-276.273 274.752   6
   1   6 -10 126.535 286.910   6
  -1   6  10 294.665 422.610   4
  -1   6   9-285.570 356.178   4
   1   6  -9-794.582 395.756   6
   1   6  -8 1050.49 408.270   6
   1   6  -7 705.222 357.517   6
   1   6  -6 344.236 302.078   6
   1   6  -5 688.956 351.770   6
   1   6  -4 2501.49 534.238   6
   1   6  -3 235.493 329.777   5
   1   6  -3-151.701 215.339   6
   1   6  -2 777.000 415.322   5
   1   6  -1 1785.64 501.658   5
   1   6   0 1004.36 398.046   5
   1   6   1 655.656 336.029   5
   1   6   2 213.160 217.911   5
  -1   6  -2-157.664 325.324   6
   1   6   3 251.316 250.141   5
  -1   6  -3 301.091 347.935   6
   1   6   4 36.1486 179.786   5
  -1   6  -4-185.889 350.432   6
  -1   6  -5 435.152 389.137   6
  -1   6  -6 248.293 305.425   6
  -1   6  -7 485.593 363.089   6
  -1   6  -8-553.609 379.613   6
   1   6   8-99.5624 323.665   2
   1   6   9-988.910 506.752   2
  -1   6  -9-167.244 355.166   6
   1   6  10 1511.83 617.417   2
  -1   6 -10-129.906 337.181   6
  -1   6 -11-1227.72 550.165   6
   1   6  11 496.750 465.597   2
  -1   7  -3 1587.42 603.554   6
  -1   7  -4 595.468 414.123   6
  -1   7  -5 242.114 304.592   6
  -2  -7   4-482.822 360.561   1
   2  -7  -4 645.863 454.741   3
   2  -7  -3 48.8929 269.936   3
  -2  -7   3 577.588 373.958   1
   2  -7  -2 380.839 329.249   3
  -2  -7   2 28.1025 240.011   1
   2  -7  -1-257.900 267.647   3
  -2  -7   1 270.398 308.214   1
  -2  -7   0 228.453 285.172   1
   2  -7   0-423.448 334.597   3
  -2  -7  -1-352.160 360.579   1
   2  -7   1 672.412 339.749   3
   2  -7   2 569.442 410.115   3
  -2  -7  -2-286.975 331.672   1
   2  -7   3 290.096 396.957   3
  -2  -7  -3 174.436 289.377   1
  -2  -6  11 629.742 410.582   1
   2  -6 -11 68.6003 237.674   3
   2  -6 -10 411.403 305.865   3
  -2  -6  10 489.905 379.242   1
   2  -6  -9 254.174 276.932   3
  -2  -6   9 694.280 450.216   1
   2  -6  -8-361.613 326.761   3
  -2  -6   8-533.584 394.855   1
   2  -6  -7 1651.84 466.727   3
  -2  -6   7 1209.04 524.575   1
   2  -6  -6 225.779 283.109   3
  -2  -6   6 428.757 353.759   1
   2  -6  -5 2071.56 521.966   3
  -2  -6   5 815.893 401.190   1
  -2  -6   4-14.9377 288.338   1
   2  -6  -4 360.812 279.577   3
  -2  -6   3 309.836 289.793   1
   2  -6  -3 275.852 276.174   3
  -2  -6   2-143.232 274.271   1
   2  -6  -2 296.164 275.869   3
  -2  -6   1 1655.58 550.359   1
   2  -6  -1 2434.89 583.895   3
   2  -6   0 459.039 204.383   1
   2  -6   0 540.541 322.276   3
  -2  -6   0 284.603 256.668   1
   2  -6   1 257.958 276.924   3
   2  -6   1 461.701 210.314   1
   2  -6   2 310.819 313.170   3
   2  -6   2 207.419 155.367   1
   2  -6   3 93.6643 332.745   3
  -2  -6  -3 591.856 340.336   1
   2  -6   3 986.628 286.605   1
  -2  -6  -4 280.522 312.828   1
   2  -6   4 43.7269 148.893   1
   2  -6   4 517.820 420.485   3
  -2  -6  -5-127.683 314.708   1
   2  -6   5 180.457 165.925   1
   2  -6   5-118.462 338.142   3
   2  -6   6 80.4709 332.629   3
   2  -6   6 589.683 254.480   1
   2  -6   7 1771.74 584.407   3
  -2  -6  -7 1174.55 413.338   3
   2  -6   7 1469.72 384.897   1
   2  -6   8 85.6544 379.956   3
  -2  -6  -8 620.357 301.378   3
   2  -6   8 524.153 270.468   1
   2  -6   9 231.613 397.359   3
   2  -6  10 34.5619 361.677   3
  -2  -5  15-348.444 342.419   1
  -2  -5  14-405.292 353.039   1
  -2  -5  13-460.428 366.152   1
   2  -5 -12 317.129 243.825   3
  -2  -5  12-52.7057 276.676   1
  -2  -5  11 240.670 317.403   1
   2  -5 -11-383.821 241.610   3
   2  -5 -10 341.148 254.716   3
  -2  -5  10 724.973 406.454   1
   2  -5  -9 1323.60 395.611   3
  -2  -5   9 1446.22 533.099   1
   2  -5  -8 1847.42 478.489   3
  -2  -5   8 1054.67 431.237   1
  -2  -5   8 643.005 275.648   6
   2  -5  -7 144.905 274.853   3
  -2  -5   7-35.2378 246.202   1
   2  -5  -7 151.286 173.296   1
   2  -5  -6 2460.72 506.655   3
  -2  -5   6 3057.55 439.071   6
   2  -5  -6 2927.31 449.213   1
  -2  -5   6 3371.50 685.101   1
   2  -5  -5 2793.94 549.432   3
  -2  -5   5 2350.44 382.699   6
   2  -5  -5 2231.92 401.202   1
  -2  -5   5 2196.26 576.938   1
   2  -5  -4-114.536 134.322   1
   2  -5  -4 351.722 292.368   3
  -2  -5   4 407.549 189.999   6
  -2  -5   4-23.5352 263.643   1
   2  -5  -3 185.219 132.808   1
   2  -5  -3-196.808 237.384   3
   2  -5  -3 152.695 94.0499   5
  -2  -5   3 33.1014 114.868   6
  -2  -5   2 599.411 374.035   1
   2  -5  -2 253.074 262.093   3
   2  -5  -2 479.405 166.779   5
  -2  -5   2 755.053 224.524   6
   2  -5  -2 238.248 139.841   1
  -2  -5   1 258.256 281.206   1
   2  -5  -1-32.8609 182.627   3
   2  -5  -1 150.102 135.326   1
   2  -5  -1-29.0681 123.670   5
  -2  -5   1-232.395 165.937   6
  -2  -5   0 469.505 201.644   6
  -2  -5   0 109.163 269.417   1
  -2  -5   0 35.0642 229.687   5
   2  -5   0 242.446 139.904   1
   2  -5   0 179.543 143.682   5
   2  -5   0 303.086 250.253   3
   2  -5   1 880.946 284.317   5
  -2  -5  -1 397.247 192.792   6
   2  -5   1 277.754 238.542   3
  -2  -5  -1 337.224 231.095   5
  -2  -5  -1-18.5762 226.790   1
   2  -5   1 199.441 139.883   1
   2  -5   2 66.8427 146.364   1
  -2  -5  -2 64.7943 246.267   1
  -2  -5  -2 14.1697 102.691   6
   2  -5   2-105.067 194.428   5
   2  -5   2 100.710 294.401   3
  -2  -5  -3 232.240 161.634   6
   2  -5   3 617.587 319.627   3
   2  -5   3 161.116 210.992   5
  -2  -5  -3 405.824 289.706   1
   2  -5   3 736.271 229.720   1
  -2  -5  -4 967.089 245.123   6
   2  -5   4 396.981 358.440   3
   2  -5   4 331.628 268.495   5
   2  -5   4 390.901 243.417   1
   2  -5   5 734.493 400.666   3
  -2  -5  -5 414.958 201.506   6
   2  -5   5 307.297 192.562   1
   2  -5   6 607.017 407.169   3
   2  -5   6 266.808 197.855   1
   2  -5   7 1461.97 369.491   1
   2  -5   7 1263.01 468.143   3
  -2  -5  -8 1249.55 329.695   3
  -2  -5  -8 1175.64 279.997   6
   2  -5   8 1252.77 497.706   3
   2  -5   8 1780.37 434.603   1
   2  -5   9 1474.66 410.738   1
  -2  -5  -9 1610.61 339.888   6
  -2  -5  -9 636.671 284.603   3
   2  -5   9 1695.14 586.454   3
  -2  -5 -10-97.6602 133.772   6
  -2  -5 -10-79.4055 151.332   3
   2  -5  10 237.586 351.349   3
   2  -5  10-141.416 199.284   1
   2  -5  11 49.5512 303.561   3
  -2  -5 -11-341.743 186.810   6
   2  -5  11 64.3008 155.155   1
  -2  -5 -12 382.718 219.020   6
   2  -5  12 154.604 250.691   1
  -2  -5 -13 110.294 116.722   6
   2  -5  13 180.928 374.821   3
   2  -5  13 36.2350 198.442   1
  -2  -4  17 829.862 413.526   1
  -2  -4  16-293.436 345.084   1
  -2  -4  15-96.6072 276.155   1
  -2  -4  14 1111.30 473.345   1
  -2  -4  13 698.068 380.312   1
  -2  -4  12-3.75962 211.430   1
   2  -4 -12 60.2889 198.280   1
   2  -4 -11 407.556 221.561   3
   2  -4 -11 805.658 263.394   2
  -2  -4  11 431.096 318.578   1
   2  -4 -11-187.340 249.443   1
  -2  -4  10 2442.68 587.551   1
   2  -4 -10 2465.04 394.984   2
   2  -4 -10 1950.73 388.468   1
  -2  -4  10 2480.49 465.667   6
   2  -4 -10 1984.14 392.643   3
  -2  -4   9 857.763 378.549   1
   2  -4  -9 624.805 230.114   2
  -2  -4   9 638.226 298.654   6
   2  -4  -9 775.450 272.900   1
   2  -4  -9 644.222 273.710   3
   2  -4  -8 3096.03 504.133   3
  -2  -4   8 3028.78 599.528   1
  -2  -4   8 2763.70 459.985   6
   2  -4  -8 2253.37 366.825   1
   2  -4  -8 3363.62 459.286   2
  -2  -4   7 18231.0 1389.33   1
   2  -4  -7 15393.1 846.597   1
   2  -4  -7 17485.4 984.860   2
  -2  -4   7 14892.2 913.425   6
   2  -4  -7 16222.5 1071.19   3
   2  -4  -6 686.240 300.365   3
   2  -4  -6 759.741 218.043   1
  -2  -4   6 1151.02 281.216   6
   2  -4  -6 720.840 257.247   2
  -2  -4   6 918.141 394.922   1
   2  -4  -5 977.790 289.146   2
  -2  -4   5 714.883 188.323   6
  -2  -4   5 618.787 325.702   1
   2  -4  -5 1025.00 322.246   3
   2  -4  -4 322.819 258.886   6
   2  -4  -4 422.900 174.331   1
   2  -4  -4 732.094 268.711   3
  -2  -4   4 400.134 275.410   5
   2  -4  -4 462.778 241.902   2
  -2  -4   4 340.699 146.910   6
  -2  -4   4 325.233 264.884   1
   2  -4  -3 106.207 179.275   6
   2  -4  -3 228.930 201.610   3
  -2  -4   3 77.5638 233.348   1
  -2  -4   3 307.790 192.616   5
   2  -4  -3 210.597 95.8937   5
   2  -4  -3 428.100 243.813   2
   2  -4  -3 88.6326 123.010   1
  -2  -4   3 291.148 136.987   6
   2  -4  -2 401.393 134.383   5
  -2  -4   2 467.482 147.020   6
   2  -4  -2 456.922 282.112   2
  -2  -4   2 364.752 258.886   5
   2  -4  -2 580.064 257.817   6
   2  -4  -2 151.584 115.182   1
   2  -4  -2 164.235 197.115   3
  -2  -4   2-152.565 338.282   1
   2  -4  -1 4247.63 622.623   6
  -2  -4   1 3804.11 335.071   6
  -2  -4   1 4626.02 621.401   5
  -2  -4   1 3849.57 632.036   1
   2  -4  -1 3771.34 408.682   5
   2  -4  -1 3902.01 568.001   2
   2  -4  -1 3696.80 560.650   3
   2  -4  -1 3889.29 596.984   4
   2  -4  -1 3497.86 326.479   1
   2  -4   0 2264.52 467.619   6
   2  -4   0 2659.45 489.810   3
   2  -4   0 1893.08 334.642   5
   2  -4   0 1819.57 432.286   2
  -2  -4   0 1254.58 404.167   1
  -2  -4   0 2196.49 474.547   4
  -2  -4   0 2609.89 436.053   5
   2  -4   0 2456.11 289.784   1
   2  -4   0 2675.28 510.929   4
  -2  -4   0 2046.51 250.879   6
   2  -4   1 3491.76 569.546   3
   2  -4   1 3707.27 485.833   5
   2  -4   1 4205.75 386.583   1
  -2  -4  -1 3640.77 506.482   5
   2  -4   1 3540.51 578.574   6
  -2  -4  -1 3771.24 616.602   4
   2  -4   1 4067.94 626.729   4
  -2  -4  -1 3010.84 597.555   1
  -2  -4  -1 3507.63 325.535   6
   2  -4   2-49.9827 106.792   1
   2  -4   2 1.63502 201.798   3
  -2  -4  -2 107.093 124.221   6
   2  -4   2 103.796 162.966   5
   2  -4   2 395.744 246.381   6
   2  -4   2 123.582 213.572   4
  -2  -4  -2 159.230 201.799   4
   2  -4   3-8.49977 229.704   5
   2  -4   3 170.043 112.271   1
   2  -4   3 421.290 275.339   3
  -2  -4  -3 18.6857 111.629   6
  -2  -4  -3 16.4194 124.931   4
   2  -4   3 59.4643 177.699   4
  -2  -4  -4 900.146 220.420   6
   2  -4   4 1192.62 370.462   5
   2  -4   4 1073.18 377.224   3
  -2  -4  -4 1085.57 336.530   4
   2  -4   4 838.878 258.790   1
   2  -4   4 689.233 308.925   4
   2  -4   5 5026.36 696.357   4
   2  -4   5 4712.97 711.529   3
   2  -4   5 4993.05 551.850   1
   2  -4   5 4964.01 704.037   5
  -2  -4  -5 4629.91 486.800   6
   2  -4   6 8750.53 748.916   1
   2  -4   6 9193.00 955.797   3
   2  -4   6 8694.88 916.636   4
  -2  -4  -6 8431.09 668.693   6
  -2  -4  -7 4690.55 478.045   6
   2  -4   7 4706.05 591.421   1
  -2  -4  -8 780.874 246.816   6
   2  -4   8 1074.26 342.663   1
  -2  -4  -9 978.598 279.312   6
  -2  -4  -9 830.344 240.916   3
   2  -4   9 1225.87 354.212   1
  -2  -4 -10 826.262 237.878   3
   2  -4  10 1290.09 399.985   1
  -2  -4 -10 1209.98 316.508   6
  -2  -4 -11 645.811 202.628   3
  -2  -4 -11 1037.40 300.284   6
   2  -4  11 364.282 244.426   1
  -2  -4 -12-335.530 228.232   6
   2  -4  12-111.182 230.428   1
   2  -4  12 285.098 324.414   3
   2  -4  13 696.844 394.955   3
  -2  -4 -13 422.731 249.891   6
   2  -4  13 579.783 340.794   1
  -2  -4 -14 461.629 246.836   6
   2  -4  14 265.561 320.537   3
  -2  -4 -15-114.600 146.766   6
   2  -4  15 41.8979 375.269   3
  -2  -4 -16 165.965 172.034   6
   2  -4  16-87.4651 320.068   3
  -2  -3  19-136.982 245.703   1
   2  -3 -19 254.986 224.535   6
   2  -3 -18 606.422 398.241   6
  -2  -3  18 381.095 405.331   1
  -2  -3  17 1140.99 453.540   1
  -2  -3  16 135.354 278.735   1
  -2  -3  15 253.842 260.864   1
  -2  -3  14 228.991 231.557   1
  -2  -3  13 746.041 351.587   1
  -2  -3  12-135.065 243.387   1
   2  -3 -12 367.254 252.388   1
   2  -3 -11 59.2964 160.546   2
  -2  -3  11 341.918 282.519   1
   2  -3 -11 201.248 200.224   1
   2  -3 -10 264.720 170.385   2
  -2  -3  10 351.409 301.981   1
   2  -3 -10-28.5599 197.245   1
   2  -3  -9 1987.11 315.036   2
   2  -3  -9 2225.66 368.430   3
   2  -3  -9 1959.31 362.917   1
  -2  -3   9 2208.78 510.480   1
  -2  -3   8 31768.8 1343.26   6
  -2  -3   8 31004.1 1692.02   1
   2  -3  -8 29858.0 1215.90   1
   2  -3  -8 30930.7 1250.33   3
   2  -3  -8 33879.4 1136.28   2
  -2  -3   7 10045.1 959.926   1
  -2  -3   7 10040.6 719.206   6
  -2  -3   7 11456.0 1017.17   5
   2  -3  -7 11282.7 651.276   2
   2  -3  -7 10469.8 753.199   3
   2  -3  -7 9154.77 627.570   1
   2  -3  -6 1443.13 438.431   6
  -2  -3   6 699.883 270.069   5
   2  -3  -6 783.993 256.570   3
  -2  -3   6 908.542 225.825   6
   2  -3  -6 1010.58 214.281   1
   2  -3  -6 587.380 179.183   2
  -2  -3   6 803.160 317.393   1
  -2  -3   5 3314.14 362.260   6
   2  -3  -5 3485.52 458.916   3
   2  -3  -5 3911.60 405.708   2
  -2  -3   5 3902.38 561.339   5
   2  -3  -5 5025.00 695.754   6
   2  -3  -5 3815.49 335.490   1
  -2  -3   5 3886.63 581.800   1
   2  -3  -4 1566.49 387.872   6
   2  -3  -4 1540.67 344.616   3
  -2  -3   4 1606.19 371.228   2
   2  -3  -4 1155.85 177.633   1
  -2  -3   4 1194.86 200.015   6
  -2  -3   4 1269.61 332.098   5
   2  -3  -4 1421.31 278.207   2
   2  -3  -4 1245.53 330.506   4
  -2  -3   4 1223.54 352.885   1
   2  -3  -3-56.8551 263.914   6
   2  -3  -3 118.035 88.4820   1
   2  -3  -3 127.481 65.5353   5
  -2  -3   3 115.831 185.928   5
   2  -3  -3 99.7921 162.785   2
  -2  -3   3 149.584 79.4506   6
  -2  -3   3-49.0313 267.743   1
   2  -3  -3 248.715 169.613   4
   2  -3  -3 275.106 202.200   3
  -2  -3   2 8343.97 808.036   1
   2  -3  -2 9208.05 683.635   2
  -2  -3   2 9047.19 773.073   5
   2  -3  -2 8524.08 462.111   5
   2  -3  -2 7010.93 349.043   1
   2  -3  -2 8903.96 779.729   4
   2  -3  -2 8800.97 813.252   6
  -2  -3   2 8632.16 409.059   6
  -2  -3   1 9168.83 376.067   6
   2  -3  -1 9075.57 367.114   1
   2  -3  -1 9664.81 731.087   2
   2  -3  -1 9653.84 833.332   6
  -2  -3   1 9114.04 838.602   1
   2  -3  -1 9369.49 554.696   5
   2  -3  -1 9699.71 801.764   4
  -2  -3   1 9854.53 791.841   5
   2  -3   0 8524.09 780.988   6
  -2  -3   0 8458.26 702.412   5
   2  -3   0 7476.25 545.564   5
  -2  -3   0 7093.38 757.813   1
  -2  -3   0 6419.84 298.843   6
   2  -3   0 7483.90 355.688   1
   2  -3   0 8430.72 760.744   4
   2  -3   1 8368.93 743.781   4
  -2  -3  -1 8071.17 667.012   5
   2  -3   1 8691.26 431.611   1
   2  -3   1 8477.71 786.762   6
  -2  -3  -1 7883.11 739.963   4
   2  -3   1 8364.49 628.166   5
  -2  -3  -1 7002.41 343.008   6
   2  -3   2 5289.38 594.698   4
   2  -3   2 5571.67 656.225   6
   2  -3   2 5318.14 381.068   1
  -2  -3  -2 5086.17 601.139   4
  -2  -3  -2 4445.56 304.520   6
   2  -3   3 3624.43 530.031   3
   2  -3   3 3842.45 363.048   1
   2  -3   3 4305.99 569.625   6
  -2  -3  -3 3781.93 521.043   4
   2  -3   3 4078.34 526.975   4
  -2  -3  -3 3505.55 315.115   6
  -2  -3  -4 908.951 280.983   4
   2  -3   4 875.889 303.836   6
   2  -3   4 619.490 191.311   1
   2  -3   4 963.547 281.942   4
   2  -3   4 1241.07 364.686   3
  -2  -3  -5 7482.93 491.514   6
   2  -3   5 8957.54 649.530   1
  -2  -3  -5 9601.03 778.744   2
   2  -3   5 9000.46 831.980   3
  -2  -3  -5 8785.38 771.366   4
   2  -3   5 7856.34 725.385   4
   2  -3   5 8535.15 841.362   6
   2  -3   6 8425.91 858.701   6
  -2  -3  -6 9398.46 601.959   6
   2  -3   6 9344.83 716.917   1
  -2  -3  -6 10652.5 821.216   2
  -2  -3  -6 9765.00 817.990   4
   2  -3   6 11124.5 926.493   3
   2  -3   6 9246.19 803.627   4
  -2  -3  -7 5167.74 615.362   4
  -2  -3  -7 5235.77 492.862   6
   2  -3   7 5298.33 625.351   4
   2  -3   7 6034.30 622.434   1
  -2  -3  -8-138.557 139.609   6
   2  -3   8 300.341 206.987   1
  -2  -3  -9-6.30099 129.261   6
   2  -3   9-150.845 202.216   1
  -2  -3  -9 4.67112 85.3636   3
  -2  -3 -10 1235.64 188.504   3
  -2  -3 -10 1558.22 344.731   6
   2  -3  10 1822.62 421.376   1
   2  -3  11 723.061 332.322   1
  -2  -3 -11 554.232 105.940   3
  -2  -3 -11 877.153 307.100   6
  -2  -3 -12-32.2029 202.170   6
   2  -3  12 157.400 283.647   3
  -2  -3 -13 147.658 189.548   6
   2  -3  13 28.8367 290.007   3
  -2  -3 -14 649.814 318.339   6
   2  -3  14 306.028 282.125   3
  -2  -3 -15 476.478 304.443   6
   2  -3  15 42.1890 237.304   3
  -2  -3 -16 511.274 272.600   6
   2  -3  16-230.132 263.922   3
  -2  -3 -17 560.850 275.940   6
  -2  -2  20 516.861 388.898   1
   2  -2 -20 521.099 363.316   6
   2  -2 -19 404.732 326.065   6
  -2  -2  19 400.781 343.000   1
  -2  -2  18-66.4757 226.118   1
   2  -2 -18 136.797 173.611   6
   2  -2 -17 318.567 288.629   6
  -2  -2  17-38.5550 245.552   1
   2  -2 -16-490.553 327.601   6
  -2  -2  16-15.8706 312.303   1
  -2  -2  15 42.5530 340.103   1
  -2  -2  14 753.541 347.284   1
  -2  -2  13 7.62618 225.268   1
  -2  -2  12 245.574 226.636   1
   2  -2 -12 182.906 242.903   1
  -2  -2  11 582.845 305.343   1
   2  -2 -11 513.576 253.044   1
  -2  -2  10 2304.22 451.673   5
   2  -2 -10 1685.02 364.665   1
  -2  -2  10 1732.91 422.998   1
   2  -2  -9 143.262 171.744   1
  -2  -2   9 138.500 257.046   1
  -2  -2   9 441.236 267.976   5
   2  -2  -8 1697.99 323.633   1
   2  -2  -8 2007.36 256.074   2
  -2  -2   8 1801.96 415.086   1
   2  -2  -7 13861.8 757.702   1
   2  -2  -7 14068.0 588.286   2
   2  -2  -7 14063.1 736.301   3
  -2  -2   7 13809.8 986.947   1
   2  -2  -6 17675.4 763.690   1
   2  -2  -6 17828.6 835.874   3
  -2  -2   6 17781.5 1090.15   1
   2  -2  -6 18614.0 639.178   2
   2  -2  -5 18902.3 859.448   3
   2  -2  -5 17696.4 676.438   1
   2  -2  -5 19219.0 639.173   2
  -2  -2   5 19035.8 1108.13   1
   2  -2  -4 7166.46 541.956   3
   2  -2  -4 6657.67 355.583   1
  -2  -2   4 6489.52 644.905   1
   2  -2  -4 6683.78 398.390   2
   2  -2  -3 3315.15 312.061   2
   2  -2  -3 3371.96 196.197   1
   2  -2  -3 3320.13 209.725   5
  -2  -2   3 3415.27 480.581   1
  -2  -2   3 3993.24 473.799   2
   2  -2  -2 3461.69 329.665   2
  -2  -2   2 3274.17 473.712   1
   2  -2  -2 3853.08 443.623   4
  -2  -2   1 17129.3 1007.68   1
  -2  -2   1 17648.9 931.119   5
   2  -2  -1 18100.9 915.851   4
  -2  -2   0 5498.85 514.797   5
   2  -2   0 6488.57 541.651   4
   2  -2   1 4114.89 439.745   4
   2  -2   2 7123.43 601.119   3
  -2  -2  -2 6360.78 265.749   6
   2  -2   2 6636.63 537.603   4
  -2  -2  -2 6847.54 564.938   4
   2  -2   3 132.865 156.898   4
   2  -2   3 232.056 216.028   3
  -2  -2  -3 102.599 91.0221   6
   2  -2   3 241.855 137.262   1
  -2  -2  -3 160.470 150.346   4
   2  -2   4 6127.32 479.730   1
  -2  -2  -4 5689.26 505.896   4
   2  -2   4 5239.81 482.356   4
  -2  -2  -4 5733.82 383.512   6
   2  -2   4 5701.44 560.451   3
  -2  -2  -5 1733.22 258.074   6
   2  -2   5 1519.78 275.911   4
   2  -2   5 1950.75 359.255   3
   2  -2   5 2157.73 337.620   1
  -2  -2  -5 1722.58 298.591   4
   2  -2   6 15308.2 881.525   1
   2  -2   6 16288.9 941.009   3
  -2  -2  -6 15080.0 831.489   4
  -2  -2  -6 15551.2 778.773   6
   2  -2   7 19826.7 1042.23   3
  -2  -2  -7 18673.7 922.319   6
  -2  -2  -8 1447.80 321.279   2
  -2  -2  -8 1548.72 323.599   6
   2  -2   8 1328.28 346.853   6
   2  -2   8 1656.94 332.012   3
  -2  -2  -8 835.754 135.821   3
  -2  -2  -9 347.679 205.326   6
   2  -2   9 629.123 250.417   3
  -2  -2 -10 1137.46 312.280   6
   2  -2  10 1672.53 352.076   3
  -2  -2 -11 2932.71 502.739   6
   2  -2  11 2991.56 449.392   3
  -2  -2 -12 1247.92 376.126   6
   2  -2  12 1133.21 305.476   3
  -2  -2 -13 6429.52 806.666   6
   2  -2  13 6977.25 664.819   3
  -2  -2 -14 830.849 334.471   6
   2  -2  14 499.758 218.052   3
   2  -2  15 164.421 207.874   3
  -2  -2 -15 88.9640 238.681   6
  -2  -2 -16 186.417 248.539   6
  -2  -2 -17-111.721 222.576   6
   2  -2  18 263.556 295.796   2
  -2  -2 -18-661.660 342.163   6
  -2  -1  20 92.0215 320.241   2
  -2  -1  20 169.112 254.829   1
   2  -1 -20-587.868 351.472   6
  -2  -1  19 307.661 264.408   1
   2  -1 -19 250.712 254.597   6
   2  -1 -18 36.9906 231.085   6
  -2  -1  18 81.8761 253.841   1
   2  -1 -17 695.470 389.447   6
  -2  -1  17 1047.23 386.513   1
   2  -1 -16 750.300 370.819   6
  -2  -1  16 654.348 343.067   1
   2  -1 -15 6402.88 870.906   6
  -2  -1  15 6128.01 801.934   1
   2  -1 -14 9769.31 1037.03   6
  -2  -1  14 8381.40 917.485   1
  -2  -1  13 3008.14 534.421   1
   2  -1 -12 723.440 310.562   1
  -2  -1  12 589.483 277.258   5
  -2  -1  12 825.494 311.039   1
   2  -1 -11 1259.87 352.790   1
  -2  -1  11 2077.06 433.289   5
  -2  -1  11 1488.40 373.928   1
  -2  -1  10 2812.34 466.179   1
   2  -1 -10 2807.67 467.077   1
  -2  -1  10 3614.56 545.536   5
   2  -1  -9 8890.64 728.548   1
  -2  -1   9 8880.73 775.086   1
  -2  -1   9 10306.2 861.269   5
  -2  -1   8 3860.16 511.134   1
   2  -1  -8 3870.82 466.015   1
  -2  -1   8 4716.63 575.115   5
  -2  -1   7 52216.2 1704.99   1
   2  -1  -7 53395.5 1350.30   5
   2  -1  -7 51988.1 1489.90   1
   2  -1  -6 10998.7 576.149   5
  -2  -1   6 10702.7 755.249   1
   2  -1  -6 10235.9 612.435   1
   2  -1  -5 44161.6 1045.39   5
   2  -1  -5 42377.5 1115.38   1
  -2  -1   5 42340.2 1426.73   1
   2  -1  -4 60773.9 1183.27   1
  -2  -1   4 62008.1 1671.60   1
   2  -1  -4 63893.2 1155.73   5
   2  -1  -3 71180.3 1181.42   5
  -2  -1   3 72544.7 1488.82   2
  -2  -1   3 72710.1 1756.57   1
   2  -1  -3 69521.3 1097.88   1
  -2  -1   2 67374.6 1407.15   2
   2  -1  -2 65189.6 1139.47   5
  -2  -1   2 64516.5 1636.35   1
  -2  -1   1 215565. 2489.69   2
  -2  -1   1 208096. 2930.11   1
  -2  -1  -1 34322.7 661.242   6
   2  -1   1 35255.0 893.429   4
   2  -1   2 6364.64 436.008   3
   2  -1   2 6144.10 372.684   4
  -2  -1  -2 6142.58 333.176   6
  -2  -1  -3 8500.61 434.619   4
  -2  -1  -3 9080.01 472.747   6
   2  -1   3 9459.79 520.100   3
   2  -1   3 8901.28 439.931   4
   2  -1   4 611.484 179.640   3
  -2  -1  -4 273.791 108.052   4
  -2  -1  -4 475.148 167.064   6
   2  -1   4 240.409 112.310   4
   2  -1   5 1140.65 221.834   3
  -2  -1  -5 1031.12 230.711   6
  -2  -1  -6 25604.3 1049.93   6
   2  -1   6 25256.5 868.658   3
   2  -1   7 3829.99 355.188   3
  -2  -1  -7 4079.20 469.095   6
   2  -1   8 4185.60 364.832   3
  -2  -1  -8 4494.56 530.968   6
  -2  -1  -9 3446.53 489.438   6
   2  -1   9 3090.92 314.505   3
   2  -1   9 2543.30 465.367   6
  -2  -1 -10-13.4598 155.890   6
   2  -1  10 41.7701 100.114   3
   2  -1  11 940.466 190.349   3
  -2  -1 -11 1568.61 391.730   6
  -2  -1 -12 5326.59 723.423   6
   2  -1  12 3929.74 337.207   3
   2  -1  13 8482.23 836.758   2
   2  -1  13 8237.60 468.901   3
  -2  -1 -13 8795.36 951.684   6
   2  -1  14-7.80357 274.438   2
   2  -1  14 32.2307 83.2520   3
  -2  -1 -14-26.4956 219.732   6
   2  -1  15 271.538 102.261   3
  -2  -1 -15 90.5305 253.024   6
   2  -1  16 384.863 299.954   2
  -2  -1 -16 2.52225 233.609   6
   2  -1  17-289.440 291.723   2
  -2  -1 -17 336.042 261.022   6
  -2  -1 -18-418.533 315.755   6
   2  -1  18 7.42765 257.966   2
   2  -1  19 46.7658 312.537   2
  -2  -1 -19 182.481 311.623   6
  -2   0  20 179.067 261.531   2
   2   0 -20 120.018 316.362   6
  -2   0  19 610.313 330.261   2
   2   0 -19 296.205 326.594   6
  -2   0  18 191.161 287.732   1
   2   0 -18 288.637 344.167   6
  -2   0  18-230.327 263.911   2
  -2   0  17-109.749 196.749   2
  -2   0  17-299.263 298.368   1
   2   0 -17 185.280 305.711   6
  -2   0  16 420.509 243.077   2
   2   0 -16 342.070 299.045   6
  -2   0  16 90.0469 241.714   1
   2   0 -15 2015.89 526.783   6
  -2   0  15 2521.46 535.326   1
  -2   0  15 2411.13 438.771   2
  -2   0  14 7888.85 873.988   1
  -2   0  14 7904.98 720.537   2
   2   0 -14 7615.08 911.549   6
  -2   0  13 3528.03 560.593   1
   2   0 -13 4495.80 670.423   6
  -2   0  13 4176.77 624.448   5
  -2   0  12 1132.91 349.177   5
   2   0 -12 1161.91 362.257   6
   2   0 -12 1222.52 379.776   1
  -2   0  12 919.444 308.004   1
  -2   0  11 226.317 230.880   1
   2   0 -11 224.713 229.649   6
  -2   0  11 184.862 195.689   5
   2   0 -11-186.411 204.815   1
  -2   0  10 2572.24 431.728   5
  -2   0  10 2141.44 391.010   1
   2   0 -10 1846.35 403.330   1
  -2   0   9 6886.50 627.440   1
  -2   0   9 7406.32 664.454   5
   2   0  -9 7318.10 685.419   1
   2   0  -9 6578.92 660.477   5
  -2   0   8 20374.3 1010.29   1
  -2   0   8 21783.4 1067.97   5
   2   0  -8 20051.6 1056.44   1
   2   0  -8 19065.5 1030.59   5
   2   0  -7 19291.2 967.753   1
  -2   0   7 18239.4 924.542   5
   2   0  -7 18776.3 968.776   5
  -2   0   7 18049.0 901.945   1
  -2   0   6 1608.83 283.354   1
   2   0  -6 1856.68 327.061   5
  -2   0   6 1465.21 281.996   5
   2   0  -6 1726.69 304.378   1
  -2   0   5 1463.14 271.824   1
  -2   0   5 1779.14 281.933   5
   2   0  -5 1480.48 280.719   5
   2   0  -5 1989.82 301.589   1
  -2   0   4 40802.2 1120.37   1
   2   0  -4 42263.9 1202.87   5
  -2   0   4 42582.2 1167.81   5
   2   0  -4 39548.3 1136.17   1
   2   0  -3 101559. 1764.15   5
  -2   0   3 98592.8 1704.17   5
  -2   0   3 99166.8 1665.42   1
   2   0  -3 99262.1 1697.10   1
   2   0  -2 59076.2 1313.11   5
  -2   0   2 58996.8 766.039   2
  -2   0   2 56825.5 1223.80   1
   2   0  -2 60425.2 1277.31   1
  -2   0   1 166956. 1292.61   2
   2   0  -1 165954. 2160.77   5
  -2   0   1 165147. 2051.76   1
   2   0  -1 168907. 2043.83   6
   2   0  -1 165650. 1484.47   2
  -2   0   0 370047. 3040.51   6
   2   0   0 384242. 2316.48   2
  -2   0   0 372792. 2134.57   2
   2   0   0 370317. 2964.23   6
   2   0   1 125336. 1422.17   2
  -2   0  -1 127220. 1865.50   6
  -2   0  -1 123472. 1379.09   2
   2   0   1 125902. 1785.11   6
   2   0   2 27785.8 745.366   2
  -2   0  -2 27535.9 731.749   2
  -2   0  -2 28022.3 927.371   6
   2   0   2 28609.5 890.847   6
  -2   0  -2 27487.1 648.031   3
  -2   0  -3 5842.97 307.212   3
   2   0   3 5103.14 415.475   6
   2   0   3 5247.44 359.534   2
  -2   0  -3 4931.20 424.626   6
  -2   0  -4 7653.85 358.019   3
   2   0   4 7540.56 462.908   2
   2   0   4 7607.28 536.266   6
  -2   0  -4 7513.77 553.842   6
   2   0   5 438.735 181.986   6
  -2   0  -5 515.081 209.775   6
  -2   0  -5 309.479 97.5408   3
   2   0   5 663.564 214.008   2
   2   0   6 57295.4 1633.36   6
  -2   0  -6 59399.0 1738.47   6
   2   0   7 13795.3 857.967   6
   2   0   7 11166.0 689.026   2
  -2   0  -7 13012.3 879.826   6
  -2   0  -8 16772.0 1051.90   6
  -2   0  -8 16854.1 1058.47   1
   2   0   8 15742.1 859.464   2
   2   0   8 16603.2 984.254   6
  -2   0  -9 5768.93 671.717   6
   2   0   9 7121.36 686.822   6
   2   0   9 5705.26 571.386   2
  -2   0  -9 7315.64 744.427   1
   2   0  10 222.047 204.657   2
   2   0  10-17.8966 183.185   6
  -2   0 -10 306.112 245.245   6
  -2   0 -10 272.038 204.805   1
  -2   0 -11 243.609 200.629   6
   2   0  11 305.813 224.570   2
   2   0  12 226.096 281.010   2
  -2   0 -12-166.306 232.825   6
   2   0  13 37992.3 1706.98   2
  -2   0 -13 38010.4 2021.61   6
  -2   0 -14 5202.70 810.451   6
   2   0  14 5281.14 695.775   2
  -2   0 -15 1417.91 464.405   6
   2   0  15 1358.91 424.006   2
   2   0  16 374.966 280.448   2
  -2   0 -16 560.710 342.971   6
  -2   0 -17 205.097 268.471   6
   2   0  17-282.985 297.672   2
   2   0  18-465.410 350.237   2
  -2   0 -18-54.0353 213.194   6
   2   0  19-394.733 352.359   2
  -2   0 -19-363.796 313.685   6
   2   1 -20 359.376 360.409   6
  -2   1  20-54.9520 215.957   2
   2   1 -19 663.155 446.890   6
  -2   1  19 283.027 294.010   2
   2   1 -18 581.609 369.635   6
  -2   1  18-403.069 262.494   2
   2   1 -17 232.696 329.582   6
  -2   1  17 443.999 253.795   2
   2   1 -16 727.911 423.311   6
  -2   1  16 734.773 281.366   2
  -2   1  16 554.745 206.419   3
   2   1 -15 6608.19 959.706   6
  -2   1  15 5772.06 619.926   2
  -2   1  15 6003.84 553.216   3
  -2   1  15 6917.10 791.494   5
   2   1 -14 9939.12 1040.32   6
  -2   1  14 8796.66 652.308   3
  -2   1  14 9574.44 892.736   5
  -2   1  14 8679.51 712.505   2
  -2   1  13 3667.94 411.406   3
  -2   1  13 3983.48 607.270   1
   2   1 -13 3498.93 614.729   6
  -2   1  13 3891.40 565.227   5
  -2   1  13 3226.14 425.526   2
  -2   1  12 457.719 191.957   2
  -2   1  12 691.168 203.955   3
   2   1 -12 944.494 345.520   6
  -2   1  12 618.393 224.015   5
  -2   1  12 395.996 227.433   1
  -2   1  11 1790.20 290.476   3
  -2   1  11 2040.26 366.014   5
  -2   1  11 2145.14 316.071   2
   2   1 -11 1738.94 411.101   6
  -2   1  11 2116.06 394.526   1
   2   1 -11 1511.21 379.466   1
  -2   1  10 3233.19 360.875   3
   2   1 -10 2704.91 527.841   5
  -2   1  10 3550.16 445.734   5
  -2   1  10 3350.31 359.124   2
  -2   1  10 3020.03 440.815   1
   2   1 -10 2991.22 477.737   6
  -2   1   9 9591.17 591.235   3
   2   1  -9 9203.58 855.789   5
  -2   1   9 8692.13 672.146   1
  -2   1   9 9813.84 674.593   5
  -2   1   9 8863.15 524.914   2
   2   1  -9 9546.85 774.684   6
  -2   1   8 4134.38 390.363   3
  -2   1   8 4216.34 451.205   1
  -2   1   8 4334.99 426.883   5
  -2   1   8 4605.76 350.577   2
   2   1  -8 3043.99 508.711   5
   2   1  -8 4147.72 499.485   6
  -2   1   7 50184.6 1371.47   1
  -2   1   7 53215.8 1035.16   2
   2   1  -7 52841.5 1830.64   5
  -2   1   7 53181.1 1289.08   3
  -2   1   7 54272.3 1329.01   5
   2   1  -7 53776.0 1581.25   6
   2   1  -6 11336.6 685.571   6
  -2   1   6 10663.5 546.365   5
  -2   1   6 10332.4 583.209   1
   2   1  -6 10040.4 779.049   5
  -2   1   6 11253.3 431.569   2
  -2   1   6 11084.9 581.464   3
  -2   1   5 43562.8 747.246   2
   2   1  -5 41270.3 1474.39   5
  -2   1   5 44619.2 1011.66   5
  -2   1   5 41600.7 1096.80   3
  -2   1   5 42987.2 1049.72   1
   2   1  -4 63141.5 1743.22   5
  -2   1   4 64374.2 1120.77   5
  -2   1   4 64273.3 1129.97   1
  -2   1   4 59239.8 1284.01   3
   2   1  -3 69915.1 1755.12   5
  -2   1   3 71989.6 1396.62   3
  -2   1   3 72701.3 1035.47   1
  -2   1   2 64378.3 1330.97   3
  -2   1   2 63217.5 808.498   1
   2   1  -2 64826.1 1634.26   5
  -2   1   1 208265. 2420.31   3
   2   1  -1 204601. 2556.21   2
   2   1  -1 207979. 2850.64   5
  -2   1   1 208590. 2445.63   4
  -2   1   1 207792. 2906.26   6
   2   1  -1 216061. 1554.91   6
  -2   1   0 112310. 1801.63   3
  -2   1   0 111000. 2134.57   6
   2   1   0 113237. 1931.94   2
   2   1   0 109635. 2037.75   5
  -2   1   0 108934. 1704.49   4
   2   1   1 34257.6 599.472   6
  -2   1  -1 34547.5 1026.32   3
   2   1   1 33255.4 1114.49   5
  -2   1  -1 32974.3 905.187   4
   2   1   1 34259.8 1065.68   2
  -2   1  -1 33758.9 1217.83   6
   2   1   2 6172.57 473.379   2
  -2   1  -2 5743.02 371.010   1
   2   1   2 6248.79 309.188   6
  -2   1  -2 6552.30 465.924   3
  -2   1  -2 5243.88 517.580   6
   2   1   3 8804.70 424.785   6
  -2   1  -3 9289.49 693.002   6
   2   1   3 8338.75 555.937   2
  -2   1  -3 8654.59 500.520   1
  -2   1  -4 190.473 199.826   6
   2   1   4 382.574 131.888   6
  -2   1  -4 480.034 172.192   1
   2   1   4 503.477 197.685   2
  -2   1  -5 900.208 302.190   6
   2   1   5 947.061 205.320   6
  -2   1  -5 1222.98 248.514   1
   2   1   5 704.778 165.071   4
   2   1   5 990.662 260.152   2
  -2   1  -6 23722.0 1048.68   1
   2   1   6 23839.6 1000.87   2
   2   1   6 24066.7 959.423   6
   2   1   6 26844.6 902.269   4
  -2   1  -6 25905.8 1272.11   6
   2   1   7 3574.45 436.793   2
  -2   1  -7 3611.89 465.834   1
   2   1   7 4101.59 380.244   4
  -2   1  -7 3663.94 535.986   6
   2   1   8 4621.78 500.909   2
  -2   1  -8 4287.82 524.397   1
   2   1   8 4689.22 415.989   4
  -2   1  -8 4556.80 598.669   6
  -2   1  -9 3715.63 584.604   6
   2   1   9 3305.08 368.723   4
   2   1   9 3133.03 426.879   2
  -2   1  -9 3442.62 515.096   1
  -2   1 -10 225.671 255.637   6
   2   1  10-52.6109 133.995   4
  -2   1 -10-61.5926 179.515   1
   2   1  10 49.2379 166.700   2
  -2   1 -11 1159.74 380.855   6
   2   1  11 1316.77 322.135   2
   2   1  11 1309.80 267.515   4
   2   1  12 4276.66 576.513   2
   2   1  12 4406.38 494.264   4
  -2   1 -12 4874.51 744.883   6
   2   1  13 8052.10 818.834   2
   2   1  13 7548.99 664.595   4
  -2   1 -13 8852.60 1033.29   6
  -2   1 -14-112.905 270.824   6
   2   1  14 80.0918 154.481   4
   2   1  14-125.983 248.019   2
  -2   1 -15 844.705 412.592   6
   2   1  15 719.121 269.264   4
   2   1  15 408.653 286.331   2
   2   1  16-227.327 170.908   4
   2   1  16-32.1137 239.725   2
  -2   1 -17 191.494 267.688   6
   2   1  17-51.7690 235.762   2
   2   1  17 239.610 164.636   4
  -2   1 -18 161.667 264.238   6
   2   1  18 89.2518 270.488   2
   2   1  19-101.183 287.539   2
  -2   1 -19 62.0357 218.869   6
  -2   2  20 892.041 479.156   4
   2   2 -20-133.779 291.232   6
  -2   2  20 731.005 315.663   2
   2   2 -19 607.863 456.575   6
  -2   2  19 496.941 387.680   4
  -2   2  19 219.148 253.810   2
  -2   2  18 177.300 239.241   2
   2   2 -18 273.916 353.352   6
   2   2 -17-288.308 357.755   6
  -2   2  17 256.747 218.966   2
   2   2 -16-216.384 324.907   6
  -2   2  16-80.0736 138.934   3
  -2   2  16-133.959 207.479   2
  -2   2  15 206.604 219.904   2
   2   2 -15 498.317 311.914   6
  -2   2  15 30.9583 130.580   5
  -2   2  15 85.2560 136.454   3
  -2   2  14 272.038 161.455   3
   2   2 -14 1215.40 448.929   6
  -2   2  14 659.442 260.507   5
  -2   2  14 708.765 308.540   2
  -2   2  13 273.651 154.012   3
  -2   2  13 669.409 231.495   5
   2   2 -13 409.404 270.192   6
  -2   2  13 153.078 218.963   2
   2   2 -12 595.374 297.906   6
  -2   2  12 45.3026 132.873   5
  -2   2  12 583.821 251.035   2
  -2   2  12 417.084 169.513   3
   2   2 -11 464.219 267.813   6
  -2   2  11 474.836 184.019   3
  -2   2  11 788.937 212.023   5
  -2   2  11 876.425 261.698   2
   2   2 -11 611.841 316.947   5
  -2   2  10 1800.76 307.786   3
   2   2 -10 1959.53 427.235   1
   2   2 -10 1773.92 463.198   5
   2   2 -10 1727.61 374.257   6
  -2   2  10 2061.91 292.459   5
  -2   2  10 2120.38 345.026   2
   2   2  -9 252.294 204.999   6
  -2   2   9 103.883 99.8855   5
  -2   2   9 69.9688 130.830   3
  -2   2   9 129.639 152.670   2
   2   2  -8 1766.70 342.684   6
  -2   2   8 1846.11 212.627   5
  -2   2   8 1659.54 299.495   3
   2   2  -8 1066.51 375.247   5
  -2   2   8 1949.01 316.526   2
   2   2  -7 14767.0 832.110   6
  -2   2   7 13985.3 789.328   3
   2   2  -7 13729.9 1049.95   5
  -2   2   7 14585.0 735.547   2
  -2   2   7 12493.4 447.733   5
   2   2  -6 19149.7 865.429   6
  -2   2   6 17978.4 890.198   3
   2   2  -6 18976.2 1187.70   5
  -2   2   6 18970.1 787.217   2
   2   2  -5 19335.7 795.924   6
  -2   2   5 18026.9 890.505   3
   2   2  -5 17957.5 1109.78   5
  -2   2   5 18146.2 727.566   2
   2   2  -4 6910.32 436.183   6
  -2   2   4 6592.27 552.202   3
   2   2  -4 7312.17 693.580   5
   2   2  -3 3870.00 507.180   5
  -2   2   3 4105.74 444.439   3
   2   2  -3 3682.90 277.014   6
  -2   2   2 4489.00 471.656   3
  -2   2   2 3474.26 463.402   4
   2   2  -2 3167.59 442.223   5
   2   2  -2 3599.72 227.400   6
   2   2  -1 16016.7 927.692   2
   2   2  -1 18260.5 980.779   5
  -2   2   1 18452.4 934.637   3
  -2   2   1 17008.7 1003.45   6
  -2   2   1 18593.6 987.763   4
   2   2   0 6394.34 605.392   2
   2   2   0 5269.62 535.943   5
  -2   2   0 5958.27 620.969   6
  -2   2   0 5566.17 540.079   4
   2   2   1 4163.15 479.671   5
   2   2   1 3937.38 487.357   2
  -2   2  -1 4738.71 562.190   6
  -2   2  -1 3948.76 247.824   1
  -2   2  -1 4312.57 463.204   4
  -2   2  -2 6918.49 673.246   6
   2   2   2 7078.10 646.037   2
  -2   2  -2 7121.45 398.092   1
   2   2   2 6748.99 581.017   5
  -2   2  -3 339.661 231.984   6
  -2   2  -3 191.629 127.058   1
   2   2   3 299.750 191.627   5
   2   2   3 211.087 220.335   2
   2   2   4 5389.11 573.584   2
  -2   2  -4 5536.01 463.714   1
  -2   2  -4 5280.92 635.694   6
  -2   2  -5 1925.90 421.727   6
  -2   2  -5 2186.14 328.057   1
   2   2   5 1710.49 357.511   2
  -2   2  -6 15840.7 888.892   1
   2   2   6 14472.7 934.429   2
   2   2   6 15232.5 895.998   4
  -2   2  -6 15419.5 1110.11   6
  -2   2  -7 20085.3 1070.07   1
   2   2   7 18050.1 1055.79   2
   2   2   7 21572.4 1093.67   4
  -2   2  -7 21550.1 1348.89   6
  -2   2  -8 1358.77 409.439   6
  -2   2  -8 1671.62 351.297   1
   2   2   8 1422.18 338.595   2
   2   2   8 1656.85 339.878   4
  -2   2  -9 31.2534 204.188   6
  -2   2  -9 335.647 223.562   1
   2   2   9 257.742 219.698   2
   2   2   9 351.491 221.409   4
  -2   2 -10 974.482 306.951   1
  -2   2 -10 1072.79 379.615   6
   2   2  10 1260.09 346.096   2
   2   2  10 1368.23 326.680   4
  -2   2 -11 2873.66 613.904   6
   2   2  11 2489.36 465.502   2
   2   2  11 2738.97 451.147   4
  -2   2 -12 1108.91 427.762   6
   2   2  12 1138.95 361.004   2
   2   2  12 1113.34 326.641   4
   2   2  13 5865.44 759.233   2
   2   2  13 6294.77 703.756   4
  -2   2 -13 6741.37 933.683   6
  -2   2 -14 604.290 356.293   6
   2   2  14 279.620 244.913   4
   2   2  14 476.447 310.590   2
  -2   2 -15-360.151 346.075   6
   2   2  15 83.9871 169.481   4
   2   2  15 221.477 301.422   2
  -2   2 -16-465.840 374.612   6
   2   2  16 420.789 254.226   4
   2   2  16 403.191 311.056   2
   2   2  17 93.1443 203.669   4
  -2   2 -17 544.405 308.154   6
  -2   2 -18-276.322 273.092   6
   2   2  18 443.185 358.624   2
   2   3 -19-407.343 406.962   6
  -2   3  19-319.529 293.503   2
  -2   3  19 369.301 389.871   4
   2   3 -18-142.737 311.485   6
  -2   3  18 294.381 309.360   2
  -2   3  18 798.762 446.521   4
   2   3 -17 374.274 360.291   6
  -2   3  17 693.710 389.255   4
  -2   3  17 351.053 307.685   2
   2   3 -16-611.619 378.786   6
  -2   3  16-365.763 292.296   2
  -2   3  16-433.512 354.781   4
   2   3 -15 29.4684 286.371   6
  -2   3  15 512.504 312.299   2
  -2   3  15-475.148 353.067   4
   2   3 -14 224.792 298.704   6
  -2   3  14 443.857 305.005   2
  -2   3  14 505.384 359.744   4
   2   3 -13 231.101 263.995   6
  -2   3  13 483.294 153.921   5
  -2   3  13 687.366 265.562   2
  -2   3  13 549.572 333.894   4
   2   3 -12-92.2444 206.788   6
  -2   3  12 98.2701 76.4116   5
  -2   3  12 53.9743 193.675   2
  -2   3  12 52.4507 222.924   4
   2   3 -11-320.436 347.742   5
  -2   3  11-48.8453 49.4821   5
  -2   3  11 154.553 195.160   2
  -2   3  11 25.2774 206.885   4
   2   3 -11 102.269 203.011   6
   2   3 -10 128.767 304.396   5
   2   3 -10 218.137 204.593   6
  -2   3  10-56.0825 252.225   2
  -2   3  10-103.221 216.014   4
   2   3  -9 1864.95 369.620   6
   2   3  -9 1694.56 490.419   5
  -2   3   9 2059.37 399.096   2
  -2   3   9 2037.52 463.346   4
  -2   3   8 33166.2 1394.21   2
   2   3  -8 31096.0 1780.34   5
  -2   3   8 30029.2 1635.07   4
   2   3  -8 31583.8 1382.17   6
   2   3  -7 10292.6 1016.87   5
  -2   3   7 10730.7 974.823   4
  -2   3   7 11103.4 789.154   2
   2   3  -7 10929.5 957.307   1
   2   3  -7 11254.5 791.787   6
   2   3  -6 913.076 258.674   6
  -2   3   6 624.500 236.418   2
   2   3  -6 849.741 309.833   1
   2   3  -6 722.683 326.309   5
   2   3  -5 3639.71 579.263   5
   2   3  -5 3991.04 568.679   1
   2   3  -5 3749.01 412.162   6
   2   3  -4 1368.12 252.393   6
   2   3  -4 1460.31 356.265   1
   2   3  -4 825.447 325.091   5
   2   3  -3 253.453 243.872   5
   2   3  -3 376.733 144.942   6
   2   3  -2 8763.59 816.899   5
   2   3  -2 8943.38 464.177   6
  -2   3   2 9912.92 897.742   4
   2   3  -1 10370.4 855.591   5
  -2   3   1 10656.1 910.987   4
  -2   3   1 9839.15 897.620   6
   2   3   0 8479.92 807.746   2
   2   3   0 7686.61 730.616   5
  -2   3   0 7510.05 760.088   4
  -2   3   0 7333.58 794.082   6
   2   3   1 7493.30 764.550   2
   2   3   1 8350.28 751.387   5
  -2   3  -1 7802.82 805.460   6
   2   3   2 5477.84 676.993   2
  -2   3  -2 5302.48 412.565   1
   2   3   2 4889.33 575.823   5
  -2   3  -2 5548.00 687.625   6
   2   3   3 3686.96 487.400   5
   2   3   3 3653.47 561.766   2
  -2   3  -3 4124.44 400.172   1
  -2   3  -3 3899.52 608.980   6
  -2   3  -4 1110.10 246.906   1
   2   3   4 923.321 317.486   2
   2   3   4 823.488 249.284   5
  -2   3  -4 957.570 346.128   6
  -2   3  -5 7738.21 852.559   6
   2   3   5 8546.29 726.653   5
   2   3   5 8409.13 848.706   2
  -2   3  -5 9741.61 717.263   1
   2   3   6 9352.92 763.783   5
   2   3   6 9072.63 892.039   2
  -2   3  -6 10551.0 801.481   1
  -2   3  -6 9703.87 981.473   6
   2   3   7 5524.27 718.685   2
  -2   3  -7 5430.16 617.709   1
   2   3   7 5059.24 567.015   5
  -2   3  -7 6769.44 852.944   6
  -2   3  -8-226.327 273.432   6
   2   3   8 204.080 215.367   4
  -2   3  -8 84.0487 146.415   1
   2   3   8-99.4561 313.118   2
  -2   3  -9-65.2129 244.596   1
   2   3   9 36.2537 234.610   2
  -2   3  -9 15.3486 244.575   6
   2   3   9 35.3602 208.966   4
   2   3  10 1130.10 409.284   2
   2   3  10 1353.37 402.733   4
  -2   3 -10 1213.27 458.825   6
  -2   3 -11 574.810 358.055   6
   2   3  11 1060.15 384.379   4
   2   3  11 580.736 274.787   2
  -2   3 -12-382.228 343.523   6
   2   3  12 221.999 262.431   2
   2   3  12-282.849 261.614   4
  -2   3 -13-440.436 354.468   6
   2   3  13-66.5098 308.282   2
   2   3  13 172.093 285.884   4
   2   3  14 38.8404 297.197   2
   2   3  14 372.387 297.859   4
  -2   3 -14 98.6869 317.880   6
   2   3  15-70.0872 334.381   2
   2   3  15 583.278 268.809   4
  -2   3 -15-535.598 420.289   6
   2   3  16-8.80584 285.870   2
   2   3  16 612.284 365.905   4
  -2   3 -16 209.176 370.002   6
   2   3  17-625.308 433.687   2
  -2   3 -17-519.680 427.577   6
  -2   4  17-764.927 399.817   2
   2   4 -17 49.9436 318.422   6
  -2   4  17-190.764 365.072   4
   2   4 -16 195.342 286.185   6
  -2   4  16-298.246 294.595   2
  -2   4  16-264.304 357.864   4
   2   4 -15 802.705 360.789   6
  -2   4  15 804.151 370.568   2
  -2   4  15 31.8275 268.381   4
   2   4 -14 1185.20 471.013   6
  -2   4  14 574.519 351.412   2
  -2   4  14 751.961 400.463   4
   2   4 -13 55.5334 215.887   6
  -2   4  13-37.8387 264.925   2
  -2   4  13 271.499 295.232   4
   2   4 -12 110.351 232.038   6
  -2   4  12-308.959 305.298   2
  -2   4  12-104.788 392.252   4
   2   4 -11 707.158 333.506   6
  -2   4  11 676.580 337.411   2
  -2   4  11 199.148 328.690   4
   2   4 -10 2168.35 469.474   6
   2   4 -10 2407.35 644.548   5
  -2   4  10 2810.52 538.849   2
  -2   4  10 1571.22 523.206   4
   2   4  -9 1022.41 309.938   6
   2   4  -9 236.631 345.621   5
  -2   4   9 1167.31 393.771   2
  -2   4   9 1129.01 444.702   4
   2   4  -8 3243.33 521.048   6
   2   4  -8 2647.60 653.106   5
  -2   4   8 3329.20 548.758   2
  -2   4   8 2335.25 573.297   4
   2   4  -7 16307.2 1378.76   5
  -2   4   7 18280.9 1470.49   4
   2   4  -7 17600.1 1107.59   6
   2   4  -6 1143.03 466.233   5
   2   4  -6 935.805 276.604   6
  -2   4   6 1055.72 455.624   4
   2   4  -5 1045.65 415.742   5
   2   4  -5 876.576 262.074   6
  -2   4   5 947.104 402.402   4
   2   4  -4 628.597 217.344   6
   2   4  -4 393.002 289.514   5
  -2   4   4 646.233 336.968   4
   2   4  -3 196.652 291.652   5
   2   4  -3 316.587 158.214   6
  -2   4   3 303.964 301.891   4
   2   4  -2 192.313 122.330   6
   2   4  -2 365.818 270.535   5
  -2   4   2 556.033 340.894   4
   2   4  -1 4760.99 657.183   5
  -2   4   1 3557.82 617.571   6
  -2   4   0 2114.47 516.593   6
   2   4   0 2580.37 490.996   5
   2   4   1 4293.69 610.919   5
  -2   4  -1 3638.02 625.464   6
  -2   4  -2-37.1607 243.588   6
   2   4   2 28.9435 269.377   2
   2   4   2-128.884 204.556   5
  -2   4  -3-70.8333 237.205   6
   2   4   3-115.565 267.259   2
  -2   4  -3 73.0907 136.311   1
   2   4   3 268.017 260.387   5
  -2   4  -4 1278.10 438.069   6
   2   4   4 1164.73 338.177   5
   2   4   4 861.323 384.267   2
  -2   4  -4 401.125 182.690   1
  -2   4  -5 4102.39 692.422   6
   2   4   5 5020.50 636.711   5
  -2   4  -5 4910.51 576.915   1
   2   4   5 4487.00 715.992   2
   2   4   6 7494.47 936.934   2
  -2   4  -6 8331.53 1008.38   6
   2   4   6 8847.85 822.258   5
  -2   4  -6 8422.12 790.550   1
   2   4   7 5679.31 810.690   2
   2   4   7 5328.60 647.011   5
  -2   4  -7 5516.67 672.879   1
  -2   4  -7 5258.29 827.322   6
  -2   4  -8 1594.93 519.234   6
  -2   4  -8 1555.58 419.776   1
   2   4   8 1072.24 433.570   2
   2   4   8 1254.22 347.900   5
  -2   4  -9 1075.91 462.986   6
   2   4   9 837.913 392.923   2
  -2   4  -9 328.345 260.117   1
   2   4   9 812.324 307.736   5
  -2   4 -10 2008.09 578.674   6
   2   4  10 1061.32 471.887   2
   2   4  10 1242.67 340.860   5
  -2   4 -11 773.066 486.730   6
   2   4  11 1478.70 521.485   2
   2   4  11 662.241 270.606   5
  -2   4 -12 52.2536 323.976   6
   2   4  12 433.005 404.400   2
   2   4  12-114.655 168.034   5
   2   4  12 51.0050 227.290   4
  -2   4 -13 635.493 436.792   6
   2   4  13 385.024 320.149   4
   2   4  13 774.402 435.673   2
   2   4  13 129.890 181.262   5
  -2   4 -14 237.337 384.834   6
   2   4  14 668.476 463.432   2
   2   4  14 574.991 259.031   5
   2   4  14 902.106 426.758   4
   2   4  15-359.447 353.004   2
  -2   4 -15-401.289 401.662   6
  -2   4 -16 465.147 428.894   6
   2   4  16-606.511 435.464   2
   2   4  16 58.7052 236.342   4
   2   5 -15 132.484 291.670   6
  -2   5  15 895.299 452.430   2
  -2   5  15 150.095 312.031   4
  -2   5  14-19.7840 244.635   2
   2   5 -14 770.215 424.140   6
  -2   5  14 97.2929 271.360   4
   2   5 -13 350.012 309.612   6
  -2   5  13-598.955 436.480   4
   2   5 -12 496.331 307.374   6
  -2   5  12 626.084 359.348   2
  -2   5  11-374.604 320.201   2
   2   5 -11-505.305 310.677   6
   2   5 -10 10.3670 207.691   6
  -2   5  10 657.971 428.918   4
   2   5  -9 1050.70 446.776   5
   2   5  -9 1207.85 436.773   6
  -2   5   9 951.154 482.047   4
   2   5  -8 1459.90 385.222   6
   2   5  -8 1533.45 608.311   5
  -2   5   8 895.743 475.155   4
   2   5  -7 510.022 290.069   6
   2   5  -7 85.4031 290.427   5
  -2   5   7-39.5638 321.142   4
   2   5  -6 3365.12 545.179   6
   2   5  -6 3643.00 766.710   5
  -2   5   6 2377.47 637.091   4
   2   5  -5 1990.81 396.632   6
   2   5  -5 2599.71 657.415   5
  -2   5   5 2070.46 636.402   4
   2   5  -4 373.122 205.062   6
   2   5  -4 123.959 300.092   5
  -2   5   4 366.725 357.841   4
   2   5  -3 230.961 251.548   5
   2   5  -3 77.2142 123.583   6
   2   5  -2 320.801 277.324   5
   2   5  -1 647.211 350.234   5
  -2   5   0 399.049 333.955   6
   2   5   0 165.550 247.522   5
   2   5   1 293.428 298.623   5
  -2   5  -1 83.1173 298.842   6
   2   5   2 50.6004 226.369   5
  -2   5  -2-4.89277 240.565   6
   2   5   3 430.144 241.996   5
  -2   5  -3 76.0026 288.422   6
  -2   5  -4 247.199 310.743   6
   2   5   4 280.394 326.946   2
   2   5   4 294.661 277.696   5
  -2   5  -5 860.576 470.994   6
   2   5   5 804.111 435.439   2
   2   5   5 685.328 332.915   5
  -2   5  -5 685.222 265.817   1
  -2   5  -6-8.06676 245.497   6
   2   5   6 143.935 284.736   2
   2   5   6 652.966 313.598   5
  -2   5  -6 208.156 191.705   1
  -2   5  -7 846.999 293.932   1
   2   5   7 1140.94 520.568   2
  -2   5  -7 1094.38 481.224   6
   2   5   7 1587.16 425.951   5
   2   5   8 1890.05 641.831   2
   2   5   8 2189.56 472.790   5
  -2   5  -8 1417.20 613.068   6
   2   5   9 1252.95 402.590   5
   2   5   9 1092.91 504.101   2
  -2   5  -9 1141.97 451.864   6
   2   5  10 501.613 456.033   2
   2   5  10-236.146 260.815   5
  -2   5 -10-120.084 314.735   6
  -2   5 -11 603.672 444.783   6
   2   5  11-587.267 453.739   2
   2   5  12 476.725 366.388   2
  -2   5 -12-37.7710 325.514   6
  -2   5 -13 402.853 439.647   6
   2   5  13-13.2999 405.148   2
   2   6 -11-41.1521 247.533   6
  -2   6  11-31.1612 329.806   4
   2   6 -10 332.405 280.136   6
  -2   6  10 64.8503 395.750   4
   2   6  -9 183.745 294.867   6
  -2   6   9 1700.94 627.882   4
   2   6  -8-169.300 235.945   6
  -2   6   8 1007.28 500.084   4
   2   6  -7 623.512 462.241   5
   2   6  -7 1343.25 383.284   6
  -2   6   7 1356.79 567.583   4
   2   6  -6 825.125 365.723   6
   2   6  -6 708.917 514.679   5
   2   6  -5 1850.79 442.606   6
   2   6  -5 2629.46 730.515   5
   2   6  -4 792.409 448.611   5
   2   6  -4 424.010 236.377   6
   2   6  -3 623.477 371.211   5
   2   6  -2-72.6031 282.261   5
   2   6  -1 1542.96 551.761   5
   2   6   0 157.654 253.936   5
   2   6   1 63.5386 289.737   5
  -2   6  -1-20.3966 237.853   6
   2   6   2-185.854 291.099   5
  -2   6  -2-22.7026 290.647   6
  -2   6  -3 133.158 295.181   6
   2   6   3 452.764 321.412   5
  -2   6  -4 810.478 438.411   6
   2   6   4-346.754 296.611   5
   2   6   5 6.96783 159.474   5
  -2   6  -5-486.981 378.485   6
  -2   6  -6 13.0595 339.726   6
  -2   6  -7 1881.73 620.712   6
   2   6   7 1598.14 648.286   2
   2   6   8-78.1757 394.442   2
  -2   6  -8-249.434 415.001   6
   2   6   9 447.102 489.746   2
  -2   6  -9 353.404 386.308   6
   2   6  10 638.633 491.958   2
  -2   6 -10 316.741 416.195   6
   2   7  -4-1.60285 394.638   5
   2   7  -3 732.911 450.293   5
   2   7  -2 873.768 455.294   5
   2   7  -1 252.159 314.224   5
  -2   7  -3 1218.28 490.397   6
   3  -6 -10-9.00869 226.465   3
  -3  -6  10 822.278 496.553   1
  -3  -6   9 733.352 433.151   1
   3  -6  -9 1270.21 470.522   3
   3  -6  -8 2428.63 584.610   3
  -3  -6   8 3184.70 782.492   1
   3  -6  -7 1972.26 541.603   3
  -3  -6   7 2304.94 660.820   1
   3  -6  -6 761.000 359.548   3
  -3  -6   6 968.806 453.788   1
   3  -6  -5 459.312 313.265   3
  -3  -6   5 779.964 400.518   1
  -3  -6   4 487.789 377.849   1
   3  -6  -4 653.754 360.356   3
   3  -6  -3 429.505 294.370   3
  -3  -6   3 389.230 346.074   1
  -3  -6   2-141.963 325.123   1
   3  -6  -2 23.3768 209.145   3
   3  -6  -1 468.361 322.416   3
  -3  -6   1 131.433 318.724   1
  -3  -6   0 20.3045 316.089   1
   3  -6   0 268.383 298.579   3
  -3  -6  -1-703.693 433.224   1
   3  -6   1 349.537 288.844   3
   3  -6   2 673.132 409.280   3
  -3  -6  -2 264.911 371.417   1
  -3  -6  -3 416.366 384.830   1
   3  -6   3 727.183 493.333   3
   3  -6   4-210.964 332.319   3
  -3  -6  -4 303.806 370.142   1
  -3  -6  -5 1832.18 655.523   1
   3  -6   5 2913.64 708.867   3
   3  -6   6 2593.81 712.868   3
   3  -6   7 278.369 380.257   3
   3  -6   8 766.765 457.792   3
  -3  -5  14-433.007 396.893   1
  -3  -5  13 377.473 365.608   1
  -3  -5  12-285.995 271.430   1
   3  -5 -11 298.059 232.273   3
  -3  -5  11 122.592 272.081   1
   3  -5 -10-22.3705 181.243   3
  -3  -5  10 954.187 431.884   1
   3  -5  -9 938.813 320.732   3
  -3  -5   9 862.375 412.530   1
   3  -5  -8 764.126 361.005   3
  -3  -5   8 1072.76 497.379   1
   3  -5  -7 1044.01 240.556   1
   3  -5  -7 2221.28 433.158   2
  -3  -5   7 2265.17 617.526   1
   3  -5  -7 2421.39 523.491   3
   3  -5  -6 839.410 350.013   3
   3  -5  -6 412.584 140.052   1
   3  -5  -6 399.882 277.457   2
  -3  -5   6 677.323 394.874   1
  -3  -5   5-223.432 293.908   1
   3  -5  -5 409.357 265.566   3
   3  -5  -5-122.317 213.630   2
   3  -5  -5 128.437 54.0523   1
   3  -5  -4 183.912 197.990   3
  -3  -5   4-96.9417 269.689   1
   3  -5  -4 126.026 222.883   2
  -3  -5   3 672.567 388.362   1
   3  -5  -3 463.258 275.089   3
   3  -5  -3 307.474 120.557   5
   3  -5  -3 608.184 303.106   2
   3  -5  -2 1121.33 371.294   3
   3  -5  -2 888.566 199.862   5
   3  -5  -2 936.374 351.056   2
  -3  -5   2 443.347 309.062   1
  -3  -5   1 2032.76 572.034   1
   3  -5  -1 1820.78 477.540   3
   3  -5  -1 1267.61 292.673   5
   3  -5   0 933.127 405.654   3
   3  -5   0 1278.45 323.041   5
  -3  -5   0 370.035 365.056   1
   3  -5   1 215.162 218.521   5
   3  -5   1 378.474 308.154   3
  -3  -5  -1-300.194 342.224   1
   3  -5   2-133.340 292.587   3
   3  -5   2 15.3822 75.1874   1
   3  -5   2 384.957 277.506   5
  -3  -5  -2 122.549 291.274   1
   3  -5   3 232.745 122.359   1
   3  -5   3 43.9373 294.243   3
   3  -5   3-269.658 214.275   5
  -3  -5  -3-148.929 286.847   1
   3  -5   4-56.8631 339.645   3
   3  -5   4 216.150 124.707   1
  -3  -5  -4 193.543 59.5010   6
   3  -5   5 256.795 156.766   1
   3  -5   5 50.3297 289.769   3
   3  -5   6 3632.78 505.332   1
   3  -5   6 3663.94 739.872   3
   3  -5   7 1693.60 546.236   3
   3  -5   8 1053.80 462.178   3
   3  -5   9-493.013 356.986   3
   3  -5  10-708.129 420.541   3
   3  -5  11 497.066 379.209   3
   3  -5  12-336.881 397.938   3
  -3  -4  17-187.647 282.181   1
  -3  -4  16-112.773 277.967   1
  -3  -4  15-155.765 275.953   1
  -3  -4  14 494.882 349.800   1
  -3  -4  13 556.875 372.401   1
  -3  -4  12 623.660 392.699   1
  -3  -4  11-204.497 271.125   1
   3  -4 -11 43.5102 174.501   1
   3  -4 -11-9.23161 123.410   2
   3  -4 -10 3657.03 518.343   1
  -3  -4  10 5609.38 885.421   1
   3  -4 -10 4392.42 460.995   2
   3  -4 -10 3830.71 556.867   3
   3  -4  -9 1803.04 426.257   3
   3  -4  -9 1734.08 331.411   1
  -3  -4   9 2012.17 584.153   1
   3  -4  -9 1855.48 321.500   2
  -3  -4   8 15714.0 1389.91   1
   3  -4  -8 17314.2 870.902   2
   3  -4  -8 13862.1 782.349   1
   3  -4  -8 14843.6 1058.22   3
   3  -4  -7 1620.92 265.213   1
   3  -4  -7 2072.04 454.882   3
   3  -4  -7 1469.14 315.122   2
  -3  -4   7 2180.93 568.380   1
   3  -4  -6 259.825 114.928   1
  -3  -4   6 119.958 295.354   1
   3  -4  -6 442.299 279.029   3
   3  -4  -6-84.9823 151.963   2
   3  -4  -5 960.010 121.474   1
   3  -4  -5 875.984 132.887   1
  -3  -4   5 1754.51 482.807   1
   3  -4  -5 2011.73 367.190   2
   3  -4  -5 2331.96 450.656   3
   3  -4  -4 258.034 198.980   3
  -3  -4   4 294.002 288.931   1
   3  -4  -4 309.494 205.344   2
   3  -4  -3 650.265 155.960   5
   3  -4  -3 884.089 306.351   3
   3  -4  -3 733.961 265.563   2
  -3  -4   3 946.740 397.395   1
  -3  -4   2 548.744 393.649   1
   3  -4  -2 1600.01 271.377   5
   3  -4  -2 1204.59 360.356   2
   3  -4  -2 1692.11 429.497   3
   3  -4  -1 1019.90 251.884   5
   3  -4  -1 1123.49 342.142   2
   3  -4  -1 888.194 329.226   3
  -3  -4   1 274.203 324.487   1
  -3  -4   1 1018.61 331.870   5
   3  -4   0 5129.48 689.295   3
  -3  -4   0 4573.12 767.189   1
   3  -4   0 4785.86 541.956   5
  -3  -4   0 4386.68 626.114   5
   3  -4   1 1654.24 446.184   3
  -3  -4  -1 1643.47 501.807   1
   3  -4   1 2147.98 390.150   5
   3  -4   1 2656.99 516.294   4
   3  -4   2 269.501 200.626   5
   3  -4   2 135.337 255.368   3
   3  -4   2 74.9318 197.678   4
   3  -4   3 1292.67 428.430   3
   3  -4   3 1141.95 373.902   5
   3  -4   3 1928.81 440.178   4
  -3  -4  -4 1218.36 144.951   6
   3  -4   4 1261.85 421.545   3
  -3  -4  -4 1226.16 172.496   6
   3  -4   4 1973.19 446.184   4
  -3  -4  -5 6221.83 391.217   6
   3  -4   5 7637.41 898.515   3
  -3  -4  -5 6025.27 441.314   6
   3  -4   5 7522.00 843.456   4
  -3  -4  -6 8967.69 537.615   6
   3  -4   6 10883.1 1048.32   3
  -3  -4  -6 9413.14 622.100   6
   3  -4   6 10153.9 961.323   4
  -3  -4  -7 2484.47 334.457   6
   3  -4   7 3381.30 653.099   3
   3  -4   7 2392.68 526.659   4
   3  -4   8 1345.24 480.967   3
  -3  -4  -8 1237.59 260.853   6
  -3  -4  -9 192.263 134.346   6
   3  -4   9 49.8424 261.956   3
  -3  -4 -10 355.481 173.582   3
  -3  -4 -10 605.067 232.108   6
   3  -4  10-108.903 280.294   3
  -3  -4 -11 208.454 134.094   6
   3  -4  11 207.477 313.710   3
  -3  -4 -12 197.421 143.643   6
   3  -4  12-116.330 356.822   3
   3  -4  13-156.028 276.998   3
  -3  -4 -13 99.8535 165.921   6
   3  -4  14 243.244 303.903   3
  -3  -4 -14 75.0238 133.040   6
  -3  -3  18-117.314 290.482   1
  -3  -3  17-139.296 228.398   1
  -3  -3  16-354.205 327.983   1
  -3  -3  15 407.213 313.304   1
  -3  -3  14 227.236 297.539   1
  -3  -3  13 664.932 407.946   1
   3  -3 -13 368.798 276.284   1
   3  -3 -12 191.860 281.718   1
  -3  -3  12 272.723 314.868   1
  -3  -3  11 437.682 349.191   1
   3  -3 -11 662.022 278.558   1
   3  -3 -10 1478.90 256.735   2
   3  -3 -10 1371.30 344.742   1
  -3  -3  10 1709.18 463.618   1
  -3  -3   9 11312.2 1106.37   1
   3  -3  -9 10189.1 750.065   1
   3  -3  -9 10578.4 578.825   2
   3  -3  -8 1243.89 324.516   3
   3  -3  -8 1968.69 265.020   2
   3  -3  -8 1640.31 307.015   1
  -3  -3   8 2364.23 569.460   1
   3  -3  -7 717.055 259.138   3
   3  -3  -7 612.146 187.035   1
   3  -3  -7 332.371 148.823   2
  -3  -3   7 720.778 393.917   1
  -3  -3   6 1699.93 456.870   1
   3  -3  -6 1638.50 340.256   3
   3  -3  -6 1687.93 231.297   1
   3  -3  -6 1929.56 491.055   6
  -3  -3   6 1865.45 424.373   2
   3  -3  -6 1638.84 243.021   2
  -3  -3   5 2568.29 531.398   1
   3  -3  -5 1753.69 182.973   1
   3  -3  -5 2079.43 289.698   2
  -3  -3   5 3493.73 562.924   2
   3  -3  -5 2787.10 551.114   6
  -3  -3   5 2613.56 506.504   5
   3  -3  -5 2865.49 446.455   3
   3  -3  -4 2607.55 546.988   6
   3  -3  -4 1962.56 387.520   3
   3  -3  -4 1738.16 191.690   5
   3  -3  -4 2386.65 323.455   2
  -3  -3   4 1882.86 391.168   2
  -3  -3   4 2021.91 478.532   1
  -3  -3   4 2992.22 533.669   5
   3  -3  -3 5710.16 620.962   3
   3  -3  -3 5271.57 498.309   2
  -3  -3   3 6810.36 728.163   2
  -3  -3   3 5129.09 706.420   1
  -3  -3   3 5769.64 703.153   5
   3  -3  -3 5930.78 774.014   6
   3  -3  -2 4186.34 628.133   6
   3  -3  -2 4372.78 489.902   2
  -3  -3   2 4763.46 609.876   2
  -3  -3   2 3828.28 564.640   5
  -3  -3   2 4094.65 648.265   1
  -3  -3   1 4096.18 564.486   2
   3  -3  -1 3449.69 577.884   6
  -3  -3   1 4353.18 583.383   5
  -3  -3   1 4198.46 640.522   1
   3  -3  -1 5175.58 629.600   4
  -3  -3   0 2297.03 547.782   1
   3  -3   0 2600.04 494.797   6
  -3  -3   0 2100.00 431.100   5
  -3  -3   0 2742.76 459.567   2
   3  -3   0 2491.53 461.215   4
   3  -3   1 1171.03 364.667   6
   3  -3   1 1591.94 380.751   3
  -3  -3  -1 1713.82 374.206   2
   3  -3   1 1661.09 390.127   4
   3  -3   2 468.129 279.176   3
   3  -3   2 116.209 146.329   6
  -3  -3  -2 21.8319 141.258   4
  -3  -3  -2 357.387 231.654   2
   3  -3   2 447.549 247.739   4
   3  -3   3 1886.11 411.260   3
   3  -3   3 1221.75 341.916   6
  -3  -3  -3 1736.63 385.144   2
   3  -3   3 1360.40 330.217   4
  -3  -3  -3 731.148 107.055   6
  -3  -3  -3 1628.55 374.773   4
  -3  -3  -3 882.359 101.091   6
   3  -3   4 280.537 231.573   3
  -3  -3  -4 270.285 97.6372   6
   3  -3   4 191.951 187.530   4
  -3  -3  -4-12.9274 128.707   4
  -3  -3  -5 2534.24 281.672   6
   3  -3   5 3370.62 529.325   3
  -3  -3  -5 3140.35 482.209   4
   3  -3   5 2862.76 452.030   4
  -3  -3  -6 2995.43 336.860   6
   3  -3   6 3391.52 534.193   3
  -3  -3  -6 3416.74 498.641   4
   3  -3   6 2672.18 444.293   4
  -3  -3  -7 4849.88 477.998   6
   3  -3   7 5225.47 668.228   3
  -3  -3  -7 4428.72 566.724   4
   3  -3   7 4321.08 564.172   4
  -3  -3  -8 2242.50 359.941   6
   3  -3   8 2770.71 521.825   3
   3  -3   8 2498.50 446.004   4
  -3  -3  -9 811.745 243.229   6
   3  -3   9 792.754 319.708   3
   3  -3   9 422.799 202.296   4
   3  -3  10 2295.15 483.320   3
  -3  -3 -10 1234.48 188.447   3
   3  -3  10 1457.39 356.408   4
  -3  -3 -10 1672.19 359.028   6
  -3  -3 -11 661.385 257.908   6
   3  -3  11 1535.21 424.369   3
   3  -3  12 1021.11 333.758   3
  -3  -3 -12 707.138 289.740   6
   3  -3  13 844.477 336.234   3
  -3  -3 -13 776.065 299.385   6
   3  -3  14 835.080 341.211   3
  -3  -3 -14 383.266 255.152   6
  -3  -3 -15 129.523 210.971   6
  -3  -3 -16-63.4530 164.056   6
   3  -2 -19 983.272 435.686   6
  -3  -2  19-452.400 343.754   1
   3  -2 -18 78.0367 211.621   6
  -3  -2  18-185.098 268.664   1
  -3  -2  17-214.923 299.101   1
  -3  -2  16 549.263 348.853   1
  -3  -2  15 5734.50 858.203   1
  -3  -2  14 6909.43 919.851   1
  -3  -2  13 751.754 395.149   1
   3  -2 -13 113.087 221.493   1
  -3  -2  12 1113.91 436.143   1
   3  -2 -12 1157.96 352.577   1
  -3  -2  11 995.554 377.255   1
   3  -2 -11 1155.80 346.781   1
  -3  -2  10 3556.37 640.226   1
   3  -2 -10 2247.01 430.073   1
   3  -2  -9 3817.78 488.303   1
  -3  -2   9 4370.78 646.781   1
  -3  -2   9 3964.53 623.034   5
  -3  -2   8 14674.4 1108.07   5
   3  -2  -8 14227.4 639.053   5
   3  -2  -8 13260.7 811.374   1
  -3  -2   8 12683.7 1051.52   1
   3  -2  -7 15931.6 647.189   5
   3  -2  -7 13730.9 755.812   1
  -3  -2   7 14470.0 1093.60   1
   3  -2  -6 11102.4 526.827   5
   3  -2  -6 10641.8 600.092   1
  -3  -2   6 11361.2 946.218   1
   3  -2  -6 10542.2 372.596   2
  -3  -2   5 6940.28 650.193   2
   3  -2  -5 6218.29 397.221   5
   3  -2  -5 6079.80 280.064   2
   3  -2  -5 6386.83 412.749   1
   3  -2  -5 6785.40 568.469   3
  -3  -2   5 6399.00 729.400   1
  -3  -2   4 1089.57 288.785   2
   3  -2  -4 1289.59 216.627   5
  -3  -2   4 1139.90 369.977   1
   3  -2  -4 719.940 134.725   2
   3  -2  -4 723.490 128.597   1
   3  -2  -3 7748.81 421.863   2
  -3  -2   3 9355.74 727.951   2
   3  -2  -3 8986.65 506.262   5
  -3  -2   3 7906.95 790.919   1
  -3  -2   2 66348.2 1887.03   2
  -3  -2   2 62990.7 2131.15   1
  -3  -2   1 43394.1 1499.67   2
  -3  -2   1 40406.4 1749.47   1
  -3  -2   0 50886.0 1619.97   2
  -3  -2  -1 4194.98 484.425   2
   3  -2   1 4179.28 480.691   3
   3  -2   1 4230.53 465.366   4
  -3  -2  -2 2887.26 211.578   6
  -3  -2  -2 4787.87 514.108   2
   3  -2   2 4049.30 431.643   4
   3  -2   2 4155.52 487.084   3
   3  -2   3 1939.38 365.198   3
  -3  -2  -3 1561.84 197.974   6
   3  -2   3 1654.59 292.083   4
  -3  -2  -3 1516.05 290.353   4
   3  -2   4 1336.68 305.182   3
   3  -2   4 1493.23 272.235   4
  -3  -2  -4 915.538 236.605   4
  -3  -2  -4 1356.68 225.733   6
   3  -2   5 4536.68 506.387   3
  -3  -2  -5 3393.51 397.342   4
   3  -2   5 3682.68 402.789   4
  -3  -2  -5 3960.02 383.906   6
  -3  -2  -6 2409.02 339.785   6
  -3  -2  -6 3110.41 441.142   2
   3  -2   6 2847.04 416.657   3
  -3  -2  -6 2216.78 324.126   4
   3  -2   6 2629.69 349.057   4
   3  -2   6 3704.51 565.219   6
  -3  -2  -7 773.026 244.259   6
   3  -2   7 750.317 205.915   4
   3  -2   7 991.022 283.792   3
  -3  -2  -8 9138.11 730.101   6
   3  -2   8 8806.10 689.614   3
   3  -2   8 9123.93 636.885   4
   3  -2   9 4322.53 502.953   3
  -3  -2  -9 4036.64 526.789   6
   3  -2   9 3354.50 420.306   4
   3  -2  10 3540.57 452.185   3
  -3  -2 -10 3190.69 507.724   6
   3  -2  11 2869.26 408.658   3
  -3  -2 -11 2763.41 510.872   6
  -3  -2 -12 2506.04 512.300   6
   3  -2  12 2613.97 387.780   3
   3  -2  13 4390.39 481.922   3
  -3  -2 -13 3768.61 669.184   6
  -3  -2 -14 25.7561 181.757   6
   3  -2  14 273.877 183.103   3
  -3  -2 -15 79.5206 218.352   6
   3  -2  15 92.0995 219.423   2
   3  -2  16-345.655 279.758   2
  -3  -2 -16 91.3064 168.669   6
   3  -2  17 216.710 216.913   2
  -3  -2 -17 380.907 272.677   6
   3  -1 -20-584.509 399.565   6
  -3  -1  20 269.898 293.249   2
  -3  -1  20 115.744 256.911   1
   3  -1 -19-275.874 292.182   6
  -3  -1  19 43.1905 249.327   1
   3  -1 -18 247.017 336.418   6
  -3  -1  18 21.8877 311.919   1
   3  -1 -17-69.1913 231.297   6
  -3  -1  17 392.189 291.867   1
   3  -1 -16 1070.31 429.096   6
  -3  -1  16 730.379 405.520   1
  -3  -1  15 1198.28 430.279   1
  -3  -1  14 3569.34 623.879   1
  -3  -1  13 2262.48 512.317   1
  -3  -1  12 3465.30 587.554   1
   3  -1 -12 3121.46 546.729   1
  -3  -1  11 1070.10 373.254   1
  -3  -1  11 945.365 328.595   5
   3  -1 -11 916.050 329.940   1
  -3  -1  10 5604.66 689.343   1
  -3  -1  10 5566.13 685.490   5
   3  -1 -10 4758.89 599.276   1
   3  -1 -10 4435.83 522.555   5
   3  -1  -9 12241.0 805.284   5
  -3  -1   9 12486.3 967.875   1
  -3  -1   9 12288.0 981.736   5
   3  -1  -9 11393.4 854.691   1
   3  -1  -8 1293.54 305.354   5
  -3  -1   8 1827.39 461.961   1
  -3  -1   8 1714.09 393.232   5
   3  -1  -8 1612.07 362.475   1
   3  -1  -7 56754.0 1555.52   5
  -3  -1   7 54893.7 1886.14   1
   3  -1  -7 52644.2 1593.69   1
  -3  -1   7 55117.6 1895.14   5
  -3  -1   6 9358.43 810.271   1
   3  -1  -6 8979.08 624.948   5
  -3  -1   6 10007.3 799.741   5
   3  -1  -6 9025.31 646.068   1
  -3  -1   5 3207.82 491.936   1
  -3  -1   5 3119.20 370.432   2
   3  -1  -5 3028.63 357.697   5
   3  -1  -5 3474.76 375.861   1
   3  -1  -4 775.130 201.628   1
  -3  -1   4 720.902 286.082   1
  -3  -1   4 947.164 245.996   2
   3  -1  -4 777.847 216.969   5
  -3  -1   3 13985.0 712.121   2
   3  -1  -3 14201.4 719.660   5
  -3  -1   3 14162.8 900.057   1
  -3  -1   2 21106.3 864.743   2
   3  -1  -2 19669.1 846.846   5
  -3  -1   2 19644.7 1080.03   1
  -3  -1   1 35190.5 1076.37   2
   3  -1  -1 33226.8 619.829   2
  -3  -1   1 33756.1 1392.64   1
  -3  -1   0 43002.0 1195.63   2
   3  -1   1 14345.2 686.195   3
  -3  -1  -1 15167.5 719.984   2
  -3  -1  -1 15029.9 606.664   6
   3  -1   1 14700.9 885.178   6
  -3  -1  -2 6074.18 470.723   2
  -3  -1  -2 6429.02 445.868   6
   3  -1   2 5630.26 428.788   3
   3  -1   2 5754.33 574.243   6
  -3  -1  -3 4052.83 411.992   2
   3  -1   3 3958.58 368.518   3
  -3  -1  -3 3871.12 307.050   4
  -3  -1  -3 4022.74 384.855   6
   3  -1   3 4034.16 494.871   6
   3  -1   4 31753.4 986.222   3
  -3  -1  -4 31237.4 1130.55   2
  -3  -1  -4 30052.9 763.408   4
  -3  -1  -4 31069.9 1083.78   6
   3  -1   4 32552.0 1382.56   6
   3  -1   5 21470.6 1178.53   6
   3  -1   5 22174.3 828.698   3
  -3  -1  -5 23298.8 1024.24   2
  -3  -1  -5 20910.8 962.051   6
   3  -1   5 18957.0 565.221   4
   3  -1   6 9323.36 801.255   6
  -3  -1  -6 8951.22 379.846   3
  -3  -1  -6 8942.10 660.352   2
   3  -1   6 8246.54 386.401   4
   3  -1   6 9748.16 544.242   3
  -3  -1  -6 9302.37 691.286   6
  -3  -1  -7 3675.76 239.710   3
   3  -1   7 5541.36 413.504   3
  -3  -1  -7 5284.85 537.150   2
   3  -1   7 5551.17 653.045   6
   3  -1   7 3951.20 283.741   4
  -3  -1  -7 6040.01 602.060   6
  -3  -1  -8 1863.91 386.987   6
   3  -1   8 2063.48 426.309   6
   3  -1   8 1773.45 348.465   2
   3  -1   8 2026.42 260.837   3
  -3  -1  -9 5757.48 664.620   6
   3  -1   9 4533.46 532.265   2
   3  -1   9 5514.69 394.837   3
  -3  -1 -10 3645.90 565.729   6
   3  -1  10 3492.48 324.538   3
   3  -1  10 2959.26 463.438   2
   3  -1  11 1626.02 378.527   2
  -3  -1 -11 1698.87 433.124   6
   3  -1  11 1512.01 218.915   3
   3  -1  12 2253.16 243.381   3
   3  -1  12 2755.36 502.136   2
  -3  -1 -12 3199.80 608.884   6
   3  -1  13 3229.93 556.330   2
  -3  -1 -13 2974.95 601.758   6
   3  -1  13 2565.15 242.077   3
  -3  -1 -14 4687.17 771.011   6
   3  -1  14 4010.30 625.194   2
   3  -1  15 754.388 317.171   2
  -3  -1 -15 631.352 381.265   6
   3  -1  16 85.8131 212.600   2
  -3  -1 -16 325.272 251.781   6
  -3  -1 -17 21.6721 226.242   6
   3  -1  17-256.483 283.990   2
  -3  -1 -18-246.498 217.218   6
   3  -1  18-208.449 302.829   2
   3   0 -20-17.3681 318.419   6
  -3   0  20-225.793 228.469   2
  -3   0  20 183.800 326.425   1
  -3   0  19 164.162 240.900   2
   3   0 -19 499.600 357.636   6
  -3   0  19 3.91545 278.401   1
  -3   0  18 215.085 210.518   2
   3   0 -18 32.6016 303.018   6
  -3   0  18-76.9742 232.898   1
  -3   0  17-47.7483 163.009   2
   3   0 -17 531.050 367.724   6
  -3   0  17-75.2255 225.197   1
  -3   0  16 481.245 255.247   2
   3   0 -16-16.3356 243.661   6
  -3   0  16 831.874 367.677   1
  -3   0  15 1149.87 320.123   2
   3   0 -15 782.551 377.551   6
  -3   0  15 1023.30 383.276   1
   3   0 -14 4247.82 707.776   6
  -3   0  14 3574.99 601.989   1
  -3   0  13 6537.20 759.337   1
  -3   0  13 6859.75 789.753   5
   3   0 -12 1547.33 413.177   5
  -3   0  12 1602.29 401.497   5
  -3   0  12 1598.14 395.558   1
   3   0 -11 896.204 332.607   5
  -3   0  11 1165.73 351.595   5
   3   0 -11 1274.01 386.094   1
  -3   0  11 1068.76 322.495   1
  -3   0  10 311.733 235.193   1
   3   0 -10 22.2328 192.575   5
  -3   0  10 233.809 230.930   5
   3   0 -10 142.146 201.994   1
  -3   0   9-79.4100 179.918   1
  -3   0   9 168.478 193.610   5
   3   0  -9 81.3806 183.500   5
   3   0  -9-62.9137 165.170   1
  -3   0   8 16408.8 974.263   1
   3   0  -8 17591.4 1046.29   5
  -3   0   8 18051.3 1020.70   5
   3   0  -8 18631.7 1088.65   1
  -3   0   7 12429.7 813.417   1
  -3   0   7 11349.3 782.455   5
   3   0  -7 11157.6 813.478   1
   3   0  -7 10564.5 792.024   5
   3   0  -6 3791.08 491.811   5
  -3   0   6 4340.32 507.474   1
  -3   0   6 4744.35 506.978   5
   3   0  -6 4364.22 512.384   1
  -3   0   5 4193.22 491.261   5
  -3   0   5 3598.35 465.714   1
   3   0  -5 3133.87 462.113   1
  -3   0   5 2480.91 237.380   2
   3   0  -5 2945.76 453.571   5
  -3   0   4 2309.19 236.869   2
   3   0  -4 2262.62 411.389   5
  -3   0   4 3614.59 448.023   5
  -3   0   4 3254.39 428.427   1
   3   0  -4 3574.00 465.930   1
   3   0  -3 1350.04 287.069   1
  -3   0   3 1369.11 152.820   2
  -3   0   3 1813.50 302.095   5
  -3   0   3 1435.40 284.722   1
   3   0  -3 1485.86 302.157   5
   3   0  -3 1483.66 304.132   6
   3   0  -2 9362.85 436.380   2
   3   0  -2 9424.89 668.054   5
  -3   0   2 9677.73 368.586   2
  -3   0   2 8816.45 606.655   1
   3   0  -2 9152.92 627.400   6
  -3   0   1 827.521 135.166   2
   3   0  -1 537.123 193.180   6
   3   0  -1 510.072 217.170   5
  -3   0   1 624.236 218.320   1
   3   0  -1 628.120 148.327   2
  -3   0   1 433.284 190.990   6
   3   0   0 5231.39 366.670   2
  -3   0   0 5781.31 344.039   2
  -3   0   0 5010.50 465.321   6
   3   0   0 4677.77 441.629   6
  -3   0  -1 3058.97 296.051   3
   3   0   1 2877.01 277.835   2
  -3   0  -1 2652.33 261.186   2
  -3   0  -1 2930.79 369.984   6
   3   0   1 2335.49 327.545   6
   3   0   2 31718.6 924.179   2
  -3   0  -2 29452.4 893.304   2
  -3   0  -2 30621.1 868.354   3
  -3   0  -2 31535.8 1181.48   6
   3   0   2 30845.6 1096.07   6
  -3   0  -3 28644.3 833.154   3
   3   0   3 29083.1 943.232   2
  -3   0  -3 29040.2 1169.03   6
   3   0   3 30655.6 1135.73   6
   3   0   4 16810.5 880.691   6
  -3   0  -4 17673.9 670.834   3
   3   0   4 16629.4 761.911   2
  -3   0  -4 16575.0 926.627   6
   3   0   5 8899.87 684.312   6
  -3   0  -5 8846.76 487.783   3
   3   0   5 9040.07 608.622   2
  -3   0  -5 8981.89 722.655   6
  -3   0  -6 6043.93 405.259   3
   3   0   6 8643.47 703.632   6
   3   0   6 7895.77 597.025   2
  -3   0  -6 7489.19 693.817   6
   3   0   7 28.2297 142.773   2
   3   0   7 34.9768 176.470   6
  -3   0  -7 95.2774 161.740   6
  -3   0  -8 2202.25 444.133   6
   3   0   8 1950.50 348.074   2
  -3   0  -8 1732.14 396.360   1
   3   0   8 1987.02 389.537   6
  -3   0  -9 437.785 249.223   6
   3   0   9 765.155 269.851   6
   3   0   9 485.079 229.771   2
  -3   0  -9 999.306 329.977   1
   3   0   9 346.603 85.1254   4
   3   0  10 267.876 204.149   2
   3   0  10 371.547 108.392   4
  -3   0 -11 568.789 352.266   6
   3   0  11 328.619 228.249   2
   3   0  11 606.635 147.024   4
  -3   0 -12 55.5582 233.654   6
   3   0  12 481.038 141.772   4
   3   0  12 41.5501 228.946   2
   3   0  13 24.7050 227.482   2
  -3   0 -13 579.976 370.854   6
   3   0  13 262.266 128.954   4
   3   0  14 767.403 338.695   2
  -3   0 -14 1366.31 469.529   6
   3   0  14 642.153 189.630   4
  -3   0 -15 127.964 216.756   6
   3   0  15-249.237 271.329   2
   3   0  16-431.472 307.038   2
  -3   0 -16-12.6959 198.571   6
   3   0  17-159.039 230.769   2
  -3   0 -17 352.309 321.876   6
  -3   0 -18 238.828 212.282   6
   3   0  18-223.470 301.644   2
   3   1 -20-310.927 371.854   6
  -3   1  20-425.901 257.433   2
  -3   1  19 171.655 209.898   2
   3   1 -19-508.335 382.307   6
   3   1 -18 356.519 372.060   6
  -3   1  18-463.758 236.013   2
   3   1 -17 876.502 432.300   6
  -3   1  17 88.7337 169.155   2
  -3   1  16 609.460 356.297   1
   3   1 -16 697.858 406.759   6
  -3   1  16 473.914 242.892   2
  -3   1  15 799.448 256.356   3
   3   1 -15 1382.80 481.057   6
  -3   1  15 414.216 257.662   5
  -3   1  15 1173.96 395.551   1
  -3   1  15 912.216 286.841   2
   3   1 -14 4657.89 752.768   6
  -3   1  14 4297.49 661.205   1
  -3   1  14 3885.43 469.772   2
  -3   1  14 4755.75 559.212   3
  -3   1  14 3623.85 589.135   5
  -3   1  13 2130.92 332.065   2
  -3   1  13 2663.20 407.979   3
   3   1 -13 3350.87 609.147   6
   3   1 -13 2271.28 541.422   5
  -3   1  13 2851.26 480.531   5
  -3   1  13 2639.09 493.505   1
  -3   1  12 3629.72 457.569   3
  -3   1  12 4243.11 597.082   1
  -3   1  12 3653.57 530.983   5
   3   1 -12 3399.90 624.669   5
  -3   1  12 3325.16 375.174   2
   3   1 -12 3848.63 620.462   6
  -3   1  11 1991.22 348.326   3
   3   1 -11 1267.08 383.420   6
   3   1 -11 669.250 355.500   5
  -3   1  11 1107.17 326.895   5
  -3   1  11 1373.56 362.911   1
  -3   1  11 1404.88 243.653   2
  -3   1  10 4660.19 380.547   2
   3   1 -10 5593.75 657.533   6
  -3   1  10 4973.21 555.079   1
   3   1 -10 5606.72 737.220   5
  -3   1  10 5670.60 576.273   5
   3   1 -10 4356.50 631.479   1
  -3   1  10 5156.77 529.656   3
  -3   1   9 12982.7 835.645   1
   3   1  -9 13914.3 978.331   6
  -3   1   9 11585.9 748.793   3
   3   1  -9 11645.8 1010.26   5
  -3   1   9 12356.1 781.467   5
  -3   1   9 11876.7 533.083   2
   3   1  -9 13071.9 1018.46   1
  -3   1   8 1682.84 315.086   3
  -3   1   8 2258.06 364.880   1
  -3   1   8 1331.23 176.955   2
   3   1  -8 1833.75 424.199   1
   3   1  -8 1219.52 415.679   5
  -3   1   8 1587.97 306.995   5
  -3   1   7 56972.4 1554.76   3
  -3   1   7 54936.2 1492.01   1
   3   1  -7 53513.9 1949.10   5
   3   1  -7 55370.1 1925.12   1
  -3   1   7 56501.8 1504.37   5
  -3   1   6 10578.9 675.474   3
  -3   1   6 10779.6 650.853   1
   3   1  -6 8576.45 810.343   5
  -3   1   6 9233.32 608.531   5
   3   1  -6 9468.81 786.771   1
  -3   1   5 3561.99 388.331   3
  -3   1   5 3089.28 324.287   1
   3   1  -5 3240.38 496.816   5
  -3   1   5 3568.30 360.883   5
   3   1  -5 3633.89 495.085   1
  -3   1   4 1295.54 264.782   3
  -3   1   4 1121.36 212.661   1
   3   1  -4 986.717 324.023   5
  -3   1   3 14560.1 739.960   3
   3   1  -3 13265.5 892.543   5
  -3   1   3 13595.0 573.659   1
   3   1  -2 19149.8 709.084   6
  -3   1   2 20249.6 855.624   3
   3   1  -2 17950.6 854.432   2
   3   1  -2 19121.0 1055.90   5
  -3   1   2 18811.2 660.862   1
  -3   1   1 32554.5 1082.25   3
   3   1  -1 32480.0 1178.56   2
   3   1  -1 35980.9 1420.54   5
  -3   1   1 32195.7 874.985   1
  -3   1   1 32638.8 1049.21   4
   3   1  -1 33007.5 827.301   6
  -3   1   1 34763.3 1406.83   6
   3   1   0 42156.1 1319.10   2
   3   1   0 41158.1 1492.86   5
  -3   1   0 41569.1 1225.83   3
   3   1   0 41515.4 922.953   6
  -3   1   0 38935.6 1103.24   4
  -3   1   0 39881.6 1494.70   6
  -3   1  -1 14149.7 729.910   3
   3   1   1 15239.7 819.848   2
   3   1   1 14780.9 909.522   5
   3   1   1 14691.9 560.625   6
  -3   1  -1 13743.1 636.619   4
  -3   1  -1 13588.7 899.991   6
   3   1   2 5806.29 379.841   6
  -3   1  -2 5816.75 489.435   3
   3   1   2 5725.49 501.685   2
  -3   1  -2 5985.41 399.745   4
  -3   1  -2 5133.72 577.614   6
  -3   1  -3 4565.48 451.464   3
   3   1   3 3878.32 435.128   2
   3   1   3 4302.02 360.045   6
  -3   1  -3 4076.86 535.679   6
  -3   1  -4 32212.5 1153.71   3
   3   1   4 32184.5 1020.95   6
   3   1   4 32614.8 1220.78   2
  -3   1  -4 32297.2 1462.22   6
  -3   1  -5 20607.6 1000.56   1
   3   1   5 22979.8 1062.23   2
   3   1   5 21201.3 891.025   6
  -3   1  -5 21638.8 1255.79   6
   3   1   6 9319.94 634.161   6
  -3   1  -6 9475.18 713.837   1
   3   1   6 9252.07 685.446   2
  -3   1  -6 9727.60 874.675   6
   3   1   7 4684.45 501.414   6
   3   1   7 5195.08 546.912   2
  -3   1  -7 5086.54 568.463   1
  -3   1  -7 4302.39 641.094   6
  -3   1  -8 2055.39 467.624   6
   3   1   8 1866.09 346.730   6
  -3   1  -8 1858.90 385.514   1
   3   1   8 1867.51 371.713   2
   3   1   9 5113.10 580.147   6
  -3   1  -9 4647.13 598.512   1
   3   1   9 4492.28 546.354   2
  -3   1  -9 5187.08 721.917   6
   3   1   9 5212.82 404.978   4
   3   1  10 3389.68 517.945   2
  -3   1 -10 3688.52 648.202   6
   3   1  10 3473.41 367.089   4
  -3   1 -11 2252.27 523.733   6
   3   1  11 1815.64 399.921   2
   3   1  11 1308.53 255.875   4
  -3   1 -12 3271.97 664.779   6
   3   1  12 3444.01 561.201   2
   3   1  12 2606.20 367.668   4
  -3   1 -13 3556.34 699.434   6
   3   1  13 2582.75 374.311   4
   3   1  13 2923.37 552.200   2
  -3   1 -14 4527.09 803.224   6
   3   1  14 4677.41 704.492   2
   3   1  14 4023.99 493.489   4
  -3   1 -15 339.684 309.488   6
   3   1  15 1129.12 431.658   2
  -3   1 -16-901.523 416.925   6
   3   1  16 206.268 265.953   2
  -3   1 -17-684.466 411.171   6
   3   1  17 1.15511 286.023   2
  -3   1 -18-701.157 445.844   6
   3   1  18-177.515 290.029   2
   3   2 -19 350.693 376.641   6
  -3   2  19 280.837 247.388   2
   3   2 -18 918.038 464.712   6
  -3   2  18 347.642 231.264   2
   3   2 -17-159.200 293.529   6
  -3   2  17 293.931 252.433   2
   3   2 -16 465.644 376.242   6
  -3   2  16 410.707 260.925   2
   3   2 -15 6538.00 942.550   6
  -3   2  15 5652.81 635.477   2
   3   2 -14 6766.08 933.432   6
  -3   2  14 7232.72 710.002   3
  -3   2  14 7220.30 702.194   5
  -3   2  14 6881.10 664.117   2
   3   2 -13 646.744 359.655   6
   3   2 -13-23.2417 262.270   5
  -3   2  13 240.386 192.440   3
  -3   2  13 567.639 216.548   5
  -3   2  13 415.314 202.319   2
  -3   2  12 1585.80 352.437   3
   3   2 -12 1457.61 424.552   6
   3   2 -12 1040.92 469.967   5
  -3   2  12 1334.43 294.880   5
  -3   2  12 1264.48 288.970   2
  -3   2  11 863.703 255.257   3
   3   2 -11 1900.28 434.896   6
   3   2 -11 1345.42 472.974   5
  -3   2  11 1445.38 283.280   5
  -3   2  11 1277.61 288.692   2
   3   2 -10 3328.70 540.912   6
  -3   2  10 2431.11 405.404   3
  -3   2  10 2797.49 362.477   2
  -3   2  10 2602.83 334.726   5
   3   2 -10 2178.10 544.120   5
  -3   2   9 3326.18 446.555   3
   3   2  -9 3535.42 618.528   5
  -3   2   9 3206.43 355.922   2
  -3   2   9 3682.79 352.859   5
   3   2  -9 4541.57 557.466   6
   3   2  -8 13534.4 869.069   6
  -3   2   8 14207.4 889.489   3
  -3   2   8 13838.7 642.777   2
   3   2  -8 13963.9 1158.78   5
  -3   2   8 13860.7 600.595   5
   3   2  -8 13931.4 1086.93   1
   3   2  -7 15463.6 851.573   6
  -3   2   7 15644.7 905.847   3
  -3   2   7 13428.5 570.777   2
   3   2  -7 15816.9 1205.30   5
   3   2  -6 11127.5 662.349   6
  -3   2   6 11834.4 783.835   3
   3   2  -6 11649.1 1000.24   5
   3   2  -5 6403.83 450.007   6
  -3   2   5 6549.21 589.672   3
   3   2  -5 7833.97 817.373   5
  -3   2   5 5822.82 626.400   4
   3   2  -4 1381.28 194.526   6
  -3   2   4 1739.89 326.191   3
   3   2  -4 1548.34 425.528   5
  -3   2   4 1287.81 336.214   4
   3   2  -3 8907.82 379.798   6
  -3   2   3 9553.29 706.896   3
   3   2  -3 9417.89 833.772   5
  -3   2   3 8817.09 733.574   4
   3   2  -2 54155.9 692.640   6
  -3   2   2 64203.1 1821.11   3
   3   2  -2 62607.8 2089.10   5
  -3   2   2 60965.8 1856.23   4
  -3   2   1 41270.8 1477.68   3
   3   2  -1 40431.3 1582.33   2
   3   2  -1 41520.3 1666.72   5
  -3   2   1 39557.5 1488.98   4
  -3   2   1 41746.3 1762.78   6
  -3   2   0 50310.0 1667.21   3
   3   2   0 48531.9 1738.08   2
   3   2   0 49451.9 1776.51   5
  -3   2   0 48692.3 1902.66   6
  -3   2   0 47473.0 1617.93   4
  -3   2  -1 4323.89 510.320   3
  -3   2  -1 4042.19 596.665   6
  -3   2  -1 3528.46 250.192   1
   3   2   1 4266.52 553.796   2
   3   2   1 4012.32 569.786   5
  -3   2  -1 3419.20 446.300   4
   3   2   2 3776.52 512.917   5
  -3   2  -2 3965.77 308.652   1
   3   2   2 4631.34 566.308   2
  -3   2  -2 3829.76 576.255   6
  -3   2  -3 1989.35 459.232   6
  -3   2  -3 1753.86 245.901   1
   3   2   3 1897.33 384.837   2
   3   2   3 2076.20 403.135   5
  -3   2  -4 739.136 336.340   6
   3   2   4 1444.00 387.519   5
   3   2   4 1086.29 339.625   2
  -3   2  -4 1071.62 231.514   1
  -3   2  -5 3684.43 418.919   1
   3   2   5 3396.51 511.822   2
  -3   2  -5 3514.46 604.669   6
  -3   2  -6 2657.90 387.846   1
  -3   2  -6 2988.04 574.622   6
   3   2   6 2423.04 468.521   2
  -3   2  -7 930.810 262.066   1
  -3   2  -7 387.906 313.935   6
   3   2   7 994.668 318.190   2
  -3   2  -8 9377.27 792.101   1
   3   2   8 9178.26 818.554   2
  -3   2  -8 10678.5 1068.79   6
  -3   2  -9 3282.39 519.022   1
  -3   2  -9 4059.66 715.451   6
   3   2   9 3531.03 565.369   2
  -3   2 -10 3460.56 694.892   6
   3   2  10 3053.18 558.676   2
  -3   2 -11 2862.51 655.597   6
   3   2  11 2570.16 523.440   2
   3   2  11 3242.64 470.132   4
  -3   2 -12 2240.64 609.752   6
   3   2  12 2518.89 535.633   2
   3   2  12 3153.41 483.112   4
  -3   2 -13 4027.10 788.774   6
   3   2  13 4823.01 608.922   4
   3   2  13 4729.68 726.691   2
  -3   2 -14 130.975 283.584   6
   3   2  14-180.689 266.135   2
   3   2  14 72.3161 165.413   4
  -3   2 -15 817.305 393.847   6
   3   2  15 215.749 260.067   2
  -3   2 -16-96.1508 154.314   6
   3   2  16 179.169 246.982   2
  -3   2 -17-582.010 395.762   6
   3   2  17-37.8791 274.401   2
   3   3 -18 797.764 435.859   6
  -3   3  18-141.554 340.680   4
   3   3 -17 119.925 295.300   6
  -3   3  17-297.877 237.974   2
  -3   3  17-151.131 315.544   4
   3   3 -16-242.081 318.026   6
  -3   3  16-353.672 262.911   2
  -3   3  16 92.2769 284.434   4
  -3   3  15 258.405 231.787   2
  -3   3  15 247.950 307.580   4
   3   3 -15-136.422 261.806   6
   3   3 -14 197.787 288.985   6
  -3   3  14 325.322 233.769   2
  -3   3  14 466.127 356.070   4
   3   3 -13-30.6141 297.334   5
   3   3 -13 279.745 264.399   6
  -3   3  13 426.596 221.572   2
  -3   3  13 214.389 278.767   4
   3   3 -12 644.436 328.962   6
   3   3 -12 506.044 385.592   5
  -3   3  12 93.3266 214.756   2
  -3   3  12 607.090 339.570   4
   3   3 -11 566.158 372.436   5
   3   3 -11 693.190 281.751   6
  -3   3  11 560.250 255.690   2
  -3   3  11 606.213 321.576   4
   3   3 -10 1768.66 406.211   6
   3   3 -10 1880.72 572.675   5
  -3   3  10 1821.63 349.520   2
  -3   3  10 1142.98 407.984   4
   3   3  -9 10892.1 852.644   6
  -3   3   9 11420.9 918.537   3
  -3   3   9 11374.9 765.433   2
   3   3  -9 9829.11 1099.49   5
  -3   3   9 10710.0 1032.47   4
  -3   3   8 2060.70 401.050   3
   3   3  -8 2098.10 378.903   6
  -3   3   8 1378.10 289.314   2
   3   3  -8 1687.44 508.272   5
  -3   3   8 1977.56 472.983   4
   3   3  -7 668.394 205.290   6
  -3   3   7 778.702 276.107   3
   3   3  -7 683.494 400.617   5
  -3   3   7 717.093 314.553   4
  -3   3   6 1713.88 364.740   3
   3   3  -6 1891.72 296.654   6
   3   3  -6 1778.57 482.612   5
  -3   3   6 1699.02 435.210   4
  -3   3   5 2782.35 460.789   3
   3   3  -5 2368.87 516.589   5
   3   3  -5 2264.67 291.982   6
   3   3  -5 3253.82 562.574   1
  -3   3   5 3122.42 557.004   4
   3   3  -4 2624.61 532.326   5
  -3   3   4 2317.21 504.363   4
   3   3  -4 2841.92 284.857   6
  -3   3   4 2366.05 433.855   3
   3   3  -3 5917.42 746.391   5
  -3   3   3 5458.32 701.873   4
   3   3  -3 5450.09 309.486   6
   3   3  -2 4674.06 648.069   5
  -3   3   2 4331.39 633.621   4
   3   3  -1 4136.09 627.401   5
  -3   3   1 4362.57 634.037   4
  -3   3   1 4317.49 686.559   6
  -3   3   0 1967.20 451.942   4
   3   3   0 1966.63 472.148   2
   3   3   0 1943.74 461.019   5
  -3   3   0 1810.94 482.255   6
  -3   3  -1 1920.07 477.287   6
   3   3   1 1612.80 456.955   2
   3   3   1 1683.70 426.980   5
  -3   3  -2 261.533 269.126   6
  -3   3  -2 116.807 90.4701   1
   3   3   2 559.864 292.416   2
   3   3   2 465.510 253.165   5
  -3   3  -3 1746.47 467.848   6
   3   3   3 2045.53 466.917   2
   3   3   3 1708.15 391.937   5
  -3   3  -3 1454.32 242.383   1
  -3   3  -4 309.556 296.326   6
   3   3   4 337.545 290.926   2
  -3   3  -4 333.944 170.498   1
   3   3   4 83.0309 207.603   5
  -3   3  -5 3188.32 616.894   6
  -3   3  -5 3260.51 421.160   1
   3   3   5 3121.60 575.118   2
   3   3   5 3111.25 505.813   5
  -3   3  -6 3862.30 690.359   6
  -3   3  -6 3467.06 474.366   1
   3   3   6 3755.67 630.116   2
   3   3   6 2907.47 507.617   5
  -3   3  -7 4431.33 767.644   6
   3   3   7 5270.59 747.516   2
  -3   3  -7 4969.44 606.548   1
   3   3   7 4658.03 645.489   5
  -3   3  -8 2832.19 640.705   6
  -3   3  -8 2916.81 489.103   1
   3   3   8 3041.76 508.042   5
   3   3   8 3183.35 624.665   2
  -3   3  -9 283.431 289.236   6
  -3   3  -9 1034.73 346.012   1
   3   3   9 814.307 380.981   2
  -3   3 -10 2283.19 627.613   6
   3   3  10 1813.13 465.822   2
  -3   3 -11 554.092 394.639   6
   3   3  11 888.209 374.868   2
  -3   3 -12 808.285 482.027   6
   3   3  12-12.9221 266.715   2
  -3   3 -13 2465.82 673.240   6
   3   3  13 822.500 369.444   2
  -3   3 -14-50.2375 287.678   6
   3   3  14 570.306 357.038   2
  -3   3 -15 703.057 457.076   6
   3   3  15 41.0607 304.383   2
  -3   3 -16 577.945 430.640   6
   3   3  16 409.480 279.039   2
   3   4 -17 808.207 441.033   6
  -3   4  17-44.6320 331.312   4
   3   4 -16 984.961 430.803   6
  -3   4  16 848.624 453.760   4
   3   4 -15 530.120 374.760   6
  -3   4  15-66.3554 177.739   2
  -3   4  15 240.936 327.772   4
   3   4 -14 481.997 333.540   6
  -3   4  14 1150.52 397.151   2
  -3   4  14 1732.44 556.354   4
   3   4 -13 650.771 336.918   6
   3   4 -13 903.519 496.308   5
  -3   4  13 149.813 215.924   2
  -3   4  13 655.404 405.224   4
   3   4 -12 176.373 403.924   5
  -3   4  12 45.1214 196.920   2
   3   4 -12-31.9075 201.556   6
  -3   4  12-196.524 280.462   4
   3   4 -11 302.669 231.902   6
   3   4 -11-115.539 311.182   5
  -3   4  11 307.507 271.781   2
  -3   4  11 389.271 330.345   4
   3   4 -10 4973.70 905.656   5
  -3   4  10 3785.86 732.944   4
   3   4 -10 3824.70 574.726   6
   3   4  -9 1725.07 389.905   6
   3   4  -9 2414.64 650.000   5
  -3   4   9 1953.52 562.328   4
   3   4  -8 17861.1 1544.81   5
  -3   4   8 14502.0 1340.36   4
   3   4  -8 16087.6 1026.43   6
   3   4  -7 1928.83 387.910   6
   3   4  -7 1550.93 527.574   5
  -3   4   7 1859.56 531.279   4
   3   4  -6 234.514 165.562   6
   3   4  -6 385.989 355.982   5
  -3   4   6 606.139 349.514   4
   3   4  -5 2132.05 325.974   6
   3   4  -5 1767.29 515.186   5
  -3   4   5 1577.51 497.920   4
   3   4  -4 459.773 152.989   6
   3   4  -4 415.649 302.680   5
  -3   4   4 641.703 385.844   4
   3   4  -3 742.333 392.931   5
  -3   4   3 1206.92 434.403   4
   3   4  -3 605.485 132.385   6
   3   4  -2 2023.85 529.696   5
  -3   4   2 1632.57 494.785   4
  -3   4   1 520.170 372.218   6
   3   4  -1 1330.48 425.974   5
  -3   4   1 910.857 404.767   4
  -3   4   0 4793.04 787.741   6
   3   4   0 4515.82 695.347   5
  -3   4  -1 1920.56 551.461   6
   3   4   1 2097.14 513.669   2
   3   4   1 2229.95 482.342   5
  -3   4  -2 206.038 274.947   6
   3   4   2 206.385 281.776   2
   3   4   2-42.9890 224.748   5
  -3   4  -3 1258.81 464.052   6
   3   4   3 1375.75 442.495   2
   3   4   3 1362.94 403.584   5
  -3   4  -3 1319.85 247.923   1
   3   4   4 1741.09 482.677   2
   3   4   4 2047.98 461.926   5
  -3   4  -4 1858.24 517.376   6
  -3   4  -4 1975.07 322.108   1
   3   4   5 6347.93 884.623   2
   3   4   5 7233.55 823.955   5
  -3   4  -5 7727.49 679.651   1
  -3   4  -5 7450.44 998.514   6
   3   4   6 11834.0 1186.13   2
   3   4   6 10409.6 981.402   5
  -3   4  -6 10783.5 860.867   1
  -3   4  -6 9790.09 1181.13   6
  -3   4  -7 2399.89 653.937   6
   3   4   7 2187.63 582.897   2
   3   4   7 2800.89 539.364   5
  -3   4  -7 2128.45 423.091   1
  -3   4  -8 1488.29 543.155   6
   3   4   8 1202.94 479.732   2
   3   4   8 1001.22 360.579   5
  -3   4  -8 760.999 282.608   1
  -3   4  -9 253.260 341.588   6
   3   4   9 352.404 358.176   2
   3   4   9 642.084 291.076   5
  -3   4  -9 548.780 289.048   1
  -3   4 -10 306.823 439.243   6
   3   4  10 439.817 358.288   2
   3   4  10 477.332 274.667   5
  -3   4 -11 948.542 479.165   6
   3   4  11 337.389 349.598   2
   3   4  11 647.037 307.279   5
  -3   4 -12 180.395 375.081   6
   3   4  12 1030.24 464.248   2
   3   4  12 406.556 249.144   5
  -3   4 -13-91.5445 341.124   6
   3   4  13 173.950 358.013   2
   3   4  13 242.401 222.188   5
  -3   4 -14-16.5466 249.164   6
   3   4  14-286.766 358.192   2
   3   4  14-15.1715 273.063   5
   3   5 -14-641.344 392.016   6
  -3   5  14 792.242 501.864   4
   3   5 -13 354.802 314.312   6
  -3   5  13 964.915 484.572   4
   3   5 -12 242.546 282.287   6
   3   5 -12-360.297 452.834   5
  -3   5  12 163.006 296.526   4
   3   5 -11-343.775 283.584   6
   3   5 -11 207.724 403.862   5
  -3   5  11 10.9550 333.259   4
   3   5 -10-9.33920 230.771   6
   3   5 -10 453.735 376.614   5
  -3   5  10 158.600 341.050   4
   3   5  -9 440.134 268.951   6
   3   5  -9 772.545 475.191   5
  -3   5   9-11.9542 279.226   4
   3   5  -8 1046.95 383.107   6
   3   5  -8 1543.89 629.311   5
  -3   5   8 496.850 410.627   4
   3   5  -7 2615.31 459.511   6
   3   5  -7 1974.45 622.451   5
  -3   5   7 1998.44 636.136   4
   3   5  -6 500.896 225.377   6
   3   5  -6 373.157 389.297   5
  -3   5   6 447.398 396.559   4
   3   5  -5 59.3659 113.249   6
   3   5  -5 381.686 365.912   5
  -3   5   5 585.506 410.794   4
   3   5  -4-164.761 320.679   5
   3   5  -4-37.2033 96.1554   6
  -3   5   4 69.2842 311.105   4
   3   5  -3 825.672 402.783   5
  -3   5   3 1084.20 504.035   4
   3   5  -2 1054.46 413.321   5
   3   5  -1 1926.03 518.149   5
   3   5   0 1052.99 451.912   5
  -3   5   0 901.807 465.562   6
   3   5   1-174.230 263.405   5
  -3   5  -1 92.3049 306.426   6
  -3   5  -2 257.735 296.547   6
   3   5   2 4.49551 275.138   5
  -3   5  -3 245.571 329.472   6
   3   5   3 266.087 325.244   2
   3   5   3-252.645 302.695   5
  -3   5  -4 90.2479 352.053   6
   3   5   4 115.525 384.949   2
   3   5   4-8.69615 265.094   5
  -3   5  -5 201.106 347.064   6
   3   5   5 410.879 399.480   2
   3   5   5 234.478 342.183   5
  -3   5  -6 3610.12 810.605   6
   3   5   6 4718.04 845.585   2
   3   5   6 4176.88 718.765   5
  -3   5  -7 1815.17 617.414   6
   3   5   7 1600.32 573.071   2
   3   5   7 1522.12 496.004   5
  -3   5  -8 582.120 442.713   6
   3   5   8 1031.88 479.625   2
   3   5   8 1173.47 432.747   5
  -3   5  -9-324.422 383.111   6
   3   5   9 99.7243 362.417   2
   3   5   9-504.131 349.857   5
  -3   5 -10 720.821 477.349   6
   3   5  10 476.716 386.870   2
   3   5  10-432.423 312.388   5
  -3   5 -11 233.931 277.510   6
   3   5  11 105.148 406.087   2
   3   5  11 8.75612 216.120   5
  -3   5 -12 1283.66 603.990   6
   3   5  12 231.454 428.024   2
   3   6 -10 382.403 445.008   5
  -3   6  10-111.971 334.757   4
   3   6  -9 1481.36 609.018   5
  -3   6   9 1183.70 604.426   4
  -3   6   8 3924.94 911.827   4
   3   6  -8 3712.04 926.241   5
  -3   6   7 1214.77 566.929   4
   3   6  -7 2629.04 721.334   5
   3   6  -6 1253.04 564.973   5
  -3   6   6 1285.63 589.876   4
   3   6  -5 933.544 545.332   5
   3   6  -4-71.2558 376.476   5
   3   6  -3 211.089 322.633   5
   3   6  -2-104.068 414.491   5
   3   6  -1 1080.17 439.915   5
   3   6   0-169.802 340.945   5
   3   6   1-178.384 285.826   5
  -3   6  -1 437.863 433.422   6
  -3   6  -2 574.674 501.967   6
   3   6   2 175.769 316.037   5
  -3   6  -3 130.956 324.689   6
   3   6   3 690.483 388.513   5
  -3   6  -4 487.687 418.719   6
   3   6   4 68.4148 256.654   5
  -3   6  -5 2554.60 741.702   6
   3   6   5 3377.63 724.151   5
  -3   6  -6 2136.05 678.366   6
   3   6   6 3079.87 795.211   2
   3   6   6 2795.81 669.097   5
  -3   6  -7 1023.14 579.865   6
   3   6   7 973.226 501.906   2
  -3   6  -8 461.779 459.099   6
   3   6   8 552.638 474.124   2
   4  -6  -9-14.0622 238.466   3
  -4  -6   9 555.398 389.102   1
   4  -6  -8-497.814 349.185   3
  -4  -6   8 31.0321 283.825   1
   4  -6  -7 775.717 400.808   3
  -4  -6   7 1324.51 527.730   1
  -4  -6   6 910.868 502.604   1
   4  -6  -6 1359.02 429.946   3
  -4  -6   5-147.674 347.946   1
   4  -6  -5 102.010 255.909   3
   4  -6  -4 266.729 275.984   3
  -4  -6   4 71.0847 308.014   1
   4  -6  -3 164.451 240.251   3
  -4  -6   3-27.4434 256.412   1
   4  -6  -2-529.301 345.576   3
  -4  -6   2 227.725 326.538   1
   4  -6  -1 718.846 380.221   3
  -4  -6   1 9.73400 384.445   1
  -4  -6   0 62.1522 309.175   1
   4  -6   0 627.981 385.699   3
   4  -6   1 53.9740 271.815   3
  -4  -6  -1-305.772 361.364   1
   4  -6   2 44.5632 295.899   3
  -4  -6  -2-369.790 388.698   1
  -4  -6  -3 1107.21 506.783   1
   4  -6   3 474.396 409.033   3
   4  -6   4 646.127 419.680   3
  -4  -6  -4 967.426 484.291   1
   4  -6   5 320.377 456.775   3
  -4  -6  -5-546.291 434.619   1
   4  -6   6 613.219 509.665   3
  -4  -6  -6-349.815 374.564   1
  -4  -5  13 186.812 332.370   1
  -4  -5  12-91.8485 294.613   1
  -4  -5  11 630.722 428.232   1
   4  -5 -10 599.049 327.473   3
  -4  -5  10 651.683 420.268   1
   4  -5  -9 99.8665 230.009   3
  -4  -5   9 575.545 380.968   1
   4  -5  -8 783.393 333.240   3
  -4  -5   8 643.786 369.346   1
   4  -5  -7 485.087 315.936   3
  -4  -5   7 324.776 307.457   1
   4  -5  -6 538.408 303.267   3
  -4  -5   6 293.638 318.322   1
   4  -5  -5 407.358 256.515   3
  -4  -5   5-366.667 351.080   1
   4  -5  -4 312.512 273.831   3
  -4  -5   4 145.128 306.333   1
   4  -5  -3 343.619 290.677   3
   4  -5  -3 45.3696 205.664   2
  -4  -5   3 402.608 337.871   1
  -4  -5   2-267.256 311.260   1
   4  -5  -2 243.941 256.880   3
   4  -5  -2 560.224 314.355   2
   4  -5  -1 278.144 304.368   3
  -4  -5   1-352.542 330.353   1
   4  -5   0 379.777 374.707   3
  -4  -5   0 475.792 360.558   1
  -4  -5  -1 161.644 361.979   1
   4  -5   1 814.230 392.064   3
   4  -5   2-515.206 366.324   3
  -4  -5  -2-233.622 330.877   1
  -4  -5  -3-269.600 343.237   1
   4  -5   3 448.689 358.319   3
   4  -5   4 123.454 334.375   3
   4  -5   5 1148.03 495.846   3
   4  -5   6 646.244 392.888   3
   4  -5   7 356.811 339.049   3
   4  -5   8 634.001 440.528   3
   4  -5   9 147.191 399.761   3
   4  -5  10 506.629 364.726   3
  -4  -4  16 123.675 290.882   1
  -4  -4  15 605.278 406.495   1
  -4  -4  14 872.069 439.233   1
  -4  -4  13 551.873 431.802   1
  -4  -4  12 339.177 346.437   1
  -4  -4  11 531.083 373.442   1
  -4  -4  10 422.648 333.308   1
   4  -4  -9 1388.32 383.449   3
  -4  -4   9 1661.30 527.040   1
   4  -4  -8 228.513 106.037   1
   4  -4  -8 301.510 243.639   3
  -4  -4   8 313.015 289.837   1
   4  -4  -8-99.2759 115.951   2
  -4  -4   7 187.969 305.298   1
   4  -4  -7 285.676 252.875   3
   4  -4  -7 270.205 142.757   2
  -4  -4   6 550.455 341.128   1
   4  -4  -6 425.932 255.276   3
   4  -4  -6 538.553 186.402   2
   4  -4  -5 2401.15 482.635   3
  -4  -4   5 1443.62 492.484   1
   4  -4  -5 1752.93 323.388   2
   4  -4  -4 660.718 314.128   3
   4  -4  -4 248.830 123.235   5
   4  -4  -4 687.438 258.659   2
   4  -4  -4 409.272 131.277   5
  -4  -4   4 335.013 324.854   1
   4  -4  -3 400.198 245.582   3
   4  -4  -3 451.097 203.845   2
  -4  -4   2 924.328 384.488   1
   4  -4  -2 400.741 243.465   2
   4  -4  -2 577.780 319.200   3
   4  -4  -1 3016.67 568.426   3
   4  -4  -1 3287.33 524.514   2
  -4  -4   1 2905.46 655.311   1
   4  -4   0 496.039 359.069   3
  -4  -4   0 262.632 288.551   1
   4  -4   1 550.566 300.340   3
  -4  -4  -1 560.864 352.640   1
   4  -4   2 340.503 291.309   3
   4  -4   3 644.050 351.109   3
   4  -4   3 163.715 226.874   4
   4  -4   4 351.029 303.202   3
   4  -4   4 512.872 281.875   4
   4  -4   5 400.666 322.522   3
   4  -4   5 630.796 316.360   4
  -4  -4  -6 1482.52 194.257   6
   4  -4   6 2814.02 578.334   3
   4  -4   6 2493.98 515.153   4
   4  -4   7 201.492 257.198   3
  -4  -4  -7 305.470 116.370   6
   4  -4   7 347.458 242.649   4
   4  -4   8 811.491 370.683   3
  -4  -4  -8 358.277 149.218   6
   4  -4   9-41.5225 236.771   3
  -4  -4  -9-39.4612 104.322   6
   4  -4  10 14.9605 291.797   3
   4  -4  11 308.286 313.443   3
   4  -4  12-348.024 323.601   3
   4  -4  13-11.0201 242.488   3
  -4  -3  18 294.842 322.333   1
  -4  -3  17 18.3867 307.782   1
  -4  -3  16 757.220 401.902   1
  -4  -3  15 690.894 435.510   1
  -4  -3  14 1489.81 526.693   1
  -4  -3  13 2139.95 587.916   1
   4  -3 -13 1111.76 372.521   1
  -4  -3  12 407.009 361.224   1
   4  -3 -12 40.0219 177.404   1
  -4  -3  11 1257.07 471.539   1
   4  -3 -11 1701.27 402.585   1
  -4  -3  10 1089.65 453.696   1
   4  -3 -10 1119.99 308.374   1
  -4  -3   9 20548.7 1562.68   1
   4  -3  -9 16983.3 944.760   1
  -4  -3   8 14604.6 1307.51   1
   4  -3  -8 12510.3 723.717   1
   4  -3  -8 13688.3 490.331   2
   4  -3  -7 5576.84 344.605   5
   4  -3  -7 6705.39 341.101   2
  -4  -3   7 7245.27 913.436   1
   4  -3  -7 5351.31 403.687   1
   4  -3  -6 138.334 58.3976   1
  -4  -3   6 42.3672 258.335   1
   4  -3  -6 314.467 220.823   3
   4  -3  -6 142.994 105.139   5
  -4  -3   6 315.098 232.509   2
   4  -3  -6 268.318 98.5707   2
   4  -3  -5 665.093 266.246   3
  -4  -3   5 599.026 348.012   1
  -4  -3   5 960.179 326.620   2
   4  -3  -5 663.282 164.475   5
   4  -3  -5 368.533 128.305   2
   4  -3  -4 1010.86 299.306   3
  -4  -3   4 1008.31 351.004   2
   4  -3  -4 975.505 216.918   2
   4  -3  -4 740.095 193.453   5
  -4  -3   4 612.331 377.793   1
  -4  -3   3-48.8397 333.342   1
   4  -3  -3 71.6807 165.798   3
   4  -3  -3-127.565 136.767   2
  -4  -3   3 107.932 200.143   2
   4  -3  -2 2650.41 386.846   2
  -4  -3   2 2305.18 538.088   1
   4  -3  -2 3381.55 521.599   3
  -4  -3   2 2781.25 475.706   2
   4  -3  -1 1248.69 358.591   3
  -4  -3   1 816.027 390.181   1
  -4  -3   1 1563.07 371.317   2
   4  -3   0 54.8452 200.010   3
  -4  -3   0-48.5969 293.355   1
   4  -3   1 2322.25 458.846   3
   4  -3   2 598.698 294.613   3
   4  -3   2 687.397 276.212   4
  -4  -3  -2 535.221 245.804   4
   4  -3   3 1401.37 380.015   3
   4  -3   3 1543.41 345.098   4
  -4  -3  -3 1416.01 360.109   4
  -4  -3  -4 2046.35 185.512   6
   4  -3   4 3791.53 581.125   3
   4  -3   4 3155.89 489.186   4
  -4  -3  -4 3681.66 534.973   4
   4  -3   5 15235.2 1084.96   3
   4  -3   5 16271.2 1031.80   4
  -4  -3  -5 14237.0 989.838   4
  -4  -3  -5 13620.0 643.958   6
   4  -3   6 27846.5 1456.07   3
  -4  -3  -6 26884.2 1313.21   4
   4  -3   6 28135.6 1339.54   4
  -4  -3  -6 27014.4 1008.92   6
   4  -3   7 6005.01 710.883   3
  -4  -3  -7 4939.83 567.015   4
   4  -3   7 5075.11 587.352   4
  -4  -3  -7 5034.98 486.880   6
   4  -3   8 2666.96 486.632   3
  -4  -3  -8 2271.87 367.175   6
   4  -3   8 3396.63 499.163   4
   4  -3   9 724.603 304.069   3
  -4  -3  -9 190.962 167.330   6
   4  -3   9 330.430 236.596   4
   4  -3  10 302.782 250.463   3
  -4  -3 -10 143.928 172.241   6
   4  -3  11 198.514 207.794   3
  -4  -3 -11 160.454 152.597   6
   4  -3  12 233.035 236.369   3
  -4  -3 -12 520.824 246.249   6
   4  -3  13 135.335 219.132   3
  -4  -3 -13 201.316 184.966   6
  -4  -3 -14-95.5710 152.251   6
  -4  -3 -15 36.2800 159.855   6
  -4  -2  19 470.050 408.372   1
  -4  -2  18 34.0083 262.292   1
  -4  -2  17 188.506 277.444   1
  -4  -2  16 42.7238 278.265   1
  -4  -2  15 2504.20 634.427   1
  -4  -2  14 875.349 400.203   1
  -4  -2  13 112.626 290.166   1
   4  -2 -13 511.514 290.568   1
  -4  -2  12 5925.92 842.076   1
   4  -2 -12 4716.40 678.791   1
  -4  -2  11 7445.23 929.407   1
   4  -2 -11 6882.49 749.326   1
   4  -2 -10 2716.07 382.844   5
  -4  -2  10 3355.65 616.575   1
   4  -2 -10 3273.00 503.990   1
   4  -2  -9 8746.48 635.927   5
  -4  -2   9 7926.18 898.964   1
   4  -2  -9 7601.26 709.497   1
  -4  -2   8 4398.11 574.224   2
   4  -2  -8 4031.14 435.129   5
  -4  -2   8 4105.93 686.970   1
   4  -2  -8 3214.27 432.817   1
   4  -2  -7 1845.86 302.383   1
  -4  -2   7 1771.91 385.100   2
   4  -2  -7 1361.09 275.036   5
  -4  -2   7 2025.10 490.871   1
   4  -2  -6 27.3146 97.9293   1
   4  -2  -6 180.704 241.403   6
  -4  -2   6 99.5399 238.078   1
  -4  -2   6 22.6520 149.692   2
   4  -2  -6 54.7586 108.855   5
  -4  -2   6 330.894 209.849   5
   4  -2  -5 1583.54 432.152   6
  -4  -2   5 826.918 317.014   1
  -4  -2   5 694.263 234.565   2
   4  -2  -5 867.967 217.512   5
   4  -2  -4 2261.34 479.395   6
  -4  -2   4 1739.75 353.495   2
   4  -2  -4 1728.87 299.734   5
  -4  -2   4 1384.27 410.790   1
  -4  -2   3 1204.53 401.458   1
   4  -2  -3 786.514 139.879   2
  -4  -2   3 1321.10 328.130   2
   4  -2  -3 1319.91 273.269   5
  -4  -2   2 5785.86 587.956   2
  -4  -2   2 5731.42 738.930   1
   4  -2  -1 14303.1 878.720   3
  -4  -2   1 14419.8 894.784   2
  -4  -2   1 14463.4 1152.68   1
   4  -2  -1 15026.2 1108.18   6
   4  -2   0 5143.75 541.480   3
  -4  -2   0 5935.65 590.418   2
   4  -2   0 5279.09 671.491   6
   4  -2   1 1798.56 407.727   6
   4  -2   1 1880.90 358.224   3
  -4  -2  -1 1511.68 323.457   2
   4  -2   2 1640.73 394.483   6
   4  -2   2 1493.39 329.621   3
  -4  -2  -2 1314.04 304.431   2
  -4  -2  -2 1228.08 175.524   6
  -4  -2  -3 76.5759 108.735   6
   4  -2   3 230.335 193.908   3
  -4  -2  -3 110.104 121.709   4
   4  -2   3 230.480 219.102   6
  -4  -2  -3 204.918 165.876   2
  -4  -2  -4 2017.52 298.190   6
   4  -2   4 1859.57 444.253   6
   4  -2   4 2350.08 368.798   3
  -4  -2  -4 2977.86 450.157   2
  -4  -2  -4 2449.27 348.989   4
   4  -2   5 9633.34 722.071   3
   4  -2   5 10642.9 637.216   4
  -4  -2  -5 9649.47 637.509   4
  -4  -2  -5 9830.93 670.173   6
  -4  -2  -6 1890.07 341.329   6
   4  -2   6 2391.03 378.117   3
   4  -2   6 2595.03 331.450   4
  -4  -2  -6 2289.24 317.253   4
  -4  -2  -7 2099.23 367.282   6
   4  -2   7 3057.92 418.228   3
   4  -2   7 2506.72 319.506   4
   4  -2   8 3364.33 357.765   4
   4  -2   8 3188.92 419.384   3
  -4  -2  -8 3545.43 489.781   6
  -4  -2  -9 1302.15 158.124   3
  -4  -2  -9 1781.53 372.181   6
   4  -2   9 1786.88 331.775   3
   4  -2   9 1776.25 281.313   4
  -4  -2 -10 820.906 291.528   6
   4  -2  10 862.101 244.195   3
   4  -2  10 625.106 185.046   4
   4  -2  11 448.324 241.068   2
  -4  -2 -11 627.008 283.801   6
   4  -2  11 485.532 220.358   3
   4  -2  12-56.2684 196.369   2
  -4  -2 -12 119.710 212.668   6
   4  -2  12 624.685 230.911   3
   4  -2  13 1027.35 363.655   2
  -4  -2 -13 904.047 361.188   6
   4  -2  13 1117.63 263.681   3
   4  -2  14-8.96596 232.145   2
  -4  -2 -14 572.481 283.061   6
   4  -2  15 92.5046 238.705   2
  -4  -2 -15 135.332 241.014   6
   4  -2  16-110.095 214.805   2
  -4  -2 -16-205.761 259.983   6
   4  -1 -19 1239.55 469.573   6
  -4  -1  19-13.6003 233.552   1
   4  -1 -18-83.5481 227.079   6
  -4  -1  18 296.745 273.723   1
  -4  -1  17 267.437 293.315   1
  -4  -1  16 837.402 405.076   1
  -4  -1  15 7480.43 943.159   1
  -4  -1  14 3497.72 648.517   1
  -4  -1  13 282.982 285.471   1
  -4  -1  12 326.276 263.819   1
   4  -1 -12 600.100 280.308   5
   4  -1 -12 639.456 298.166   1
  -4  -1  11 1137.09 366.540   1
   4  -1 -11 1275.37 330.006   5
   4  -1 -11 1342.21 376.267   1
   4  -1 -10 2888.82 502.629   1
  -4  -1  10 3578.77 600.668   1
   4  -1 -10 2459.82 432.659   5
  -4  -1  10 3678.91 610.108   5
   4  -1  -9 832.205 306.662   1
   4  -1  -9 843.685 293.545   5
  -4  -1   9 1031.90 332.624   5
   4  -1  -8 1376.50 313.990   1
   4  -1  -8 1209.00 314.661   5
  -4  -1   8 1077.01 326.749   5
  -4  -1   8 1158.39 356.838   1
  -4  -1   7 2691.52 382.603   2
   4  -1  -7 2712.25 409.652   5
  -4  -1   7 2738.88 486.620   5
   4  -1  -7 2046.52 376.261   1
  -4  -1   7 2708.42 505.460   1
  -4  -1   6 3329.72 389.063   2
   4  -1  -6 3827.24 460.493   5
  -4  -1   6 3794.73 549.853   5
  -4  -1   6 4369.96 600.919   1
   4  -1  -6 3698.20 454.670   1
  -4  -1   5 4064.09 414.595   2
   4  -1  -5 3700.02 459.506   5
  -4  -1   5 3147.71 491.243   5
  -4  -1   5 3425.75 528.694   1
   4  -1  -5 4233.29 463.502   1
   4  -1  -5 4578.01 651.245   6
  -4  -1   4 4185.12 417.448   2
   4  -1  -4 4469.67 495.031   5
  -4  -1   4 4246.13 574.588   1
   4  -1  -4 4747.90 641.069   6
  -4  -1   3 7838.62 557.915   2
   4  -1  -3 8999.45 723.633   5
  -4  -1   3 9749.75 882.317   1
   4  -1  -3 9171.03 866.388   6
  -4  -1   2 46144.2 1303.47   2
   4  -1  -2 42052.0 761.524   2
   4  -1  -2 45121.5 1521.30   5
  -4  -1   2 46761.3 1824.65   1
   4  -1  -2 46508.5 1758.73   6
  -4  -1   1 63191.3 1528.00   2
   4  -1  -1 63995.4 1051.56   2
  -4  -1   1 61192.2 2099.05   1
   4  -1  -1 64677.0 2029.33   6
  -4  -1   0 59821.0 1499.71   2
   4  -1   0 57838.0 1124.53   2
   4  -1   0 58207.2 1908.56   6
  -4  -1  -1 1476.85 267.444   6
   4  -1   1 1979.80 398.865   6
  -4  -1  -1 2283.05 322.158   2
   4  -1   1 2119.13 256.410   2
  -4  -1  -2 4952.82 475.218   2
   4  -1   2 4932.33 401.848   2
  -4  -1  -2 4755.56 459.862   6
   4  -1   2 4801.06 582.213   6
  -4  -1  -3 2979.52 397.553   2
   4  -1   3 2989.18 340.318   2
  -4  -1  -3 3142.80 412.400   6
   4  -1   3 3317.00 491.885   6
  -4  -1  -4 4611.69 494.801   2
   4  -1   4 4045.72 411.744   2
  -4  -1  -4 3756.07 268.342   4
  -4  -1  -4 4775.23 513.564   6
   4  -1   4 4057.33 566.106   6
   4  -1   5 1379.94 275.589   2
  -4  -1  -5 1453.89 302.985   2
  -4  -1  -5 1424.90 320.194   6
   4  -1   5 1730.39 393.676   6
   4  -1   6 8643.88 836.213   6
  -4  -1  -6 7530.69 445.471   3
   4  -1   6 6582.30 579.623   2
  -4  -1  -6 7704.31 674.538   2
  -4  -1  -6 8644.24 738.201   6
   4  -1   7 662.956 230.305   2
  -4  -1  -7 717.237 270.030   6
  -4  -1  -7 780.209 162.882   3
   4  -1   7 439.482 249.049   6
   4  -1   8 893.505 281.051   2
  -4  -1  -8 746.390 146.122   3
  -4  -1  -8 631.902 280.004   6
   4  -1   9 1218.90 319.015   2
  -4  -1  -9 1271.68 352.579   6
   4  -1  10 1658.14 374.409   2
  -4  -1 -10 1284.54 380.773   6
   4  -1  11 1066.80 343.565   2
  -4  -1 -11 878.132 350.215   6
   4  -1  12 5543.50 704.292   2
  -4  -1 -12 7954.52 928.355   6
   4  -1  13 2386.07 506.966   2
  -4  -1 -13 3319.40 665.021   6
   4  -1  14 1276.74 403.000   2
  -4  -1 -14 1728.23 485.525   6
  -4  -1 -15-429.565 311.552   6
   4  -1  15-92.2744 227.369   2
   4  -1  16 231.153 259.232   2
  -4  -1 -16-106.229 225.135   6
   4  -1  17 74.6688 192.250   2
  -4  -1 -17-132.834 248.612   6
   4   0 -20 532.372 392.618   6
  -4   0  20-701.130 393.438   1
  -4   0  19 284.401 215.275   2
   4   0 -19 214.500 309.506   6
  -4   0  19 270.109 301.448   1
  -4   0  18 20.1745 144.901   2
  -4   0  18 412.645 316.608   1
   4   0 -17 597.014 368.902   6
  -4   0  17 556.885 239.302   2
  -4   0  17 855.332 401.955   1
   4   0 -16 3429.97 664.627   6
  -4   0  16 3147.74 446.886   2
  -4   0  16 3049.93 609.032   1
   4   0 -15-207.206 293.317   6
  -4   0  15 104.302 154.765   2
  -4   0  15-6.00076 191.518   1
   4   0 -14-113.208 232.472   5
  -4   0  14 77.3228 251.147   1
   4   0 -13 87.5631 217.981   5
  -4   0  13 13.0966 210.568   1
  -4   0  12 914.733 353.175   1
   4   0 -12 1608.96 428.891   5
  -4   0  12 784.794 318.229   5
  -4   0  11 530.331 287.423   1
   4   0 -11 1109.47 370.629   1
   4   0 -11 1148.72 369.127   5
  -4   0  11 1171.71 351.038   5
  -4   0  10 412.580 262.620   1
   4   0 -10 480.612 261.485   1
   4   0 -10 57.1597 197.756   5
  -4   0  10-71.0964 179.407   5
  -4   0   9 19446.9 1184.13   1
   4   0  -9 16293.4 1134.90   5
  -4   0   9 18006.1 1141.35   5
   4   0  -9 20237.2 1264.00   1
   4   0  -8 40260.6 1710.80   5
  -4   0   8 39537.3 1613.88   1
  -4   0   8 39996.7 1635.67   5
   4   0  -8 40845.7 1731.40   1
   4   0  -7 2925.84 496.335   1
  -4   0   7 2784.51 273.346   2
   4   0  -7 3222.54 510.979   5
  -4   0   7 3484.70 512.522   1
  -4   0   7 3556.23 517.640   5
  -4   0   6 13399.8 520.381   2
   4   0  -6 14701.0 984.971   5
  -4   0   6 14349.4 942.712   5
  -4   0   6 14329.7 944.989   1
   4   0  -6 15969.2 1011.02   1
  -4   0   5 13019.7 474.579   2
   4   0  -5 13856.2 936.166   5
  -4   0   5 13924.1 911.296   5
  -4   0   5 13824.4 900.904   1
   4   0  -5 13614.9 915.793   1
   4   0  -4 129.048 185.030   6
  -4   0   4-187.056 226.667   1
   4   0  -4 1.78402 192.756   5
  -4   0   4-9.85066 80.2758   2
   4   0  -3 6116.03 404.514   2
   4   0  -3 6613.97 654.601   5
  -4   0   3 7414.10 360.313   2
  -4   0   3 5884.80 603.656   1
   4   0  -3 7457.29 663.419   6
   4   0  -2 4964.98 387.261   2
   4   0  -2 5040.77 582.553   5
  -4   0   2 5363.62 330.630   2
  -4   0   2 4130.36 521.898   1
   4   0  -2 4439.45 495.874   6
   4   0  -1 1252.40 281.487   6
  -4   0   1 1736.91 214.410   2
   4   0  -1 1157.69 314.733   5
   4   0  -1 1177.68 218.327   2
  -4   0   1 921.792 318.610   1
   4   0   0 7488.41 500.390   2
  -4   0   0 8069.10 468.202   2
  -4   0   0 7350.70 644.841   6
   4   0   0 7707.70 622.454   6
   4   0   1 41.2982 167.856   6
  -4   0  -1-18.5341 109.518   2
  -4   0  -1 170.876 149.108   3
  -4   0  -1-99.5757 195.985   6
   4   0   1 61.2951 115.786   2
   4   0   2 10578.5 631.900   2
  -4   0  -2 9712.01 769.521   6
  -4   0  -2 9769.96 597.795   3
   4   0   2 9127.78 694.541   6
  -4   0  -3 5889.55 462.046   3
   4   0   3 5679.65 488.299   2
  -4   0  -3 5561.61 615.081   6
   4   0   3 5680.79 562.394   6
   4   0   4 9119.98 735.836   6
  -4   0  -4 8513.91 555.563   3
   4   0   4 9151.17 636.247   2
  -4   0  -4 9751.14 809.100   6
   4   0   5 8971.36 755.598   6
  -4   0  -5 8164.14 558.667   3
   4   0   5 9125.43 670.641   2
  -4   0  -5 8620.84 798.846   6
   4   0   6 34909.1 1506.13   6
  -4   0  -6 30755.3 1061.79   3
   4   0   6 32884.8 1294.02   2
  -4   0  -6 34254.0 1604.53   6
   4   0   7 1682.67 350.780   2
  -4   0  -7 1018.37 218.405   3
  -4   0  -7 1355.10 371.847   6
   4   0   7 1376.45 354.401   6
   4   0   8 187.276 190.938   2
  -4   0  -8 25.1419 155.879   6
   4   0   8-82.1994 187.603   6
   4   0   9 128.098 170.369   2
  -4   0  -9 459.095 279.682   6
   4   0  10 461.440 253.316   2
  -4   0 -10 368.901 269.607   6
   4   0  11 250.555 219.858   2
  -4   0 -11 797.981 353.276   6
   4   0  12 56.3403 216.352   2
  -4   0 -12 590.067 313.993   6
   4   0  13 3074.20 550.655   2
  -4   0 -13 3351.85 670.754   6
   4   0  14 685.082 329.157   2
  -4   0 -14 1324.10 496.279   6
  -4   0 -15 272.666 288.237   6
   4   0  15-438.033 307.709   2
  -4   0 -16 746.822 378.162   6
   4   0  16 267.996 258.919   2
  -4   0 -17 541.474 374.703   6
   4   0  17-643.904 342.974   2
   4   1 -19 112.861 275.175   6
  -4   1  18 424.467 324.545   1
   4   1 -18 141.437 307.709   6
  -4   1  18-379.423 196.798   2
   4   1 -17 305.118 309.866   6
  -4   1  17 25.1487 139.187   2
   4   1 -16 313.611 352.844   6
  -4   1  16 492.275 352.330   1
  -4   1  16 189.425 164.803   2
   4   1 -15 10650.7 1134.45   6
  -4   1  15 9345.41 1012.96   1
   4   1 -15 7364.38 1062.65   5
  -4   1  15 9282.70 954.537   5
  -4   1  15 6615.22 576.223   2
   4   1 -14 3585.64 668.159   6
   4   1 -14 3001.86 667.358   5
  -4   1  14 3202.98 377.891   2
  -4   1  14 4510.76 647.855   5
  -4   1  14 3697.13 628.519   1
   4   1 -13 349.008 277.970   6
   4   1 -13 105.565 236.130   5
  -4   1  13 757.619 284.780   5
  -4   1  13 578.617 286.833   1
  -4   1  13 425.326 174.698   2
   4   1 -12 682.941 309.024   6
   4   1 -12 772.044 377.317   5
  -4   1  12 360.887 219.840   5
  -4   1  12 184.219 188.551   1
  -4   1  12 125.970 124.002   2
   4   1 -11 1133.34 391.674   5
  -4   1  11 1243.42 314.057   5
  -4   1  11 1211.24 322.111   1
  -4   1  11 1049.07 185.657   2
  -4   1  10 3482.62 492.140   1
  -4   1  10 3609.49 495.838   5
  -4   1  10 2743.71 247.576   2
   4   1 -10 3611.89 631.707   5
  -4   1  10 3393.26 473.298   3
  -4   1   9 1700.87 364.253   3
   4   1  -9 737.260 344.307   5
  -4   1   9 968.960 282.710   5
  -4   1   9 757.345 122.792   2
   4   1  -9 1417.46 423.457   1
  -4   1   9 1241.61 310.539   1
  -4   1   8 1645.77 324.475   1
   4   1  -8 1514.96 404.027   1
  -4   1   8 1472.09 318.845   3
   4   1  -8 1348.58 395.611   5
  -4   1   8 1688.77 328.957   5
  -4   1   7 2843.10 403.133   1
  -4   1   7 2706.31 392.600   5
   4   1  -7 2600.84 504.686   5
   4   1  -7 3108.16 531.871   1
  -4   1   7 2873.82 417.975   3
  -4   1   6 4565.51 461.778   1
   4   1  -6 3859.58 596.593   5
   4   1  -6 4068.47 604.784   1
  -4   1   6 4425.79 497.109   3
  -4   1   5 4464.81 494.088   3
  -4   1   5 3685.98 406.928   1
   4   1  -5 3625.00 553.138   5
   4   1  -5 4211.75 599.276   1
  -4   1   4 4531.46 489.331   3
   4   1  -4 4063.58 570.935   5
  -4   1   4 3941.97 397.315   1
  -4   1   3 10907.1 741.611   3
   4   1  -3 8483.40 836.285   5
  -4   1   3 10047.8 617.589   1
   4   1  -3 8685.82 629.141   6
  -4   1   2 46677.0 1475.94   3
   4   1  -2 45783.1 1477.34   2
   4   1  -2 46496.7 1825.27   5
  -4   1   2 46712.5 1290.25   1
   4   1  -2 44507.3 1237.33   6
   4   1  -1 61775.3 1741.72   2
   4   1  -1 61536.6 2094.59   5
  -4   1   1 61252.4 1504.44   1
  -4   1   1 63421.5 1704.97   3
  -4   1   1 61189.4 2085.04   6
   4   1  -1 60658.8 1402.19   6
  -4   1   0 57192.6 1610.84   3
   4   1   0 58014.4 1718.73   2
   4   1   0 58417.2 2033.46   5
  -4   1   0 53722.2 1403.69   4
  -4   1   0 57890.7 2023.60   6
   4   1   0 58622.8 1373.42   6
  -4   1  -1 1882.94 415.230   6
   4   1   1 1481.16 241.113   6
  -4   1  -1 2117.44 333.800   3
   4   1   1 1869.15 429.445   5
   4   1   1 1754.56 342.142   2
  -4   1  -1 1642.15 257.881   4
  -4   1  -2 5262.08 512.803   3
   4   1   2 4717.33 520.064   2
  -4   1  -2 3911.92 352.043   4
  -4   1  -2 4513.24 606.569   6
   4   1   2 5221.04 437.413   6
   4   1   3 3223.72 362.371   6
  -4   1  -3 3799.83 452.160   3
  -4   1  -3 3142.81 525.477   6
   4   1   3 2941.89 417.502   2
  -4   1  -4 4524.42 496.534   3
   4   1   4 4896.17 460.957   6
   4   1   4 4389.74 510.404   2
  -4   1  -4 4318.09 611.758   6
  -4   1  -5 1656.28 329.130   3
  -4   1  -5 1710.32 418.660   6
   4   1   5 1383.72 273.980   6
   4   1   5 1759.68 344.636   2
   4   1   6 7760.17 635.648   6
  -4   1  -6 7149.01 682.809   1
   4   1   6 7717.24 704.964   2
  -4   1  -6 9624.21 943.171   6
  -4   1  -7 869.484 346.231   6
   4   1   7 739.376 239.757   6
  -4   1  -7 551.958 258.279   1
   4   1   7 792.913 280.680   2
  -4   1  -8 743.888 335.617   6
   4   1   8 1117.81 288.496   6
  -4   1  -8 521.672 244.962   1
   4   1   8 660.421 275.919   2
  -4   1  -9 1419.00 434.589   6
   4   1   9 1473.46 353.495   6
   4   1   9 1322.88 334.614   2
  -4   1 -10 2290.90 556.079   6
   4   1  10 2027.40 418.668   6
   4   1  10 2530.10 471.230   2
  -4   1 -11 1199.34 443.060   6
   4   1  11 1522.68 410.174   2
   4   1  12 7280.69 847.324   2
  -4   1 -12 6817.70 984.005   6
  -4   1 -13 2284.34 649.014   6
   4   1  13 2639.39 535.921   2
  -4   1 -14 1585.68 541.320   6
   4   1  14 1858.08 508.938   2
  -4   1 -15-20.3165 254.212   6
   4   1  15 194.970 239.289   2
  -4   1 -16-651.229 417.874   6
   4   1  16 418.522 301.991   2
  -4   1 -17 420.951 329.460   6
   4   1  17-180.543 331.104   2
   4   2 -19 264.690 388.056   6
   4   2 -18-262.465 382.158   6
   4   2 -17 332.109 343.389   6
   4   2 -16 326.677 301.959   6
  -4   2  16 72.7013 144.434   2
   4   2 -15 2888.15 661.683   6
   4   2 -15 2132.96 629.138   5
  -4   2  15 1242.01 295.727   2
   4   2 -14 1675.36 492.418   6
   4   2 -14 1172.76 489.429   5
  -4   2  14 896.544 234.588   2
   4   2 -13 52.9177 261.777   6
   4   2 -13-157.758 261.557   5
  -4   2  13 77.0238 127.695   5
  -4   2  13 107.170 147.421   2
   4   2 -12 6484.22 811.029   6
  -4   2  12 5270.93 455.563   2
  -4   2  12 5679.84 562.319   5
   4   2 -12 4823.71 846.454   5
   4   2 -11 8508.17 868.433   6
  -4   2  11 7689.08 732.470   1
  -4   2  11 5378.05 415.043   2
   4   2 -11 5516.76 886.611   5
  -4   2  11 7202.15 598.924   5
   4   2 -10 3775.99 552.354   6
  -4   2  10 3409.86 465.069   1
  -4   2  10 2138.01 229.677   2
  -4   2  10 3367.99 400.984   5
   4   2 -10 3808.80 715.755   5
   4   2  -9 8543.58 766.356   6
  -4   2   9 8105.23 640.818   1
   4   2  -9 8595.51 1000.83   5
   4   2  -8 4481.39 527.267   6
  -4   2   8 4660.58 459.281   1
   4   2  -8 3461.69 648.348   5
  -4   2   8 3858.24 531.076   3
  -4   2   7 1690.23 357.208   3
  -4   2   7 1822.02 267.147   1
   4   2  -7 1769.57 319.850   6
   4   2  -7 1732.38 461.207   1
   4   2  -7 1672.64 457.207   5
  -4   2   6 223.501 155.302   3
   4   2  -6 263.187 124.629   6
   4   2  -6 337.553 269.721   1
   4   2  -6 254.524 287.477   5
  -4   2   6 144.263 106.481   1
  -4   2   6 171.630 221.226   4
  -4   2   5 1263.69 309.512   3
   4   2  -5 926.319 200.471   6
   4   2  -5 929.646 357.986   5
  -4   2   5 1030.61 163.311   1
  -4   2   5 1296.26 354.095   4
   4   2  -4 2051.88 247.504   6
  -4   2   4 1886.05 360.692   3
  -4   2   4 1656.58 174.723   1
   4   2  -4 2165.64 489.158   5
  -4   2   4 1345.84 330.268   4
   4   2  -3 1318.63 187.131   6
  -4   2   3 1997.89 369.494   3
  -4   2   3 1471.30 137.954   1
   4   2  -3 1100.59 366.611   5
  -4   2   3 2003.04 395.630   4
  -4   2   2 5848.94 608.275   3
   4   2  -2 5204.31 622.100   2
  -4   2   2 3781.95 197.852   1
   4   2  -2 5451.48 696.316   5
  -4   2   2 5478.42 600.939   4
   4   2  -2 4537.98 270.120   6
  -4   2   1 14936.7 967.267   3
   4   2  -1 15731.4 1066.26   2
   4   2  -1 15447.1 1129.16   5
  -4   2   1 14207.2 1136.97   6
  -4   2   1 13596.0 917.547   4
   4   2  -1 11305.6 324.108   6
  -4   2   0 5428.74 602.893   3
  -4   2   0 4646.05 279.073   1
   4   2   0 5451.99 655.052   2
   4   2   0 5367.02 685.816   5
  -4   2   0 4248.34 302.384   1
  -4   2   0 5262.20 571.593   4
  -4   2   0 4649.39 690.476   6
   4   2   1 1201.49 112.642   6
  -4   2  -1 1126.86 389.425   6
  -4   2  -1 1632.27 349.327   3
  -4   2  -1 1332.20 179.374   1
   4   2   1 1395.23 350.851   2
   4   2   1 1462.82 393.069   5
  -4   2  -1 1369.79 330.333   4
   4   2   2 1334.35 152.391   6
  -4   2  -2 538.843 284.536   6
  -4   2  -2 1649.16 362.060   3
   4   2   2 1452.19 374.837   2
   4   2   2 2136.69 467.068   5
  -4   2  -2 946.430 176.590   1
  -4   2  -2 1159.81 288.292   4
  -4   2  -3 201.978 243.444   6
   4   2   3-75.5396 183.243   2
   4   2   3 253.075 238.188   5
  -4   2  -3 174.894 116.934   1
  -4   2  -3 163.494 197.513   3
  -4   2  -4 1973.64 493.229   6
  -4   2  -4 2068.92 307.940   1
   4   2   4 2069.46 441.967   5
   4   2   4 2523.69 472.266   2
  -4   2  -5 8456.36 632.283   1
   4   2   5 9820.21 882.311   2
  -4   2  -5 9501.84 1007.25   6
  -4   2  -6 1910.86 521.543   6
   4   2   6 1854.96 437.504   2
  -4   2  -6 1444.55 313.792   1
  -4   2  -7 2371.97 575.092   6
   4   2   7 2748.20 505.281   2
  -4   2  -7 2361.47 404.147   1
  -4   2  -8 2508.47 601.262   6
   4   2   8 3291.59 555.682   2
  -4   2  -8 3139.78 484.911   1
  -4   2  -9 1617.81 529.973   6
   4   2   9 1645.62 427.819   2
  -4   2  -9 1423.83 375.216   1
  -4   2 -10 719.604 357.330   6
   4   2  10 1021.12 350.721   2
  -4   2 -11-121.618 261.380   6
   4   2  11 440.840 289.140   2
  -4   2 -12 446.182 353.174   6
   4   2  12 968.577 393.764   2
  -4   2 -13 1138.44 490.799   6
   4   2  13 941.840 398.642   2
  -4   2 -14 373.889 337.970   6
   4   2  14 310.083 283.673   2
  -4   2 -15 175.223 300.840   6
   4   2  15 947.966 404.945   2
  -4   2 -16 288.415 327.890   6
   4   2  16 392.319 353.088   2
   4   3 -18-491.275 388.465   6
  -4   3  18-370.542 418.839   4
   4   3 -17-401.419 369.155   6
  -4   3  17 210.879 390.618   4
   4   3 -16 573.500 406.217   6
  -4   3  16 1153.19 507.445   4
   4   3 -15 238.704 311.190   6
   4   3 -15 558.986 436.798   5
  -4   3  15 1370.01 591.588   4
   4   3 -14 1766.29 499.030   6
   4   3 -14 948.632 485.564   5
  -4   3  14 1229.03 315.648   2
  -4   3  14 2027.91 568.138   4
   4   3 -13 2068.86 524.052   6
   4   3 -13 2216.98 626.680   5
  -4   3  13 1874.79 354.105   2
  -4   3  13 1768.67 538.456   4
   4   3 -12 309.053 259.005   6
   4   3 -12-329.862 428.880   5
  -4   3  12 488.123 205.823   2
  -4   3  12 271.228 302.917   4
   4   3 -11 1500.43 408.841   6
  -4   3  11 1174.26 242.808   2
   4   3 -11 1471.07 522.643   5
  -4   3  11 1683.96 499.505   4
   4   3 -10 1090.36 312.618   6
   4   3 -10 1134.29 488.537   5
  -4   3  10 1347.82 480.142   4
   4   3  -9 21919.0 1170.90   6
   4   3  -9 19192.2 1600.53   5
  -4   3   9 16729.2 1350.57   4
   4   3  -8 14562.7 876.926   6
   4   3  -8 15394.7 1403.31   5
  -4   3   8 14119.0 1211.97   4
   4   3  -7 7208.90 573.608   6
   4   3  -7 7849.83 1013.60   5
  -4   3   7 6973.82 848.359   4
   4   3  -6 378.786 155.812   6
   4   3  -6 279.897 318.758   5
  -4   3   6 587.692 311.744   4
   4   3  -5 606.957 153.392   6
   4   3  -5 383.340 315.546   5
  -4   3   5 445.372 265.780   4
   4   3  -4 1050.42 413.205   5
  -4   3   4 760.542 335.815   4
   4   3  -4 1023.42 141.182   6
   4   3  -3 185.576 297.249   5
  -4   3   3 102.719 228.059   4
   4   3  -2 3194.85 582.483   5
  -4   3   2 2970.38 539.590   4
  -4   3   1 534.499 339.881   6
   4   3  -1 1049.44 384.434   2
   4   3  -1 1389.31 429.493   5
  -4   3   1 1153.94 379.954   4
  -4   3   0 175.374 306.803   6
   4   3   0 36.3125 186.831   2
   4   3   0-417.671 267.080   5
  -4   3   0 148.196 223.414   4
  -4   3  -1 1142.79 442.635   6
   4   3   1 1215.42 395.600   2
   4   3   1 1422.05 404.405   5
  -4   3  -1 1227.67 371.872   4
  -4   3  -2 564.373 365.414   6
   4   3   2 1013.80 349.563   2
   4   3   2 482.186 254.021   5
  -4   3  -2 529.120 135.713   1
  -4   3  -3 1191.90 427.761   6
  -4   3  -3 1558.92 246.716   1
   4   3   3 1465.59 417.836   2
   4   3   3 1116.30 361.821   5
  -4   3  -4 2950.72 642.040   6
  -4   3  -4 3479.59 406.267   1
   4   3   4 2861.50 587.450   2
   4   3   4 2959.59 557.733   5
   4   3   5 14410.7 1233.98   2
  -4   3  -5 14685.2 882.894   1
   4   3   5 13912.2 1153.34   5
  -4   3  -5 15381.9 1387.55   6
  -4   3  -6 27780.0 1882.16   6
  -4   3  -6 25553.4 1247.64   1
   4   3   6 25908.1 1637.47   2
   4   3   6 25238.9 1547.13   5
  -4   3  -7 5502.21 893.692   6
  -4   3  -7 5110.43 607.313   1
   4   3   7 5327.76 798.878   2
   4   3   7 4344.02 677.767   5
  -4   3  -8 2537.23 665.198   6
  -4   3  -8 3018.48 504.714   1
   4   3   8 2091.77 488.431   5
   4   3   8 3224.58 615.362   2
  -4   3  -9 255.618 344.085   6
  -4   3  -9 305.717 207.674   1
   4   3   9-32.3517 191.331   5
   4   3   9 100.412 238.040   2
  -4   3 -10 769.900 424.308   6
   4   3  10 49.7458 256.016   2
  -4   3 -11 272.074 295.572   6
   4   3  11 355.574 364.160   2
  -4   3 -12 325.933 351.703   6
   4   3  12 382.221 320.906   2
  -4   3 -13-132.103 295.818   6
   4   3  13 188.543 286.741   2
  -4   3 -14-372.871 381.125   6
   4   3  14-408.539 329.330   2
  -4   3 -15 718.497 385.886   6
   4   3  15-55.4579 272.336   2
   4   4 -16 29.7196 253.555   6
  -4   4  16 514.998 425.822   4
   4   4 -15 535.956 364.435   6
   4   4 -15 566.693 392.348   5
  -4   4  15 999.148 497.516   4
   4   4 -14-23.1479 212.231   6
   4   4 -14-5.35503 266.248   5
  -4   4  14-99.1228 269.878   4
   4   4 -13 81.5849 213.347   6
   4   4 -13-438.634 405.154   5
  -4   4  13-42.5664 356.151   4
   4   4 -12 731.721 324.520   6
   4   4 -12 77.3280 371.063   5
  -4   4  12 428.535 402.784   4
   4   4 -11 597.722 285.748   6
   4   4 -11-73.8299 341.840   5
  -4   4  11 175.207 342.888   4
   4   4 -10 153.112 182.021   6
   4   4 -10-106.994 374.025   5
  -4   4  10 38.5011 305.745   4
   4   4  -9 1100.82 304.388   6
   4   4  -9 1083.85 468.842   5
  -4   4   9 1416.31 502.213   4
   4   4  -8 28.9060 140.238   6
   4   4  -8 85.3532 295.823   5
  -4   4   8 400.946 348.883   4
   4   4  -7 265.818 186.160   6
   4   4  -7 182.894 332.183   5
  -4   4   7 256.287 312.308   4
   4   4  -6 359.637 157.004   6
   4   4  -6 438.521 350.072   5
  -4   4   6-289.040 301.992   4
   4   4  -5 2622.11 627.132   5
  -4   4   5 1596.00 527.945   4
   4   4  -5 1691.62 208.745   6
   4   4  -4 535.136 340.042   5
  -4   4   4 906.609 413.096   4
   4   4  -3 272.920 321.117   5
  -4   4   3 388.252 329.762   4
   4   4  -2 1130.39 444.870   5
  -4   4   2 1467.26 486.926   4
   4   4  -1 3858.43 698.985   5
  -4   4   1 3090.57 672.517   6
  -4   4   1 3045.97 628.519   4
  -4   4   0 952.938 424.402   6
   4   4   0 813.679 361.577   5
  -4   4  -1-343.775 347.811   6
   4   4   1 595.436 337.613   2
   4   4   1 847.465 384.368   5
  -4   4  -2 456.289 379.617   6
   4   4   2 566.358 340.724   2
   4   4   2 570.398 331.302   5
  -4   4  -3 386.960 328.896   6
  -4   4  -3 330.724 109.504   1
   4   4   3-204.791 279.065   2
   4   4   3 454.090 303.066   5
  -4   4  -4 305.953 320.083   6
  -4   4  -4 477.958 171.608   1
   4   4   4 937.382 437.228   2
   4   4   4 407.783 343.446   5
  -4   4  -5 222.603 332.115   6
  -4   4  -5 214.818 160.698   1
   4   4   5 335.094 323.904   2
   4   4   5 305.201 324.415   5
  -4   4  -6 3490.59 768.168   6
   4   4   6 2280.45 625.117   2
   4   4   6 3093.88 637.379   5
  -4   4  -7 351.102 372.947   6
   4   4   7 705.360 355.222   2
   4   4   7 314.931 263.275   5
  -4   4  -8 198.389 344.880   6
   4   4   8 305.654 391.252   2
   4   4   8 342.064 291.740   5
  -4   4  -9 318.330 402.507   6
   4   4   9-68.2212 271.692   2
   4   4   9 50.7573 228.760   5
  -4   4 -10 71.5425 316.084   6
   4   4  10-707.236 414.783   2
   4   4  10 68.8244 180.236   5
  -4   4 -11-21.9032 192.311   6
   4   4  11 162.782 266.755   2
   4   4  11 61.3279 246.628   5
  -4   4 -12 1058.30 527.997   6
   4   4  12 1393.61 535.413   2
   4   4  12 1054.61 401.657   5
  -4   4 -13 519.598 441.677   6
   4   4  13 159.249 422.607   2
   4   4  13 660.516 341.154   5
   4   5 -13 920.142 572.491   5
  -4   5  13-223.863 355.557   4
   4   5 -12-88.9899 382.709   5
  -4   5  12 40.1671 355.052   4
   4   5 -11 431.385 429.750   5
  -4   5  11 998.433 511.909   4
   4   5 -10 114.645 347.138   5
  -4   5  10 334.796 410.311   4
   4   5  -9 926.005 483.481   5
  -4   5   9 593.417 437.796   4
   4   5  -8 597.892 455.220   5
  -4   5   8 1488.23 559.327   4
   4   5  -7 296.498 392.359   5
  -4   5   7-106.190 337.190   4
   4   5  -6-1.54080 295.459   5
  -4   5   6 743.983 409.094   4
   4   5  -5-365.994 432.358   5
  -4   5   5-750.569 444.293   4
   4   5  -4 192.983 347.179   5
  -4   5   4 83.2891 348.120   4
   4   5  -3 918.738 466.405   5
  -4   5   3 710.751 412.740   4
   4   5  -2 188.719 310.243   5
   4   5  -1 998.942 457.552   5
  -4   5   0 954.800 471.259   6
   4   5   0 1451.67 536.368   5
  -4   5  -1 698.841 477.486   6
   4   5   1 980.935 475.196   5
  -4   5  -2-48.5986 374.097   6
   4   5   2-621.190 376.751   5
  -4   5  -3 448.093 445.707   6
   4   5   3-116.519 309.202   2
   4   5   3 186.577 293.979   5
  -4   5  -4 106.264 337.319   6
   4   5   4 240.357 301.315   2
   4   5   4-95.8804 299.624   5
  -4   5  -5 479.196 428.435   6
   4   5   5 1110.99 481.015   2
   4   5   5 1372.19 499.250   5
  -4   5  -6 385.925 442.816   6
   4   5   6 159.580 369.681   2
   4   5   6-36.6455 293.128   5
  -4   5  -7-241.170 323.471   6
   4   5   7 328.525 379.832   2
   4   5   7 197.887 256.430   5
  -4   5  -8 935.027 525.834   6
   4   5   8 870.196 450.300   2
   4   5   8 277.665 336.882   5
  -4   5  -9-308.361 443.504   6
   4   5   9 93.8494 337.595   2
   4   5   9-77.3591 293.626   5
  -4   5 -10-79.3707 387.043   6
   4   5  10-71.7614 361.618   2
   4   5  10-352.845 294.993   5
   4   6  -9 606.436 508.307   5
  -4   6   9-14.8710 362.573   4
   4   6  -8 359.938 501.936   5
  -4   6   8-76.7336 427.277   4
   4   6  -7 1348.37 579.980   5
  -4   6   7 797.645 516.908   4
   4   6  -6 331.703 471.311   5
  -4   6   6 821.830 530.588   4
   4   6  -5 450.279 459.602   5
  -4   6   5 636.366 487.013   4
   4   6  -4-256.910 405.236   5
   4   6  -3 13.5542 340.106   5
   4   6  -2-576.451 397.567   5
   4   6  -1 190.578 422.958   5
   4   6   0-338.036 387.990   5
   4   6   1-630.241 461.876   5
  -4   6  -1 214.700 395.225   6
   4   6   2-276.621 371.151   5
  -4   6  -2 278.228 441.493   6
  -4   6  -3 60.9703 370.112   6
   4   6   3-359.522 411.305   5
  -4   6  -4 488.652 456.265   6
   4   6   4 669.104 433.232   5
  -4   6  -5 866.471 580.739   6
   4   6   5 362.874 425.750   2
   4   6   5-409.736 331.708   5
  -4   6  -6 798.117 511.011   6
   4   6   6 560.066 442.013   2
  -5  -6   5-484.652 403.298   1
   5  -6  -5-228.500 250.901   3
   5  -6  -4 225.704 271.005   3
  -5  -6   4 401.704 327.143   1
   5  -6  -3 289.986 243.459   3
  -5  -6   3-244.674 293.830   1
   5  -6  -2 758.942 398.667   3
  -5  -6   2 480.942 390.224   1
   5  -6  -1 402.056 370.490   3
  -5  -6   1-251.902 340.789   1
  -5  -6   0-208.839 324.545   1
   5  -6   0 782.592 403.564   3
   5  -6   1 255.661 348.601   3
  -5  -6  -1 26.2360 275.489   1
   5  -6   2-296.870 332.506   3
  -5  -6  -2 898.301 476.080   1
  -5  -5  12-466.365 366.817   1
  -5  -5  11 439.425 379.753   1
  -5  -5  10 952.193 528.179   1
  -5  -5   9 2110.32 637.482   1
   5  -5  -8 116.972 265.778   3
  -5  -5   8-72.8855 261.014   1
  -5  -5   7-874.185 478.269   1
   5  -5  -7 517.697 305.737   3
  -5  -5   6-253.849 362.155   1
   5  -5  -6-380.427 267.330   3
   5  -5  -5-67.7544 205.756   3
  -5  -5   5 519.247 365.263   1
   5  -5  -4 606.003 342.664   3
  -5  -5   4 1027.78 483.395   1
   5  -5  -3 1233.12 429.360   3
  -5  -5   3-322.344 392.592   1
  -5  -5   2 2268.29 685.684   1
   5  -5  -2 2998.14 676.879   3
   5  -5  -1 1854.12 559.464   3
  -5  -5   1 735.570 535.848   1
   5  -5   0 251.378 327.236   3
  -5  -5   0-321.161 378.797   1
  -5  -5  -1 1.67221 366.522   1
   5  -5   1 171.219 348.999   3
   5  -5   2-142.143 283.122   3
  -5  -5  -2 200.198 321.196   1
   5  -5   3 430.026 387.922   3
  -5  -5  -3 382.551 339.415   1
   5  -5   4 542.929 382.868   3
  -5  -5  -4 301.654 329.461   1
   5  -5   5 200.677 313.021   3
   5  -5   6-3.66284 344.720   3
   5  -5   7 281.205 329.389   3
   5  -5   8 44.8351 324.206   3
  -5  -4  15 58.9693 357.133   1
  -5  -4  14-148.221 324.928   1
  -5  -4  13 228.986 311.894   1
  -5  -4  12 675.078 399.662   1
  -5  -4  11-530.070 414.970   1
  -5  -4  10-131.675 377.455   1
  -5  -4   9 1193.91 558.925   1
  -5  -4   8 1138.60 480.077   1
  -5  -4   7 1536.01 587.816   1
   5  -4  -6 671.055 310.898   3
  -5  -4   6 184.911 316.896   1
   5  -4  -6 361.103 115.689   5
   5  -4  -5 305.559 239.398   3
  -5  -4   5 18.6751 278.075   1
   5  -4  -5 71.3279 108.159   5
   5  -4  -4-147.565 247.414   3
   5  -4  -4 141.434 156.285   2
   5  -4  -4-8.16589 90.7734   5
  -5  -4   4 9.32473 307.322   1
  -5  -4   3 191.655 290.268   1
   5  -4  -3 454.196 287.791   3
   5  -4  -3 247.410 207.999   2
   5  -4  -2 386.052 339.220   3
  -5  -4   2 754.076 421.156   1
   5  -4  -2 583.735 270.008   2
   5  -4  -1 636.907 366.029   3
   5  -4  -1 810.354 299.513   2
  -5  -4   1 271.362 343.754   1
   5  -4   0 178.150 270.898   3
  -5  -4   0 474.503 404.833   1
  -5  -4  -1 165.093 380.279   1
   5  -4   1 240.010 283.233   3
   5  -4   2 589.188 334.458   3
  -5  -4  -2 197.326 355.832   1
   5  -4   3 98.0584 304.656   3
   5  -4   4 451.621 354.898   3
   5  -4   5 5166.36 759.727   3
   5  -4   6 1455.28 452.446   3
   5  -4   7 1280.90 422.283   3
   5  -4   8 417.998 299.875   3
   5  -4   9 623.494 302.155   3
   5  -4  10 74.9015 226.007   3
   5  -4  11 52.5641 198.707   3
  -5  -3  17 143.701 361.088   1
  -5  -3  16 985.292 477.612   1
  -5  -3  15 1692.25 573.200   1
  -5  -3  14 397.061 373.263   1
  -5  -3  13 2966.67 751.811   1
  -5  -3  12 831.945 439.270   1
  -5  -3  11 487.335 370.147   1
   5  -3 -10 603.805 198.489   5
   5  -3 -10 1001.92 270.678   1
  -5  -3  10 1088.70 470.462   1
   5  -3  -9 2321.63 345.357   1
   5  -3  -9 2554.01 320.216   5
  -5  -3   9 2683.91 661.857   1
   5  -3  -8 1303.13 230.084   1
   5  -3  -8 1407.80 268.903   5
  -5  -3   7 89.5160 280.887   1
   5  -3  -7 368.092 162.731   5
  -5  -3   6 795.740 386.229   1
   5  -3  -6 914.683 227.229   5
  -5  -3   5-803.887 407.440   1
   5  -3  -5-117.257 122.240   5
   5  -3  -4 470.128 268.465   3
   5  -3  -4 16.2477 156.648   5
   5  -3  -4 102.934 75.5201   2
  -5  -3   4-38.7257 370.393   1
  -5  -3   3-172.514 344.709   1
   5  -3  -3 487.974 300.688   3
   5  -3  -3 90.0913 132.035   2
   5  -3  -3 310.530 179.640   5
   5  -3  -2 2521.08 480.003   3
  -5  -3   2 3153.43 703.407   1
   5  -3  -1 2308.00 476.553   3
  -5  -3   1 2356.98 624.823   1
  -5  -3   0 368.045 439.488   1
   5  -3   0 379.563 245.394   3
   5  -3   1 396.148 261.163   3
  -5  -3  -1-82.9923 411.003   1
   5  -3   2 2303.21 473.689   3
  -5  -3  -2 2071.14 436.059   4
   5  -3   3 3235.91 539.837   3
  -5  -3  -3 2985.48 512.465   4
   5  -3   4 9485.31 879.792   3
  -5  -3  -4 8156.78 783.036   4
  -5  -3  -5 550.717 154.008   6
   5  -3   5 1130.40 364.159   3
  -5  -3  -5 1225.78 316.714   4
  -5  -3  -6 2363.54 336.693   6
   5  -3   6 2896.50 503.112   3
  -5  -3  -6 3099.20 452.395   4
  -5  -3  -7-44.2023 96.2229   6
   5  -3   7 127.788 211.428   3
  -5  -3  -8 627.735 239.294   6
   5  -3   8 1164.24 353.398   3
  -5  -3  -9 266.571 190.464   6
   5  -3   9 401.433 285.967   3
  -5  -3 -10 281.306 158.787   6
   5  -3  10 588.773 286.062   3
  -5  -3 -11 260.660 201.546   6
   5  -3  11 222.786 245.878   3
   5  -3  12-138.763 231.931   2
   5  -3  12-263.026 209.671   3
   5  -3  13-723.278 352.843   2
  -5  -2  18 712.042 436.434   1
  -5  -2  17 19.3302 270.132   1
  -5  -2  16 1061.96 472.053   1
  -5  -2  15 6237.91 996.144   1
  -5  -2  14 1710.31 614.838   1
   5  -2 -13 696.682 392.395   1
  -5  -2  13 416.263 353.559   1
   5  -2 -12 101.974 228.576   1
  -5  -2  12 47.6974 332.098   1
   5  -2 -12 91.7348 183.517   5
   5  -2 -11 463.250 289.365   1
   5  -2 -11 319.909 222.365   5
  -5  -2  11 476.887 259.256   2
  -5  -2  11 521.550 376.738   1
   5  -2 -10 1191.55 325.877   5
  -5  -2  10 1398.22 387.393   2
  -5  -2  10 1251.04 452.757   1
   5  -2 -10 1406.40 392.673   1
  -5  -2   9 10226.4 890.453   2
   5  -2  -9 9519.02 767.855   5
  -5  -2   9 9400.12 1058.86   1
   5  -2  -9 8992.87 782.803   1
   5  -2  -8 3235.34 451.038   1
   5  -2  -8 2989.30 454.382   5
  -5  -2   8 3378.86 512.486   2
  -5  -2   8 3202.84 653.525   1
  -5  -2   7 559.950 334.327   1
   5  -2  -7 285.982 201.118   5
  -5  -2   7 415.369 222.632   2
   5  -2  -7 185.764 162.966   1
  -5  -2   6 200.660 332.281   1
   5  -2  -6-20.2866 146.944   5
  -5  -2   6-52.6343 150.477   2
  -5  -2   5 223.856 301.651   1
   5  -2  -5 454.147 221.503   5
  -5  -2   5 464.233 243.736   2
   5  -2  -4 84.0252 171.868   5
  -5  -2   4 426.683 201.777   2
   5  -2  -3 224.145 80.6826   2
  -5  -2   3 1171.95 577.710   1
   5  -2  -3 753.269 293.949   5
  -5  -2   3 1037.39 320.276   2
   5  -2  -3 514.515 84.7585   2
  -5  -2   2 17052.4 1015.33   2
   5  -2  -2 14790.6 506.290   2
  -5  -2   2 15083.1 1304.60   1
  -5  -2   1 32319.9 1381.15   2
   5  -2  -1 27900.6 798.004   2
  -5  -2   1 30897.3 1838.73   1
  -5  -2   0 4486.74 544.813   2
   5  -2   0 4341.67 358.906   2
  -5  -2   0 3965.01 730.363   1
  -5  -2  -1 5787.59 604.471   2
   5  -2   1 5060.65 429.729   2
   5  -2   2 461.000 173.134   2
  -5  -2  -2 474.582 240.691   2
   5  -2   3 301.335 176.759   2
   5  -2   3 734.333 268.421   3
  -5  -2  -3 445.998 183.636   6
  -5  -2  -3 431.829 184.755   4
   5  -2   4 4902.66 551.951   3
   5  -2   4 3982.31 458.099   2
  -5  -2  -4 5882.97 525.086   4
  -5  -2  -4 5885.28 542.531   6
   5  -2   5 8528.72 703.501   3
   5  -2   5 8247.68 681.042   2
  -5  -2  -5 7177.08 533.512   4
  -5  -2  -5 8537.93 705.009   6
   5  -2   6 7555.27 657.715   3
   5  -2   6 7275.48 657.836   2
  -5  -2  -6 7637.73 497.756   4
  -5  -2  -6 9015.73 771.847   6
   5  -2   7 573.148 272.674   2
  -5  -2  -7 538.226 248.427   6
   5  -2   7 423.764 214.851   3
   5  -2   8 488.625 236.186   2
  -5  -2  -8 94.5971 173.253   6
  -5  -2  -8 457.982 144.097   3
   5  -2   8 266.646 178.532   3
   5  -2   9 251.275 205.774   2
  -5  -2  -9-120.710 173.606   6
   5  -2   9 115.034 150.706   3
   5  -2  10 21.3830 215.926   2
  -5  -2 -10-208.128 222.108   6
   5  -2  11 1237.93 395.080   2
  -5  -2 -11 875.783 336.278   6
   5  -2  12 967.347 366.605   2
  -5  -2 -12 1348.76 391.143   6
   5  -2  13 2021.61 496.891   2
  -5  -2 -13 2652.79 567.296   6
   5  -2  14 458.940 326.324   2
  -5  -2 -14 753.688 347.112   6
   5  -1 -19-300.182 371.408   6
  -5  -1  19 443.280 350.831   1
  -5  -1  18 57.3603 243.024   1
  -5  -1  17 104.919 282.586   1
  -5  -1  16 85.7403 297.799   1
  -5  -1  15 721.771 395.586   1
  -5  -1  14 301.691 339.910   1
   5  -1 -14 463.437 281.676   5
  -5  -1  13 39.1500 216.007   1
   5  -1 -13-89.5408 179.951   5
  -5  -1  12-375.601 310.793   1
   5  -1 -12-281.742 264.729   1
   5  -1 -12 567.749 260.909   5
  -5  -1  11 1407.56 460.899   1
   5  -1 -11 974.004 333.786   5
   5  -1 -11 807.923 342.826   1
  -5  -1  10 2124.77 535.083   1
   5  -1 -10 1730.57 411.441   5
  -5  -1  10 1599.90 336.729   2
   5  -1 -10 2034.55 462.933   1
  -5  -1   9 7227.04 611.828   2
   5  -1  -9 6868.05 741.046   5
  -5  -1   9 7644.74 876.478   1
   5  -1  -9 5513.37 684.853   1
   5  -1  -8 1407.98 360.167   1
   5  -1  -8 946.790 316.670   5
  -5  -1   8 1089.56 248.253   2
  -5  -1   8 1310.59 424.171   1
   5  -1  -7 1558.00 463.035   6
   5  -1  -7 1536.69 373.692   1
   5  -1  -7 1115.11 329.823   5
  -5  -1   7 1086.32 265.712   2
  -5  -1   7 1273.96 412.204   1
   5  -1  -6 1659.15 465.114   6
  -5  -1   6 1740.75 444.774   1
   5  -1  -6 1637.45 357.183   5
  -5  -1   6 1398.47 268.507   2
  -5  -1   6 2014.80 451.939   5
  -5  -1   5-3.27488 201.961   1
   5  -1  -5-5.31566 180.041   5
  -5  -1   5 542.390 272.670   5
  -5  -1   5 217.261 163.019   2
   5  -1  -5 341.932 307.322   6
   5  -1  -4 138.633 237.762   6
   5  -1  -4 435.812 234.979   5
  -5  -1   4 488.175 182.107   2
  -5  -1   4 21.6707 258.716   1
   5  -1  -3 2641.06 503.282   6
  -5  -1   3 1475.20 437.152   1
   5  -1  -3 1493.58 157.044   2
  -5  -1   3 2970.02 382.780   2
   5  -1  -3 1948.60 407.241   5
   5  -1  -2 2601.02 254.779   2
  -5  -1   2 3399.26 386.993   2
   5  -1  -2 2927.66 474.298   5
   5  -1  -2 2856.63 518.290   6
  -5  -1   2 1830.10 454.691   1
   5  -1  -1 8601.74 476.905   2
  -5  -1   1 9042.74 623.403   2
  -5  -1   1 8136.56 890.416   1
   5  -1  -1 8723.26 846.472   6
   5  -1   0 911.318 347.388   6
   5  -1   0 1315.85 214.398   2
  -5  -1   0 1420.35 281.373   2
   5  -1   1 2236.68 439.475   6
   5  -1   1 2424.30 300.693   2
  -5  -1  -1 2716.23 387.533   2
  -5  -1  -1 2640.87 407.017   6
  -5  -1  -2 422.956 203.499   2
  -5  -1  -2 438.379 222.513   6
   5  -1   2 46.1302 181.325   6
   5  -1   2 325.842 166.634   2
   5  -1   3 1917.96 314.095   2
  -5  -1  -3 1915.74 378.169   6
  -5  -1  -3 1725.19 334.706   2
   5  -1   3 1914.17 439.330   6
   5  -1   4 621.179 216.501   2
  -5  -1  -4 896.339 276.427   6
  -5  -1  -4 897.652 283.362   2
   5  -1   4 932.192 341.247   6
  -5  -1  -4 279.812 85.1514   4
   5  -1   5 959.628 278.934   2
  -5  -1  -5 814.776 288.064   6
  -5  -1  -5 1316.50 265.102   3
  -5  -1  -6 3833.45 389.606   3
   5  -1   6 4368.01 515.163   2
  -5  -1  -6 5163.31 658.226   6
   5  -1   7 480.653 230.390   2
  -5  -1  -7 706.146 298.033   6
  -5  -1  -7 414.088 175.179   3
  -5  -1  -8 278.978 212.616   6
  -5  -1  -8 36.2587 66.2888   3
   5  -1   8-12.0415 180.927   2
   5  -1   9-47.2645 168.172   2
  -5  -1  -9 132.279 109.360   3
   5  -1  10 76.0954 194.429   2
  -5  -1 -10 510.007 286.790   6
   5  -1  11 606.837 297.851   2
  -5  -1 -11 384.733 286.018   6
   5  -1  12 234.202 225.202   2
  -5  -1 -12 11.2174 187.767   6
   5  -1  13-56.1980 215.447   2
  -5  -1 -13 804.277 389.294   6
   5  -1  14 616.904 341.246   2
  -5  -1 -14 700.235 343.717   6
   5  -1  15 4.22360 194.694   2
  -5  -1 -15 575.773 353.586   6
   5   0 -19-887.407 448.152   6
  -5   0  19 513.135 367.525   1
   5   0 -18-746.617 421.104   6
  -5   0  18-506.586 368.483   1
   5   0 -17-161.904 277.010   6
  -5   0  17-151.184 273.591   1
  -5   0  16 859.737 228.817   2
  -5   0  16 872.582 378.024   1
  -5   0  15 175.511 159.784   2
   5   0 -15 356.022 284.275   5
  -5   0  15 36.1202 231.423   1
  -5   0  14 1.46548 133.678   2
   5   0 -14-442.895 303.416   5
  -5   0  14-64.8507 241.060   1
  -5   0  13 1100.58 392.809   1
   5   0 -13 980.918 407.130   5
  -5   0  12 1119.58 390.279   1
   5   0 -12 700.806 363.082   5
  -5   0  11 2858.05 566.802   1
   5   0 -11 3279.36 592.148   5
   5   0 -10 1939.05 499.506   1
  -5   0  10 2566.83 524.309   1
   5   0 -10 2022.86 487.477   5
  -5   0  10 1851.01 258.514   2
  -5   0  10 2475.89 489.550   5
   5   0  -9 695.844 330.961   1
  -5   0   9 1028.81 358.765   1
   5   0  -9 1077.46 364.281   5
  -5   0   9 771.333 167.857   2
  -5   0   9 425.628 282.958   5
  -5   0   8 612.136 296.113   1
   5   0  -8 307.214 240.035   5
  -5   0   8 414.101 122.161   2
  -5   0   8 511.458 265.644   5
   5   0  -8 252.122 242.119   1
   5   0  -7-162.836 193.224   5
   5   0  -7 141.097 207.210   1
  -5   0   7-51.8472 191.528   1
  -5   0   7 173.954 258.683   5
  -5   0   7-93.6681 89.8288   2
   5   0  -6 899.769 366.347   6
   5   0  -6 538.212 281.948   5
  -5   0   6 825.122 294.474   5
  -5   0   6 847.517 140.149   2
  -5   0   6 744.050 309.291   1
   5   0  -5-101.219 200.462   6
  -5   0   5 56.3429 188.945   1
   5   0  -5 112.880 204.213   5
  -5   0   5 208.225 91.2737   2
   5   0  -4 70.9489 188.232   6
  -5   0   4 589.365 319.558   1
   5   0  -4 230.881 232.556   5
   5   0  -3 85.3604 202.865   6
   5   0  -3 274.094 155.187   2
   5   0  -3 371.612 275.375   5
  -5   0   3 50.3183 270.135   1
   5   0  -2 2138.33 393.600   6
   5   0  -2 2203.12 316.297   2
  -5   0   2 2879.67 295.022   2
   5   0  -2 2495.66 494.806   5
  -5   0   2 1460.37 385.229   1
  -5   0   1 13600.4 875.146   3
   5   0  -1 13220.0 743.466   2
   5   0  -1 13547.3 1048.88   5
  -5   0   1 13653.6 643.129   2
  -5   0   1 10978.3 927.897   1
   5   0  -1 13078.5 898.285   6
  -5   0   0 19218.8 1013.32   3
   5   0   0 18063.1 1051.59   6
   5   0   0 17699.0 872.485   2
   5   0   0 17875.2 1185.19   5
  -5   0   0 19512.6 1170.38   6
  -5   0  -1 414.051 273.198   6
   5   0   1 420.749 225.523   6
  -5   0  -1 1139.73 272.966   3
   5   0   1 671.972 208.380   2
  -5   0  -2 3590.15 430.290   3
   5   0   2 3393.24 427.173   2
  -5   0  -2 3691.26 545.212   6
   5   0   2 4139.96 526.437   6
  -5   0  -3 2315.74 461.583   6
   5   0   3 2225.53 408.390   6
  -5   0  -3 2415.50 353.202   3
   5   0   3 1989.78 341.364   2
  -5   0  -4 431.829 233.851   6
  -5   0  -4 209.947 176.342   3
   5   0   4 45.3227 159.384   6
   5   0   4 239.325 183.579   2
  -5   0  -5 1600.43 409.614   6
  -5   0  -5 1416.99 286.729   3
   5   0   5 1723.16 402.683   6
   5   0   5 1800.01 338.364   2
  -5   0  -6 221.478 228.791   6
  -5   0  -6 436.339 201.959   3
   5   0   6 669.349 284.860   6
   5   0   6 838.799 282.259   2
  -5   0  -7 252.939 177.039   3
  -5   0  -7 632.150 297.401   6
   5   0   7 496.749 251.711   2
  -5   0  -8 1482.09 440.970   6
   5   0   8 1078.32 303.525   2
  -5   0  -8 1037.29 243.853   3
  -5   0  -9 535.978 302.152   6
   5   0   9 213.290 221.476   2
  -5   0 -10-229.567 248.242   6
   5   0  10 59.0668 248.658   2
  -5   0 -11 1310.40 467.017   6
   5   0  11 871.741 304.112   2
  -5   0 -12-313.543 283.074   6
   5   0  12-239.303 262.562   2
  -5   0 -13 182.818 265.788   6
   5   0  13-416.214 296.757   2
  -5   0 -14 64.3139 226.274   6
   5   0  14-190.536 260.044   2
  -5   0 -15 490.159 356.157   6
   5   0  15 397.910 299.813   2
   5   1 -19 821.791 437.358   6
  -5   1  19-536.443 371.547   1
   5   1 -18 338.531 343.640   6
  -5   1  18-302.372 313.964   1
   5   1 -17-29.7890 197.695   6
  -5   1  17 282.920 297.612   1
   5   1 -16-7.22885 240.975   6
   5   1 -16 349.544 287.684   5
  -5   1  16 182.048 291.758   1
   5   1 -15-81.7341 253.086   6
   5   1 -15 442.051 331.406   5
  -5   1  15 111.212 273.616   1
   5   1 -14-302.203 316.956   6
   5   1 -14 184.166 288.997   5
  -5   1  14-136.511 259.889   1
  -5   1  14 87.0552 110.140   2
   5   1 -13 590.578 313.419   6
   5   1 -13 442.180 300.169   5
  -5   1  13 270.242 220.263   5
  -5   1  13 166.033 256.335   1
  -5   1  13 146.966 103.932   2
   5   1 -12 26.2724 228.804   5
  -5   1  12 541.591 237.255   5
  -5   1  12-72.4017 66.4165   2
  -5   1  12 90.8688 219.132   1
   5   1 -11 998.598 380.025   5
  -5   1  11 868.656 321.730   5
  -5   1  11 995.784 319.197   1
  -5   1  10 2468.93 464.814   1
   5   1 -10 2147.92 527.073   5
  -5   1  10 1658.06 387.879   5
  -5   1   9 7995.66 749.561   1
   5   1  -9 6791.06 871.180   5
  -5   1   9 6861.50 706.512   5
  -5   1   8 987.297 305.874   1
   5   1  -8 1276.13 422.817   5
  -5   1   7 1169.07 296.349   1
   5   1  -7 1120.51 385.482   1
   5   1  -7 906.209 345.935   5
  -5   1   6 2129.19 361.567   1
   5   1  -6 1717.16 447.544   5
   5   1  -5 369.472 223.451   6
   5   1  -5 161.533 180.555   5
  -5   1   5 86.2810 151.612   1
   5   1  -4 358.465 216.703   6
  -5   1   4 516.026 252.473   3
   5   1  -4 364.842 237.164   5
  -5   1   4 222.795 178.728   1
  -5   1   3 3449.19 490.277   3
   5   1  -3 2254.60 357.125   6
   5   1  -3 2588.03 409.206   2
  -5   1   3 3146.09 424.642   1
   5   1  -3 2854.87 555.699   5
  -5   1   2 3328.75 477.573   3
   5   1  -2 2700.73 418.029   2
   5   1  -2 3175.38 582.616   5
  -5   1   2 2188.02 368.070   1
   5   1  -2 2552.26 354.339   6
  -5   1   1 9257.36 754.769   3
   5   1  -1 8855.42 739.148   2
   5   1  -1 8637.45 915.158   5
  -5   1   1 8296.95 667.410   1
  -5   1   1 7587.53 611.718   4
  -5   1   1 8332.08 882.255   6
   5   1  -1 8349.64 616.249   6
  -5   1   0 1355.99 417.961   6
   5   1   0 678.038 210.869   6
  -5   1   0 1203.43 311.702   3
   5   1   0 1404.72 330.265   2
   5   1   0 1097.74 391.704   5
  -5   1   0 1213.25 258.509   4
  -5   1  -1 1562.93 420.488   6
   5   1   1 2310.21 338.868   6
  -5   1  -1 1663.27 342.961   3
   5   1   1 2700.36 445.802   2
   5   1   1 2645.47 537.535   5
  -5   1  -1 1916.48 298.560   4
  -5   1  -2 259.012 228.300   6
  -5   1  -2 444.469 224.120   3
   5   1   2 458.467 188.888   6
   5   1   2 460.952 324.416   5
   5   1   2 468.321 239.132   2
  -5   1  -2 312.967 154.878   4
  -5   1  -3 2281.17 519.422   6
  -5   1  -3 2009.98 374.151   3
   5   1   3 2297.49 368.696   6
   5   1   3 1983.84 375.260   2
  -5   1  -4 457.831 339.408   6
  -5   1  -4 717.423 259.318   3
   5   1   4 935.952 265.769   6
   5   1   4 851.629 285.610   2
  -5   1  -5 633.570 259.831   3
  -5   1  -5 607.171 372.931   6
   5   1   5 719.834 232.770   6
   5   1   5 1022.45 325.200   2
  -5   1  -6 4597.37 565.679   3
   5   1   6 4161.16 516.336   6
   5   1   6 4545.88 602.540   2
  -5   1  -6 4670.19 753.514   6
  -5   1  -7 835.317 380.187   6
  -5   1  -7 929.508 295.907   1
   5   1   7 337.195 210.909   6
   5   1   7 618.850 271.583   2
  -5   1  -8-187.836 219.865   6
   5   1   8-81.9348 144.175   6
   5   1   8 75.8110 202.285   2
  -5   1  -9 72.3862 245.073   6
   5   1   9 511.757 286.797   2
  -5   1 -10-81.9214 255.857   6
   5   1  10 323.997 263.691   2
  -5   1 -11 821.489 424.966   6
   5   1  11-62.3814 220.152   2
  -5   1 -12 208.184 321.989   6
   5   1  12 272.807 251.825   2
  -5   1 -13 330.504 322.546   6
   5   1  13 457.213 250.851   2
  -5   1 -14-164.962 235.530   6
   5   1  14 139.936 265.611   2
  -5   1 -15 10.5268 324.100   6
   5   1  15-30.9227 188.616   2
   5   2 -18 408.503 377.003   6
   5   2 -17 534.236 402.137   6
   5   2 -17 3.47136 227.409   5
   5   2 -16 710.672 386.189   6
   5   2 -16 228.724 378.771   5
   5   2 -15 6493.29 941.262   6
   5   2 -15 6065.97 1047.58   5
  -5   2  14 1034.07 394.489   1
   5   2 -14 1060.76 460.006   6
   5   2 -14 1606.40 592.298   5
   5   2 -13 712.131 370.897   6
   5   2 -13 1377.07 514.172   5
  -5   2  13 1002.81 342.564   1
   5   2 -12 27.4298 215.335   6
   5   2 -12 339.289 310.510   5
  -5   2  12 245.390 199.383   1
   5   2 -11 628.435 303.054   6
   5   2 -11 404.627 348.437   5
  -5   2  11 650.876 268.353   1
   5   2 -10 1934.49 429.378   6
   5   2 -10 1215.21 480.024   5
  -5   2  10 2143.31 374.702   1
   5   2  -9 10646.9 869.585   6
  -5   2   9 10505.0 745.146   1
   5   2  -9 9043.18 1081.56   5
  -5   2   8 3226.64 405.568   1
   5   2  -8 2999.29 453.139   6
   5   2  -8 2903.66 622.537   5
   5   2  -7 596.952 204.069   6
   5   2  -7 724.043 363.403   5
  -5   2   7 659.505 204.627   1
   5   2  -6 356.555 302.680   5
  -5   2   6 272.919 268.722   4
  -5   2   6 121.554 119.493   1
   5   2  -5 662.567 216.837   6
   5   2  -5 558.989 374.059   5
  -5   2   5 1109.54 359.644   4
  -5   2   5 750.961 205.856   1
   5   2  -4 120.877 123.094   6
  -5   2   4 299.002 125.760   1
   5   2  -4 340.818 313.228   5
  -5   2   4 572.348 277.690   4
   5   2  -3 747.895 172.684   6
  -5   2   3 1872.51 278.204   1
   5   2  -3 1093.87 482.959   5
   5   2  -2 15881.1 1124.37   2
   5   2  -2 17306.6 1353.09   5
  -5   2   2 13579.8 599.285   1
  -5   2   2 15879.0 1052.07   4
   5   2  -2 15343.7 627.281   6
   5   2  -1 33050.8 1624.22   2
   5   2  -1 31447.3 1784.78   5
  -5   2   1 27581.1 887.275   1
  -5   2   1 28437.6 1371.01   4
  -5   2   1 32507.7 1861.89   6
   5   2  -1 30166.2 799.014   6
   5   2   0 4436.23 303.473   6
  -5   2   0 4167.47 714.829   6
   5   2   0 5392.12 690.575   2
   5   2   0 5513.65 769.422   5
  -5   2   0 3688.37 370.853   1
  -5   2   0 4187.68 551.122   4
   5   2   1 5807.84 348.227   6
   5   2   1 6583.10 772.537   2
   5   2   1 6095.13 809.959   5
  -5   2  -1 5729.35 617.264   4
  -5   2  -1 5360.09 787.870   6
  -5   2  -2 701.084 391.181   6
  -5   2  -2 513.227 277.036   3
  -5   2  -2 547.504 166.221   1
   5   2   2 341.814 108.191   6
   5   2   2 464.924 268.669   2
   5   2   2 534.297 332.200   5
  -5   2  -2 525.483 226.167   4
  -5   2  -3 404.391 354.881   6
  -5   2  -3 1105.95 365.432   3
   5   2   3 458.100 149.918   6
  -5   2  -3 500.665 179.940   1
   5   2   3 703.740 301.423   2
   5   2   3 728.576 340.440   5
   5   2   4 4909.40 416.737   6
  -5   2  -4 4247.54 460.527   1
   5   2   4 5952.20 763.769   2
   5   2   4 5189.87 756.348   5
  -5   2  -4 5755.31 844.556   6
  -5   2  -4 5632.77 715.205   3
   5   2   5 7605.47 560.931   6
  -5   2  -5 7165.05 629.731   1
   5   2   5 8797.25 912.844   2
   5   2   5 8866.87 989.406   5
  -5   2  -5 9037.34 1073.08   6
  -5   2  -6 6427.70 634.861   1
   5   2   6 7681.52 875.544   2
  -5   2  -6 8627.58 1064.93   6
  -5   2  -7 674.186 387.198   6
   5   2   7 263.609 217.851   2
  -5   2  -7 272.025 170.768   1
  -5   2  -8 118.453 273.582   6
   5   2   8-33.2342 205.879   2
  -5   2  -8 412.976 227.020   1
  -5   2  -9-785.844 394.209   6
   5   2   9-166.487 226.113   2
  -5   2 -10-227.570 311.772   6
   5   2  10 332.919 274.870   2
  -5   2 -11 801.507 513.628   6
   5   2  11 1283.84 431.715   2
  -5   2 -12 1339.50 534.924   6
   5   2  12 2349.25 579.737   2
  -5   2 -13 3527.98 855.231   6
   5   2  13 2305.72 571.794   2
  -5   2 -14 1148.78 526.020   6
   5   2  14-208.959 245.408   2
   5   3 -17 358.732 371.740   6
   5   3 -17 56.3262 391.135   5
  -5   3  17 1235.70 555.022   4
   5   3 -16 1452.92 510.707   6
   5   3 -16 746.163 454.379   5
  -5   3  16 1061.87 531.425   4
   5   3 -15 1397.96 493.352   6
   5   3 -15 960.950 512.994   5
  -5   3  15 1859.79 582.337   4
   5   3 -14 828.050 378.033   6
   5   3 -14 625.087 402.792   5
  -5   3  14 32.2754 294.319   4
   5   3 -13 4073.13 674.328   6
   5   3 -13 4889.21 934.885   5
  -5   3  13 2582.79 690.346   4
   5   3 -12 1567.44 424.810   6
   5   3 -12 1362.18 580.978   5
  -5   3  12 362.921 310.212   4
   5   3 -11 267.996 186.050   6
   5   3 -11 509.003 396.553   5
  -5   3  11 241.862 350.035   4
   5   3 -10 750.953 266.766   6
   5   3 -10 1062.59 483.258   5
  -5   3  10 784.321 403.677   4
   5   3  -9 3864.46 511.496   6
   5   3  -9 3579.34 771.306   5
  -5   3   9 1799.63 561.594   4
   5   3  -8 3060.75 407.138   6
   5   3  -8 1765.05 587.677   5
  -5   3   8 3123.49 653.994   4
   5   3  -7 346.341 154.806   6
   5   3  -7 446.389 424.545   5
  -5   3   7 461.104 340.078   4
   5   3  -6 1070.94 203.248   6
   5   3  -6 1369.70 509.190   5
  -5   3   6 707.091 353.357   4
   5   3  -5-56.0483 56.7952   6
   5   3  -5 138.367 75.3826   6
   5   3  -5-117.583 321.330   5
  -5   3   5 186.453 299.875   4
   5   3  -4-520.403 373.189   5
  -5   3   4 414.568 291.669   4
   5   3  -3 679.982 363.671   5
  -5   3   3 641.236 345.348   4
   5   3  -2 3060.12 652.550   5
  -5   3   2 1833.16 473.275   4
  -5   3   1 2742.54 635.480   6
   5   3  -1 2946.68 589.909   2
   5   3  -1 2591.31 609.197   5
  -5   3   1 2338.79 493.716   4
  -5   3   0 176.644 313.998   6
   5   3   0 924.362 413.367   2
   5   3   0 836.998 366.607   5
  -5   3   0 814.246 357.260   4
  -5   3  -1 552.353 375.147   6
   5   3   1 120.993 256.703   2
   5   3   1-29.0891 286.918   5
  -5   3  -1 391.327 282.740   4
  -5   3  -2 1055.43 477.022   6
  -5   3  -2 1623.13 215.681   1
   5   3   2 1889.39 524.111   2
   5   3   2 1501.64 466.726   5
  -5   3  -3 3098.71 703.389   6
  -5   3  -3 3057.72 343.026   1
   5   3   3 3471.23 668.542   2
   5   3   3 2928.03 626.421   5
  -5   3  -4 8162.43 612.593   1
   5   3   4 9522.38 1069.80   2
   5   3   4 8894.52 1017.63   5
  -5   3  -4 9058.67 1141.30   6
  -5   3  -5 643.688 405.024   6
  -5   3  -5 926.525 247.502   1
   5   3   5 1176.58 443.029   2
   5   3   5 1077.02 467.948   5
  -5   3  -6 3279.64 747.999   6
  -5   3  -6 2813.52 428.726   1
   5   3   6 2517.29 598.624   2
   5   3   6 3313.55 681.357   5
  -5   3  -7 347.147 331.932   6
  -5   3  -7-44.4533 159.832   1
   5   3   7-289.372 241.058   2
   5   3   7 53.7022 272.930   5
  -5   3  -8 170.976 293.914   6
   5   3   8 678.233 372.045   2
  -5   3  -9-76.8105 249.054   6
   5   3   9 566.510 358.514   2
   5   3   9 274.033 264.794   5
  -5   3 -10 678.329 463.706   6
   5   3  10 411.359 344.684   5
   5   3  10 638.395 366.589   2
  -5   3 -11-354.418 401.231   6
   5   3  11-85.7782 203.970   2
  -5   3 -12-479.003 402.469   6
   5   3  12-479.011 300.823   2
  -5   3 -13 636.947 409.206   6
   5   3  13-186.928 257.887   2
   5   4 -15-632.219 402.555   5
  -5   4  15 23.2084 256.762   4
   5   4 -14-160.227 246.647   6
   5   4 -14 646.923 392.155   5
  -5   4  14 145.376 340.440   4
   5   4 -13-753.670 309.987   6
   5   4 -13 488.562 426.612   5
  -5   4  13 128.256 330.826   4
   5   4 -12 173.317 203.380   6
   5   4 -12 573.000 439.271   5
  -5   4  12-373.770 420.558   4
   5   4 -11 349.172 235.977   6
   5   4 -11 248.630 392.615   5
  -5   4  11 521.008 394.389   4
   5   4 -10 179.567 175.855   6
   5   4 -10 243.762 460.699   5
  -5   4  10-281.300 370.003   4
   5   4  -9 1777.38 329.859   6
   5   4  -9 1793.74 605.469   5
  -5   4   9 1197.85 507.245   4
   5   4  -8 1492.62 281.847   6
   5   4  -8 1439.79 577.748   5
  -5   4   8 1613.78 585.581   4
   5   4  -7 654.549 170.671   6
   5   4  -7 809.588 445.841   5
  -5   4   7 1081.12 439.323   4
   5   4  -6 522.318 365.933   5
  -5   4   6-146.303 290.853   4
   5   4  -5 219.631 337.619   5
  -5   4   5 387.386 337.827   4
   5   4  -4 97.4304 333.464   5
  -5   4   4 267.180 374.254   4
   5   4  -3 589.891 392.937   5
  -5   4   3 664.742 413.734   4
  -5   4   2 836.801 448.476   4
   5   4  -2 826.292 413.518   5
   5   4  -1 459.201 348.055   5
  -5   4   1 379.150 325.939   6
  -5   4   1 668.763 387.692   4
  -5   4   0 664.855 401.799   6
   5   4   0-22.4213 330.386   5
  -5   4   0 383.322 358.885   4
  -5   4  -1-295.486 337.168   6
   5   4   1-102.641 281.399   2
   5   4   1 79.4901 271.476   5
  -5   4  -2 593.696 407.027   6
   5   4   2 127.939 344.979   2
   5   4   2 221.503 286.977   5
  -5   4  -3 24.2280 322.561   6
   5   4   3 386.835 344.858   2
   5   4   3 287.486 302.232   5
  -5   4  -4 432.572 411.149   6
   5   4   4 278.862 315.299   2
   5   4   4 561.984 376.717   5
  -5   4  -5 4214.48 880.634   6
   5   4   5 4759.00 858.443   2
   5   4   5 4192.64 762.641   5
  -5   4  -6 2417.91 696.140   6
   5   4   6 1092.02 453.262   2
   5   4   6 1146.91 427.493   5
  -5   4  -7 336.224 426.217   6
   5   4   7 909.857 449.171   2
   5   4   7 818.475 368.113   5
  -5   4  -8 316.334 313.068   6
   5   4   8 447.927 354.161   2
   5   4   8 407.194 327.944   5
  -5   4  -9-502.249 389.235   6
   5   4   9-286.877 304.289   2
   5   4   9 609.704 358.819   5
  -5   4 -10 50.9492 274.851   6
   5   4  10 558.258 389.929   2
   5   4  10 478.858 354.976   5
  -5   4 -11 311.348 364.608   6
   5   4  11 21.7825 245.656   2
   5   4  11 534.904 385.229   5
   5   5 -12-271.141 441.850   5
  -5   5  12 43.0587 417.720   4
   5   5 -11 514.825 527.283   5
  -5   5  11 514.429 437.651   4
   5   5 -10 623.314 505.705   5
  -5   5  10 897.950 540.024   4
   5   5  -9 1493.93 627.934   5
  -5   5   9 1318.66 569.990   4
   5   5  -8 1204.25 564.185   5
  -5   5   8 502.630 429.436   4
   5   5  -7 1081.30 555.576   5
  -5   5   7 748.119 485.006   4
   5   5  -6 200.040 392.726   5
  -5   5   6 557.951 406.796   4
   5   5  -5-34.7455 316.635   5
  -5   5   5-312.555 368.130   4
   5   5  -4-4.83809 262.383   5
  -5   5   4 406.098 404.000   4
   5   5  -3 193.328 397.974   5
  -5   5   3 4.41089 339.813   4
   5   5  -2 2847.60 754.191   5
  -5   5   2 2536.58 721.127   4
   5   5  -1 1766.23 612.656   5
   5   5   0 1287.37 463.133   5
  -5   5   0 203.714 420.389   6
  -5   5  -1 659.263 478.623   6
   5   5   1 368.470 390.141   5
  -5   5  -2 118.434 356.285   6
   5   5   2 345.886 324.594   2
   5   5   2-340.146 353.541   5
   5   5   3 1022.33 430.680   2
   5   5   3 72.1016 298.814   5
  -5   5  -3 1144.13 555.908   6
  -5   5  -4 467.042 401.800   6
   5   5   4 446.677 383.861   2
   5   5   4 481.234 375.723   5
  -5   5  -5 1044.92 519.276   6
   5   5   5 1512.91 514.706   2
   5   5   5 378.980 374.323   5
  -5   5  -6-436.090 449.531   6
   5   5   6-207.448 292.883   2
   5   5   6 124.324 276.298   5
  -5   5  -7 408.477 377.484   6
   5   5   7 715.818 418.408   2
   5   5   7-135.425 275.990   5
  -5   5  -8 439.789 452.904   6
   5   5   8 262.138 322.319   2
   5   5   8-615.415 431.278   5
   5   6  -5 439.407 451.771   5
  -5   6   5 1055.28 523.086   4
   5   6  -4-1025.35 593.423   5
   5   6  -3 878.996 538.144   5
   5   6  -2 197.610 392.477   5
   5   6  -1-642.107 479.422   5
   5   6   0 762.004 524.154   5
   5   6   1 464.592 448.634   5
  -5   6  -2 593.948 495.473   6
   5   6   2-351.982 398.540   5
  -6  -5   9 886.117 499.518   1
  -6  -5   8 349.577 372.703   1
  -6  -5   7 527.665 363.427   1
  -6  -5   6 900.912 463.215   1
   6  -5  -6 433.142 333.474   3
   6  -5  -5 27.5471 231.274   3
  -6  -5   5-567.739 422.735   1
   6  -5  -4 510.734 336.407   3
  -6  -5   4-136.806 330.252   1
   6  -5  -3-101.313 292.143   3
  -6  -5   3 235.019 347.690   1
  -6  -5   2-424.547 393.900   1
   6  -5  -2 238.164 348.824   3
   6  -5  -1 313.804 286.807   3
  -6  -5   1-699.146 440.972   1
   6  -5   0 343.831 310.155   3
  -6  -5   0 137.305 300.156   1
   6  -5   1 61.1551 273.931   3
  -6  -5  -1 386.851 415.079   1
   6  -5   2 471.963 400.840   3
  -6  -5  -2 525.013 449.789   1
   6  -5   3 655.820 398.873   3
  -6  -5  -3 856.219 523.469   1
  -6  -5  -4 67.8330 337.719   1
   6  -5   4 436.424 399.090   3
   6  -5   5 1788.82 540.927   3
  -6  -5  -5 1335.27 583.377   1
  -6  -4  13-230.868 323.347   1
  -6  -4  12-491.686 424.080   1
  -6  -4  11 232.930 398.427   1
  -6  -4  10 405.909 402.449   1
  -6  -4   9-300.988 363.364   1
  -6  -4   8 482.510 416.204   1
  -6  -4   7 218.195 326.153   1
  -6  -4   6 609.592 465.378   1
  -6  -4   5-359.948 393.862   1
   6  -4  -5 19.4135 132.988   5
   6  -4  -4 10.3462 122.834   5
  -6  -4   4-178.480 352.465   1
  -6  -4   3 131.071 373.804   1
   6  -4  -3 904.240 383.245   3
   6  -4  -3 330.385 201.814   5
   6  -4  -2 844.869 391.019   3
  -6  -4   2 711.721 451.013   1
   6  -4  -1 1024.20 445.914   3
  -6  -4   1 1182.82 578.765   1
  -6  -4   0 204.119 385.879   1
   6  -4   0 957.183 402.564   3
   6  -4   1-229.732 312.747   3
  -6  -4  -1-853.887 503.546   1
   6  -4   2 866.481 414.927   3
  -6  -4  -2 237.600 430.907   1
   6  -4   3 861.365 364.446   3
  -6  -4  -3 39.1346 458.222   1
   6  -4   4 543.488 365.225   3
   6  -4   5-141.928 277.776   3
   6  -4   6 559.443 356.828   3
   6  -4   7 14.4419 221.071   3
   6  -4   8-212.377 285.942   3
  -6  -3  15 537.935 430.395   1
  -6  -3  14 292.366 396.659   1
  -6  -3  13-121.771 349.874   1
  -6  -3  12 590.929 414.732   1
  -6  -3  11-174.921 313.892   1
  -6  -3  10 695.695 427.174   1
   6  -3  -9 2551.15 416.101   5
  -6  -3   9 3000.17 757.130   1
  -6  -3   8 2256.34 666.607   1
   6  -3  -8 2561.23 420.688   5
  -6  -3   7 691.584 440.860   1
   6  -3  -7 558.836 229.749   5
  -6  -3   6-168.165 273.423   1
   6  -3  -6 269.819 212.912   5
  -6  -3   5-440.089 375.152   1
   6  -3  -5 47.2445 154.871   5
   6  -3  -4-126.500 167.059   5
  -6  -3   4-385.037 490.783   1
  -6  -3   3 1086.34 505.982   1
   6  -3  -3 486.175 148.593   2
   6  -3  -3 1009.14 319.298   5
   6  -3  -3 743.557 118.526   2
   6  -3  -2 3379.95 526.123   5
   6  -3  -2 2736.00 264.974   2
  -6  -3   2 3806.92 847.987   1
   6  -3  -1 2502.78 292.109   2
  -6  -3   1 3025.42 769.183   1
   6  -3   0 1240.70 231.681   2
  -6  -3   0 582.447 450.848   1
   6  -3   1 271.772 153.639   2
  -6  -3  -1 646.146 342.539   1
   6  -3   2 500.968 210.837   2
   6  -3   2 376.795 298.204   3
  -6  -3  -2 251.381 202.492   4
   6  -3   3 165.168 185.186   2
   6  -3   3 110.668 234.856   3
  -6  -3  -3 390.290 207.854   4
   6  -3   4 4054.79 606.022   3
   6  -3   4 3997.02 493.059   2
   6  -3   5 1872.13 380.168   2
   6  -3   5 2671.87 517.342   3
   6  -3   6 1779.97 394.546   2
   6  -3   6 2500.06 485.752   3
   6  -3   7 310.699 243.610   2
   6  -3   7 136.239 236.063   3
   6  -3   8 325.275 219.792   2
   6  -3   8 96.7397 203.565   3
   6  -3   9-115.542 191.014   2
   6  -3   9 330.079 230.959   3
   6  -3  10 192.583 240.628   2
   6  -3  11 944.288 332.164   2
  -6  -2  17 183.025 329.384   1
  -6  -2  16 1273.60 584.736   1
  -6  -2  15 456.318 377.554   1
  -6  -2  14 2006.19 597.414   1
   6  -2 -14 1818.53 434.007   5
  -6  -2  13 335.101 366.571   1
   6  -2 -13 85.8541 138.989   5
   6  -2 -12-47.7395 144.661   5
  -6  -2  12 101.315 281.901   1
   6  -2 -11-403.151 224.824   5
  -6  -2  11-320.253 379.230   1
   6  -2 -10 985.931 334.513   1
   6  -2 -10 1381.33 375.027   5
  -6  -2  10 905.750 301.900   2
  -6  -2  10 1448.88 541.777   1
   6  -2  -9 3556.75 550.324   5
  -6  -2   9 2736.15 478.081   2
  -6  -2   9 4537.07 799.961   1
   6  -2  -8 2554.15 484.643   5
  -6  -2   8 2609.89 447.338   2
  -6  -2   8 3006.41 646.084   1
  -6  -2   7 466.241 320.134   1
   6  -2  -7 372.995 236.695   5
  -6  -2   7 628.525 262.416   2
  -6  -2   6 823.456 389.047   1
   6  -2  -6 587.951 258.738   5
  -6  -2   6 1581.66 371.743   2
  -6  -2   5 1173.16 472.293   1
   6  -2  -5 1333.24 370.793   5
  -6  -2   5 795.162 290.942   2
   6  -2  -4 423.866 246.224   5
  -6  -2   4-76.4746 177.984   2
  -6  -2   4-233.920 417.889   1
  -6  -2   3-22.8595 396.803   1
   6  -2  -3 249.491 217.771   5
  -6  -2   3 927.220 322.319   2
   6  -2  -2 5276.43 335.177   2
  -6  -2   2 7846.01 710.560   2
   6  -2  -2 7234.52 776.712   5
  -6  -2   2 5999.06 931.794   1
   6  -2  -1 2134.76 260.423   2
  -6  -2   1 1352.22 500.170   1
  -6  -2   1 2525.36 418.998   2
   6  -2   0 3210.94 338.198   2
  -6  -2   0 4264.33 801.266   1
   6  -2   1 6773.76 530.948   2
   6  -2   2 1815.26 310.492   2
   6  -2   3 1422.50 305.779   2
  -6  -2  -3 943.834 259.832   6
  -6  -2  -3 926.167 252.071   4
  -6  -2  -4 1693.98 345.615   6
   6  -2   4 1941.63 364.176   2
  -6  -2  -4 1719.57 293.547   4
   6  -2   5 2760.24 436.846   2
  -6  -2  -5 2880.84 462.819   6
  -6  -2  -5 2257.94 283.828   4
   6  -2   6 580.970 271.073   2
  -6  -2  -6 606.285 255.419   6
   6  -2   7 136.821 176.738   2
  -6  -2  -7 280.142 222.195   6
   6  -2   8 376.954 267.643   2
  -6  -2  -8 299.369 233.550   6
   6  -2   9 56.8703 148.605   2
  -6  -2  -9 479.921 252.087   6
   6  -2  10 339.547 246.669   2
  -6  -2 -10 127.586 175.940   6
   6  -2  11 92.6487 226.292   2
  -6  -2 -11-199.465 222.366   6
   6  -2  12 393.274 258.359   2
  -6  -2 -12 281.810 220.375   6
  -6  -1  17 945.934 420.734   1
  -6  -1  16 578.853 379.780   1
   6  -1 -16 167.591 212.576   5
  -6  -1  15 283.842 354.278   1
   6  -1 -15 284.684 231.564   5
  -6  -1  14 247.189 319.553   1
   6  -1 -14 96.7362 219.104   5
  -6  -1  13 533.628 353.493   1
   6  -1 -13-70.5420 219.286   5
  -6  -1  12 248.423 281.654   1
   6  -1 -12 120.692 225.500   5
  -6  -1  11 532.065 363.837   1
   6  -1 -11 118.603 208.812   5
   6  -1 -11-58.4969 240.362   1
  -6  -1  11 427.456 188.118   2
   6  -1 -10 481.553 309.334   1
   6  -1 -10 329.569 253.502   5
  -6  -1  10 786.576 415.181   1
  -6  -1  10 658.333 210.383   2
  -6  -1   9 6063.78 537.412   2
   6  -1  -9 4744.97 697.097   5
   6  -1  -9 5087.29 722.979   1
  -6  -1   9 5175.92 782.284   1
  -6  -1   8 3343.95 406.986   2
   6  -1  -8 2956.13 551.185   5
  -6  -1   8 2449.10 563.349   1
   6  -1  -7 179.877 220.357   5
  -6  -1   7 221.830 164.441   2
  -6  -1   7 138.361 259.506   1
  -6  -1   6 310.390 270.860   1
   6  -1  -6 137.687 232.100   5
  -6  -1   6 348.921 177.517   2
  -6  -1   5-137.638 285.819   1
   6  -1  -5-207.972 212.706   5
  -6  -1   5 53.2269 117.154   2
   6  -1  -4 880.746 352.151   5
  -6  -1   4 434.281 312.859   1
  -6  -1   4 1175.03 255.269   2
  -6  -1   3 1608.19 512.768   1
   6  -1  -3 1214.30 176.648   2
   6  -1  -3 1939.01 450.999   5
   6  -1  -2 5598.45 422.908   2
   6  -1  -2 6256.45 765.778   5
  -6  -1   2 7548.82 608.024   2
  -6  -1   2 5562.88 830.827   1
   6  -1  -1 8064.47 532.691   2
   6  -1  -1 7473.16 837.165   5
  -6  -1   1 9199.05 684.146   2
  -6  -1   1 7351.17 947.716   1
  -6  -1   0 6.17199 150.852   2
   6  -1   0 251.694 146.699   2
  -6  -1  -1 1303.91 314.336   2
   6  -1   1 1631.93 296.658   2
  -6  -1  -2 1800.34 398.808   6
  -6  -1  -2 1477.95 330.075   2
   6  -1   2 1777.24 323.430   2
  -6  -1  -3 954.721 312.828   6
  -6  -1  -3 1508.54 336.464   3
   6  -1   3 1322.25 296.966   2
  -6  -1  -4 1178.01 354.552   6
  -6  -1  -4 1080.83 287.466   3
   6  -1   4 1224.01 297.105   2
  -6  -1  -5 865.413 323.042   6
  -6  -1  -5 205.700 176.966   3
   6  -1   5 510.115 231.822   2
  -6  -1  -6 1327.23 424.241   6
  -6  -1  -6 993.474 256.397   3
   6  -1   6 273.187 218.234   2
  -6  -1  -7 86.9571 135.118   3
   6  -1   7 180.840 201.252   2
  -6  -1  -8 237.589 268.240   6
   6  -1   8-25.4294 198.508   2
  -6  -1  -9-217.284 239.629   6
   6  -1   9 135.436 193.071   2
  -6  -1 -10-67.9760 196.897   6
   6  -1  10 208.154 218.987   2
  -6  -1 -11 882.243 354.735   6
   6  -1  11 346.063 247.338   2
  -6  -1 -12 775.789 385.757   6
   6  -1  12 252.567 276.425   2
  -6  -1 -13 924.632 429.285   6
   6  -1  13 941.818 388.354   2
   6   0 -18 209.845 300.776   6
  -6   0  18-366.303 335.716   1
   6   0 -17-655.368 387.305   5
  -6   0  17 686.506 379.803   1
   6   0 -16 1561.06 509.511   5
  -6   0  16 1113.39 424.739   1
   6   0 -15 2258.69 631.683   5
  -6   0  15 2134.32 565.249   1
  -6   0  14-125.970 294.106   1
   6   0 -14 1061.02 419.331   5
  -6   0  13 295.887 260.415   1
   6   0 -13-13.5500 164.189   5
  -6   0  12 106.344 81.1349   2
  -6   0  12-128.701 236.343   1
   6   0 -12-112.932 237.656   5
  -6   0  11 380.223 310.974   1
   6   0 -11 910.059 398.842   5
  -6   0  10 993.731 397.218   1
   6   0 -10 770.968 344.473   5
  -6   0  10 88.8993 72.7026   2
   6   0  -9 901.611 428.627   5
  -6   0   9 507.172 115.415   2
   6   0  -8 8786.15 981.044   5
  -6   0   8 9151.18 936.977   1
  -6   0   8 6470.82 293.222   2
  -6   0   7 478.031 100.140   2
   6   0  -7 1012.82 388.426   6
   6   0  -7 509.584 297.323   5
  -6   0   7 920.600 342.908   1
  -6   0   6 299.384 95.8533   2
   6   0  -6-68.1287 167.794   6
   6   0  -6 142.469 230.507   5
  -6   0   6-13.3961 218.871   1
   6   0  -5 606.787 300.767   6
  -6   0   5 598.401 131.782   2
  -6   0   5 384.356 237.218   1
   6   0  -5 534.263 286.107   5
   6   0  -4 731.847 309.286   6
  -6   0   4 1122.89 192.456   2
  -6   0   4 560.535 276.738   1
   6   0  -4 928.281 347.089   5
   6   0  -3 6046.32 513.457   2
   6   0  -3 6929.43 855.205   5
  -6   0   3 5509.98 718.397   1
   6   0  -3 7074.23 767.533   6
   6   0  -2 7408.51 601.303   2
   6   0  -2 8589.64 942.544   5
  -6   0   2 6284.22 777.326   1
   6   0  -2 8501.01 816.952   6
  -6   0   1 3695.00 628.402   1
   6   0  -1 5631.34 549.794   2
   6   0  -1 5371.06 751.147   5
   6   0  -1 4394.65 601.393   6
   6   0   0-154.704 220.519   6
   6   0   0 50.9356 277.387   5
   6   0   0-64.6415 150.203   2
  -6   0   0-139.052 330.222   1
  -6   0   0-242.709 233.388   6
  -6   0  -1 3731.90 524.977   3
   6   0   1 3477.61 469.029   2
   6   0   1 4288.66 693.491   5
  -6   0  -1 4623.72 664.281   6
   6   0   1 4768.69 608.289   6
  -6   0  -2 218.860 247.221   6
  -6   0  -2 559.156 254.456   3
  -6   0  -2 251.934 103.780   4
   6   0   2 192.494 177.676   2
  -6   0  -3-12.3292 220.302   6
   6   0   3 471.657 225.814   6
  -6   0  -3 387.426 213.088   3
   6   0   3 154.045 198.173   2
  -6   0  -3 17.1209 32.5308   4
  -6   0  -4 449.982 313.298   6
  -6   0  -4 343.985 209.469   3
   6   0   4 640.320 284.273   6
   6   0   4 755.989 308.216   2
  -6   0  -5 7157.80 670.455   3
   6   0   5 8276.39 792.193   2
  -6   0  -5 9290.86 1013.63   6
  -6   0  -6 610.899 231.372   3
   6   0   6 242.698 178.081   2
  -6   0  -7 4859.39 785.222   6
  -6   0  -7 3675.98 501.765   3
   6   0   7 3893.29 581.404   2
  -6   0  -8 765.474 385.153   6
   6   0   8 1359.12 403.945   2
  -6   0  -9-229.801 249.548   6
   6   0   9-112.465 205.999   2
  -6   0 -10 188.869 229.087   6
   6   0  10 307.885 253.245   2
  -6   0 -11 468.913 322.265   6
   6   0  11 861.686 337.603   2
  -6   0 -12-81.0509 209.762   6
   6   0  12 304.079 242.922   2
  -6   0 -13 166.968 255.282   6
   6   0  13 355.070 252.616   2
   6   1 -17-64.8742 245.876   6
   6   1 -17 437.501 364.060   5
  -6   1  17 824.407 399.213   1
   6   1 -16 170.013 284.417   6
   6   1 -16 807.440 425.994   5
  -6   1  16 164.833 276.886   1
   6   1 -15 369.244 286.717   6
   6   1 -15 491.904 387.063   5
  -6   1  15 105.070 256.124   1
   6   1 -14-411.128 329.296   6
   6   1 -14 440.868 353.420   5
  -6   1  14 43.0317 200.511   1
   6   1 -13 392.702 324.764   5
  -6   1  13-192.690 221.761   1
   6   1 -12 253.430 280.596   5
  -6   1  12 553.273 303.912   1
  -6   1  11 178.341 243.916   1
   6   1 -11 114.393 256.038   5
  -6   1  10 627.403 285.109   1
   6   1 -10 603.366 364.890   5
  -6   1   9 6248.88 728.137   1
   6   1  -9 5059.84 831.936   5
  -6   1   8 3130.23 515.414   1
   6   1  -8 3151.55 651.910   5
   6   1  -8 3260.62 628.694   6
   6   1  -7 575.290 280.534   6
  -6   1   7 207.329 214.902   1
   6   1  -7 63.1547 260.087   5
   6   1  -6 94.5936 167.328   6
   6   1  -6 400.018 321.525   5
  -6   1   6 86.3932 194.627   1
   6   1  -5-158.419 176.375   6
   6   1  -5 13.0543 206.929   5
  -6   1   5-11.4292 183.360   1
  -6   1   4 837.887 300.338   1
   6   1  -4 994.240 293.636   6
   6   1  -4 1214.88 422.085   5
   6   1  -3 1516.49 342.931   6
   6   1  -3 2091.94 397.205   2
  -6   1   3 1967.19 400.770   1
   6   1  -3 2237.79 563.765   5
   6   1  -2 6001.74 652.946   2
   6   1  -2 7748.77 965.730   5
  -6   1   2 6029.36 662.590   1
   6   1  -2 5763.94 595.280   6
   6   1  -1 8502.58 781.029   2
   6   1  -1 8721.62 998.403   5
  -6   1   1 7308.00 730.218   1
  -6   1   1 7169.42 652.163   4
   6   1  -1 8214.92 691.051   6
  -6   1   0 89.9778 254.886   6
  -6   1   0 62.6949 221.281   1
   6   1   0-201.123 234.064   6
   6   1   0 54.1843 181.473   2
   6   1   0-75.9269 241.286   5
  -6   1   0 143.334 174.710   4
  -6   1  -1 1555.71 478.550   6
   6   1   1 1861.31 351.992   6
   6   1   1 1660.00 416.999   2
   6   1   1 1510.77 451.844   5
  -6   1  -1 1526.11 283.450   4
  -6   1  -2 1775.97 500.095   6
   6   1   2 2024.96 374.396   6
   6   1   2 1821.09 495.049   5
   6   1   2 1301.92 377.927   2
  -6   1  -2 1271.65 239.103   4
  -6   1  -3 869.916 392.830   6
   6   1   3 1635.22 362.685   6
   6   1   3 1045.13 411.585   5
   6   1   3 916.585 325.783   2
  -6   1  -4 452.389 352.985   6
  -6   1  -4 1072.06 333.335   3
   6   1   4 1078.72 296.366   6
   6   1   4 929.325 353.138   2
  -6   1  -5 1011.03 420.108   6
  -6   1  -5 723.190 290.140   3
   6   1   5 1435.52 336.038   6
   6   1   5 1124.91 369.991   2
  -6   1  -6 252.846 229.201   3
  -6   1  -6 463.822 337.967   6
   6   1   6 665.428 255.298   6
   6   1   6 567.966 282.860   2
  -6   1  -7 32.3582 198.978   6
   6   1   7 588.942 276.735   6
   6   1   7 309.480 261.888   2
  -6   1  -7 167.497 216.303   3
  -6   1  -8-39.2083 247.851   6
   6   1   8 300.697 249.862   2
  -6   1  -9 106.008 241.908   6
   6   1   9 727.792 338.065   2
  -6   1 -10 41.5240 254.322   6
   6   1  10 506.647 281.915   2
  -6   1 -11 633.665 435.741   6
   6   1  11 6.58006 209.445   2
  -6   1 -12 774.046 446.979   6
   6   1  12 249.878 251.482   2
  -6   1 -13 1011.25 480.596   6
   6   1  13 731.068 372.599   2
   6   2 -17-572.032 370.021   6
   6   2 -17-132.949 312.377   5
  -6   2  16 755.876 365.367   1
   6   2 -16 1168.42 431.012   6
   6   2 -16 1082.12 479.323   5
  -6   2  15 348.530 279.876   1
   6   2 -15-106.495 289.626   6
   6   2 -15 251.101 330.804   5
   6   2 -14 1453.98 459.825   6
   6   2 -14 2663.27 712.181   5
  -6   2  14 2430.48 504.687   1
   6   2 -13 67.1224 200.343   6
   6   2 -13 161.969 287.608   5
  -6   2  13 428.831 259.193   1
   6   2 -12-265.601 247.841   6
   6   2 -12-585.013 376.593   5
  -6   2  12 127.362 184.566   1
   6   2 -11-147.878 200.357   6
   6   2 -11 36.6165 246.803   5
  -6   2  11 23.3755 139.379   1
   6   2 -10 1558.97 390.273   6
   6   2 -10 1581.49 523.537   5
  -6   2  10 1540.21 343.952   1
   6   2  -9 4463.07 584.049   6
  -6   2   9 3770.63 488.667   1
   6   2  -9 3920.93 806.071   5
  -6   2   8 2720.60 415.504   1
   6   2  -8 2371.36 618.919   5
   6   2  -7 754.522 302.163   6
   6   2  -7 1002.86 440.151   5
  -6   2   7 783.732 420.725   4
  -6   2   7 700.696 242.402   1
  -6   2   6 853.950 241.016   1
   6   2  -6 494.715 209.433   6
   6   2  -6 867.382 394.386   5
  -6   2   6 863.677 398.960   4
   6   2  -5 1116.82 263.149   6
  -6   2   5 1517.40 292.783   1
   6   2  -5 1249.55 460.297   5
  -6   2   5 1623.35 450.775   4
   6   2  -4-48.5630 120.252   6
  -6   2   4 139.083 150.957   1
   6   2  -4 500.617 356.620   5
  -6   2   4 318.132 249.864   4
   6   2  -3 234.887 134.943   6
   6   2  -3 611.558 377.938   5
  -6   2   3-203.063 177.778   1
  -6   2   3 330.928 267.417   4
   6   2  -2 6942.21 810.863   2
   6   2  -2 8047.51 1015.22   5
  -6   2   2 6624.13 517.601   1
  -6   2   2 6592.23 731.413   4
   6   2  -2 6551.45 480.393   6
   6   2  -1 1771.21 251.227   6
  -6   2   1 1935.90 310.740   1
   6   2  -1 1806.24 457.947   2
   6   2  -1 2807.67 639.038   5
  -6   2   1 2135.90 430.679   4
  -6   2   1 1788.89 541.774   6
   6   2   0 3657.44 350.405   6
  -6   2   0 3365.72 738.835   6
  -6   2   0 3556.06 425.714   1
   6   2   0 4495.16 674.550   2
   6   2   0 4839.29 789.651   5
  -6   2   0 3272.75 516.966   4
   6   2   1 7360.29 485.931   6
   6   2   1 8231.96 905.405   2
   6   2   1 8386.81 1049.72   5
  -6   2  -1 6767.94 681.713   4
  -6   2  -1 7834.80 1054.34   6
  -6   2  -2 2665.39 655.721   6
  -6   2  -2 1643.34 300.227   1
   6   2   2 2169.55 280.103   6
   6   2   2 2674.11 544.666   2
   6   2   2 2009.43 555.508   5
  -6   2  -2 2111.71 375.686   4
  -6   2  -3 2148.55 624.562   6
   6   2   3 1188.30 239.241   6
  -6   2  -3 931.124 255.662   1
   6   2   3 2000.17 502.124   2
   6   2   3 1851.04 551.815   5
  -6   2  -4 2213.54 598.769   6
   6   2   4 1930.37 308.048   6
  -6   2  -4 1235.03 290.883   1
   6   2   4 1387.53 432.295   2
   6   2   4 1862.84 574.043   5
  -6   2  -5 2884.59 680.990   6
   6   2   5 2606.44 376.554   6
   6   2   5 3802.20 695.051   2
   6   2   5 3387.13 711.673   5
  -6   2  -5 2831.65 434.263   1
  -6   2  -6 651.943 392.916   6
   6   2   6 350.501 311.896   5
   6   2   6 228.932 308.665   2
  -6   2  -6 619.976 233.382   1
  -6   2  -7 219.335 318.056   6
   6   2   7-49.2021 286.851   5
   6   2   7 194.608 263.197   2
  -6   2  -8 152.176 329.256   6
   6   2   8-466.200 334.172   2
  -6   2  -9-331.852 338.067   6
   6   2   9-462.331 311.372   2
  -6   2 -10 317.431 335.968   6
   6   2  10 48.6729 236.723   2
  -6   2 -11 174.037 332.690   6
   6   2  11-393.911 339.945   2
  -6   2 -12 1130.75 522.138   6
   6   2  12 639.983 356.227   2
   6   3 -15 1443.54 448.587   6
   6   3 -15 493.013 422.014   5
  -6   3  15 412.470 503.909   4
   6   3 -14 1474.58 436.634   6
   6   3 -14 1213.48 589.354   5
  -6   3  14 701.724 528.412   4
   6   3 -13 181.659 221.497   6
   6   3 -13 337.888 288.672   5
  -6   3  13-198.304 376.507   4
   6   3 -12 482.078 230.433   6
   6   3 -12-39.8762 191.962   5
  -6   3  12 128.841 334.077   4
   6   3 -11 249.719 219.173   6
   6   3 -11-582.120 426.601   5
  -6   3  11-5.87350 306.167   4
   6   3 -10 604.804 237.267   6
   6   3 -10 401.815 358.387   5
  -6   3  10 689.717 395.694   4
   6   3  -9 2997.44 454.566   6
   6   3  -9 2314.00 664.426   5
  -6   3   9 2889.40 658.489   4
   6   3  -8 2601.58 382.785   6
   6   3  -8 3175.00 760.187   5
  -6   3   8 2207.58 605.950   4
   6   3  -7 738.948 210.746   6
  -6   3   7 294.447 319.395   4
   6   3  -6 269.389 119.288   6
   6   3  -6-34.4428 299.611   5
  -6   3   6 73.7378 322.203   4
   6   3  -5 35.5053 56.5082   6
   6   3  -5-16.8022 330.975   5
  -6   3   5 431.003 362.269   4
   6   3  -4-251.565 468.577   5
  -6   3   4 244.808 286.371   4
   6   3  -3 1696.17 577.254   5
  -6   3   3 1008.10 408.060   4
   6   3  -2 4259.59 827.374   5
  -6   3   2 3111.11 596.005   4
   6   3  -1 3243.67 656.176   2
   6   3  -1 3364.90 734.078   5
  -6   3   1 3244.38 621.091   4
  -6   3   0 1210.07 518.274   6
   6   3   0 1701.93 503.678   2
   6   3   0 1300.79 492.038   5
  -6   3   0 1456.15 445.116   4
  -6   3  -1 189.612 335.221   6
  -6   3  -1 177.308 57.0797   1
   6   3   1 584.641 354.429   2
   6   3   1-169.830 314.856   5
  -6   3  -1 243.457 243.718   4
  -6   3  -2 42.7814 275.801   6
  -6   3  -2 301.143 125.761   1
   6   3   2 766.409 383.144   2
   6   3   2 244.333 339.367   5
  -6   3  -3 64.5809 276.759   6
   6   3   3-170.546 301.136   2
   6   3   3 374.577 326.602   5
  -6   3  -4 5339.39 943.716   6
   6   3   4 4253.95 784.520   2
   6   3   4 4684.14 837.402   5
  -6   3  -5 2485.90 685.847   6
   6   3   5 3827.22 738.030   2
   6   3   5 3153.53 698.605   5
  -6   3  -6 1319.10 515.643   6
   6   3   6 2940.64 674.497   2
   6   3   6 3244.49 722.248   5
  -6   3  -7 179.743 289.901   6
   6   3   7 128.004 242.696   2
   6   3   7 572.107 351.669   5
  -6   3  -8 433.677 395.783   6
   6   3   8-452.089 336.143   2
   6   3   8 83.8597 304.002   5
  -6   3  -9-533.524 410.825   6
   6   3   9-421.588 385.734   2
  -6   3 -10-329.181 372.012   6
   6   3  10 763.083 379.710   2
   6   3  10 425.132 318.759   5
  -6   3 -11 703.855 484.024   6
   6   3  11 1423.76 535.601   5
   6   3  11 516.618 371.227   2
   6   4 -13 511.689 449.691   5
  -6   4  13 226.400 355.027   4
   6   4 -12-159.509 379.283   5
  -6   4  12 166.675 328.401   4
   6   4 -11-396.200 452.711   5
  -6   4  11-117.728 342.997   4
   6   4 -10 871.514 521.896   5
  -6   4  10 1412.81 523.656   4
   6   4  -9 505.920 447.257   5
  -6   4   9 692.129 445.661   4
   6   4  -8 405.903 449.216   5
  -6   4   8 780.066 456.437   4
   6   4  -7 650.833 514.650   5
  -6   4   7 979.802 471.161   4
   6   4  -6 1316.41 547.602   5
  -6   4   6-51.0583 307.700   4
   6   4  -5-565.828 426.715   5
  -6   4   5 371.483 364.459   4
   6   4  -4-98.0329 345.551   5
  -6   4   4-16.7326 301.485   4
   6   4  -3 425.690 422.525   5
  -6   4   3 506.224 364.211   4
   6   4  -2 1282.02 565.426   5
  -6   4   2 500.006 352.107   4
   6   4  -1 1618.52 538.460   5
  -6   4   1 630.673 293.247   4
   6   4   0 1039.02 481.522   5
  -6   4   0 596.417 419.191   6
  -6   4   0 338.592 340.204   4
  -6   4  -1-398.279 438.869   6
   6   4   1-258.572 309.670   2
   6   4   1 421.380 381.506   5
  -6   4  -2 936.984 525.943   6
   6   4   2 911.942 442.192   2
   6   4   2 115.149 309.622   5
  -6   4  -3 459.900 404.623   6
   6   4   3 36.4732 265.713   2
   6   4   3 225.240 320.511   5
  -6   4  -4 821.179 471.710   6
   6   4   4 535.377 374.467   2
   6   4   4 312.619 354.210   5
  -6   4  -5 778.034 422.966   6
   6   4   5 87.8739 304.268   2
   6   4   5-267.947 331.574   5
  -6   4  -6-417.526 371.579   6
   6   4   6-776.281 483.719   2
   6   4   6 299.021 299.816   5
  -6   4  -7-243.870 276.663   6
   6   4   7-680.731 405.231   2
   6   4   7 43.3874 318.769   5
  -6   4  -8 223.207 313.531   6
   6   4   8 90.1360 245.516   2
   6   4   8-256.010 303.243   5
   6   5  -9 364.966 646.018   5
  -6   5   9 162.182 364.484   4
   6   5  -8 333.625 467.246   5
  -6   5   8 300.093 388.107   4
   6   5  -7-425.909 426.619   5
  -6   5   7 395.679 387.206   4
   6   5  -6 2600.16 738.382   5
  -6   5   6 493.980 430.814   4
   6   5  -5-632.533 469.716   5
  -6   5   5 198.183 379.346   4
   6   5  -4-885.428 505.444   5
  -6   5   4 320.440 389.542   4
   6   5  -3 217.551 428.838   5
  -6   5   3 320.138 395.070   4
   6   5  -2-915.385 479.980   5
  -6   5   2-85.1984 322.172   4
   6   5  -1 513.284 436.800   5
   6   5   0-244.040 355.181   5
  -6   5  -1-250.385 403.213   6
   6   5   1-92.2931 327.634   5
  -6   5  -2 644.176 531.393   6
   6   5   2 434.116 436.916   5
  -6   5  -3-10.0924 400.128   6
   6   5   3-71.5384 236.287   2
  -6   5  -4 24.6517 401.804   6
   6   5   4-307.252 392.042   2
   6   5   4 836.440 480.630   5
  -6   5  -5 869.612 532.043   6
   6   5   5 820.725 479.620   2
   6   5   5 883.978 461.271   5
  -7  -4  10 535.451 449.008   1
  -7  -4   9 427.170 489.992   1
  -7  -4   8 245.814 363.141   1
  -7  -4   7-5.21379 373.104   1
  -7  -4   6 165.052 358.190   1
  -7  -4   5 341.845 398.388   1
  -7  -4   4 397.155 438.057   1
   7  -4  -3 1986.00 424.836   5
  -7  -4   3-14.1693 350.514   1
  -7  -4   2 850.954 533.370   1
   7  -4  -2 594.702 274.885   5
  -7  -4   1-225.195 438.818   1
  -7  -4   0 384.062 514.412   1
  -7  -4  -1 504.553 565.999   1
  -7  -4  -2-75.8149 449.380   1
  -7  -4  -3 324.144 421.662   1
  -7  -4  -4 14.7675 416.800   1
   7  -4   5 362.010 228.869   2
  -7  -3  13 431.275 398.566   1
  -7  -3  12 131.460 342.847   1
  -7  -3  11-479.472 403.249   1
  -7  -3  10-278.755 373.902   1
  -7  -3   9-42.6108 361.418   1
  -7  -3   8 287.373 425.150   1
   7  -3  -8-121.452 168.841   5
  -7  -3   7 151.071 337.683   1
   7  -3  -7 399.282 242.576   5
  -7  -3   6 468.232 389.005   1
   7  -3  -6 252.194 191.942   5
  -7  -3   5-106.185 369.081   1
   7  -3  -5 592.544 269.722   5
   7  -3  -4-242.390 220.576   5
  -7  -3   4-364.835 486.777   1
  -7  -3   3-32.5217 408.851   1
   7  -3  -3 1028.01 353.728   5
  -7  -3   2 1763.75 695.553   1
   7  -3  -2 2464.78 492.136   5
   7  -3  -1 450.144 279.096   5
  -7  -3   1-613.651 486.654   1
  -7  -3   0 1477.48 635.887   1
   7  -3   0 1514.41 272.245   2
   7  -3   1 163.969 126.555   2
  -7  -3  -1 62.3467 383.513   1
   7  -3   2 672.869 215.623   2
  -7  -3  -2 512.703 461.407   1
   7  -3   3 60.9444 119.993   2
   7  -3   4 33.4217 150.276   2
   7  -3   5 403.013 201.228   2
   7  -3   6 479.171 262.991   2
   7  -3   7 746.496 260.930   2
   7  -3   8 228.337 220.251   2
  -7  -2  15-425.225 395.678   1
  -7  -2  14-1296.79 582.034   1
  -7  -2  13 200.016 333.002   1
   7  -2 -12 394.336 260.906   5
  -7  -2  12 114.593 312.910   1
   7  -2 -11 140.701 121.204   5
  -7  -2  11-72.1523 375.946   1
   7  -2 -10 2203.91 478.371   5
  -7  -2  10 1622.29 603.486   1
   7  -2  -9 5886.28 781.315   5
  -7  -2   9 7149.24 1031.90   1
   7  -2  -8 2386.73 520.502   5
  -7  -2   8 1526.64 555.285   1
  -7  -2   7 249.433 391.936   1
   7  -2  -7 797.108 328.225   5
  -7  -2   6-100.910 328.527   1
   7  -2  -6 233.453 243.228   5
  -7  -2   5 1125.96 482.111   1
   7  -2  -5 775.619 324.398   5
  -7  -2   5 864.154 279.718   2
   7  -2  -4 576.308 302.678   5
  -7  -2   4 388.453 420.262   1
  -7  -2   4 1548.10 328.143   2
  -7  -2   3 390.238 368.380   1
   7  -2  -3 977.058 364.872   5
  -7  -2   2 1990.82 627.471   1
   7  -2  -2 1744.03 217.483   2
   7  -2  -2 3086.94 607.402   5
   7  -2  -1 3028.95 585.613   5
   7  -2  -1 2203.44 286.122   2
  -7  -2   1 1981.69 643.401   1
  -7  -2   0-860.845 518.762   1
   7  -2   0 193.871 121.789   2
  -7  -2  -1 386.749 429.628   1
   7  -2   1 213.628 136.053   2
   7  -2   2 296.446 177.990   2
   7  -2   3 1400.15 327.185   2
   7  -2   4 2628.94 432.995   2
   7  -2   5 2736.57 450.082   2
   7  -2   6 1065.96 326.391   2
   7  -2   7-141.405 188.955   2
   7  -2   8 14.7164 149.010   2
   7  -2   9-221.684 200.272   2
   7  -2  10-58.6038 141.413   2
  -7  -1  16 974.938 474.746   1
   7  -1 -16 1029.93 419.714   5
  -7  -1  15 513.560 389.299   1
   7  -1 -15 497.029 334.962   5
  -7  -1  14 491.387 425.209   1
   7  -1 -14 207.014 213.447   5
  -7  -1  13-347.391 370.933   1
   7  -1 -13-39.4730 117.023   5
  -7  -1  12 291.031 332.904   1
   7  -1 -12 384.905 314.537   5
  -7  -1  11 369.535 321.418   1
   7  -1 -11 455.596 300.005   5
   7  -1 -10 632.429 324.784   5
  -7  -1  10 1000.66 412.975   1
   7  -1  -9 1634.34 489.531   5
  -7  -1   9 969.178 444.028   1
   7  -1  -8 664.259 328.863   5
  -7  -1   8 827.831 437.349   1
  -7  -1   7 1265.45 464.415   1
   7  -1  -7 1916.28 495.989   5
  -7  -1   6 314.895 327.480   1
   7  -1  -6 534.123 301.961   5
  -7  -1   6 651.209 198.610   2
  -7  -1   5 137.383 251.874   1
   7  -1  -5-215.624 263.480   5
  -7  -1   5 171.434 161.867   2
  -7  -1   4 1056.65 252.813   2
   7  -1  -4 1134.07 424.534   5
  -7  -1   4 919.869 429.116   1
  -7  -1   3 1123.94 276.915   2
  -7  -1   3 846.308 458.480   1
   7  -1  -3 679.908 159.491   2
   7  -1  -3 1171.38 422.369   5
   7  -1  -2 6348.81 484.593   2
   7  -1  -2 6935.85 884.420   5
  -7  -1   2 7528.38 649.063   2
  -7  -1   2 6915.50 970.967   1
  -7  -1   1 1772.74 357.600   2
   7  -1  -1 1444.03 274.644   2
   7  -1  -1 1134.08 411.681   5
  -7  -1   1 1034.79 466.130   1
  -7  -1   0 160.110 179.347   2
   7  -1   0-309.735 279.869   5
   7  -1   0-96.7134 145.811   2
  -7  -1   0-49.5027 341.439   1
  -7  -1  -1 818.296 450.747   1
   7  -1   1 1070.54 410.610   5
   7  -1   1 558.871 213.459   2
   7  -1   2 440.134 215.318   2
  -7  -1  -3 132.470 178.225   6
   7  -1   3 426.183 208.791   2
  -7  -1  -4 3100.51 600.937   6
   7  -1   4 2434.72 444.013   2
  -7  -1  -5 255.291 240.407   6
   7  -1   5 691.641 294.713   2
  -7  -1  -6 351.124 248.871   6
   7  -1   6 365.634 236.422   2
  -7  -1  -7 1206.57 454.097   6
   7  -1   7 281.245 226.119   2
  -7  -1  -8 835.674 384.259   6
   7  -1   8 406.036 226.666   2
  -7  -1  -9 128.028 197.863   6
   7  -1   9-28.0442 222.622   2
  -7  -1 -10 611.439 339.814   6
   7  -1  10-1.92061 154.786   2
   7   0 -16 1009.82 463.501   5
  -7   0  16 765.456 431.362   1
  -7   0  15-191.649 275.220   1
   7   0 -15-7.54753 188.984   5
  -7   0  14 1529.24 522.140   1
   7   0 -14 1.45948 434.316   5
  -7   0  13 316.041 307.256   1
   7   0 -13 304.613 244.721   5
  -7   0  12-90.6835 243.009   1
   7   0 -12-412.456 317.967   5
  -7   0  11 131.608 277.094   1
   7   0 -11-76.2586 313.670   5
  -7   0  10-26.8919 238.850   1
   7   0 -10 5.12369 262.191   5
  -7   0   9 660.164 341.352   1
   7   0  -9 1407.55 495.108   5
   7   0  -8 116.140 238.079   5
  -7   0   8 283.862 330.465   1
   7   0  -7 847.706 400.334   5
  -7   0   7 1580.90 463.309   1
   7   0  -6 463.341 319.832   5
  -7   0   6 222.709 293.271   1
  -7   0   5 653.442 329.377   1
   7   0  -5 1090.00 428.070   5
  -7   0   4 1103.93 377.189   1
   7   0  -4 1151.46 418.922   5
   7   0  -3 995.627 380.401   6
   7   0  -3 568.096 217.797   2
   7   0  -3 565.766 306.094   5
  -7   0   3-99.9344 328.360   1
   7   0  -2 2590.83 527.196   6
  -7   0   2 2507.14 567.602   1
   7   0  -2 3022.35 412.249   2
   7   0  -2 2762.16 609.910   5
   7   0  -1 622.446 317.205   6
   7   0  -1 954.477 283.865   2
   7   0  -1 1143.57 423.761   5
  -7   0   1 758.064 363.170   1
   7   0   0 703.300 288.285   6
   7   0   0 1189.63 306.644   2
  -7   0   0 1081.03 445.679   1
   7   0   0 1204.23 421.580   5
  -7   0  -1-97.6194 285.462   1
   7   0   1 184.553 272.562   5
   7   0   1 615.733 260.567   2
  -7   0  -1 223.339 166.534   4
  -7   0  -1 184.502 273.282   6
  -7   0  -2 1669.00 493.557   6
   7   0   2 1033.29 442.627   5
   7   0   2 1096.65 316.273   2
  -7   0  -2 1147.00 191.633   4
  -7   0  -3 525.171 309.727   6
   7   0   3 477.967 314.491   5
   7   0   3 486.030 239.801   2
  -7   0  -4 335.119 267.162   6
   7   0   4 318.004 246.291   2
  -7   0  -5 150.843 256.332   6
   7   0   5-35.9625 191.916   2
  -7   0  -6 170.389 300.348   6
   7   0   6 160.816 225.571   2
  -7   0  -7 266.273 240.171   6
   7   0   7 186.568 198.243   2
  -7   0  -8 178.036 251.779   6
   7   0   8-487.901 294.567   2
  -7   0  -9 260.111 375.854   6
   7   0   9 412.734 234.237   2
  -7   0 -10 508.398 371.939   6
   7   0  10-157.161 227.044   2
  -7   0 -11 504.466 409.282   6
   7   0  11 151.665 216.512   2
   7   1 -16 438.228 329.613   6
   7   1 -16 527.318 394.303   5
  -7   1  16 139.514 252.081   1
   7   1 -15-323.477 300.642   6
   7   1 -15-259.382 314.636   5
  -7   1  15-400.838 223.931   1
   7   1 -14 32.7730 239.341   5
  -7   1  14 28.9891 196.681   1
   7   1 -13-89.8516 246.322   5
  -7   1  13-442.054 283.387   1
  -7   1  12-111.247 202.084   1
   7   1 -12 313.132 341.620   5
  -7   1  11 93.1048 238.904   1
   7   1 -11-1.47900 269.886   5
  -7   1  10 658.444 332.943   1
   7   1 -10 649.367 378.232   5
  -7   1   9 1913.77 454.366   1
   7   1  -9 1238.13 507.682   5
  -7   1   8 873.277 329.830   1
   7   1  -8 321.646 341.125   5
   7   1  -7 1549.91 456.057   6
  -7   1   7 2048.76 447.998   1
   7   1  -7 677.818 386.567   5
   7   1  -6-31.3899 143.616   6
   7   1  -6 251.070 358.152   5
  -7   1   6 681.268 277.159   1
   7   1  -5-484.879 223.114   6
   7   1  -5 495.802 350.144   5
  -7   1   5 113.182 187.989   1
  -7   1   4 902.071 305.398   1
   7   1  -4 984.677 300.147   6
   7   1  -4 968.677 484.141   5
   7   1  -3 799.956 288.683   6
  -7   1   3 1172.20 347.781   1
   7   1  -3 725.150 406.184   5
   7   1  -2 6544.15 722.221   2
   7   1  -2 8018.50 1061.78   5
  -7   1   2 5853.92 723.273   1
  -7   1   2 6239.12 690.990   4
   7   1  -2 4966.71 600.377   6
   7   1  -1 192.848 227.553   6
  -7   1   1 836.528 344.922   1
   7   1  -1 1280.96 346.943   2
   7   1  -1 1690.97 530.037   5
  -7   1   1 1172.29 316.379   4
   7   1   0-425.493 240.895   6
   7   1   0-485.790 249.972   2
   7   1   0-159.810 315.083   5
  -7   1   0 187.691 181.749   4
  -7   1   0-726.172 342.236   1
  -7   1  -1 502.385 356.705   6
   7   1   1 382.239 200.248   6
  -7   1  -1 506.338 283.498   1
   7   1   1 585.301 291.734   2
   7   1   1 593.509 393.194   5
  -7   1  -1 520.074 224.858   4
  -7   1  -2 449.599 327.227   6
   7   1   2 297.288 208.920   6
   7   1   2 530.135 286.584   2
   7   1   2 404.915 402.185   5
  -7   1  -2 203.150 132.120   4
  -7   1  -3 615.970 392.757   6
   7   1   3 216.535 227.887   6
   7   1   3 462.809 288.327   2
   7   1   3 559.755 364.515   5
  -7   1  -4 2719.98 684.987   6
   7   1   4 3457.21 726.663   5
   7   1   4 3595.98 632.979   2
  -7   1  -5-132.220 285.576   6
   7   1   5 501.458 375.161   5
   7   1   5 221.555 288.581   2
  -7   1  -6 2.93332 214.899   6
   7   1   6 166.536 200.060   2
  -7   1  -7 284.084 316.239   6
   7   1   7-41.7379 208.534   2
  -7   1  -8 475.574 364.683   6
   7   1   8-63.2317 174.430   2
  -7   1  -9-509.716 357.583   6
   7   1   9-315.531 279.797   2
  -7   1 -10 584.526 371.064   6
   7   1  10-430.513 301.715   2
   7   2 -15 264.753 266.549   6
   7   2 -15 669.013 445.575   5
   7   2 -14-479.584 267.430   6
   7   2 -14-434.792 323.155   5
   7   2 -13 145.599 221.772   6
   7   2 -13 865.276 463.294   5
   7   2 -12 136.949 194.402   6
   7   2 -12-112.994 243.600   5
   7   2 -11 400.867 247.724   6
   7   2 -11-149.938 247.757   5
   7   2 -10 2108.52 437.998   6
   7   2 -10 1693.06 580.842   5
  -7   2  10 1851.21 423.440   1
  -7   2   9 6641.61 656.973   1
   7   2  -9 7962.93 1167.23   5
   7   2  -8 2591.80 688.983   5
  -7   2   8 2918.74 705.007   4
  -7   2   8 2460.90 397.808   1
  -7   2   7 472.748 202.048   1
   7   2  -7 206.379 297.865   5
  -7   2   7 161.445 291.963   4
  -7   2   6 556.531 237.477   1
   7   2  -6 116.700 333.319   5
  -7   2   6 421.201 346.183   4
  -7   2   5 400.572 196.188   1
   7   2  -5 1261.87 514.559   5
  -7   2   5 607.855 342.198   4
  -7   2   4 839.389 236.781   1
   7   2  -4 1320.83 491.626   5
  -7   2   4 900.327 387.631   4
  -7   2   3 248.791 202.900   1
  -7   2   3 305.380 279.579   4
   7   2  -2 3084.19 564.502   2
   7   2  -2 3949.29 827.754   5
  -7   2   2 2466.56 504.954   4
  -7   2   2 2969.64 410.464   1
  -7   2   1 3146.37 434.654   1
   7   2  -1 3030.91 576.914   2
   7   2  -1 2945.44 674.662   5
  -7   2   1 2783.55 501.602   4
  -7   2   0-116.950 155.656   1
   7   2   0 5.06894 196.033   2
   7   2   0 129.006 331.860   5
  -7   2   0 219.623 236.770   4
  -7   2   0 199.450 349.545   6
  -7   2  -1 412.604 407.670   6
   7   2   1-73.8499 261.057   2
   7   2   1 440.822 338.936   5
  -7   2  -1-63.6076 163.128   1
  -7   2  -1-65.9075 194.838   4
  -7   2  -2-125.623 361.623   6
   7   2   2-299.707 263.197   2
   7   2   2 133.574 315.709   5
  -7   2  -3 2271.70 663.216   6
   7   2   3 1385.01 493.823   2
   7   2   3 2558.16 673.842   5
  -7   2  -4 2779.15 747.437   6
   7   2   4 2659.01 623.160   2
   7   2   4 2898.57 732.354   5
  -7   2  -5 3694.70 854.338   6
   7   2   5 3648.37 716.016   2
   7   2   5 3676.96 802.564   5
  -7   2  -6 655.781 405.766   6
   7   2   6 935.698 400.467   2
   7   2   6 1931.23 623.663   5
  -7   2  -7 110.275 349.877   6
   7   2   7-805.656 460.398   5
   7   2   7-350.665 374.633   2
  -7   2  -8 386.932 381.353   6
   7   2   8 126.839 322.955   5
   7   2   8-256.754 294.440   2
  -7   2  -9 230.957 345.541   6
   7   2   9 1014.11 471.679   5
   7   2   9 320.323 293.102   2
  -7   2 -10 257.634 302.304   6
   7   2  10-416.080 302.520   2
   7   3 -13 625.691 467.574   5
  -7   3  13 72.5412 340.677   4
   7   3 -12-225.957 395.026   5
  -7   3  12-175.198 367.897   4
   7   3 -11-799.117 491.879   5
  -7   3  11 112.595 303.133   4
   7   3 -10 659.692 445.854   5
  -7   3  10 883.967 467.810   4
   7   3  -9-450.307 403.033   5
  -7   3   9 163.068 351.979   4
   7   3  -8 1365.52 585.007   5
  -7   3   8 677.585 425.009   4
   7   3  -7-40.8322 280.884   5
  -7   3   7 587.441 410.775   4
   7   3  -6 741.842 506.157   5
  -7   3   6 284.464 291.876   4
   7   3  -5 350.863 455.622   5
  -7   3   5 409.794 338.640   4
   7   3  -4 311.665 377.944   5
  -7   3   4-128.506 287.027   4
   7   3  -3 693.333 512.138   5
  -7   3   3 242.827 301.438   4
   7   3  -2 2226.89 704.628   5
  -7   3   2 2078.90 502.443   4
   7   3  -1 398.373 354.206   2
   7   3  -1 348.180 407.690   5
  -7   3   1 783.322 368.811   4
   7   3   0 2033.27 565.710   2
   7   3   0 2519.33 693.474   5
  -7   3   0 2553.18 730.973   6
  -7   3   0 2590.31 559.526   4
  -7   3  -1 131.566 332.931   6
   7   3   1 534.221 336.746   2
   7   3   1-61.7794 333.049   5
  -7   3  -1 505.641 301.885   4
  -7   3  -2 387.821 402.269   6
   7   3   2 359.282 353.475   2
   7   3   2 194.666 314.312   5
  -7   3  -3 210.610 334.819   6
   7   3   3 564.798 322.431   2
   7   3   3-127.514 300.365   5
  -7   3  -4 53.5555 310.320   6
   7   3   4 421.247 387.284   2
   7   3   4 721.993 433.986   5
  -7   3  -5-132.361 287.943   6
   7   3   5 499.759 306.988   2
   7   3   5 359.185 355.247   5
  -7   3  -6 137.815 327.415   6
   7   3   6 467.488 355.334   2
   7   3   6-32.0993 341.670   5
  -7   3  -7-672.090 475.318   6
   7   3   7 542.722 358.788   2
   7   3   7 547.756 442.891   5
   7   3   8 926.432 414.146   2
   7   3   8 250.325 362.106   5
   7   4 -10 569.098 475.684   5
  -7   4  10 348.466 439.481   4
   7   4  -9 72.0114 446.702   5
  -7   4   9-261.982 341.299   4
   7   4  -8 788.474 516.790   5
  -7   4   8-27.4552 336.364   4
   7   4  -7-381.951 464.681   5
  -7   4   7 335.604 366.485   4
   7   4  -6 523.795 500.086   5
  -7   4   6 334.318 363.182   4
   7   4  -5-275.962 475.060   5
  -7   4   5 292.773 361.222   4
   7   4  -4 1241.93 523.070   5
  -7   4   4 103.840 304.465   4
   7   4  -3 1828.45 630.336   5
  -7   4   3 1428.14 527.023   4
   7   4  -2 739.015 518.951   5
  -7   4   2 897.776 438.144   4
   7   4  -1 961.905 532.715   5
  -7   4   1 1415.82 524.007   4
   7   4   0 547.964 422.810   5
   7   4   1 12.2346 275.876   2
   7   4   1 689.932 520.434   5
  -7   4  -2 397.213 451.622   6
   7   4   2-69.3041 255.950   2
   7   4   2-18.3676 368.134   5
  -7   4  -3 444.576 384.563   6
   7   4   3 116.659 305.385   2
   7   4   3-493.314 408.292   5
  -7   4  -4 42.5783 284.072   6
   7   4   4-33.2724 279.732   2
   7   4   4 321.629 418.286   5
  -7   4  -5-254.700 407.893   6
   7   4   5-331.139 299.484   2
   7   4   5-611.944 408.729   5
  -8  -3   9 680.140 516.511   1
  -8  -3   8 476.256 439.506   1
  -8  -3   7 73.1377 340.710   1
  -8  -3   6 877.054 491.704   1
   8  -3  -6 573.514 289.887   5
  -8  -3   5 1970.48 660.692   1
   8  -3  -5-670.211 295.009   5
   8  -3  -4 1137.81 400.255   5
  -8  -3   4 758.802 558.315   1
   8  -3  -3 1626.22 472.564   5
  -8  -3   3 1591.77 672.435   1
  -8  -3   2 912.166 589.711   1
   8  -3  -2 1172.80 417.350   5
  -8  -3   1 1111.80 661.568   1
   8  -3  -1 2122.70 514.566   5
   8  -3   0 922.784 377.091   5
  -8  -3   0-839.836 614.288   1
  -8  -3  -1-160.001 569.125   1
  -8  -3  -2 66.1288 445.785   1
  -8  -3  -3 311.730 470.363   1
  -8  -2  12 101.915 358.471   1
  -8  -2  11 639.087 427.440   1
   8  -2 -10 670.324 292.542   5
  -8  -2  10 231.214 384.268   1
   8  -2  -9 1996.52 500.248   5
  -8  -2   9 1786.29 606.232   1
   8  -2  -8 505.166 274.097   5
  -8  -2   8-286.439 287.535   1
  -8  -2   7-22.9978 246.998   1
   8  -2  -7 287.986 235.263   5
  -8  -2   6-89.3910 370.040   1
   8  -2  -6 135.490 230.826   5
  -8  -2   5 39.6093 377.193   1
   8  -2  -5-85.4327 216.417   5
   8  -2  -4 563.841 304.591   5
  -8  -2   4 1096.24 473.865   1
   8  -2  -3 254.826 287.072   5
  -8  -2   3-500.568 444.826   1
  -8  -2   2-79.8063 388.483   1
   8  -2  -2-147.090 208.779   5
  -8  -2   1-29.6220 340.178   1
   8  -2  -1 764.369 354.315   5
  -8  -2   0-1102.60 565.032   1
   8  -2   0-181.413 273.968   5
  -8  -2  -1-582.280 492.357   1
   8  -2   1-258.324 285.797   5
  -8  -2  -2 183.006 428.852   1
  -8  -2  -3-831.507 552.542   1
   8  -2   4 611.026 242.027   2
   8  -2   5 1305.45 396.187   2
   8  -2   6 8.43762 161.710   2
  -8  -1  13-131.657 292.757   1
   8  -1 -13 291.514 207.506   5
  -8  -1  12 671.230 463.306   1
   8  -1 -12 264.275 229.960   5
  -8  -1  11 547.778 406.030   1
   8  -1 -11 407.123 302.668   5
   8  -1 -10 3271.87 709.888   5
  -8  -1  10 1935.37 655.622   1
   8  -1  -9 3622.67 729.540   5
  -8  -1   9 2274.89 632.397   1
   8  -1  -8 647.002 428.408   5
  -8  -1   8 1428.00 520.130   1
  -8  -1   7 859.132 464.482   1
   8  -1  -7 487.777 356.256   5
  -8  -1   6 458.586 418.729   1
   8  -1  -6 237.570 272.204   5
  -8  -1   5 355.734 400.776   1
   8  -1  -5 872.552 376.958   5
  -8  -1   4 333.542 396.104   1
   8  -1  -4 952.690 397.928   5
   8  -1  -3-133.087 289.904   5
  -8  -1   3-292.724 398.780   1
  -8  -1   2 893.074 461.078   1
   8  -1  -2 490.405 307.703   5
  -8  -1   1 412.180 426.747   1
   8  -1  -1 459.163 342.893   5
  -8  -1   0 387.934 392.463   1
   8  -1   0-45.2256 120.512   2
   8  -1   0 481.908 303.135   5
   8  -1   1-447.340 301.984   5
   8  -1   1-412.201 203.314   2
  -8  -1  -1-102.402 334.496   1
   8  -1   2 254.141 289.294   5
   8  -1   2 199.325 162.073   2
  -8  -1  -2-9.71473 419.679   1
   8  -1   3 1671.84 509.675   5
   8  -1   3 532.398 257.714   2
   8  -1   4 2880.18 519.957   2
  -8  -1  -4 3966.53 724.456   6
  -8  -1  -5 1999.15 524.954   6
   8  -1   5 807.733 319.446   2
   8  -1   6 129.762 173.534   2
   8  -1   7 1045.34 349.413   2
  -8   0  13-202.361 313.963   1
   8   0 -13-874.875 416.362   5
  -8   0  12 271.502 279.321   1
   8   0 -12-520.702 340.552   5
  -8   0  11 91.3803 306.206   1
   8   0 -11-399.326 308.706   5
  -8   0  10 162.254 315.490   1
   8   0 -10-9.02938 296.837   5
   8   0  -9 217.194 362.137   5
  -8   0   9 32.6740 244.453   1
   8   0  -8-301.538 314.292   5
  -8   0   8 609.246 346.232   1
   8   0  -7 889.401 428.346   5
  -8   0   7 721.398 398.907   1
   8   0  -6 691.643 383.027   5
  -8   0   6 64.3185 248.069   1
  -8   0   5 588.137 332.732   1
   8   0  -5 448.026 361.208   5
  -8   0   4-54.1347 216.541   1
   8   0  -4 52.2207 271.990   5
   8   0  -3 3854.96 808.416   5
  -8   0   3 3585.55 718.734   1
   8   0  -2 1420.01 317.657   2
   8   0  -2 1103.05 511.170   5
  -8   0   1 1356.11 462.946   1
   8   0  -1 1411.26 311.004   2
   8   0  -1 1244.08 476.302   5
   8   0   0 7.25019 163.578   2
   8   0   0 141.827 252.930   5
  -8   0   0-413.376 331.992   1
  -8   0  -1-71.6450 294.578   1
   8   0   1 263.252 191.559   2
   8   0   1 758.198 403.515   5
  -8   0  -2-288.146 406.830   1
   8   0   2 103.935 198.817   2
   8   0   2-212.748 273.852   5
  -8   0  -3 242.870 311.807   6
   8   0   3 294.125 322.362   5
   8   0   3-231.778 161.526   2
  -8   0  -4-56.9520 211.021   6
   8   0   4-635.966 299.641   2
  -8   0  -5-191.823 284.665   6
   8   0   5 319.672 264.976   2
  -8   0  -6 418.566 291.861   6
   8   0   6-170.720 243.426   2
  -8   0  -7-15.8512 73.0716   6
   8   0   7 601.661 295.081   2
   8   1 -13-724.917 361.524   5
   8   1 -12 64.4723 306.025   5
  -8   1  11 891.104 380.770   1
   8   1 -11 315.723 336.424   5
  -8   1  10 2566.56 543.954   1
   8   1 -10 3240.99 800.353   5
  -8   1   9 3452.02 631.753   1
   8   1  -9 3381.71 811.966   5
  -8   1   8 745.249 351.559   1
   8   1  -8 695.459 426.308   5
  -8   1   7 1047.57 373.753   1
   8   1  -7 979.799 484.104   5
   8   1  -6 611.607 413.813   5
  -8   1   6 414.815 276.425   1
   8   1  -5 129.069 280.490   5
  -8   1   5 214.377 227.829   1
  -8   1   4 424.847 289.255   1
   8   1  -4 868.018 447.716   5
  -8   1   4 880.254 363.995   4
  -8   1   3 118.816 221.251   1
   8   1  -3-239.044 334.641   5
  -8   1   3 35.5448 236.969   4
   8   1  -2 732.294 272.449   2
  -8   1   2 637.029 324.304   1
   8   1  -2 559.432 382.871   5
  -8   1   2 715.762 309.444   4
   8   1  -1 311.387 253.315   2
   8   1  -1 212.237 306.978   5
  -8   1   1 332.513 219.925   4
  -8   1   1-229.092 264.338   1
  -8   1   0 405.977 337.156   1
   8   1   0 717.293 319.061   2
   8   1   0 54.9938 259.298   5
  -8   1  -1-349.765 299.386   1
   8   1   1 13.4932 214.971   2
   8   1   1 192.175 310.824   5
  -8   1  -2 484.684 380.728   6
  -8   1  -2 321.563 320.402   1
   8   1   2 394.557 284.689   2
   8   1   2 177.043 350.960   5
  -8   1  -3 574.093 402.014   6
   8   1   3 792.278 338.535   2
   8   1   3 797.418 506.301   5
  -8   1  -4 3747.18 821.342   6
   8   1   4 3288.83 643.647   2
   8   1   4 2719.08 763.361   5
  -8   1  -5 726.080 423.584   6
   8   1   5 1697.02 475.455   2
  -8   1  -6 346.434 325.375   6
   8   1   6 290.461 376.632   5
   8   1   6 1017.34 416.477   2
  -8   1  -7 546.683 438.463   6
   8   1   7 439.522 424.881   5
   8   1   7-626.977 341.541   2
   8   2 -12-358.163 352.349   5
   8   2 -11 556.233 364.236   5
  -8   2  11 1073.78 538.225   4
   8   2 -10 1145.76 519.273   5
  -8   2  10 668.920 463.594   4
   8   2  -9 686.862 498.363   5
  -8   2   9 1337.49 616.773   4
   8   2  -8 224.970 394.356   5
  -8   2   8-101.590 353.232   4
   8   2  -7 527.026 517.133   5
  -8   2   7-254.328 349.620   4
   8   2  -6 768.897 468.916   5
  -8   2   6 1003.91 477.008   4
   8   2  -5 314.648 317.489   5
  -8   2   5 79.1906 296.745   4
   8   2  -4 57.3868 292.130   5
  -8   2   4-9.58693 255.378   4
   8   2  -3 810.778 454.086   5
  -8   2   3-85.7228 274.852   4
   8   2  -2 954.060 487.643   5
  -8   2   2 254.581 257.219   4
   8   2  -1 607.956 312.165   2
   8   2  -1 576.398 403.152   5
  -8   2   1 114.546 239.009   4
   8   2   0-55.9875 192.274   2
   8   2   0-106.594 272.457   5
   8   2   1 168.497 228.805   2
   8   2   1 63.6795 269.333   5
  -8   2  -1 241.449 395.321   6
  -8   2  -2-571.746 462.300   6
   8   2   2-403.487 338.855   2
   8   2   2-40.7694 271.626   5
  -8   2  -3 602.816 495.742   6
   8   2   3 445.671 320.056   2
   8   2   3 489.993 400.152   5
  -8   2  -4 559.193 463.671   6
   8   2   4 899.028 398.861   2
   8   2   4 668.348 440.100   5
  -8   2  -5 979.141 592.893   6
   8   2   5 1052.48 433.718   2
   8   2   5 1971.62 708.308   5
  -8   2  -6 586.404 362.087   6
   8   2   6 451.979 324.654   2
   8   2   6 56.9351 358.050   5
   8   3  -9-847.778 449.509   5
  -8   3   9 381.906 423.071   4
   8   3  -8 48.0853 260.206   5
  -8   3   8 486.322 440.898   4
   8   3  -7 467.670 378.907   5
  -8   3   7 455.475 444.599   4
   8   3  -6-379.685 399.875   5
  -8   3   6-263.973 320.215   4
   8   3  -5 389.641 297.537   5
  -8   3   5 553.947 440.658   4
   8   3  -4 666.239 435.213   5
  -8   3   4 116.127 303.021   4
   8   3  -3 3360.08 880.183   5
  -8   3   3 2376.86 608.386   4
   8   3  -2 1544.27 619.840   5
  -8   3   2 1847.78 503.032   4
   8   3  -1 3024.13 863.771   5
   8   3   0 567.174 332.705   2
   8   3   0 173.431 375.158   5
   8   3   1 240.942 283.747   2
   8   3   1-432.666 361.928   5
  -8   3  -1 295.318 365.020   6
  -8   3  -2 833.355 477.157   6
   8   3   2 354.070 346.277   2
   8   3   2-78.3105 375.126   5
  -8   3  -3 377.969 408.383   6
   8   3   3 533.540 315.609   2
   8   3   3-339.564 446.310   5
  -9  -2   4-588.046 473.713   1
   9  -2  -4 175.904 192.605   5
   9  -2  -3 248.533 288.447   5
  -9  -2   3 1193.73 572.334   1
  -9  -2   2 308.987 415.435   1
   9  -2  -2 603.159 349.590   5
   9  -1  -8 687.406 436.340   5
  -9  -1   8 829.753 471.395   1
   9  -1  -7 1028.80 474.884   5
  -9  -1   7 626.979 488.934   1
  -9  -1   6 5.99334 317.056   1
   9  -1  -6 458.940 319.251   5
  -9  -1   5 62.5298 303.623   1
   9  -1  -5 1003.82 446.255   5
  -9  -1   4 565.036 390.488   1
   9  -1  -4 57.6917 235.214   5
   9  -1  -3 461.360 349.249   5
  -9  -1   3 337.044 387.010   1
   9  -1  -2 755.247 400.167   5
  -9  -1   2 262.499 467.950   1
  -9  -1   1 390.096 474.239   1
   9  -1  -1 666.861 378.875   5
  -9  -1   0 712.828 511.086   1
   9  -1   0 135.379 333.698   5
   9  -1   1 533.345 359.202   5
  -9  -1  -1-360.546 474.606   1
  -9   0   9 245.421 283.126   1
   9   0  -9-332.508 377.471   5
   9   0  -8 70.3827 251.605   5
  -9   0   8 479.563 368.830   1
   9   0  -7 209.204 394.838   5
  -9   0   7 62.9447 262.774   1
   9   0  -6 1060.79 496.391   5
  -9   0   6 773.748 424.144   1
  -9   0   5 287.957 351.181   1
   9   0  -5 720.018 435.584   5
  -9   0   4-159.337 337.673   1
   9   0  -4 883.814 442.896   5
  -9   0   3-271.254 314.390   1
   9   0  -3 547.914 354.398   5
   9   0  -2 315.422 237.540   5
  -9   0   2-126.653 272.410   1
  -9   0   1 180.914 243.610   1
   9   0  -1 157.195 259.522   5
  -9   0   0 413.073 316.025   1
   9   0   0 11.5281 193.229   5
   9   0   1-232.248 390.570   5
  -9   0  -1-961.318 478.872   1
  -9   0  -2-82.8771 360.701   1
   9   0   2 10.2043 181.452   5
   9   1  -8-3.70198 343.215   5
   9   1  -7-318.806 359.993   5
   9   1  -6 600.227 376.838   5
  -9   1   6 219.217 307.251   4
   9   1  -5 14.2368 192.685   5
  -9   1   5 73.4878 232.584   4
   9   1  -4 83.3336 399.927   5
   9   1  -3 1179.98 517.855   5
   9   1  -2-760.795 425.751   5
   9   1  -1 10.5566 248.362   5
   9   1   0 808.079 452.241   5
   9   1   1-852.539 521.450   5
   9   2  -4 350.851 359.499   5
   9   2  -3 882.742 469.189   5
   9   2  -2 21.3444 270.581   5
   0   0   0    0.00    0.00   0
TITL IMXXIIR_Mo in P2(1)
REM P2(1) (#4 in standard setting)
CELL 0.71073   7.594977   5.899674  16.995921  90.0000  99.4201  90.0000
ZERR    2.00   0.001114   0.000908   0.002913   0.0000   0.0152   0.0000
LATT -1
SYMM -x, y+1/2,-z
SFAC C H N F
UNIT 38.00 32.00 2.00 2.00
TREF
HKLF 4
END
;
_shelx_hkl_checksum              76872
_shelx_res_file
;
    IMXXIIR_Mo.res created by SHELXL-2014/7
TITL IMXXIIR_Mo in P2(1)
CELL 0.71073   7.5950   5.8997  16.9960  90.000  99.420  90.000
ZERR    2.00   0.0011   0.0009   0.0030   0.000   0.015   0.000
LATT -1
SYMM -X, 0.5+Y, -Z
SFAC C H N F
UNIT 38 32 2 2
OMIT    -4  -1   3
OMIT    -4   1   3
OMIT     4   0   5
OMIT     3  -2   4
L.S. 20
PLAN 10
TEMP 25(2)
SHEL 100 .84
BOND $H
CONF
FMAP 2
ACTA
WGHT    0.050000
FVAR       8.43078
F1    4    0.096613    0.569037    0.484558    11.00000    0.07819    0.14130 =
         0.08946   -0.00480   -0.01354   -0.01365
N1    3    0.714300    0.631145    0.781126    11.00000    0.05807    0.06162 =
         0.05254    0.00129    0.00528    0.00050
C1    1    0.764134    0.638570    0.924404    11.00000    0.03738    0.04294 =
         0.05242    0.00038    0.00435   -0.00227
C2    1    0.826532    0.526241    0.993490    11.00000    0.04254    0.03778 =
         0.06079    0.00187    0.01079    0.00424
AFIX  43
H2A   2    0.883198    0.387413    0.990723    11.00000   -1.20000
AFIX   0
C3    1    0.807981    0.613806    1.069327    11.00000    0.03903    0.04065 =
         0.05408   -0.00107    0.01121   -0.00137
C4    1    0.865874    0.496133    1.140735    11.00000    0.06448    0.05638 =
         0.06014    0.00916    0.02028    0.00759
AFIX  43
H4A   2    0.926020    0.359193    1.139520    11.00000   -1.20000
AFIX   0
C5    1    0.834628    0.581009    1.211897    11.00000    0.07756    0.09160 =
         0.05706    0.00625    0.01709    0.01108
AFIX  43
H5A   2    0.872260    0.500241    1.258614    11.00000   -1.20000
AFIX   0
C6    1    0.746509    0.788407    1.215287    11.00000    0.07368    0.08076 =
         0.06411   -0.01685    0.02196   -0.00485
AFIX  43
H6A   2    0.724659    0.843793    1.264005    11.00000   -1.20000
AFIX   0
C7    1    0.693383    0.907714    1.148020    11.00000    0.05792    0.05593 =
         0.07978   -0.01141    0.01782    0.00002
AFIX  43
H7A   2    0.637529    1.046884    1.151290    11.00000   -1.20000
AFIX   0
C8    1    0.720288    0.826961    1.072591    11.00000    0.03877    0.04188 =
         0.05715   -0.00298    0.00726   -0.00395
C9    1    0.663651    0.944879    1.000907    11.00000    0.05302    0.03497 =
         0.08630   -0.00279    0.01621    0.00420
AFIX  43
H9A   2    0.612217    1.087437    1.002735    11.00000   -1.20000
AFIX   0
C10   1    0.682372    0.855354    0.929236    11.00000    0.05394    0.04684 =
         0.06144    0.00582   -0.00101    0.00300
AFIX  43
H10A  2    0.641617    0.935785    0.882760    11.00000   -1.20000
AFIX   0
C11   1    0.774915    0.533518    0.847075    11.00000    0.04794    0.05285 =
         0.05599   -0.00162    0.00867    0.00463
AFIX  43
H11A  2    0.827524    0.391432    0.846059    11.00000   -1.20000
AFIX   0
C12   1    0.728168    0.507495    0.707828    11.00000    0.06543    0.06822 =
         0.05536    0.00415    0.00831    0.00751
AFIX  13
H12A  2    0.756241    0.348283    0.720710    11.00000   -1.20000
AFIX   0
C13   1    0.878927    0.612558    0.669175    11.00000    0.05953    0.15439 =
         0.07215    0.01334    0.01938   -0.00123
AFIX  33
H13A  2    0.888902    0.532260    0.620974    11.00000   -1.50000
H13B  2    0.852227    0.768944    0.656975    11.00000   -1.50000
H13C  2    0.989605    0.601944    0.705488    11.00000   -1.50000
AFIX   0
C14   1    0.553751    0.521387    0.651203    11.00000    0.05993    0.05867 =
         0.04877    0.00268    0.01971   -0.00068
C15   1    0.501024    0.348157    0.597885    11.00000    0.08638    0.06195 =
         0.06187   -0.00867    0.02578    0.00151
AFIX  43
H15A  2    0.570821    0.218161    0.599648    11.00000   -1.20000
AFIX   0
C16   1    0.347224    0.362808    0.541943    11.00000    0.08935    0.08388 =
         0.05947   -0.01588    0.01136   -0.01664
AFIX  43
H16A  2    0.313526    0.245025    0.506284    11.00000   -1.20000
AFIX   0
C17   1    0.247430    0.552096    0.540416    11.00000    0.06185    0.09022 =
         0.05959    0.00008    0.00455   -0.01089
C18   1    0.290915    0.727072    0.591759    11.00000    0.05602    0.07397 =
         0.06932    0.00850    0.01277    0.00199
AFIX  43
H18A  2    0.218149    0.854429    0.589707    11.00000   -1.20000
AFIX   0
C19   1    0.445670    0.712246    0.647226    11.00000    0.06519    0.06324 =
         0.05684   -0.00493    0.01158   -0.00561
AFIX  43
H19A  2    0.477728    0.831775    0.682325    11.00000   -1.20000
AFIX   0
HKLF 4
REM  IMXXIIR_Mo in P2(1)
REM R1 =  0.0655 for    1640 Fo > 4sig(Fo)  and  0.1136 for all    2627 data
REM    190 parameters refined using      1 restraints
END
WGHT      0.0742      0.1409
REM Highest difference peak  0.233,  deepest hole -0.192,  1-sigma level  0.047
Q1    1   0.4130  1.0043  1.0034  11.00000  0.05    0.23
Q2    1   0.4951  1.1209  1.0687  11.00000  0.05    0.22
Q3    1   0.5608  1.1087  1.2180  11.00000  0.05    0.21
Q4    1   1.0074  0.3535  0.9307  11.00000  0.05    0.20
Q5    1   1.0596  0.3670  1.0739  11.00000  0.05    0.19
Q6    1   1.0262  0.4528  0.8563  11.00000  0.05    0.19
Q7    1   0.6491  0.3650  0.5439  11.00000  0.05    0.19
Q8    1   0.5017  1.0180  1.1514  11.00000  0.05    0.19
Q9    1   0.9169  0.1445  0.9214  11.00000  0.05    0.19
Q10   1   1.0840  0.5041  1.0027  11.00000  0.05    0.18
;
_shelx_res_checksum              96448
loop_
_space_group_symop_operation_xyz
'x, y, z'
'-x, y+1/2, -z'
loop_
_atom_site_type_symbol
_atom_site_label
_atom_site_fract_x
_atom_site_fract_y
_atom_site_fract_z
_atom_site_U_iso_or_equiv
_atom_site_adp_type
_atom_site_calc_flag
_atom_site_occupancy
F F1 0.0966(5) 0.5690(9) 0.4846(2) 0.1060(14) Uani d 1
N N1 0.7143(6) 0.6311(8) 0.7811(3) 0.0578(12) Uani d 1
C C1 0.7641(6) 0.6386(9) 0.9244(3) 0.0446(13) Uani d 1
C C2 0.8265(6) 0.5262(9) 0.9935(3) 0.0468(12) Uani d 1
H H2A 0.8832 0.3874 0.9907 0.056 Uiso calc 1
C C3 0.8080(6) 0.6138(8) 1.0693(3) 0.0442(12) Uani d 1
C C4 0.8659(7) 0.4961(10) 1.1407(3) 0.0592(15) Uani d 1
H H4A 0.9260 0.3592 1.1395 0.071 Uiso calc 1
C C5 0.8346(8) 0.5810(12) 1.2119(4) 0.0747(18) Uani d 1
H H5A 0.8723 0.5002 1.2586 0.090 Uiso calc 1
C C6 0.7465(8) 0.7884(11) 1.2153(4) 0.072(2) Uani d 1
H H6A 0.7247 0.8438 1.2640 0.086 Uiso calc 1
C C7 0.6934(7) 0.9077(10) 1.1480(4) 0.0638(17) Uani d 1
H H7A 0.6375 1.0469 1.1513 0.077 Uiso calc 1
C C8 0.7203(6) 0.8270(9) 1.0726(3) 0.0460(13) Uani d 1
C C9 0.6637(7) 0.9449(9) 1.0009(4) 0.0576(16) Uani d 1
H H9A 0.6122 1.0874 1.0027 0.069 Uiso calc 1
C C10 0.6824(7) 0.8554(9) 0.9292(3) 0.0552(15) Uani d 1
H H10A 0.6416 0.9358 0.8828 0.066 Uiso calc 1
C C11 0.7749(6) 0.5335(10) 0.8471(3) 0.0522(14) Uani d 1
H H11A 0.8275 0.3914 0.8461 0.063 Uiso calc 1
C C12 0.7282(7) 0.5075(11) 0.7078(3) 0.0632(16) Uani d 1
H H12A 0.7562 0.3483 0.7207 0.076 Uiso calc 1
C C13 0.8789(7) 0.6126(16) 0.6692(4) 0.094(2) Uani d 1
H H13A 0.8889 0.5323 0.6210 0.142 Uiso calc 1
H H13B 0.8522 0.7689 0.6570 0.142 Uiso calc 1
H H13C 0.9896 0.6019 0.7055 0.142 Uiso calc 1
C C14 0.5538(7) 0.5214(10) 0.6512(3) 0.0546(14) Uani d 1
C C15 0.5010(9) 0.3482(11) 0.5979(3) 0.0685(17) Uani d 1
H H15A 0.5708 0.2182 0.5996 0.082 Uiso calc 1
C C16 0.3472(9) 0.3628(13) 0.5419(4) 0.0777(19) Uani d 1
H H16A 0.3135 0.2450 0.5063 0.093 Uiso calc 1
C C17 0.2474(8) 0.5521(13) 0.5404(4) 0.0712(17) Uani d 1
C C18 0.2909(8) 0.7271(12) 0.5918(4) 0.0662(17) Uani d 1
H H18A 0.2181 0.8544 0.5897 0.079 Uiso calc 1
C C19 0.4457(7) 0.7122(10) 0.6472(3) 0.0616(16) Uani d 1
H H19A 0.4777 0.8318 0.6823 0.074 Uiso calc 1
loop_
_atom_site_aniso_label
_atom_site_aniso_U_11
_atom_site_aniso_U_22
_atom_site_aniso_U_33
_atom_site_aniso_U_12
_atom_site_aniso_U_13
_atom_site_aniso_U_23
F1 0.078(2) 0.141(4) 0.089(3) -0.014(3) -0.014(2) -0.005(2)
N1 0.058(3) 0.062(3) 0.053(3) 0.000(2) 0.005(2) 0.001(3)
C1 0.037(3) 0.043(3) 0.052(3) -0.002(3) 0.004(2) 0.000(3)
C2 0.043(3) 0.038(3) 0.061(4) 0.004(2) 0.011(2) 0.002(3)
C3 0.039(3) 0.041(3) 0.054(3) -0.001(3) 0.011(2) -0.001(3)
C4 0.064(3) 0.056(4) 0.060(4) 0.008(3) 0.020(3) 0.009(3)
C5 0.078(4) 0.092(5) 0.057(4) 0.011(4) 0.017(3) 0.006(4)
C6 0.074(4) 0.081(5) 0.064(4) -0.005(4) 0.022(4) -0.017(4)
C7 0.058(4) 0.056(4) 0.080(5) 0.000(3) 0.018(3) -0.011(3)
C8 0.039(3) 0.042(3) 0.057(4) -0.004(3) 0.007(2) -0.003(3)
C9 0.053(3) 0.035(3) 0.086(5) 0.004(3) 0.016(3) -0.003(3)
C10 0.054(3) 0.047(4) 0.061(4) 0.003(3) -0.001(3) 0.006(3)
C11 0.048(3) 0.053(3) 0.056(4) 0.005(3) 0.009(2) -0.002(3)
C12 0.065(4) 0.068(4) 0.055(4) 0.008(3) 0.008(3) 0.004(3)
C13 0.060(3) 0.154(7) 0.072(4) -0.001(5) 0.019(3) 0.013(5)
C14 0.060(3) 0.059(4) 0.049(3) -0.001(3) 0.020(3) 0.003(3)
C15 0.086(4) 0.062(4) 0.062(4) 0.002(4) 0.026(4) -0.009(3)
C16 0.089(5) 0.084(5) 0.059(4) -0.017(4) 0.011(4) -0.016(4)
C17 0.062(4) 0.090(5) 0.060(4) -0.011(4) 0.005(3) 0.000(4)
C18 0.056(4) 0.074(4) 0.069(4) 0.002(3) 0.013(3) 0.009(4)
C19 0.065(4) 0.063(4) 0.057(4) -0.006(3) 0.012(3) -0.005(3)
loop_
_atom_type_symbol
_atom_type_description
_atom_type_scat_dispersion_real
_atom_type_scat_dispersion_imag
_atom_type_scat_source
C C 0.0033 0.0016 'International Tables Vol C Tables 4.2.6.8 and 6.1.1.4'
H H 0.0000 0.0000 'International Tables Vol C Tables 4.2.6.8 and 6.1.1.4'
N N 0.0061 0.0033 'International Tables Vol C Tables 4.2.6.8 and 6.1.1.4'
F F 0.0171 0.0103 'International Tables Vol C Tables 4.2.6.8 and 6.1.1.4'
loop_
_exptl_crystal_face_index_h
_exptl_crystal_face_index_k
_exptl_crystal_face_index_l
_exptl_crystal_face_perp_dist
-10 -1 -5 0.0693
10 0 5 0.0900
0 8 3 0.3062
3 -8 -2 0.3967
-4 -1 23 0.0624
1 7 -15 0.2527
9 0 -16 0.0660
-9 -1 16 0.0781
0 0 24 0.0508
0 0 -24 0.0345
loop_
_geom_angle_atom_site_label_1
_geom_angle_atom_site_label_2
_geom_angle_atom_site_label_3
_geom_angle
C11 N1 C12 117.2(5)
C2 C1 C10 118.6(5)
C2 C1 C11 120.2(5)
C10 C1 C11 121.2(5)
C1 C2 C3 122.3(5)
C1 C2 H2A 118.9
C3 C2 H2A 118.9
C4 C3 C2 122.8(5)
C4 C3 C8 118.9(5)
C2 C3 C8 118.2(5)
C5 C4 C3 120.6(5)
C5 C4 H4A 119.7
C3 C4 H4A 119.7
C4 C5 C6 120.7(6)
C4 C5 H5A 119.7
C6 C5 H5A 119.7
C7 C6 C5 120.0(6)
C7 C6 H6A 120.0
C5 C6 H6A 120.0
C6 C7 C8 121.7(6)
C6 C7 H7A 119.1
C8 C7 H7A 119.1
C9 C8 C7 123.3(5)
C9 C8 C3 118.7(5)
C7 C8 C3 118.0(5)
C10 C9 C8 121.5(5)
C10 C9 H9A 119.2
C8 C9 H9A 119.2
C9 C10 C1 120.7(5)
C9 C10 H10A 119.7
C1 C10 H10A 119.7
N1 C11 C1 122.0(5)
N1 C11 H11A 119.0
C1 C11 H11A 119.0
N1 C12 C14 109.8(5)
N1 C12 C13 109.0(5)
C14 C12 C13 110.1(5)
N1 C12 H12A 109.3
C14 C12 H12A 109.3
C13 C12 H12A 109.3
C12 C13 H13A 109.5
C12 C13 H13B 109.5
H13A C13 H13B 109.5
C12 C13 H13C 109.5
H13A C13 H13C 109.5
H13B C13 H13C 109.5
C15 C14 C19 117.6(5)
C15 C14 C12 120.6(6)
C19 C14 C12 121.7(5)
C14 C15 C16 121.8(6)
C14 C15 H15A 119.1
C16 C15 H15A 119.1
C17 C16 C15 118.3(6)
C17 C16 H16A 120.8
C15 C16 H16A 120.8
C16 C17 C18 122.8(6)
C16 C17 F1 118.6(7)
C18 C17 F1 118.6(7)
C17 C18 C19 118.7(6)
C17 C18 H18A 120.7
C19 C18 H18A 120.7
C18 C19 C14 120.9(6)
C18 C19 H19A 119.5
C14 C19 H19A 119.5
loop_
_geom_bond_atom_site_label_1
_geom_bond_atom_site_label_2
_geom_bond_distance
F1 C17 1.367(6)
N1 C11 1.277(6)
N1 C12 1.462(7)
C1 C2 1.364(7)
C1 C10 1.430(7)
C1 C11 1.467(7)
C2 C3 1.417(7)
C2 H2A 0.9300
C3 C4 1.405(7)
C3 C8 1.428(7)
C4 C5 1.365(7)
C4 H4A 0.9300
C5 C6 1.400(9)
C5 H5A 0.9300
C6 C7 1.347(8)
C6 H6A 0.9300
C7 C8 1.413(7)
C7 H7A 0.9300
C8 C9 1.408(7)
C9 C10 1.356(7)
C9 H9A 0.9300
C10 H10A 0.9300
C11 H11A 0.9300
C12 C14 1.507(7)
C12 C13 1.540(8)
C12 H12A 0.9800
C13 H13A 0.9600
C13 H13B 0.9600
C13 H13C 0.9600
C14 C15 1.381(7)
C14 C19 1.389(7)
C15 C16 1.383(8)
C15 H15A 0.9300
C16 C17 1.348(9)
C16 H16A 0.9300
C17 C18 1.357(9)
C18 C19 1.384(8)
C18 H18A 0.9300
C19 H19A 0.9300
loop_
_geom_torsion_atom_site_label_1
_geom_torsion_atom_site_label_2
_geom_torsion_atom_site_label_3
_geom_torsion_atom_site_label_4
_geom_torsion
C10 C1 C2 C3 2.0(7)
C11 C1 C2 C3 -175.6(4)
C1 C2 C3 C4 177.6(4)
C1 C2 C3 C8 0.1(7)
C2 C3 C4 C5 -175.7(5)
C8 C3 C4 C5 1.7(7)
C3 C4 C5 C6 -0.9(9)
C4 C5 C6 C7 -0.8(9)
C5 C6 C7 C8 1.5(9)
C6 C7 C8 C9 178.8(5)
C6 C7 C8 C3 -0.6(8)
C4 C3 C8 C9 179.6(5)
C2 C3 C8 C9 -2.8(6)
C4 C3 C8 C7 -1.0(7)
C2 C3 C8 C7 176.6(5)
C7 C8 C9 C10 -176.0(5)
C3 C8 C9 C10 3.4(7)
C8 C9 C10 C1 -1.3(8)
C2 C1 C10 C9 -1.5(7)
C11 C1 C10 C9 176.1(5)
C12 N1 C11 C1 -178.4(4)
C2 C1 C11 N1 178.4(4)
C10 C1 C11 N1 0.9(7)
C11 N1 C12 C14 134.2(5)
C11 N1 C12 C13 -105.2(6)
N1 C12 C14 C15 -150.1(5)
C13 C12 C14 C15 90.0(7)
N1 C12 C14 C19 33.7(7)
C13 C12 C14 C19 -86.2(7)
C19 C14 C15 C16 0.4(8)
C12 C14 C15 C16 -175.9(5)
C14 C15 C16 C17 -0.2(9)
C15 C16 C17 C18 -0.6(9)
C15 C16 C17 F1 179.1(5)
C16 C17 C18 C19 1.0(9)
F1 C17 C18 C19 -178.6(5)
C17 C18 C19 C14 -0.8(8)
C15 C14 C19 C18 0.1(8)
C12 C14 C19 C18 176.3(5)

_cod_database_fobs_code 2020456
