#------------------------------------------------------------------------------
#$Date: 2015-07-29 04:42:08 +0300 (Wed, 29 Jul 2015) $
#$Revision: 152603 $
#$URL: svn://www.crystallography.net/cod/cif/2/02/00/2020069.cif $
#------------------------------------------------------------------------------
#
# This file is available in the Crystallography Open Database (COD),
# http://www.crystallography.net/. The original data for this entry
# were provided by IUCr Journals, http://journals.iucr.org/.
#
# The file may be used within the scientific community so long as
# proper attribution is given to the journal article from which the
# data were obtained.
#
data_2020069
loop_
_publ_author_name
'Subbulakshmi, Karanth N.'
'Narayana, Badiadka'
'Yathirajan, Hemmige S.'
'Akkurt, Mehmet'
'\,Celik, \"Omer'
'Ersanl\?i, Cem C\"uneyt'
'Glidewell, Christopher'
_publ_section_title
;
 Dihydrooxazolones and dihydroimidazolones derived from acylglycines:
 syntheses, molecular strctures and supramolecular assembly
;
_journal_coeditor_code           SK3595
_journal_issue                   8
_journal_name_full               'Acta Crystallographica Section C'
_journal_page_first
;
;
_journal_paper_doi               10.1107/S2053229615013637
_journal_volume                  71
_journal_year                    2015
_chemical_formula_iupac          'C20 H15 N3 O S'
_chemical_formula_moiety         'C20 H15 N3 O S'
_chemical_formula_sum            'C20 H15 N3 O S'
_chemical_formula_weight         345.41
_chemical_name_systematic
3-Anilino-2-phenyl-5-[(thiophen-2-yl)methylidene]-3,5-dihydro-4<i>H</i>-imidazol-4-one
_space_group_crystal_system      triclinic
_space_group_IT_number           2
_space_group_name_Hall           '-P 1'
_space_group_name_H-M_alt        'P -1'
_symmetry_space_group_name_Hall  '-P 1'
_symmetry_space_group_name_H-M   'P -1'
_atom_sites_solution_hydrogens   mixed
_audit_creation_method           SHELXL2014
_cell_angle_alpha                114.4810(10)
_cell_angle_beta                 98.5640(10)
_cell_angle_gamma                105.8910(10)
_cell_formula_units_Z            2
_cell_length_a                   8.8460(2)
_cell_length_b                   9.9951(2)
_cell_length_c                   11.2435(2)
_cell_measurement_reflns_used    7165
_cell_measurement_temperature    296(2)
_cell_measurement_theta_max      35.000
_cell_measurement_theta_min      2.086
_cell_volume                     830.15(3)
_computing_cell_refinement
;
SAINT (Bruker, 2007)
;
_computing_data_collection
;
APEX2 (Bruker, 2007)
;
_computing_data_reduction
;
SAINT (Bruker, 2007)
;
_computing_molecular_graphics
;
PLATON (Spek, 2009)
;
_computing_publication_material
;
SHELXL2014 (Sheldrick, 2015) and PLATON (Spek, 2009)
;
_computing_structure_refinement
;
SHELXL2014 (Sheldrick, 2015)
;
_computing_structure_solution
;
SHELXS97 (Sheldrick, 2008)
;
_diffrn_ambient_temperature      296(2)
_diffrn_measured_fraction_theta_full 1.000
_diffrn_measured_fraction_theta_max 0.995
_diffrn_measurement_device_type  'Bruker APEXII CCD'
_diffrn_measurement_method       '\f and \w scans'
_diffrn_radiation_monochromator  graphite
_diffrn_radiation_type           MoK\a
_diffrn_radiation_wavelength     0.71073
_diffrn_reflns_av_R_equivalents  0.0223
_diffrn_reflns_limit_h_max       12
_diffrn_reflns_limit_h_min       -12
_diffrn_reflns_limit_k_max       14
_diffrn_reflns_limit_k_min       -14
_diffrn_reflns_limit_l_max       15
_diffrn_reflns_limit_l_min       -15
_diffrn_reflns_number            22029
_diffrn_reflns_theta_full        25.242
_diffrn_reflns_theta_max         29.997
_diffrn_reflns_theta_min         2.086
_diffrn_standards_number         0
_exptl_absorpt_coefficient_mu    0.208
_exptl_absorpt_correction_T_max  0.969
_exptl_absorpt_correction_T_min  0.917
_exptl_absorpt_correction_type   multi-scan
_exptl_absorpt_process_details
;
(SADABS; Sheldrick, 2003)
;
_exptl_crystal_colour            brown
_exptl_crystal_density_diffrn    1.382
_exptl_crystal_description       block
_exptl_crystal_F_000             360
_exptl_crystal_size_max          0.350
_exptl_crystal_size_mid          0.200
_exptl_crystal_size_min          0.150
_refine_diff_density_max         0.280
_refine_diff_density_min         -0.258
_refine_ls_extinction_method     none
_refine_ls_goodness_of_fit_ref   1.014
_refine_ls_hydrogen_treatment    mixed
_refine_ls_matrix_type           full
_refine_ls_number_parameters     245
_refine_ls_number_reflns         4814
_refine_ls_number_restraints     13
_refine_ls_restrained_S_all      1.021
_refine_ls_R_factor_all          0.0568
_refine_ls_R_factor_gt           0.0409
_refine_ls_shift/su_max          0.001
_refine_ls_shift/su_mean         0.000
_refine_ls_structure_factor_coef Fsqd
_refine_ls_weighting_details
'w=1/[\s^2^(Fo^2^)+(0.0543P)^2^+0.1853P] where P=(Fo^2^+2Fc^2^)/3'
_refine_ls_weighting_scheme      calc
_refine_ls_wR_factor_gt          0.1021
_refine_ls_wR_factor_ref         0.1131
_reflns_number_gt                3747
_reflns_number_total             4814
_reflns_threshold_expression     'I > 2\s(I)'
_cod_data_source_file            sk3595sup1.cif
_cod_data_source_block           III
_cod_database_code               2020069
_shelx_space_group_comment
;
The symmetry employed for this shelxl refinement is uniquely defined
by the following loop, which should always be used as a source of
symmetry information in preference to the above space-group names.
They are only intended as comments.
;
_shelx_estimated_absorpt_t_min   0.931
_shelx_estimated_absorpt_t_max   0.969
_shelx_hkl_file
;
  -1   0   0   56.31    0.95
  -1   0   0   56.79    0.87
  -1   0   0   55.94    0.98
   1   0   0   55.34    0.87
   1   0   0   56.02    1.12
  -2   0   0   63.92    0.99
  -2   0   0   63.23    1.12
   2   0   0   62.21    0.99
   2   0   0   62.57    1.12
   2   0   0   63.78    1.10
  -3   0   0   35.22    0.57
  -3   0   0   35.39    0.68
   3   0   0   34.62    0.50
   3   0   0   35.11    0.66
   3   0   0   34.96    0.63
   3   0   0   35.58    0.68
  -4   0   0   36.40    0.59
   4   0   0   35.63    0.59
   4   0   0   35.59    0.70
   4   0   0   34.45    0.52
   4   0   0   35.42    0.71
  -5   0   0    0.72    0.06
   5   0   0    0.63    0.05
   5   0   0    0.76    0.05
   5   0   0    0.78    0.08
   5   0   0    0.87    0.09
  -6   0   0   12.05    0.27
  -6   0   0   11.41    0.25
   6   0   0   11.59    0.23
   6   0   0   11.83    0.24
   6   0   0   12.18    0.36
   6   0   0   12.00    0.44
  -7   0   0    7.12    0.21
   7   0   0    6.86    0.27
   7   0   0    6.89    0.28
   7   0   0    6.58    0.17
   8   0   0    0.11    0.08
   8   0   0    0.34    0.09
   8   0   0    0.27    0.05
   9   0   0   -0.06    0.07
   9   0   0    0.07    0.05
   9   0   0    0.06    0.07
  10   0   0    1.29    0.18
  10   0   0    1.44    0.13
  11   0   0   -0.16    0.07
  12   0   0   -0.13    0.09
  13   0   0    0.04    0.11
  13  -1   0    0.85    0.14
  12  -1   0    0.68    0.12
  11  -1   0   -0.01    0.07
  10  -1   0   -0.01    0.09
  10  -1   0    0.14    0.07
 -10   1   0    0.24    0.09
   9  -1   0    0.07    0.07
   9  -1   0    0.02    0.05
  -9   1   0    0.13    0.07
   8  -1   0    2.90    0.19
   8  -1   0    2.73    0.19
  -8   1   0    2.56    0.16
   7  -1   0   10.15    0.34
   7  -1   0   10.56    0.33
   7  -1   0   10.14    0.23
  -7   1   0   10.27    0.27
   6  -1   0   10.22    0.31
   6  -1   0   10.44    0.22
   6  -1   0   11.07    0.33
  -6   1   0   10.59    0.25
   5  -1   0    1.91    0.11
   5  -1   0    1.74    0.05
   5  -1   0    1.78    0.07
   5  -1   0    1.81    0.12
  -5   1   0    2.00    0.10
   4  -1   0   11.25    0.36
   4  -1   0   11.27    0.28
   4  -1   0   11.35    0.19
   4  -1   0   11.67    0.29
   4  -1   0   11.00    0.26
   4  -1   0   11.01    0.20
   3  -1   0   60.99    1.06
   3  -1   0   59.83    0.84
   3  -1   0   59.85    1.09
   3  -1   0   60.33    0.87
  -3   1   0   58.96    1.09
   2  -1   0   80.20    1.18
   2  -1   0   85.33    1.41
   2  -1   0   82.61    1.45
  -2   1   0   82.61    1.69
  -2   1   0   80.94    1.18
  -2   1   0   83.69    1.41
  -2   1   0   83.52    1.18
   1  -1   0   23.70    0.43
   1  -1   0   23.96    0.41
   1  -1   0   23.37    0.38
   1  -1   0   23.49    0.35
  -1   1   0   23.59    0.38
  -1   1   0   23.69    0.41
  -1   1   0   23.85    0.35
  -1   1   0   23.06    0.43
   0  -1   0    6.35    0.12
   0   1   0    6.41    0.13
   0   1   0    6.08    0.10
   0   1   0    6.22    0.12
  -1  -1   0   17.41    0.33
  -1  -1   0   17.13    0.35
  -1  -1   0   17.96    0.31
   1   1   0   17.28    0.35
   1   1   0   17.67    0.31
  -2  -1   0   13.48    0.30
  -2  -1   0   13.56    0.26
   2   1   0   13.55    0.26
   2   1   0   14.03    0.31
   2   1   0   13.58    0.29
  -3  -1   0    1.43    0.10
   3   1   0    1.43    0.09
   3   1   0    1.44    0.09
   3   1   0    1.45    0.08
   3   1   0    1.40    0.04
  -4  -1   0    4.12    0.12
   4   1   0    4.15    0.17
   4   1   0    4.01    0.16
   4   1   0    3.89    0.09
   4   1   0    4.13    0.12
  -5  -1   0    2.23    0.10
   5   1   0    2.43    0.10
   5   1   0    2.32    0.13
   5   1   0    2.46    0.14
   5   1   0    2.32    0.07
  -6  -1   0   26.06    0.50
  -6  -1   0   27.19    0.49
   6   1   0   26.68    0.64
   6   1   0   26.17    0.61
   6   1   0   26.84    0.43
   6   1   0   25.60    0.50
   7   1   0    1.95    0.17
   7   1   0    1.95    0.16
   7   1   0    1.99    0.09
   8   1   0    0.43    0.11
   8   1   0    0.14    0.08
   8   1   0    0.27    0.05
   9   1   0    0.36    0.11
   9   1   0    0.43    0.11
   9   1   0    0.39    0.07
  10   1   0    0.33    0.08
  11   1   0    0.00    0.08
  12   1   0   -0.15    0.09
  13  -2   0    0.43    0.12
  12  -2   0    0.25    0.11
  11  -2   0    0.07    0.08
  10  -2   0    0.50    0.09
  10  -2   0    0.26    0.10
 -10   2   0    0.71    0.14
   9  -2   0    0.44    0.10
   9  -2   0    0.68    0.09
  -9   2   0    0.60    0.12
   8  -2   0    0.22    0.06
   8  -2   0    0.25    0.08
  -8   2   0    0.18    0.07
  -8   2   0    0.30    0.08
   7  -2   0    1.06    0.08
   7  -2   0    1.12    0.12
  -7   2   0    1.09    0.11
  -7   2   0    1.06    0.12
   6  -2   0    4.30    0.19
   6  -2   0    4.07    0.11
   6  -2   0    3.99    0.12
   6  -2   0    3.98    0.20
  -6   2   0    3.68    0.18
  -6   2   0    4.29    0.16
  -6   2   0    4.06    0.11
   5  -2   0   -0.03    0.05
   5  -2   0    0.04    0.03
   5  -2   0    0.00    0.02
   5  -2   0    0.03    0.04
   5  -2   0    0.04    0.03
  -5   2   0    0.01    0.02
  -5   2   0   -0.02    0.04
  -5   2   0   -0.04    0.02
  -5   2   0    0.02    0.04
   4  -2   0   48.09    0.70
   4  -2   0   47.14    1.10
   4  -2   0   46.73    0.72
  -4   2   0   48.15    0.73
  -4   2   0   47.54    0.89
   3  -2   0   37.42    0.53
   3  -2   0   35.38    0.55
   3  -2   0   36.59    0.70
  -3   2   0   36.57    0.69
  -3   2   0   36.34    0.67
  -3   2   0   36.12    0.60
   2  -2   0    0.47    0.03
   2  -2   0    0.47    0.03
   2  -2   0    0.47    0.04
   2  -2   0    0.53    0.05
  -2   2   0    0.48    0.04
  -2   2   0    0.49    0.04
  -2   2   0    0.47    0.06
  -2   2   0    0.49    0.03
   1  -2   0    0.70    0.03
   1  -2   0    0.67    0.04
   1  -2   0    0.67    0.04
  -1   2   0    0.82    0.05
  -1   2   0    0.64    0.04
  -1   2   0    0.67    0.03
   0  -2   0   22.66    0.40
   0  -2   0   23.04    0.47
   0   2   0   22.17    0.33
   0   2   0   22.72    0.41
   0   2   0   22.94    0.40
   0   2   0   21.89    0.33
  -1  -2   0    8.44    0.21
  -1  -2   0    8.63    0.19
   1   2   0    8.48    0.19
   1   2   0    8.54    0.36
  -2  -2   0  138.05    2.17
   2   2   0  136.29    1.84
   2   2   0  137.43    2.54
   2   2   0  135.25    2.33
  -3  -2   0   21.61    0.42
   3   2   0   21.70    0.46
   3   2   0   21.34    0.31
   3   2   0   21.67    0.49
   3   2   0   21.94    0.42
  -4  -2   0    7.12    0.19
   4   2   0    7.29    0.25
   4   2   0    7.52    0.24
   4   2   0    7.45    0.20
   4   2   0    7.21    0.13
  -5  -2   0    9.74    0.28
   5   2   0    9.35    0.18
   5   2   0   10.03    0.32
   5   2   0    9.45    0.30
   5   2   0    9.69    0.25
   6   2   0    6.00    0.26
   6   2   0    5.97    0.25
   6   2   0    5.89    0.19
   6   2   0    5.86    0.14
   7   2   0    0.05    0.06
   7   2   0    0.11    0.07
   7   2   0    0.07    0.04
   8   2   0    0.52    0.23
   8   2   0    0.58    0.07
   8   2   0    0.67    0.12
   9   2   0    1.89    0.20
   9   2   0    1.87    0.12
  10   2   0   -0.02    0.06
  11   2   0   -0.03    0.08
  12   2   0    0.07    0.10
  13  -3   0   -0.02    0.09
  12  -3   0    0.15    0.09
  11  -3   0    1.19    0.13
  10  -3   0    1.07    0.15
  10  -3   0    1.44    0.13
 -10   3   0    1.37    0.19
   9  -3   0    0.10    0.08
   9  -3   0    0.13    0.06
  -9   3   0    0.22    0.09
  -9   3   0    0.12    0.09
   8  -3   0    1.36    0.10
   8  -3   0    1.26    0.07
   8  -3   0    1.49    0.15
  -8   3   0    1.47    0.15
  -8   3   0    1.31    0.13
  -8   3   0    1.18    0.09
   7  -3   0    2.20    0.09
   7  -3   0    2.28    0.16
   7  -3   0    2.21    0.11
  -7   3   0    2.10    0.14
  -7   3   0    2.12    0.10
  -7   3   0    2.08    0.15
   6  -3   0    1.89    0.08
   6  -3   0    1.92    0.08
   6  -3   0    1.84    0.09
   6  -3   0    1.76    0.37
  -6   3   0    1.81    0.12
  -6   3   0    1.83    0.09
  -6   3   0    1.74    0.13
  -6   3   0    1.80    0.09
   5  -3   0   32.67    0.53
   5  -3   0   32.79    0.69
   5  -3   0   32.63    0.47
   5  -3   0   32.94    0.52
  -5   3   0   33.06    0.67
  -5   3   0   32.99    0.52
  -5   3   0   33.73    0.60
  -5   3   0   31.91    0.61
   4  -3   0   46.72    1.29
   4  -3   0   45.26    0.71
   4  -3   0   46.99    0.68
   4  -3   0   45.98    0.69
  -4   3   0   46.76    0.78
  -4   3   0   46.93    0.86
  -4   3   0   47.27    0.69
  -4   3   0   44.80    0.81
   3  -3   0   22.57    0.35
   3  -3   0   21.49    0.38
   3  -3   0   21.87    0.37
   3  -3   0   21.79    0.46
  -3   3   0   21.47    0.43
  -3   3   0   22.14    0.38
  -3   3   0   22.08    0.43
  -3   3   0   21.49    0.36
  -3   3   0   21.45    0.45
  -3   3   0   22.13    0.35
   2  -3   0   26.19    0.39
   2  -3   0   25.53    0.45
   2  -3   0   24.81    0.51
   2  -3   0   24.84    0.41
  -2   3   0   25.67    0.48
  -2   3   0   25.80    0.39
  -2   3   0   26.36    0.41
  -2   3   0   25.83    0.45
   1  -3   0    7.07    0.14
   1  -3   0    6.98    0.17
   1  -3   0    7.13    0.17
  -1   3   0    7.24    0.14
  -1   3   0    7.24    0.17
  -1   3   0    6.93    0.17
   0  -3   0    0.92    0.06
   0   3   0    0.83    0.06
   0   3   0    0.81    0.03
   0   3   0    0.77    0.04
   0   3   0    0.85    0.03
   0   3   0    0.85    0.05
   0   3   0    0.72    0.07
  -1  -3   0    4.74    0.14
   1   3   0    4.89    0.15
   1   3   0    4.79    0.18
   1   3   0    4.62    0.09
  -2  -3   0   51.78    0.90
   2   3   0   51.70    1.22
   2   3   0   52.92    0.90
   2   3   0   50.79    0.72
  -3  -3   0   34.53    0.64
   3   3   0   34.15    0.49
   3   3   0   34.45    0.64
   3   3   0   34.25    0.69
   4   3   0    4.65    0.10
   4   3   0    4.57    0.19
   4   3   0    4.53    0.17
   4   3   0    4.53    0.10
   5   3   0   11.47    0.30
   5   3   0   11.51    0.21
   5   3   0   11.59    0.35
   6   3   0    3.38    0.20
   6   3   0    3.06    0.15
   6   3   0    3.27    0.10
   7   3   0    2.35    0.10
   7   3   0    2.23    0.18
   8   3   0    0.65    0.07
   8   3   0    0.75    0.14
   9   3   0    0.11    0.06
  10   3   0    0.03    0.06
  11   3   0    0.09    0.08
  14  -4   0    0.26    0.11
  13  -4   0    0.16    0.10
  12  -4   0    0.07    0.09
  11  -4   0    0.78    0.12
 -11   4   0    0.59    0.14
  10  -4   0    0.52    0.27
  10  -4   0    0.56    0.09
 -10   4   0    0.62    0.13
 -10   4   0    0.84    0.15
   9  -4   0    0.00    0.04
   9  -4   0   -0.03    0.07
   9  -4   0   -0.06    0.05
  -9   4   0   -0.02    0.07
  -9   4   0   -0.03    0.05
  -9   4   0    0.01    0.08
   8  -4   0    0.09    0.05
   8  -4   0    0.02    0.04
   8  -4   0   -0.02    0.06
  -8   4   0    0.08    0.08
  -8   4   0    0.11    0.05
  -8   4   0    0.10    0.07
   7  -4   0    1.64    0.09
   7  -4   0    1.59    0.11
   7  -4   0    1.51    0.15
   7  -4   0    1.79    0.25
  -7   4   0    1.79    0.15
  -7   4   0    1.56    0.10
  -7   4   0    1.72    0.14
   6  -4   0    0.09    0.03
   6  -4   0    0.01    0.03
   6  -4   0    0.00    0.07
   6  -4   0   -0.02    0.03
  -6   4   0    0.05    0.21
  -6   4   0    0.07    0.05
  -6   4   0    0.01    0.06
  -6   4   0   -0.01    0.04
   5  -4   0   21.69    0.93
   5  -4   0   21.28    0.35
   5  -4   0   21.23    0.37
   5  -4   0   20.73    0.38
  -5   4   0   21.11    0.37
  -5   4   0   21.48    0.44
  -5   4   0   21.39    0.39
  -5   4   0   20.85    0.47
   4  -4   0   26.51    0.47
   4  -4   0   27.29    0.44
   4  -4   0   27.12    0.58
   4  -4   0   27.06    0.43
   4  -4   0   26.27    0.46
  -4   4   0   26.97    0.51
  -4   4   0   27.12    0.54
  -4   4   0   26.56    0.46
  -4   4   0   27.31    0.44
  -4   4   0   27.08    0.47
   3  -4   0   17.63    0.32
   3  -4   0   17.67    0.34
   3  -4   0   17.82    0.30
   3  -4   0   17.09    0.40
  -3   4   0   17.67    0.36
  -3   4   0   18.34    0.37
  -3   4   0   17.67    0.30
  -3   4   0   17.87    0.34
  -3   4   0   17.67    0.32
   2  -4   0    0.63    0.08
   2  -4   0    0.66    0.05
   2  -4   0    0.68    0.05
   2  -4   0    0.67    0.05
  -2   4   0    0.69    0.04
  -2   4   0    0.64    0.06
  -2   4   0    0.76    0.07
  -2   4   0    0.74    0.05
  -2   4   0    0.70    0.05
  -2   4   0    0.79    0.07
   1  -4   0   30.29    0.55
   1  -4   0   28.90    0.47
  -1   4   0   29.96    0.46
  -1   4   0   29.86    0.55
  -1   4   0   29.08    0.45
  -1   4   0   30.03    0.65
   0  -4   0   21.20    0.42
   0   4   0   20.61    0.42
   0   4   0   20.30    0.33
   0   4   0   20.74    0.32
   0   4   0   20.81    0.50
   0   4   0   20.76    0.32
  -1  -4   0   42.78    0.77
   1   4   0   42.65    0.62
   1   4   0   42.56    0.83
   1   4   0   43.77    0.78
   2   4   0    0.03    0.03
   2   4   0    0.08    0.02
   2   4   0    0.04    0.03
   3   4   0    7.21    0.23
   3   4   0    7.18    0.14
   3   4   0    7.06    0.22
   4   4   0    5.94    0.21
   4   4   0    5.84    0.23
   4   4   0    5.66    0.13
   5   4   0    1.29    0.13
   5   4   0    1.23    0.11
   5   4   0    1.32    0.07
   6   4   0    0.41    0.10
   6   4   0    0.33    0.08
   6   4   0    0.38    0.05
   7   4   0   -0.01    0.04
   7   4   0   -0.01    0.07
   8   4   0    0.03    0.08
   8   4   0   -0.06    0.04
   9   4   0   -0.05    0.05
  10   4   0    0.10    0.07
  11   4   0   -0.02    0.08
  14  -5   0   -0.06    0.08
  13  -5   0    0.13    0.10
  12  -5   0    0.30    0.10
  11  -5   0    1.21    0.14
 -11   5   0    1.35    0.14
 -11   5   0    1.23    0.18
 -11   5   0    1.07    0.18
  10  -5   0    0.11    0.07
  10  -5   0   -0.16    0.08
  10  -5   0   -0.03    0.04
 -10   5   0   -0.10    0.06
 -10   5   0   -0.16    0.09
 -10   5   0   -0.01    0.08
   9  -5   0    2.03    0.14
   9  -5   0    2.13    0.12
   9  -5   0    1.88    0.19
  -9   5   0    1.76    0.18
  -9   5   0    2.00    0.14
  -9   5   0    1.79    0.18
   8  -5   0    5.19    0.32
   8  -5   0    5.49    0.19
   8  -5   0    5.21    0.27
   8  -5   0    5.29    0.17
  -8   5   0    5.15    0.18
  -8   5   0    4.88    0.24
  -8   5   0    5.40    0.25
   7  -5   0    2.68    0.12
   7  -5   0    2.57    0.08
   7  -5   0    2.65    0.13
   7  -5   0    2.55    0.20
  -7   5   0    2.58    0.13
  -7   5   0    2.69    0.14
  -7   5   0    2.86    0.17
  -7   5   0    2.86    0.18
   6  -5   0    0.26    0.05
   6  -5   0    0.19    0.09
   6  -5   0    0.22    0.05
   6  -5   0    0.21    0.04
  -6   5   0    0.27    0.07
  -6   5   0    0.25    0.08
  -6   5   0    0.26    0.05
  -6   5   0    0.26    0.05
   5  -5   0    5.39    0.15
   5  -5   0    5.85    0.15
   5  -5   0    5.59    0.16
   5  -5   0    5.82    0.15
   5  -5   0    5.96    0.16
   5  -5   0    6.03    0.24
  -5   5   0    5.80    0.16
  -5   5   0    5.90    0.22
  -5   5   0    5.73    0.20
  -5   5   0    5.83    0.17
   4  -5   0    1.04    0.07
   4  -5   0    1.12    0.13
   4  -5   0    0.91    0.07
   4  -5   0    0.83    0.06
  -4   5   0    0.97    0.10
  -4   5   0    1.05    0.07
  -4   5   0    0.91    0.09
  -4   5   0    0.98    0.07
  -4   5   0    0.83    0.07
  -4   5   0    0.88    0.07
   3  -5   0    7.36    0.18
   3  -5   0    7.62    0.24
   3  -5   0    7.66    0.20
   3  -5   0    8.23    0.18
  -3   5   0    7.65    0.22
  -3   5   0    7.88    0.20
  -3   5   0    7.98    0.17
  -3   5   0    7.73    0.27
  -3   5   0    7.70    0.18
  -3   5   0    7.59    0.18
   2  -5   0    0.81    0.06
   2  -5   0    0.85    0.07
  -2   5   0    0.82    0.04
  -2   5   0    0.94    0.06
  -2   5   0    0.85    0.09
  -2   5   0    0.83    0.05
  -2   5   0    0.82    0.07
  -2   5   0    0.86    0.08
   1  -5   0    0.64    0.07
   1  -5   0    0.75    0.05
  -1   5   0    0.69    0.05
  -1   5   0    0.67    0.05
  -1   5   0    0.63    0.04
  -1   5   0    0.74    0.07
  -1   5   0    0.67    0.07
  -1   5   0    0.67    0.07
   0   5   0    1.09    0.09
   0   5   0    0.99    0.07
   0   5   0    0.97    0.05
   0   5   0    0.99    0.07
   1   5   0    0.82    0.08
   1   5   0    0.77    0.16
   1   5   0    0.82    0.06
   1   5   0    0.81    0.05
   1   5   0    0.83    0.05
   2   5   0    0.01    0.04
   2   5   0    0.09    0.03
   2   5   0    0.08    0.02
   2   5   0    0.07    0.04
   3   5   0    0.27    0.04
   3   5   0    0.34    0.07
   3   5   0    0.30    0.07
   4   5   0    2.30    0.09
   4   5   0    2.19    0.14
   4   5   0    2.22    0.16
   5   5   0    0.29    0.08
   5   5   0    0.18    0.07
   5   5   0    0.22    0.04
   6   5   0    0.81    0.14
   6   5   0    0.88    0.08
   7   5   0    1.23    0.09
   7   5   0    1.18    0.17
   8   5   0    0.22    0.06
   9   5   0    0.62    0.10
  10   5   0    0.18    0.08
  14  -6   0   -0.01    0.09
 -14   6   0   -0.15    0.13
  13  -6   0    0.00    0.09
 -13   6   0   -0.19    0.12
  12  -6   0    0.04    0.09
 -12   6   0   -0.23    0.12
 -12   6   0   -0.03    0.10
  11  -6   0    0.81    0.09
  11  -6   0    0.89    0.13
 -11   6   0    0.63    0.16
 -11   6   0    1.13    0.14
 -11   6   0    0.64    0.16
  10  -6   0    0.11    0.08
  10  -6   0   -0.06    0.09
  10  -6   0    0.02    0.05
 -10   6   0   -0.08    0.12
 -10   6   0    0.15    0.08
 -10   6   0   -0.07    0.10
   9  -6   0    1.32    0.13
   9  -6   0    0.94    0.15
   9  -6   0    1.09    0.10
  -9   6   0    1.04    0.16
  -9   6   0    1.13    0.12
  -9   6   0    1.06    0.15
   8  -6   0    0.49    0.07
   8  -6   0    0.27    0.12
   8  -6   0    0.55    0.09
   8  -6   0    0.52    0.07
  -8   6   0    0.40    0.11
  -8   6   0    0.52    0.11
  -8   6   0    0.62    0.09
   7  -6   0    0.48    0.07
   7  -6   0    0.61    0.08
   7  -6   0    0.40    0.06
   7  -6   0    0.43    0.12
  -7   6   0    0.44    0.10
  -7   6   0    0.63    0.08
  -7   6   0    0.35    0.07
  -7   6   0    0.42    0.11
   6  -6   0    2.56    0.12
   6  -6   0    2.40    0.20
   6  -6   0    2.53    0.21
   6  -6   0    2.49    0.12
   6  -6   0    2.32    0.12
  -6   6   0    2.55    0.13
  -6   6   0    2.40    0.16
  -6   6   0    2.75    0.13
  -6   6   0    2.35    0.16
   5  -6   0    0.15    0.05
   5  -6   0    0.08    0.04
   5  -6   0    0.12    0.04
   5  -6   0    0.17    0.04
   5  -6   0    0.23    0.10
   5  -6   0    0.13    0.05
  -5   6   0    0.11    0.04
  -5   6   0    0.12    0.07
  -5   6   0    0.15    0.05
  -5   6   0    0.13    0.04
  -5   6   0    0.12    0.05
  -5   6   0    0.05    0.06
   4  -6   0    5.10    0.16
   4  -6   0    5.03    0.16
   4  -6   0    5.14    0.22
   4  -6   0    5.18    0.15
  -4   6   0    4.95    0.20
  -4   6   0    5.35    0.19
  -4   6   0    4.91    0.17
  -4   6   0    4.78    0.14
  -4   6   0    5.06    0.15
  -4   6   0    5.03    0.15
   3  -6   0    1.21    0.13
   3  -6   0    1.12    0.07
   3  -6   0    1.03    0.08
  -3   6   0    1.21    0.09
  -3   6   0    1.22    0.07
  -3   6   0    1.16    0.07
  -3   6   0    1.19    0.13
  -3   6   0    1.09    0.07
  -3   6   0    1.25    0.11
   2  -6   0    2.44    0.10
   2  -6   0    2.38    0.10
  -2   6   0    2.43    0.09
  -2   6   0    2.16    0.17
  -2   6   0    2.54    0.13
  -2   6   0    2.47    0.09
  -2   6   0    2.44    0.12
   1  -6   0    0.90    0.06
   1  -6   0    0.85    0.07
  -1   6   0    0.93    0.09
  -1   6   0    0.93    0.06
  -1   6   0    1.07    0.07
  -1   6   0    0.96    0.09
  -1   6   0    1.09    0.08
  -1   6   0    0.93    0.05
   0   6   0    1.31    0.13
   0   6   0    1.35    0.07
   0   6   0    1.32    0.11
   0   6   0    1.36    0.07
   0   6   0    1.39    0.09
   1   6   0    2.46    0.41
   1   6   0    2.26    0.11
   1   6   0    2.35    0.14
   1   6   0    2.25    0.09
   1   6   0    2.06    0.09
   2   6   0    4.30    0.12
   2   6   0    4.44    0.15
   2   6   0    4.73    0.22
   2   6   0    4.53    0.20
   3   6   0    1.79    0.14
   3   6   0    1.56    0.13
   3   6   0    1.61    0.08
   4   6   0    0.78    0.11
   4   6   0    0.75    0.07
   4   6   0    0.69    0.11
   5   6   0    0.23    0.08
   5   6   0    0.13    0.04
   6   6   0    0.11    0.05
   6   6   0    0.14    0.08
   7   6   0    0.16    0.06
   8   6   0    0.21    0.07
   9   6   0    0.34    0.09
  13  -7   0    0.08    0.11
 -13   7   0    0.06    0.13
  12  -7   0    0.08    0.06
  12  -7   0    0.11    0.10
 -12   7   0    0.17    0.13
 -12   7   0    0.11    0.14
  11  -7   0    0.10    0.06
  11  -7   0   -0.05    0.08
 -11   7   0   -0.23    0.10
 -11   7   0    0.07    0.11
 -11   7   0   -0.20    0.11
  10  -7   0    2.65    0.18
  10  -7   0    2.03    0.59
  10  -7   0    2.53    0.15
 -10   7   0    2.32    0.23
 -10   7   0    2.31    0.18
 -10   7   0    1.83    0.21
   9  -7   0    2.03    0.24
   9  -7   0    2.24    0.40
   9  -7   0    2.77    0.15
   9  -7   0    2.80    0.17
  -9   7   0    2.20    0.21
  -9   7   0    2.72    0.17
  -9   7   0    2.22    0.20
   8  -7   0    0.73    0.09
   8  -7   0    0.70    0.07
   8  -7   0    0.39    0.13
   8  -7   0    0.89    0.09
   8  -7   0    0.57    0.09
  -8   7   0    0.43    0.12
  -8   7   0    0.66    0.09
  -8   7   0    0.54    0.12
  -8   7   0    0.67    0.09
   7  -7   0    2.22    0.13
   7  -7   0    1.63    0.19
   7  -7   0    1.89    0.12
  -7   7   0    1.88    0.17
  -7   7   0    1.93    0.14
  -7   7   0    1.93    0.13
  -7   7   0    1.67    0.16
   6  -7   0    0.01    0.04
   6  -7   0   -0.01    0.10
   6  -7   0   -0.02    0.05
  -6   7   0   -0.13    0.07
  -6   7   0    0.00    0.05
  -6   7   0    0.00    0.04
  -6   7   0    0.04    0.07
   5  -7   0    4.25    0.16
   5  -7   0    3.90    0.23
   5  -7   0    4.16    0.16
  -5   7   0    4.32    0.16
  -5   7   0    4.23    0.16
  -5   7   0    4.13    0.15
  -5   7   0    4.13    0.15
  -5   7   0    3.89    0.14
  -5   7   0    4.02    0.19
  -5   7   0    3.93    0.20
   4  -7   0    9.19    0.24
   4  -7   0    9.42    0.34
   4  -7   0    9.14    0.22
  -4   7   0    9.35    0.23
  -4   7   0    8.96    0.26
  -4   7   0    9.15    0.28
  -4   7   0    9.13    0.23
  -4   7   0    9.33    0.28
  -4   7   0    8.97    0.19
   3  -7   0    3.01    0.24
   3  -7   0    3.25    0.13
   3  -7   0    3.07    0.13
  -3   7   0    3.09    0.15
  -3   7   0    2.93    0.12
  -3   7   0    2.97    0.16
  -3   7   0    3.09    0.33
  -3   7   0    3.07    0.12
   2  -7   0   17.74    0.33
  -2   7   0   18.19    0.40
  -2   7   0   17.99    0.35
  -2   7   0   18.05    0.43
  -2   7   0   17.94    0.33
  -2   7   0   18.33    0.41
   1  -7   0   10.66    0.22
  -1   7   0   10.74    0.32
  -1   7   0   10.74    0.28
  -1   7   0   10.65    0.29
  -1   7   0   10.79    0.24
  -1   7   0   10.80    0.20
  -1   7   0   10.44    0.36
  -1   7   0   10.82    0.24
   0   7   0    2.08    0.10
   0   7   0    2.07    0.14
   0   7   0    1.93    0.12
   0   7   0    2.26    0.12
   0   7   0    2.08    0.10
   1   7   0    3.79    0.31
   1   7   0    3.70    0.19
   1   7   0    3.38    0.12
   1   7   0    3.57    0.15
   2   7   0    2.48    0.11
   2   7   0    2.44    0.20
   2   7   0    2.56    0.17
   3   7   0    1.39    0.13
   3   7   0    1.45    0.09
   4   7   0    0.30    0.09
   4   7   0    0.26    0.05
   5   7   0    0.25    0.05
   5   7   0    0.37    0.10
   6   7   0    0.05    0.05
   6   7   0    0.20    0.10
   7   7   0    0.11    0.06
   8   7   0    0.22    0.08
 -13   8   0   -0.34    0.12
 -13   8   0   -0.12    0.12
  12  -8   0    0.12    0.07
 -12   8   0   -0.14    0.13
 -12   8   0    0.27    0.13
  11  -8   0    0.74    0.11
 -11   8   0    0.74    0.14
 -11   8   0    0.31    0.14
  10  -8   0    0.02    0.07
 -10   8   0    0.02    0.09
 -10   8   0   -0.06    0.11
   9  -8   0    0.92    0.11
   9  -8   0    0.71    0.17
   9  -8   0    1.08    0.12
  -9   8   0    0.91    0.15
   8  -8   0    0.28    0.07
   8  -8   0    0.37    0.08
   8  -8   0   -0.02    0.13
  -8   8   0    0.21    0.11
  -8   8   0    0.28    0.08
  -8   8   0    0.22    0.07
  -8   8   0    0.26    0.11
   7  -8   0    1.17    0.11
   7  -8   0    0.72    0.16
   7  -8   0    1.09    0.10
  -7   8   0    1.06    0.15
  -7   8   0    1.09    0.11
  -7   8   0    1.01    0.14
  -7   8   0    1.28    0.12
   6  -8   0   -0.04    0.04
   6  -8   0    0.06    0.11
   6  -8   0    0.02    0.06
  -6   8   0    0.07    0.08
  -6   8   0   -0.15    0.08
  -6   8   0   -0.01    0.05
  -6   8   0    0.00    0.05
   5  -8   0    4.45    0.18
   5  -8   0    4.54    0.25
   5  -8   0    4.58    0.17
  -5   8   0    4.59    0.17
  -5   8   0    4.49    0.17
  -5   8   0    4.67    0.22
  -5   8   0    4.66    0.19
  -5   8   0    4.47    0.14
  -5   8   0    4.36    0.17
  -5   8   0    4.73    0.21
   4  -8   0    3.81    0.16
   4  -8   0    3.86    0.36
  -4   8   0    4.07    0.25
  -4   8   0    3.70    0.17
  -4   8   0    3.77    0.19
  -4   8   0    3.74    0.15
  -4   8   0    3.90    0.15
  -4   8   0    3.60    0.15
   3  -8   0    1.53    0.36
   3  -8   0    1.49    0.11
  -3   8   0    1.46    0.12
  -3   8   0    1.42    0.10
  -3   8   0    1.46    0.13
  -3   8   0    1.36    0.09
  -3   8   0    1.26    0.10
  -3   8   0    1.44    0.13
   2  -8   0    4.38    0.16
  -2   8   0    4.39    0.16
  -2   8   0    4.60    0.16
  -2   8   0    4.35    0.20
  -2   8   0    4.61    0.14
  -2   8   0    4.41    0.19
  -2   8   0    4.40    0.21
  -1   8   0    2.56    0.14
  -1   8   0    2.63    0.14
  -1   8   0    2.74    0.12
  -1   8   0    2.76    0.12
  -1   8   0    2.31    0.16
   0   8   0    4.91    0.19
   0   8   0    5.01    0.23
   0   8   0    5.14    0.16
   1   8   0   -0.05    0.07
   1   8   0   -0.04    0.03
   2   8   0    1.26    0.09
   2   8   0    1.42    0.14
   3   8   0    0.06    0.06
   3   8   0    0.09    0.05
   4   8   0    0.05    0.05
   4   8   0    0.05    0.06
   5   8   0    0.62    0.08
   5   8   0    0.56    0.12
   6   8   0   -0.03    0.06
   7   8   0    0.19    0.08
   8   8   0   -0.07    0.07
 -13   9   0    0.15    0.13
 -13   9   0   -0.26    0.13
 -12   9   0    0.08    0.12
 -12   9   0   -0.04    0.13
  11  -9   0    0.73    0.12
 -11   9   0    0.85    0.14
 -11   9   0    0.91    0.18
  10  -9   0    0.82    0.12
 -10   9   0    0.63    0.12
 -10   9   0    0.77    0.16
   9  -9   0    0.54    0.09
   9  -9   0    0.59    0.10
   9  -9   0    0.57    0.12
  -9   9   0    0.65    0.11
  -9   9   0    0.64    0.11
  -9   9   0    0.66    0.15
   8  -9   0    3.97    0.20
   8  -9   0    2.84    0.30
   8  -9   0    3.38    0.16
  -8   9   0    3.33    0.18
  -8   9   0    3.54    0.24
  -8   9   0    3.73    0.19
   7  -9   0    1.56    0.14
   7  -9   0    1.34    0.20
   7  -9   0    1.41    0.14
  -7   9   0    1.66    0.14
  -7   9   0    1.39    0.12
  -7   9   0    1.62    0.17
   6  -9   0    0.41    0.13
   6  -9   0    0.47    0.09
   6  -9   0    0.47    0.09
  -6   9   0    0.53    0.09
  -6   9   0    0.50    0.12
  -6   9   0    0.56    0.07
   5  -9   0    1.24    0.11
   5  -9   0    1.51    0.17
  -5   9   0    1.33    0.12
  -5   9   0    1.12    0.13
  -5   9   0    1.27    0.11
  -5   9   0    1.39    0.12
  -5   9   0    1.36    0.11
   4  -9   0    0.66    0.12
   4  -9   0    0.73    0.09
  -4   9   0    0.73    0.08
  -4   9   0    0.58    0.08
  -4   9   0    0.51    0.08
  -4   9   0    0.49    0.10
  -4   9   0    0.64    0.10
   3  -9   0    0.36    0.07
   3  -9   0    0.49    0.20
  -3   9   0    0.36    0.07
  -3   9   0    0.34    0.07
  -3   9   0    0.35    0.08
  -3   9   0    0.33    0.06
  -3   9   0    0.37    0.08
   2  -9   0    1.23    0.11
  -2   9   0    1.56    0.11
  -2   9   0    1.23    0.10
  -2   9   0    1.33    0.08
  -2   9   0    1.13    0.12
  -2   9   0    1.34    0.13
  -1   9   0    1.93    0.14
  -1   9   0    1.97    0.12
   0   9   0    0.07    0.05
   0   9   0    0.01    0.04
   1   9   0    3.20    0.14
   2   9   0    0.11    0.06
   3   9   0    0.06    0.06
   4   9   0    0.12    0.07
   5   9   0    0.18    0.08
   6   9   0    0.03    0.07
   7   9   0    0.04    0.08
 -13  10   0    0.20    0.13
 -13  10   0    0.11    0.16
 -12  10   0    0.05    0.12
 -12  10   0   -0.15    0.12
  11 -10   0    0.09    0.08
 -11  10   0   -0.11    0.11
 -11  10   0    0.12    0.11
  10 -10   0    0.08    0.08
 -10  10   0   -0.03    0.11
 -10  10   0   -0.09    0.09
   9 -10   0    0.28    0.09
   9 -10   0    0.46    0.10
   9 -10   0    0.50    0.10
  -9  10   0    0.32    0.09
  -9  10   0    0.20    0.12
  -9  10   0    0.40    0.11
   8 -10   0    0.32    0.10
   8 -10   0    0.34    0.09
  -8  10   0    0.51    0.13
  -8  10   0    0.41    0.09
  -8  10   0    0.34    0.09
   7 -10   0    0.90    0.18
   7 -10   0    1.06    0.12
  -7  10   0    1.25    0.17
  -7  10   0    1.39    0.13
  -7  10   0    1.49    0.11
   6 -10   0    4.38    0.20
   6 -10   0    4.89    0.32
  -6  10   0    4.13    0.24
  -6  10   0    5.09    0.20
   5 -10   0    2.64    0.16
   5 -10   0    2.92    0.25
  -5  10   0    2.65    0.15
  -5  10   0    2.71    0.19
  -5  10   0    2.52    0.15
   4 -10   0    0.97    0.11
   4 -10   0    1.11    0.15
  -4  10   0    1.13    0.10
  -4  10   0    0.99    0.11
  -4  10   0    1.11    0.14
   3 -10   0    1.53    0.13
   3 -10   0    1.46    0.39
  -3  10   0    1.67    0.10
  -3  10   0    1.52    0.15
  -3  10   0    1.40    0.14
  -3  10   0    1.49    0.12
  -2  10   0    6.85    0.22
  -2  10   0    6.23    0.25
  -1  10   0    1.14    0.13
  -1  10   0    0.99    0.11
   0  10   0    0.32    0.07
   1  10   0    1.13    0.11
   2  10   0    0.14    0.07
   3  10   0    0.48    0.09
   4  10   0    0.48    0.10
   5  10   0    0.07    0.08
 -12  11   0   -0.22    0.11
 -12  11   0    0.18    0.12
 -11  11   0    0.01    0.12
 -11  11   0   -0.10    0.10
  10 -11   0    0.72    0.13
 -10  11   0    0.62    0.16
 -10  11   0    0.69    0.13
 -10  11   0    0.58    0.12
   9 -11   0    0.77    0.29
   9 -11   0    1.00    0.14
   9 -11   0    0.92    0.12
  -9  11   0    0.87    0.16
  -9  11   0    0.87    0.11
  -9  11   0    0.74    0.13
   8 -11   0    0.81    0.13
   8 -11   0    0.77    0.09
  -8  11   0    0.79    0.12
  -8  11   0    0.85    0.15
   7 -11   0    0.46    0.11
  -7  11   0    0.47    0.10
  -7  11   0    0.38    0.12
   6 -11   0   -0.02    0.08
  -6  11   0    0.03    0.06
  -6  11   0    0.02    0.09
   5 -11   0    0.52    0.11
  -5  11   0    0.66    0.09
  -5  11   0    0.41    0.11
  -5  11   0    0.60    0.10
   4 -11   0    1.60    0.15
  -4  11   0    1.70    0.17
  -4  11   0    1.80    0.14
  -4  11   0    1.60    0.12
   3 -11   0    1.33    0.13
  -3  11   0    1.79    0.14
  -3  11   0    1.42    0.16
  -2  11   0    0.71    0.10
  -2  11   0    0.62    0.12
  -1  11   0   -0.03    0.06
   0  11   0   -0.04    0.06
   1  11   0    0.38    0.10
   2  11   0   -0.02    0.08
   3  11   0   -0.01    0.08
   4  11   0    0.29    0.10
 -11  12   0    0.06    0.12
  10 -12   0    0.03    0.10
  10 -12   0    0.29    0.11
 -10  12   0    0.12    0.13
 -10  12   0    0.08    0.09
   9 -12   0    0.04    0.10
  -9  12   0    0.18    0.13
  -9  12   0    0.13    0.09
   8 -12   0    0.44    0.12
  -8  12   0    0.52    0.14
  -8  12   0    0.43    0.11
   7 -12   0    0.52    0.12
  -7  12   0    0.37    0.13
  -7  12   0    0.41    0.09
   6 -12   0   -0.03    0.09
  -6  12   0    0.13    0.10
  -6  12   0    0.07    0.07
   5 -12   0    0.03    0.09
  -5  12   0    0.08    0.06
  -5  12   0    0.15    0.08
  -5  12   0    0.03    0.09
   4 -12   0    0.64    0.12
  -4  12   0    0.79    0.13
  -4  12   0    0.58    0.11
  -4  12   0    0.68    0.08
   3 -12   0    0.21    0.09
  -3  12   0    0.48    0.11
  -3  12   0    0.53    0.10
  -2  12   0    0.01    0.07
  -1  12   0   -0.04    0.07
   0  12   0    0.03    0.08
   1  12   0   -0.03    0.08
   2  12   0    0.00    0.09
   3  12   0    0.15    0.10
  10 -13   0   -0.11    0.10
 -10  13   0   -0.16    0.11
   9 -13   0    0.30    0.12
  -9  13   0    0.58    0.15
   8 -13   0    0.46    0.13
  -8  13   0    0.39    0.14
   7 -13   0    0.51    0.13
  -7  13   0    0.59    0.15
   6 -13   0    0.96    0.15
  -6  13   0    0.88    0.11
  -6  13   0    0.77    0.15
   5 -13   0    0.28    0.12
  -5  13   0    0.27    0.11
  -5  13   0    0.31    0.10
  -5  13   0    0.18    0.07
   4 -13   0    0.23    0.11
  -4  13   0    0.15    0.10
  -4  13   0    0.25    0.10
  -3  13   0    0.03    0.08
  -2  13   0    0.28    0.11
  -1  13   0    0.98    0.15
   0  13   0    0.07    0.10
   1  13   0    0.20    0.10
   8 -14   0    0.71    0.15
  -8  14   0    0.68    0.16
   7 -14   0    0.23    0.12
  -7  14   0    0.09    0.11
   6 -14   0    0.38    0.13
  -6  14   0    0.45    0.12
   5 -14   0    0.12    0.12
  -5  14   0    0.00    0.10
   4 -14   0    0.20    0.12
  -4  14   0    0.15    0.11
  -4  14   0    0.20    0.13
  -3  14   0   -0.07    0.09
  -2  14   0    1.60    0.19
   0  14  -1    0.05    0.11
  -1  14  -1    0.07    0.10
  -2  14  -1    0.62    0.13
  -3  14  -1    0.67    0.14
   3 -14   1    0.44    0.13
  -4  14  -1    0.09    0.10
  -4  14  -1    0.06    0.10
   4 -14   1    0.08    0.11
  -5  14  -1    0.08    0.10
   5 -14   1    0.02    0.11
  -6  14  -1    0.22    0.11
   6 -14   1    0.13    0.12
  -7  14  -1    0.24    0.12
   7 -14   1   -0.14    0.10
  -8  14  -1    1.34    0.21
   8 -14   1    1.31    0.17
  -9  14  -1   -0.07    0.11
   9 -14   1    0.29    0.12
   2  13  -1    0.04    0.10
   1  13  -1   -0.06    0.09
   0  13  -1    0.02    0.09
  -1  13  -1    0.11    0.10
  -2  13  -1    0.71    0.13
  -3  13  -1    0.45    0.11
   3 -13   1    0.83    0.14
  -4  13  -1    0.00    0.08
  -4  13  -1   -0.01    0.05
  -4  13  -1   -0.10    0.07
   4 -13   1    0.08    0.11
  -5  13  -1    0.17    0.07
  -5  13  -1    0.24    0.11
   5 -13   1    0.26    0.11
  -6  13  -1    0.03    0.07
  -6  13  -1    0.02    0.10
   6 -13   1    0.05    0.10
  -7  13  -1    0.06    0.10
  -7  13  -1    0.03    0.08
   7 -13   1    0.06    0.11
  -8  13  -1   -0.03    0.08
  -8  13  -1    0.03    0.12
   8 -13   1   -0.13    0.10
  -9  13  -1    0.35    0.14
   9 -13   1    0.62    0.13
 -10  13  -1   -0.03    0.12
   3  12  -1   -0.04    0.09
   2  12  -1    0.21    0.10
   1  12  -1    0.06    0.09
   0  12  -1   -0.02    0.07
  -1  12  -1    0.76    0.12
  -2  12  -1    0.19    0.08
  -3  12  -1   -0.04    0.07
  -3  12  -1    0.09    0.07
   3 -12   1    0.00    0.08
  -4  12  -1    0.63    0.10
  -4  12  -1    0.50    0.12
  -4  12  -1    0.45    0.08
   4 -12   1    0.51    0.11
  -5  12  -1    0.20    0.07
  -5  12  -1    0.08    0.09
   5 -12   1    0.19    0.10
  -6  12  -1    0.32    0.12
  -6  12  -1    0.45    0.09
   6 -12   1    0.31    0.11
  -7  12  -1    0.40    0.09
  -7  12  -1    0.15    0.11
   7 -12   1    0.19    0.10
  -8  12  -1    0.05    0.10
  -8  12  -1   -0.02    0.08
   8 -12   1    0.15    0.10
  -9  12  -1   -0.10    0.10
  -9  12  -1   -0.16    0.07
   9 -12   1   -0.02    0.08
   9 -12   1    0.06    0.09
 -10  12  -1    0.06    0.09
 -10  12  -1   -0.12    0.09
 -10  12  -1   -0.04    0.12
  10 -12   1    0.15    0.09
 -11  12  -1   -0.08    0.10
 -11  12  -1   -0.08    0.12
   5  11  -1    0.05    0.09
   4  11  -1    0.09    0.09
   3  11  -1   -0.10    0.08
   2  11  -1    1.13    0.13
   1  11  -1    1.29    0.13
   0  11  -1    0.29    0.08
  -1  11  -1    1.25    0.13
  -2  11  -1    0.00    0.06
  -2  11  -1    0.04    0.05
   2 -11   1    0.04    0.07
  -3  11  -1    0.09    0.08
  -3  11  -1    0.07    0.08
  -3  11  -1    0.13    0.05
  -3  11  -1    0.07    0.06
   3 -11   1    0.05    0.07
  -4  11  -1    0.00    0.05
  -4  11  -1   -0.05    0.07
  -4  11  -1   -0.05    0.05
   4 -11   1   -0.05    0.07
  -5  11  -1    1.10    0.12
  -5  11  -1    1.27    0.16
  -5  11  -1    1.37    0.13
   5 -11   1    1.28    0.13
  -6  11  -1    1.02    0.12
  -6  11  -1    0.78    0.13
   6 -11   1    0.67    0.11
  -7  11  -1    0.03    0.07
  -7  11  -1    0.10    0.10
   7 -11   1    0.12    0.13
   7 -11   1    0.15    0.09
  -8  11  -1    0.04    0.07
  -8  11  -1    0.07    0.08
  -8  11  -1    0.10    0.11
   8 -11   1    0.11    0.09
   8 -11   1    0.31    0.09
  -9  11  -1    1.04    0.18
  -9  11  -1    1.30    0.15
  -9  11  -1    1.24    0.14
   9 -11   1    1.05    0.12
   9 -11   1    1.57    0.16
 -10  11  -1    0.09    0.13
 -10  11  -1    0.05    0.10
  10 -11   1   -0.01    0.08
 -11  11  -1    0.01    0.13
 -11  11  -1    0.07    0.11
 -12  11  -1   -0.13    0.13
 -12  11  -1   -0.02    0.12
   6  10  -1   -0.12    0.08
   5  10  -1   -0.04    0.08
   4  10  -1    0.07    0.07
   3  10  -1    0.01    0.06
   2  10  -1    0.06    0.06
   1  10  -1    2.31    0.14
   0  10  -1   -0.03    0.05
  -1  10  -1    0.20    0.06
  -1  10  -1    0.24    0.07
  -2  10  -1    0.38    0.06
  -2  10  -1    0.22    0.08
  -2  10  -1    0.29    0.07
   2 -10   1    0.30    0.07
  -3  10  -1    0.50    0.10
  -3  10  -1    0.50    0.08
  -3  10  -1    0.58    0.07
   3 -10   1    0.75    0.12
   3 -10   1    0.45    0.08
  -4  10  -1    1.62    0.12
  -4  10  -1    1.68    0.16
  -4  10  -1    1.56    0.12
   4 -10   1    1.39    0.13
   4 -10   1    1.99    0.21
  -5  10  -1    0.03    0.05
  -5  10  -1    0.11    0.06
  -5  10  -1   -0.04    0.05
  -5  10  -1   -0.15    0.07
   5 -10   1   -0.07    0.06
   5 -10   1    0.07    0.10
  -6  10  -1   -0.04    0.08
  -6  10  -1    0.03    0.06
  -6  10  -1   -0.01    0.05
   6 -10   1    0.02    0.07
   6 -10   1   -0.11    0.10
   6 -10   1    0.05    0.05
  -7  10  -1   -0.03    0.09
  -7  10  -1    0.00    0.07
  -7  10  -1    0.07    0.07
   7 -10   1    0.01    0.07
   7 -10   1    0.05    0.06
   7 -10   1   -0.26    0.12
   7 -10   1   -0.01    0.13
  -8  10  -1    0.04    0.08
  -8  10  -1    0.06    0.07
  -8  10  -1    0.03    0.10
   8 -10   1   -0.07    0.05
   8 -10   1    0.13    0.08
  -9  10  -1    1.81    0.17
  -9  10  -1    1.61    0.20
  -9  10  -1    1.91    0.17
   9 -10   1    2.09    0.17
   9 -10   1    1.79    0.13
 -10  10  -1    0.11    0.13
 -10  10  -1    0.16    0.10
  10 -10   1    0.02    0.08
 -11  10  -1    0.37    0.12
 -11  10  -1    0.06    0.14
  11 -10   1    0.16    0.08
 -12  10  -1   -0.21    0.13
 -12  10  -1   -0.01    0.11
 -13  10  -1    0.07    0.15
 -13  10  -1   -0.12    0.12
   7   9  -1   -0.03    0.08
   6   9  -1    0.32    0.09
   5   9  -1    0.07    0.07
   4   9  -1    3.12    0.22
   4   9  -1    3.16    0.16
   3   9  -1    0.14    0.07
   3   9  -1    0.05    0.05
   2   9  -1    0.00    0.04
   2   9  -1    0.15    0.06
   1   9  -1    0.30    0.16
   1   9  -1    0.23    0.06
   0   9  -1    0.31    0.07
   0   9  -1    0.40    0.07
   0   9  -1    0.32    0.08
  -1   9  -1    1.20    0.12
  -1   9  -1    1.09    0.07
  -1   9  -1    1.22    0.10
  -1   9  -1    1.15    0.11
  -2   9  -1    0.04    0.05
  -2   9  -1    0.01    0.06
  -2   9  -1   -0.04    0.04
  -2   9  -1    0.11    0.06
  -2   9  -1    0.13    0.06
   2  -9   1   -0.03    0.06
  -3   9  -1    0.44    0.07
  -3   9  -1    0.46    0.09
  -3   9  -1    0.53    0.10
  -3   9  -1    0.46    0.09
  -3   9  -1    0.54    0.07
   3  -9   1    0.54    0.10
   3  -9   1    0.50    0.08
  -4   9  -1    9.19    0.31
  -4   9  -1    9.52    0.30
  -4   9  -1    9.81    0.25
  -4   9  -1    9.23    0.25
  -4   9  -1    9.14    0.41
   4  -9   1    9.25    0.34
   4  -9   1    9.02    0.25
  -5   9  -1   10.21    0.33
  -5   9  -1   10.12    0.23
  -5   9  -1   10.13    0.39
  -5   9  -1    9.98    0.30
  -5   9  -1   10.17    0.27
  -5   9  -1   10.24    0.27
   5  -9   1   10.31    0.27
   5  -9   1   10.03    0.37
   5  -9   1   10.08    0.28
  -6   9  -1   -0.06    0.05
  -6   9  -1   -0.01    0.09
  -6   9  -1   -0.02    0.06
  -6   9  -1   -0.02    0.09
   6  -9   1   -0.14    0.20
   6  -9   1   -0.04    0.05
   6  -9   1   -0.03    0.06
  -7   9  -1    0.00    0.09
  -7   9  -1   -0.09    0.09
  -7   9  -1    0.04    0.06
  -7   9  -1    0.02    0.06
   7  -9   1   -0.26    0.10
   7  -9   1   -0.03    0.06
   7  -9   1    0.06    0.06
   7  -9   1    0.00    0.07
  -8   9  -1    2.15    0.23
  -8   9  -1    2.62    0.23
  -8   9  -1    2.87    0.17
  -8   9  -1    2.65    0.17
   8  -9   1    2.14    0.47
   8  -9   1    2.70    0.14
   8  -9   1    3.37    0.18
  -9   9  -1    0.35    0.10
  -9   9  -1    0.50    0.14
   9  -9   1    0.44    0.09
 -10   9  -1    0.85    0.16
 -10   9  -1    1.07    0.14
  10  -9   1    1.29    0.14
 -11   9  -1   -0.06    0.13
 -11   9  -1   -0.16    0.10
  11  -9   1    0.11    0.07
 -12   9  -1    0.16    0.13
 -12   9  -1   -0.02    0.14
 -13   9  -1    0.12    0.14
 -13   9  -1   -0.09    0.15
   8   8  -1    0.22    0.09
   7   8  -1    0.15    0.08
   6   8  -1    0.39    0.08
   5   8  -1    1.32    0.18
   5   8  -1    1.47    0.11
   4   8  -1    0.93    0.14
   4   8  -1    0.88    0.09
   3   8  -1    1.06    0.14
   3   8  -1    1.16    0.09
   2   8  -1    1.55    0.10
   2   8  -1    1.34    0.17
   1   8  -1    1.66    0.39
   1   8  -1    1.80    0.10
   0   8  -1    0.88    0.09
   0   8  -1    0.91    0.11
   0   8  -1    0.98    0.12
   0   8  -1    1.02    0.09
  -1   8  -1   16.97    0.38
  -1   8  -1   16.12    0.40
  -1   8  -1   17.18    0.44
  -1   8  -1   16.87    0.31
  -1   8  -1   16.90    0.44
  -1   8  -1   16.47    0.34
   1  -8   1   16.96    0.33
  -2   8  -1   34.87    0.67
  -2   8  -1   35.02    0.72
  -2   8  -1   35.57    0.73
  -2   8  -1   35.16    0.59
  -2   8  -1   34.88    0.60
   2  -8   1   36.00    0.59
  -3   8  -1    2.01    0.14
  -3   8  -1    1.95    0.13
  -3   8  -1    2.11    0.11
  -3   8  -1    2.05    0.11
  -3   8  -1    2.17    0.24
   3  -8   1    1.98    0.20
   3  -8   1    1.84    0.12
  -4   8  -1   11.65    0.23
  -4   8  -1   11.44    0.34
  -4   8  -1   11.07    0.27
  -4   8  -1   11.64    0.27
  -4   8  -1   11.13    0.31
  -4   8  -1   11.57    0.49
   4  -8   1   11.81    0.27
   4  -8   1   11.95    0.64
   4  -8   1   11.57    0.28
  -5   8  -1    9.93    0.24
  -5   8  -1   10.05    0.25
  -5   8  -1    9.77    0.27
  -5   8  -1    9.86    0.26
  -5   8  -1    9.63    0.32
  -5   8  -1    9.88    0.32
   5  -8   1    9.98    0.35
   5  -8   1    9.49    0.24
   5  -8   1    9.68    0.26
  -6   8  -1    0.28    0.10
  -6   8  -1    0.37    0.07
  -6   8  -1    0.22    0.10
  -6   8  -1    0.14    0.06
   6  -8   1    0.24    0.06
   6  -8   1    0.31    0.12
   6  -8   1    0.20    0.07
  -7   8  -1    1.20    0.11
  -7   8  -1    1.09    0.15
  -7   8  -1    1.02    0.11
  -7   8  -1    0.96    0.14
   7  -8   1    1.09    0.15
   7  -8   1    0.89    0.09
   7  -8   1    0.75    0.15
   7  -8   1    1.16    0.11
  -8   8  -1    0.09    0.11
  -8   8  -1   -0.04    0.09
  -8   8  -1    0.13    0.07
  -8   8  -1   -0.01    0.07
   8  -8   1   -0.20    0.10
   8  -8   1    0.09    0.06
   8  -8   1    0.15    0.06
  -9   8  -1    0.36    0.12
  -9   8  -1    0.38    0.13
  -9   8  -1    0.48    0.10
   9  -8   1    0.55    0.09
 -10   8  -1    0.14    0.10
 -10   8  -1   -0.12    0.10
 -10   8  -1   -0.03    0.12
  10  -8   1   -0.05    0.05
 -11   8  -1    0.25    0.15
 -11   8  -1    0.27    0.15
 -11   8  -1    0.76    0.14
  11  -8   1    0.60    0.09
 -12   8  -1    0.92    0.16
 -12   8  -1    0.84    0.19
  12  -8   1    0.91    0.17
 -13   8  -1   -0.41    0.13
 -13   8  -1    0.15    0.14
   9   7  -1    0.12    0.08
   8   7  -1    0.31    0.09
   7   7  -1    0.08    0.06
   6   7  -1    0.12    0.06
   6   7  -1    0.17    0.10
   5   7  -1    0.13    0.07
   5   7  -1   -0.01    0.04
   4   7  -1    0.00    0.04
   4   7  -1   -0.03    0.06
   3   7  -1    0.48    0.10
   3   7  -1    0.40    0.06
   2   7  -1   14.62    0.29
   2   7  -1   14.76    0.41
   2   7  -1   14.46    0.42
   1   7  -1    3.34    0.16
   1   7  -1    3.29    0.13
   1   7  -1    3.35    0.18
   1   7  -1    3.33    0.12
   0   7  -1    3.82    0.14
   0   7  -1    3.93    0.13
   0   7  -1    3.83    0.17
   0   7  -1    3.99    0.19
  -1   7  -1   16.51    0.32
  -1   7  -1   16.80    0.40
  -1   7  -1   16.97    0.41
  -1   7  -1   16.79    0.37
  -1   7  -1   16.18    0.30
   1  -7   1   16.68    0.31
  -2   7  -1    0.03    0.05
  -2   7  -1    0.02    0.04
  -2   7  -1    0.01    0.03
  -2   7  -1    0.06    0.03
  -2   7  -1    0.03    0.03
  -2   7  -1    0.05    0.07
   2  -7   1    0.04    0.04
   2  -7   1    0.05    0.03
  -3   7  -1    2.35    0.10
  -3   7  -1    2.22    0.12
  -3   7  -1    2.24    0.15
  -3   7  -1    2.16    0.09
  -3   7  -1    2.15    0.10
  -3   7  -1    2.11    0.15
  -3   7  -1    2.13    0.10
   3  -7   1    2.31    0.11
   3  -7   1    2.11    0.11
   3  -7   1    2.10    0.21
  -4   7  -1    4.03    0.16
  -4   7  -1    3.99    0.13
  -4   7  -1    4.09    0.15
  -4   7  -1    4.06    0.14
  -4   7  -1    4.48    0.20
  -4   7  -1    4.08    0.14
  -4   7  -1    4.10    0.19
   4  -7   1    4.02    0.14
   4  -7   1    4.08    0.34
   4  -7   1    4.05    0.15
  -5   7  -1    9.74    0.25
  -5   7  -1    9.78    0.25
  -5   7  -1    9.51    0.24
  -5   7  -1    9.91    0.31
  -5   7  -1    9.58    0.23
  -5   7  -1    9.62    0.30
   5  -7   1    9.78    0.33
   5  -7   1    9.48    0.23
   5  -7   1    9.84    0.25
   5  -7   1    9.33    0.38
  -6   7  -1    5.58    0.24
  -6   7  -1    5.77    0.18
  -6   7  -1    5.96    0.20
  -6   7  -1    5.96    0.25
   6  -7   1    5.92    0.19
   6  -7   1    5.97    0.19
   6  -7   1    5.43    0.28
   6  -7   1    5.84    0.17
  -7   7  -1   10.65    0.35
  -7   7  -1   10.83    0.27
  -7   7  -1   11.14    0.29
  -7   7  -1   10.95    0.35
   7  -7   1   11.03    0.48
   7  -7   1   10.62    0.24
   7  -7   1   10.63    0.33
   7  -7   1   10.99    0.28
   7  -7   1   11.06    0.28
  -8   7  -1    0.42    0.08
  -8   7  -1    0.31    0.11
  -8   7  -1    0.39    0.12
   8  -7   1    0.46    0.08
   8  -7   1    0.28    0.07
   8  -7   1    0.19    0.12
  -9   7  -1   -0.04    0.07
  -9   7  -1    0.10    0.11
  -9   7  -1   -0.13    0.08
   9  -7   1    0.04    0.07
   9  -7   1   -0.05    0.09
   9  -7   1   -0.08    0.04
 -10   7  -1    0.23    0.13
 -10   7  -1    0.13    0.09
 -10   7  -1    0.08    0.12
  10  -7   1    0.34    0.09
  10  -7   1    0.22    0.06
 -11   7  -1    1.59    0.22
 -11   7  -1    1.71    0.17
 -11   7  -1    2.07    0.24
  11  -7   1    2.09    0.14
  11  -7   1    1.87    0.18
 -12   7  -1   -0.07    0.14
 -12   7  -1    0.05    0.11
  12  -7   1    0.18    0.10
 -13   7  -1    0.20    0.14
  13  -7   1    0.34    0.12
  10   6  -1    0.05    0.08
   9   6  -1    0.39    0.10
   8   6  -1    0.70    0.09
   7   6  -1    1.56    0.12
   7   6  -1    1.10    0.17
   6   6  -1    0.39    0.06
   6   6  -1    0.24    0.09
   5   6  -1   -0.05    0.03
   5   6  -1    0.01    0.06
   4   6  -1    1.68    0.09
   4   6  -1    1.79    0.15
   4   6  -1    1.68    0.14
   3   6  -1    0.23    0.04
   3   6  -1    0.30    0.22
   3   6  -1    0.27    0.07
   2   6  -1   13.19    0.54
   2   6  -1   12.95    0.35
   2   6  -1   13.03    0.25
   1   6  -1   14.72    0.31
   1   6  -1   15.36    0.28
   1   6  -1   15.14    0.37
   1   6  -1   15.07    0.38
   0   6  -1   24.98    0.46
   0   6  -1   25.32    0.39
   0   6  -1   25.12    0.71
   0   6  -1   23.42    0.39
   0   6  -1   25.02    0.41
   0   6  -1   24.42    0.52
   0  -6   1   23.60    0.44
  -1   6  -1    1.76    0.08
  -1   6  -1    1.67    0.08
  -1   6  -1    2.04    0.08
  -1   6  -1    1.99    0.15
  -1   6  -1    1.78    0.08
  -1   6  -1    1.81    0.12
  -1   6  -1    1.93    0.10
   1  -6   1    1.90    0.08
   1  -6   1    1.78    0.08
  -2   6  -1    0.68    0.06
  -2   6  -1    0.83    0.09
  -2   6  -1    0.82    0.06
  -2   6  -1    0.82    0.10
  -2   6  -1    0.80    0.06
  -2   6  -1    0.76    0.05
  -2   6  -1    0.80    0.08
   2  -6   1    0.74    0.06
   2  -6   1    0.77    0.07
  -3   6  -1    1.97    0.13
  -3   6  -1    1.76    0.08
  -3   6  -1    2.05    0.09
  -3   6  -1    1.87    0.10
  -3   6  -1    1.79    0.08
  -3   6  -1    1.92    0.13
  -3   6  -1    1.81    0.09
   3  -6   1    1.81    0.13
   3  -6   1    1.80    0.10
   3  -6   1    1.81    0.09
   3  -6   1    1.71    0.09
  -4   6  -1   16.97    0.41
  -4   6  -1   17.01    0.39
  -4   6  -1   16.98    0.33
  -4   6  -1   16.73    0.32
  -4   6  -1   16.86    0.34
  -4   6  -1   16.98    0.32
  -4   6  -1   17.00    0.36
   4  -6   1   17.31    0.43
   4  -6   1   16.82    0.34
   4  -6   1   17.09    0.36
   4  -6   1   16.96    0.32
   4  -6   1   17.02    0.32
  -5   6  -1    0.12    0.07
  -5   6  -1    0.20    0.04
  -5   6  -1    0.24    0.08
  -5   6  -1    0.19    0.05
  -5   6  -1    0.14    0.04
  -5   6  -1    0.27    0.05
   5  -6   1    0.20    0.04
   5  -6   1    0.16    0.05
   5  -6   1    0.15    0.04
   5  -6   1    0.22    0.05
   5  -6   1    0.23    0.09
  -6   6  -1   -0.08    0.06
  -6   6  -1    0.04    0.05
  -6   6  -1    0.12    0.05
  -6   6  -1   -0.02    0.07
   6  -6   1    0.08    0.09
   6  -6   1   -0.02    0.04
   6  -6   1    0.08    0.05
   6  -6   1   -0.01    0.04
   6  -6   1    0.05    0.04
  -7   6  -1   10.04    0.26
  -7   6  -1    9.34    0.33
  -7   6  -1    9.85    0.32
  -7   6  -1   10.07    0.25
   7  -6   1   10.03    0.19
   7  -6   1   10.35    0.36
   7  -6   1    9.71    0.25
   7  -6   1   10.29    0.26
  -8   6  -1    0.08    0.06
  -8   6  -1   -0.03    0.08
  -8   6  -1    0.00    0.08
   8  -6   1   -0.13    0.10
   8  -6   1   -0.03    0.04
   8  -6   1   -0.05    0.05
  -9   6  -1    0.00    0.11
  -9   6  -1    0.05    0.07
  -9   6  -1    0.00    0.10
   9  -6   1   -0.03    0.08
   9  -6   1    0.04    0.04
   9  -6   1   -0.05    0.06
 -10   6  -1    1.99    0.28
 -10   6  -1    1.43    0.18
 -10   6  -1    1.78    0.15
  10  -6   1    1.95    0.16
  10  -6   1    2.17    0.12
 -11   6  -1    0.39    0.15
 -11   6  -1    0.47    0.16
 -11   6  -1    0.64    0.12
  11  -6   1    0.85    0.13
 -12   6  -1   -0.01    0.10
 -12   6  -1   -0.04    0.14
  12  -6   1    0.12    0.09
  13  -6   1   -0.13    0.08
  10   5  -1    0.18    0.08
   9   5  -1    0.04    0.07
   8   5  -1    0.70    0.09
   7   5  -1    0.02    0.05
   7   5  -1    0.14    0.08
   6   5  -1    0.24    0.08
   6   5  -1    0.22    0.07
   6   5  -1    0.24    0.05
   5   5  -1    0.79    0.12
   5   5  -1    0.75    0.10
   5   5  -1    0.68    0.06
   4   5  -1    0.00    0.04
   4   5  -1    0.00    0.03
   4   5  -1   -0.07    0.04
   3   5  -1    5.15    0.13
   3   5  -1    4.93    0.25
   3   5  -1    4.54    0.19
   2   5  -1   11.72    0.61
   2   5  -1   11.84    0.22
   2   5  -1   11.95    0.32
   1   5  -1    2.72    0.13
   1   5  -1    2.57    0.08
   1   5  -1    2.62    0.16
   0   5  -1    3.88    0.15
   0   5  -1    3.58    0.09
   0   5  -1    4.04    0.26
   0   5  -1    3.96    0.14
   0   5  -1    3.77    0.09
   0   5  -1    3.73    0.10
   0  -5   1    3.89    0.11
  -1   5  -1   11.45    0.50
  -1   5  -1   11.72    0.26
  -1   5  -1   11.72    0.22
  -1   5  -1   11.67    0.22
  -1   5  -1   11.56    0.32
  -1   5  -1   11.55    0.22
   1  -5   1   11.81    0.30
   1  -5   1   11.72    0.23
   1  -5   1   12.02    0.22
  -2   5  -1   14.12    0.26
  -2   5  -1   14.47    0.31
  -2   5  -1   13.86    0.31
  -2   5  -1   13.90    0.26
  -2   5  -1   13.75    0.27
  -2   5  -1   14.63    0.33
  -2   5  -1   14.20    0.24
   2  -5   1   14.16    0.55
   2  -5   1   13.83    0.27
   2  -5   1   14.52    0.26
  -3   5  -1   45.08    0.72
  -3   5  -1   45.53    0.69
  -3   5  -1   45.94    0.79
  -3   5  -1   45.22    0.69
  -3   5  -1   46.20    0.86
  -3   5  -1   45.25    0.69
  -3   5  -1   45.33    0.79
   3  -5   1   45.19    1.28
   3  -5   1   45.36    0.78
   3  -5   1   44.40    0.72
   3  -5   1   46.40    0.69
  -4   5  -1   39.32    0.75
  -4   5  -1   38.57    0.63
  -4   5  -1   37.58    0.60
  -4   5  -1   37.89    0.66
  -4   5  -1   39.00    0.70
   4  -5   1   38.36    0.85
   4  -5   1   38.49    1.18
   4  -5   1   38.44    0.60
   4  -5   1   37.29    0.63
   4  -5   1   37.86    0.60
  -5   5  -1    8.06    0.25
  -5   5  -1    8.19    0.19
  -5   5  -1    8.12    0.25
  -5   5  -1    8.16    0.18
  -5   5  -1    8.08    0.20
   5  -5   1    8.18    0.18
   5  -5   1    8.31    0.20
   5  -5   1    8.19    0.20
   5  -5   1    8.66    0.28
   5  -5   1    7.97    0.18
  -6   5  -1    4.52    0.20
  -6   5  -1    4.37    0.15
  -6   5  -1    4.54    0.20
  -6   5  -1    4.39    0.14
   6  -5   1    4.27    0.22
   6  -5   1    4.37    0.15
   6  -5   1    4.32    0.11
   6  -5   1    4.27    0.16
   6  -5   1    4.43    0.14
  -7   5  -1   37.85    0.80
  -7   5  -1   38.20    0.74
  -7   5  -1   37.71    0.62
   7  -5   1   37.65    1.30
   7  -5   1   36.65    0.63
   7  -5   1   36.99    0.63
  -8   5  -1    3.31    0.21
  -8   5  -1    3.41    0.20
  -8   5  -1    3.51    0.15
   8  -5   1    3.07    0.20
   8  -5   1    3.68    0.16
   8  -5   1    3.51    0.13
  -9   5  -1    1.51    0.17
  -9   5  -1    1.52    0.16
  -9   5  -1    1.48    0.12
   9  -5   1    1.62    0.10
   9  -5   1    1.52    0.13
   9  -5   1    1.27    0.15
 -10   5  -1    0.72    0.14
 -10   5  -1    0.66    0.10
 -10   5  -1    0.65    0.15
  10  -5   1    0.74    0.10
 -11   5  -1   -0.20    0.11
  11  -5   1   -0.06    0.07
  12  -5   1   -0.10    0.08
  13  -5   1    0.05    0.08
  11   4  -1   -0.05    0.08
  10   4  -1    0.06    0.07
   9   4  -1    0.53    0.09
   8   4  -1    0.07    0.05
   8   4  -1   -0.03    0.08
   7   4  -1    0.00    0.07
   7   4  -1    0.07    0.04
   6   4  -1   -0.05    0.04
   6   4  -1    0.00    0.05
   6   4  -1    0.02    0.03
   5   4  -1   14.28    0.41
   5   4  -1   13.64    0.26
   5   4  -1   13.31    0.35
   4   4  -1   11.48    0.33
   4   4  -1   11.61    0.36
   4   4  -1   11.44    0.22
   3   4  -1   23.61    0.49
   3   4  -1   23.83    0.64
   3   4  -1   23.46    0.37
   2   4  -1    6.17    0.13
   2   4  -1    6.22    0.19
  -2  -4   1    6.26    0.19
   1   4  -1   58.11    1.05
   1   4  -1   59.63    1.01
   1   4  -1   57.53    0.83
  -1  -4   1   57.93    1.00
   0   4  -1   81.84    1.42
   0   4  -1   82.33    1.17
   0   4  -1   80.61    1.14
   0   4  -1   82.35    1.35
   0   4  -1   80.71    1.18
   0  -4   1   81.73    1.80
   0  -4   1   80.34    1.19
  -1   4  -1   33.98    0.51
  -1   4  -1   32.93    0.50
  -1   4  -1   32.95    0.52
  -1   4  -1   33.11    0.60
  -1   4  -1   34.06    0.49
  -1   4  -1   33.95    0.63
   1  -4   1   32.95    0.91
   1  -4   1   33.71    0.53
  -2   4  -1   30.45    0.58
  -2   4  -1   29.63    0.53
  -2   4  -1   30.32    0.46
  -2   4  -1   30.23    0.53
  -2   4  -1   29.79    0.48
   2  -4   1   29.31    0.48
   2  -4   1   31.19    0.46
   2  -4   1   29.66    0.59
   2  -4   1   29.78    0.53
  -3   4  -1   10.71    0.20
  -3   4  -1   10.33    0.25
  -3   4  -1   10.57    0.26
  -3   4  -1   10.60    0.26
  -3   4  -1   10.53    0.21
   3  -4   1   10.40    0.22
   3  -4   1   10.32    0.21
   3  -4   1   10.88    0.20
   3  -4   1   10.31    0.26
  -4   4  -1    0.92    0.06
  -4   4  -1    0.88    0.05
  -4   4  -1    0.86    0.08
  -4   4  -1    0.93    0.08
  -4   4  -1    0.81    0.06
   4  -4   1    0.78    0.06
   4  -4   1    0.81    0.09
   4  -4   1    0.90    0.06
   4  -4   1    0.83    0.06
   4  -4   1    0.80    0.05
  -5   4  -1    8.61    0.20
  -5   4  -1    8.85    0.25
  -5   4  -1    9.09    0.19
  -5   4  -1    8.84    0.26
   5  -4   1    8.94    0.35
   5  -4   1    9.14    0.27
   5  -4   1    8.79    0.20
   5  -4   1    9.27    0.16
   5  -4   1    8.61    0.20
  -6   4  -1   24.71    0.56
  -6   4  -1   23.37    0.44
  -6   4  -1   24.97    0.51
  -6   4  -1   23.91    0.41
   6  -4   1   24.55    0.43
   6  -4   1   25.04    0.60
   6  -4   1   23.31    0.42
  -7   4  -1    0.07    0.04
  -7   4  -1    0.02    0.07
  -7   4  -1    0.13    0.07
   7  -4   1    0.06    0.05
   7  -4   1   -0.04    0.05
   7  -4   1    0.03    0.03
  -8   4  -1   -0.12    0.06
  -8   4  -1   -0.07    0.04
  -8   4  -1   -0.05    0.07
   8  -4   1    0.00    0.05
   8  -4   1    0.01    0.06
   8  -4   1   -0.03    0.03
  -9   4  -1    0.42    0.11
  -9   4  -1    0.48    0.11
   9  -4   1    0.55    0.09
   9  -4   1    0.46    0.26
 -10   4  -1   -0.05    0.09
 -10   4  -1    0.06    0.09
  10  -4   1    0.05    0.06
  11  -4   1    0.22    0.09
  12  -4   1    0.01    0.09
  13  -4   1    0.40    0.12
  12   3  -1    0.08    0.11
  11   3  -1    0.02    0.09
  10   3  -1    0.37    0.08
   9   3  -1    0.12    0.06
   9   3  -1    0.19    0.11
   8   3  -1    0.49    0.12
   8   3  -1    0.62    0.08
   8   3  -1    0.36    0.11
   7   3  -1    1.07    0.15
   7   3  -1    1.16    0.15
   7   3  -1    1.24    0.08
   6   3  -1   20.40    0.53
   6   3  -1   20.00    0.56
   6   3  -1   20.39    0.36
   6   3  -1   20.50    0.45
   5   3  -1    2.61    0.16
   5   3  -1    2.56    0.17
   5   3  -1    2.37    0.09
   5   3  -1    2.45    0.13
   4   3  -1    5.26    0.19
   4   3  -1    5.34    0.22
   4   3  -1    5.32    0.12
   4   3  -1    5.49    0.20
  -4  -3   1    5.44    0.17
   3   3  -1    1.15    0.10
   3   3  -1    1.10    0.05
   3   3  -1    1.02    0.11
   3   3  -1    1.19    0.08
  -3  -3   1    1.07    0.10
   2   3  -1   14.51    0.55
   2   3  -1   14.87    0.32
   2   3  -1   14.48    0.24
  -2  -3   1   14.65    0.31
   1   3  -1    6.30    0.11
   1   3  -1    6.03    0.11
   1   3  -1    6.09    0.16
   1   3  -1    6.06    0.12
   1   3  -1    5.82    0.16
  -1  -3   1    6.29    0.16
   0   3  -1   28.29    0.54
   0   3  -1   29.48    0.52
   0   3  -1   29.03    0.44
   0  -3   1   28.95    0.51
   0  -3   1   29.11    0.44
  -1   3  -1   10.21    0.19
  -1   3  -1   10.52    0.22
  -1   3  -1   10.31    0.23
   1  -3   1   10.40    0.21
   1  -3   1   10.24    0.19
  -2   3  -1   38.28    0.68
  -2   3  -1   37.37    0.55
  -2   3  -1   37.04    0.62
  -2   3  -1   37.38    0.57
   2  -3   1   38.25    0.55
   2  -3   1   35.79    0.57
   2  -3   1   36.79    0.63
   2  -3   1   36.91    0.69
  -3   3  -1   10.40    0.20
  -3   3  -1   10.53    0.27
  -3   3  -1   10.29    0.26
  -3   3  -1   10.42    0.29
  -3   3  -1   10.33    0.19
  -3   3  -1   10.60    0.25
   3  -3   1   10.86    0.18
   3  -3   1   10.66    0.26
   3  -3   1   10.09    0.20
   3  -3   1   10.33    0.19
   3  -3   1   10.36    0.20
  -4   3  -1   11.40    0.26
  -4   3  -1   11.22    0.28
  -4   3  -1   11.39    0.20
  -4   3  -1   10.84    0.30
   4  -3   1   11.41    0.28
   4  -3   1   11.02    0.21
   4  -3   1   10.87    0.21
   4  -3   1   11.04    0.21
  -5   3  -1   31.52    0.57
  -5   3  -1   30.14    0.64
  -5   3  -1   31.72    0.48
  -5   3  -1   30.23    0.55
   5  -3   1   30.74    0.50
   5  -3   1   31.42    0.50
   5  -3   1   30.46    0.49
   5  -3   1   31.67    0.65
  -6   3  -1    9.25    0.25
  -6   3  -1    9.27    0.19
  -6   3  -1    8.99    0.29
   6  -3   1    9.19    0.28
   6  -3   1    8.95    0.20
   6  -3   1    8.85    0.18
   6  -3   1    8.96    0.29
  -7   3  -1    3.09    0.18
  -7   3  -1    3.33    0.17
   7  -3   1    2.97    0.12
   7  -3   1    3.31    0.17
   7  -3   1    3.18    0.09
  -8   3  -1    5.85    0.23
  -8   3  -1    5.42    0.26
   8  -3   1    5.61    0.25
   8  -3   1    5.80    0.18
  -9   3  -1    0.22    0.09
  -9   3  -1    0.06    0.08
   9  -3   1    0.02    0.07
   9  -3   1    0.10    0.05
 -10   3  -1    0.66    0.14
  10  -3   1    0.63    0.09
  10  -3   1    0.79    0.14
  11  -3   1    1.24    0.13
  12  -3   1    3.13    0.20
  13  -3   1    0.04    0.10
  12   2  -1    0.22    0.11
  11   2  -1    0.05    0.08
  10   2  -1   -0.01    0.06
   9   2  -1    1.19    0.11
   9   2  -1    1.41    0.46
   8   2  -1    0.23    0.05
   8   2  -1    0.22    0.09
   8   2  -1    0.06    0.08
   7   2  -1    0.27    0.09
   7   2  -1    0.38    0.10
   7   2  -1    0.37    0.06
   6   2  -1    0.86    0.07
   6   2  -1    0.87    0.12
   6   2  -1    0.83    0.08
   6   2  -1    0.89    0.11
  -6  -2   1    0.65    0.08
   5   2  -1    7.17    0.20
   5   2  -1    6.99    0.26
   5   2  -1    6.62    0.24
   5   2  -1    6.97    0.15
  -5  -2   1    6.88    0.20
   4   2  -1    0.20    0.03
   4   2  -1    0.17    0.05
   4   2  -1    0.32    0.06
   4   2  -1    0.23    0.04
  -4  -2   1    0.25    0.05
   3   2  -1   35.60    0.62
   3   2  -1   34.98    0.72
   3   2  -1   35.69    0.69
   3   2  -1   34.73    0.51
  -3  -2   1   35.15    0.62
   2   2  -1   21.73    0.40
   2   2  -1   21.09    0.45
   2   2  -1   21.40    0.32
   2   2  -1   21.32    0.45
  -2  -2   1   22.08    0.43
   1   2  -1   22.20    0.39
   1   2  -1   21.63    0.41
   1   2  -1   21.28    0.32
   1   2  -1   22.03    0.33
  -1  -2   1   21.65    0.43
  -1  -2   1   21.70    0.40
   0   2  -1  175.80    2.50
   0   2  -1  184.96    3.03
   0  -2   1  179.05    2.99
   0  -2   1  180.06    2.98
   0  -2   1  173.21    2.50
  -1   2  -1   70.47    1.18
  -1   2  -1   67.53    1.09
  -1   2  -1   68.84    0.99
   1  -2   1   68.79    0.99
   1  -2   1   67.63    0.85
   1  -2   1   68.99    1.09
   1  -2   1   69.57    1.18
  -2   2  -1   21.26    0.41
  -2   2  -1   21.55    0.36
  -2   2  -1   21.61    0.41
  -2   2  -1   21.75    0.34
   2  -2   1   21.29    0.36
   2  -2   1   21.94    0.41
   2  -2   1   20.69    0.33
  -3   2  -1   18.47    0.38
  -3   2  -1   18.78    0.39
  -3   2  -1   18.53    0.34
   3  -2   1   18.37    0.30
   3  -2   1   18.57    0.29
   3  -2   1   18.93    0.41
  -4   2  -1   18.81    0.76
  -4   2  -1   17.35    0.40
  -4   2  -1   17.94    0.35
   4  -2   1   17.39    0.30
   4  -2   1   17.55    0.29
   4  -2   1   17.52    0.39
   4  -2   1   17.48    0.29
  -5   2  -1    4.06    0.27
  -5   2  -1    4.04    0.14
   5  -2   1    3.65    0.09
   5  -2   1    3.62    0.09
   5  -2   1    4.07    0.16
   5  -2   1    3.92    0.11
  -6   2  -1    1.27    0.12
  -6   2  -1    1.13    0.10
   6  -2   1    1.16    0.13
   6  -2   1    1.24    0.07
  -7   2  -1    0.24    0.07
  -7   2  -1    0.24    0.08
   7  -2   1    0.17    0.06
   7  -2   1    0.23    0.05
  -8   2  -1   -0.07    0.06
  -8   2  -1   -0.02    0.18
   8  -2   1    0.03    0.06
  -9   2  -1    0.66    0.13
  -9   2  -1    0.49    0.11
   9  -2   1    0.44    0.10
   9  -2   1    0.52    0.08
 -10   2  -1    0.41    0.12
  10  -2   1    0.29    0.08
  10  -2   1    0.26    0.11
  11  -2   1    1.01    0.12
  12  -2   1    0.27    0.10
  13  -2   1   -0.05    0.10
  12   1  -1    0.02    0.09
  11   1  -1    0.62    0.11
  10   1  -1   -0.01    0.06
   9   1  -1    0.57    0.08
   9   1  -1    0.55    0.12
   9   1  -1    0.50    0.12
   8   1  -1    1.56    0.17
   8   1  -1    1.46    0.15
   8   1  -1    1.81    0.10
   7   1  -1    3.30    0.19
   7   1  -1    3.57    0.21
   7   1  -1    3.45    0.12
   6   1  -1    1.59    0.13
   6   1  -1    1.51    0.14
   6   1  -1    1.20    0.08
   6   1  -1    1.38    0.07
  -6  -1   1    0.92    0.10
   5   1  -1    2.04    0.09
   5   1  -1    1.92    0.12
   5   1  -1    1.99    0.13
   5   1  -1    1.95    0.07
  -5  -1   1    1.98    0.10
   4   1  -1    2.45    0.09
   4   1  -1    2.39    0.12
   4   1  -1    2.54    0.13
   4   1  -1    2.33    0.07
  -4  -1   1    2.48    0.10
   3   1  -1    2.49    0.10
   3   1  -1    2.61    0.08
   3   1  -1    2.54    0.11
   3   1  -1    2.45    0.07
  -3  -1   1    2.53    0.09
   2   1  -1    0.47    0.02
   2   1  -1    0.51    0.05
   2   1  -1    0.49    0.04
   2   1  -1    0.51    0.05
   2   1  -1    0.48    0.07
  -2  -1   1    0.51    0.04
  -2  -1   1    0.54    0.06
   1   1  -1  274.77    3.90
   1   1  -1  285.84    4.33
   1   1  -1  275.09    4.77
   1   1  -1  282.18    4.77
  -1  -1   1  282.21    4.33
  -1  -1   1  279.11    4.68
  -1  -1   1  281.51    4.77
   0   1  -1    1.91    0.05
   0   1  -1    1.91    0.05
   0   1  -1    1.92    0.04
   0  -1   1    1.85    0.05
   0  -1   1    1.90    0.05
   0  -1   1    1.96    0.05
  -1   1  -1   68.47    1.07
  -1   1  -1   70.17    1.17
  -1   1  -1   67.30    1.18
   1  -1   1   67.73    1.02
   1  -1   1   66.50    1.13
   1  -1   1   69.55    1.17
   1  -1   1   69.04    1.18
  -2   1  -1  273.90    4.82
  -2   1  -1  277.09    4.86
   2  -1   1  267.84    3.85
   2  -1   1  268.83    3.84
   2  -1   1  273.77    4.63
  -3   1  -1  113.93    1.98
   3  -1   1  113.88    1.55
   3  -1   1  111.32    2.07
   3  -1   1  114.39    1.95
   4  -1   1   25.01    0.52
   4  -1   1   25.21    0.52
   4  -1   1   24.79    0.38
  -5   1  -1    0.56    0.06
   5  -1   1    0.49    0.04
   5  -1   1    0.45    0.07
   5  -1   1    0.52    0.07
  -6   1  -1    1.42    0.10
   6  -1   1    1.33    0.07
   6  -1   1    1.29    0.12
   6  -1   1    1.28    0.11
  -7   1  -1   12.11    0.30
   7  -1   1   11.92    0.37
   7  -1   1   11.94    0.37
   7  -1   1   12.04    0.25
  -8   1  -1    7.16    0.24
  -8   1  -1    6.96    0.30
   8  -1   1    6.91    0.29
   8  -1   1    6.94    0.19
  -9   1  -1    1.03    0.15
   9  -1   1    1.02    0.10
   9  -1   1    0.99    0.14
 -10   1  -1    0.29    0.27
  10  -1   1    0.16    0.07
  10  -1   1    0.01    0.09
  11  -1   1    0.37    0.10
  12  -1   1    0.21    0.10
  13  -1   1    0.26    0.12
  13   0  -1   -0.01    0.09
  12   0  -1    0.42    0.11
  11   0  -1    0.66    0.10
  10   0  -1   -0.01    0.06
  10   0  -1    0.06    0.09
   9   0  -1    0.02    0.07
   9   0  -1   -0.08    0.07
   9   0  -1   -0.03    0.04
   8   0  -1   -0.02    0.06
   8   0  -1   -0.01    0.06
   7   0  -1    0.12    0.05
   7   0  -1    0.14    0.07
   7   0  -1    0.14    0.07
   6   0  -1   11.79    0.32
   6   0  -1   11.84    0.35
   6   0  -1   11.89    0.34
   6   0  -1   11.61    0.23
  -6   0   1   11.27    0.34
  -6   0   1   12.04    0.26
   5   0  -1    0.38    0.04
   5   0  -1    0.31    0.06
   5   0  -1    0.40    0.06
   5   0  -1    0.36    0.04
  -5   0   1    0.33    0.04
   4   0  -1   28.33    0.59
   4   0  -1   28.12    0.43
   4   0  -1   27.85    0.43
   4   0  -1   28.50    0.48
   4   0  -1   28.68    0.57
   4   0  -1   27.56    0.43
  -4   0   1   28.37    0.48
   3   0  -1   36.99    0.71
   3   0  -1   37.88    0.61
   3   0  -1   36.65    0.54
   3   0  -1   37.98    0.69
   3   0  -1   36.80    0.55
  -3   0   1   36.73    0.71
  -3   0   1   37.13    0.61
   2   0  -1   19.40    0.32
   2   0  -1   18.40    0.29
   2   0  -1   18.96    0.38
  -2   0   1   19.31    0.61
  -2   0   1   18.78    0.32
  -2   0   1   18.98    0.36
  -2   0   1   19.19    0.30
   1   0  -1   99.49    1.70
   1   0  -1  101.51    1.57
   1   0  -1  101.81    1.73
   1   0  -1   98.16    1.41
  -1   0   1  100.70    1.76
  -1   0   1  100.57    1.59
  -1   0   1  100.27    1.73
   0   0  -1   52.82    0.90
   0   0  -1   51.22    0.82
   0   0   1   51.29    0.87
  -1   0  -1   35.19    0.57
  -1   0  -1   35.94    0.62
  -1   0  -1   35.49    0.59
  -1   0  -1   34.85    0.63
   1   0   1   35.58    0.63
   1   0   1   34.90    0.57
   1   0   1   35.83    0.62
  -2   0  -1    2.03    0.06
  -2   0  -1    2.00    0.06
  -2   0  -1    2.33    0.08
   2   0   1    1.92    0.08
   2   0   1    2.13    0.06
  -3   0  -1    0.12    0.03
  -3   0  -1    0.11    0.02
   3   0   1    0.17    0.04
   3   0   1    0.13    0.01
   3   0   1    0.14    0.02
   3   0   1    0.10    0.03
  -4   0  -1    3.03    0.09
  -4   0  -1    3.04    0.09
   4   0   1    3.04    0.22
   4   0   1    2.95    0.07
   4   0   1    2.95    0.13
   4   0   1    3.03    0.09
  -5   0  -1    9.75    0.21
  -5   0  -1    9.69    0.21
  -5   0  -1    9.96    0.23
   5   0   1    9.71    0.18
   5   0   1    9.69    0.29
   5   0   1   10.11    0.29
  -6   0  -1    2.26    0.09
  -6   0  -1    2.37    0.11
  -6   0  -1    2.18    0.09
   6   0   1    2.35    0.08
   6   0   1    2.37    0.15
   6   0   1    2.50    0.16
  -7   0  -1    5.79    0.19
   7   0   1    5.78    0.15
   7   0   1    5.99    0.26
   7   0   1    5.78    0.26
   8   0   1    0.31    0.05
   8   0   1    0.15    0.08
   8   0   1    0.17    0.08
   9   0   1    0.11    0.08
   9   0   1    0.19    0.06
   9   0   1    0.05    0.08
  10   0   1    0.15    0.07
  11   0   1    0.73    0.11
  12   0   1    0.13    0.09
  13  -1  -1   -0.05    0.10
  12  -1  -1    0.04    0.09
  11  -1  -1    0.31    0.09
  10  -1  -1    1.08    0.16
  10  -1  -1    1.25    0.12
 -10   1   1    1.58    0.17
   9  -1  -1    0.37    0.07
   9  -1  -1    0.27    0.09
   9  -1  -1    0.30    0.10
   8  -1  -1    4.72    0.23
   8  -1  -1    4.40    0.24
   8  -1  -1    4.63    0.16
   7  -1  -1    9.18    0.30
   7  -1  -1    8.87    0.21
   7  -1  -1    9.32    0.32
  -7   1   1    9.21    0.25
   6  -1  -1   12.07    0.23
   6  -1  -1   12.60    0.45
   6  -1  -1   12.24    0.23
   6  -1  -1   12.41    0.36
   6  -1  -1   12.67    0.34
   6  -1  -1   12.48    0.25
  -6   1   1   12.53    0.23
  -6   1   1   12.83    0.28
   5  -1  -1   10.54    0.24
   5  -1  -1   10.53    0.21
   5  -1  -1   10.59    0.30
   5  -1  -1   10.48    0.54
   5  -1  -1   10.18    0.20
  -5   1   1   10.43    0.21
   4  -1  -1   29.22    0.47
   4  -1  -1   30.35    0.59
   4  -1  -1   30.36    0.67
   4  -1  -1   29.00    0.46
  -4   1   1   30.18    0.48
   3  -1  -1    3.69    0.09
   3  -1  -1    3.79    0.09
   3  -1  -1    3.79    0.14
   3  -1  -1    3.86    0.12
  -3   1   1    3.83    0.14
  -3   1   1    3.69    0.08
  -3   1   1    4.07    0.14
   2  -1  -1  139.52    2.29
   2  -1  -1  136.49    2.12
   2  -1  -1  136.34    1.93
   2  -1  -1  139.74    2.37
  -2   1   1  137.77    1.95
  -2   1   1  137.38    2.37
  -2   1   1  136.20    1.93
  -2   1   1  134.40    2.28
  -2   1   1  134.40    1.93
  -2   1   1  135.59    2.12
   1  -1  -1    0.77    0.04
   1  -1  -1    0.75    0.03
   1  -1  -1    0.79    0.08
  -1   1   1    0.81    0.04
  -1   1   1    0.79    0.03
  -1   1   1    0.76    0.05
  -1   1   1    0.73    0.03
   0  -1  -1    0.68    0.04
   0  -1  -1    0.63    0.04
   0  -1  -1    0.68    0.03
   0   1   1    0.64    0.03
   0   1   1    0.63    0.04
  -1  -1  -1   18.87    0.35
  -1  -1  -1   18.66    0.34
   1   1   1   18.68    0.36
   1   1   1   18.92    0.34
  -2  -1  -1   20.42    0.43
  -2  -1  -1   20.42    0.38
   2   1   1   20.63    0.38
   2   1   1   21.09    0.41
  -3  -1  -1    0.99    0.06
   3   1   1    1.07    0.08
   3   1   1    1.04    0.08
   3   1   1    1.18    0.07
  -4  -1  -1    0.05    0.02
   4   1   1    0.07    0.01
   4   1   1    0.03    0.03
   4   1   1    0.05    0.04
   4   1   1    0.05    0.04
  -5  -1  -1    0.55    0.07
   5   1   1    0.57    0.06
   5   1   1    0.48    0.08
   5   1   1    0.52    0.04
   5   1   1    0.55    0.08
   5   1   1    0.49    0.04
  -6  -1  -1    0.13    0.04
  -6  -1  -1    0.18    0.05
   6   1   1    0.13    0.09
   6   1   1    0.10    0.03
   6   1   1    0.16    0.05
   6   1   1    0.15    0.07
   7   1   1    0.90    0.13
   7   1   1    0.97    0.13
   7   1   1    0.96    0.07
   8   1   1    0.17    0.09
   8   1   1    0.31    0.05
   8   1   1    0.27    0.08
   9   1   1    0.48    0.07
   9   1   1    0.46    0.11
   9   1   1    0.45    0.12
  10   1   1   -0.05    0.06
  11   1   1    0.04    0.08
  12   1   1    0.00    0.09
  13  -2  -1    0.16    0.10
  12  -2  -1   -0.06    0.08
  11  -2  -1    0.10    0.07
  10  -2  -1    0.16    0.07
  10  -2  -1    0.03    0.08
 -10   2   1    0.12    0.09
   9  -2  -1    1.46    0.17
   9  -2  -1    1.69    0.12
  -9   2   1    1.83    0.16
   8  -2  -1    2.26    0.09
   8  -2  -1    2.24    0.18
   8  -2  -1    2.30    0.12
  -8   2   1    2.03    0.15
  -8   2   1    2.05    0.11
  -8   2   1    2.03    0.16
   7  -2  -1    1.41    0.23
   7  -2  -1    1.31    0.09
   7  -2  -1    1.32    0.14
   7  -2  -1    1.44    0.07
   7  -2  -1    1.20    0.12
  -7   2   1    1.32    0.08
  -7   2   1    1.47    0.12
   6  -2  -1    4.02    0.12
   6  -2  -1    4.00    0.13
   6  -2  -1    4.12    0.19
   6  -2  -1    4.30    0.17
  -6   2   1    4.16    0.12
  -6   2   1    4.00    0.13
  -6   2   1    3.96    0.13
  -6   2   1    4.06    0.16
   5  -2  -1    5.00    0.13
   5  -2  -1    5.06    0.17
   5  -2  -1    5.25    0.20
   5  -2  -1    5.04    0.13
  -5   2   1    5.14    0.13
  -5   2   1    5.03    0.16
  -5   2   1    4.95    0.14
  -5   2   1    5.09    0.14
   4  -2  -1   15.86    0.28
   4  -2  -1   15.25    0.37
   4  -2  -1   15.03    0.28
   4  -2  -1   15.75    0.26
  -4   2   1   15.55    0.34
  -4   2   1   16.16    0.34
  -4   2   1   15.25    0.28
  -4   2   1   15.93    0.27
   3  -2  -1    8.49    0.17
   3  -2  -1    8.31    0.17
   3  -2  -1    8.75    0.24
   3  -2  -1    8.46    0.17
   3  -2  -1    9.04    0.17
  -3   2   1    8.75    0.23
  -3   2   1    8.52    0.18
  -3   2   1    8.65    0.20
  -3   2   1    8.48    0.17
   2  -2  -1    3.26    0.12
   2  -2  -1    3.36    0.09
   2  -2  -1    3.34    0.09
   2  -2  -1    3.36    0.09
   2  -2  -1    3.41    0.09
  -2   2   1    3.40    0.10
  -2   2   1    3.38    0.09
  -2   2   1    3.39    0.12
  -2   2   1    3.60    0.09
   1  -2  -1   55.86    0.93
   1  -2  -1   57.36    0.97
   1  -2  -1   58.24    0.83
  -1   2   1   57.41    0.93
  -1   2   1   55.90    1.04
  -1   2   1   56.79    0.82
   0  -2  -1    1.37    0.06
   0  -2  -1    1.51    0.07
   0   2   1    1.44    0.07
   0   2   1    1.38    0.07
  -1  -2  -1    3.79    0.12
   1   2   1    3.57    0.12
   1   2   1    3.58    0.11
  -2  -2  -1    2.39    0.10
   2   2   1    2.26    0.10
   2   2   1    2.19    0.10
  -3  -2  -1   13.93    0.30
   3   2   1   13.75    0.30
   3   2   1   13.47    0.33
  -4  -2  -1    5.08    0.16
   4   2   1    5.16    0.17
   4   2   1    5.11    0.15
   4   2   1    4.92    0.19
   5   2   1    4.68    0.14
   5   2   1    4.43    0.16
   5   2   1    4.47    0.10
   5   2   1    4.82    0.20
   6   2   1    1.37    0.14
   6   2   1    1.57    0.11
   6   2   1    1.52    0.07
   7   2   1    1.46    0.46
   7   2   1    1.57    0.08
   8   2   1    0.01    0.04
   8   2   1    0.11    0.09
   9   2   1    0.07    0.05
  10   2   1   -0.04    0.06
  11   2   1    0.06    0.08
  14  -3  -1    0.13    0.11
  13  -3  -1   -0.04    0.09
  12  -3  -1    2.06    0.18
  11  -3  -1    0.03    0.07
 -11   3   1    0.12    0.09
  10  -3  -1    2.01    0.14
  10  -3  -1    1.94    0.20
 -10   3   1    2.12    0.19
   9  -3  -1    3.18    0.16
   9  -3  -1    3.18    0.22
   9  -3  -1    3.63    0.12
  -9   3   1    2.97    0.19
  -9   3   1    3.59    0.22
  -9   3   1    3.42    0.16
   8  -3  -1    3.60    0.13
   8  -3  -1    3.45    0.22
   8  -3  -1    3.53    0.17
   8  -3  -1    3.78    0.15
  -8   3   1    3.62    0.15
  -8   3   1    3.57    0.20
  -8   3   1    3.68    0.19
   7  -3  -1    1.22    0.08
   7  -3  -1    1.20    0.13
   7  -3  -1    1.28    0.09
  -7   3   1    1.29    0.13
  -7   3   1    1.39    0.10
  -7   3   1    1.26    0.12
   6  -3  -1    2.63    0.10
   6  -3  -1    2.79    0.11
   6  -3  -1    2.77    0.07
   6  -3  -1    2.57    0.46
  -6   3   1    2.55    0.14
  -6   3   1    2.59    0.11
  -6   3   1    2.55    0.11
  -6   3   1    2.63    0.14
   5  -3  -1    0.11    0.06
   5  -3  -1    0.15    0.04
   5  -3  -1    0.11    0.03
   5  -3  -1    0.14    0.04
  -5   3   1    0.07    0.05
  -5   3   1    0.10    0.04
  -5   3   1    0.11    0.09
  -5   3   1    0.09    0.04
   4  -3  -1   21.44    0.35
   4  -3  -1   20.59    0.37
   4  -3  -1   20.38    0.36
   4  -3  -1   21.33    0.35
   4  -3  -1   20.27    0.37
   4  -3  -1   21.66    0.48
  -4   3   1   21.07    0.43
  -4   3   1   20.95    0.35
  -4   3   1   21.34    0.41
  -4   3   1   20.63    0.37
   3  -3  -1    1.39    0.06
   3  -3  -1    1.41    0.06
   3  -3  -1    1.52    0.07
   3  -3  -1    1.29    0.11
   3  -3  -1    1.32    0.06
  -3   3   1    1.47    0.06
  -3   3   1    1.30    0.06
  -3   3   1    1.48    0.09
  -3   3   1    1.43    0.07
   2  -3  -1   44.21    0.79
   2  -3  -1   44.18    0.75
   2  -3  -1   44.44    0.84
   2  -3  -1   44.30    0.67
  -2   3   1   43.79    0.65
  -2   3   1   44.46    0.75
  -2   3   1   44.05    0.67
  -2   3   1   45.15    0.64
  -2   3   1   44.57    0.77
   1  -3  -1    0.05    0.03
   1  -3  -1    0.03    0.02
  -1   3   1    0.03    0.01
  -1   3   1    0.01    0.02
  -1   3   1    0.03    0.02
  -1   3   1    0.02    0.01
  -1   3   1    0.04    0.03
   0  -3  -1   12.25    0.27
   0   3   1   11.84    0.27
   0   3   1   11.79    0.25
   0   3   1   12.15    0.19
  -1  -3  -1    0.07    0.03
   1   3   1    0.11    0.03
   1   3   1    0.05    0.06
   1   3   1    0.07    0.01
  -2  -3  -1    0.15    0.04
   2   3   1    0.08    0.03
   2   3   1    0.13    0.04
   3   3   1    3.40    0.15
   3   3   1    3.51    0.12
   3   3   1    3.67    0.15
   4   3   1    1.88    0.11
   4   3   1    1.96    0.09
   4   3   1    2.07    0.13
   5   3   1    0.36    0.04
   5   3   1    0.29    0.07
   5   3   1    0.40    0.09
   6   3   1    0.01    0.06
   6   3   1    0.06    0.03
   7   3   1    0.00    0.03
   7   3   1   -0.01    0.07
   8   3   1    0.11    0.09
   8   3   1    0.14    0.05
   9   3   1    0.09    0.06
  10   3   1   -0.03    0.06
  11   3   1    0.07    0.08
  14  -4  -1    0.00    0.10
  13  -4  -1    0.70    0.13
  12  -4  -1    0.09    0.08
  11  -4  -1    0.08    0.09
 -11   4   1    0.20    0.09
 -11   4   1    0.35    0.12
  10  -4  -1    0.61    0.13
  10  -4  -1    0.68    0.08
  10  -4  -1    0.69    0.10
 -10   4   1    0.41    0.11
 -10   4   1    0.51    0.10
 -10   4   1    0.52    0.12
   9  -4  -1    0.77    0.08
   9  -4  -1    0.66    0.13
   9  -4  -1    0.64    0.09
  -9   4   1    0.64    0.12
  -9   4   1    0.87    0.10
  -9   4   1    0.74    0.13
   8  -4  -1    1.04    0.09
   8  -4  -1    1.17    0.34
   8  -4  -1    0.99    0.10
  -8   4   1    1.15    0.11
  -8   4   1    1.14    0.13
  -8   4   1    1.33    0.14
   7  -4  -1    0.32    0.06
   7  -4  -1    0.38    0.04
   7  -4  -1    0.26    0.09
   7  -4  -1    0.38    0.07
  -7   4   1    0.44    0.08
  -7   4   1    0.34    0.09
  -7   4   1    0.36    0.07
  -7   4   1    0.39    0.07
   6  -4  -1    1.22    0.08
   6  -4  -1    1.50    0.17
   6  -4  -1    1.41    0.09
   6  -4  -1    1.48    0.09
  -6   4   1    1.32    0.09
  -6   4   1    1.40    0.12
  -6   4   1    1.31    0.11
  -6   4   1    1.26    0.68
   5  -4  -1    0.04    0.02
   5  -4  -1    0.03    0.02
   5  -4  -1    0.06    0.03
   5  -4  -1   -0.01    0.04
   5  -4  -1    0.07    0.03
   5  -4  -1    0.00    0.07
  -5   4   1   -0.01    0.03
  -5   4   1    0.04    0.04
  -5   4   1    0.01    0.05
  -5   4   1    0.02    0.03
   4  -4  -1    0.42    0.09
   4  -4  -1    0.41    0.05
   4  -4  -1    0.43    0.08
   4  -4  -1    0.39    0.04
   4  -4  -1    0.37    0.05
  -4   4   1    0.39    0.05
  -4   4   1    0.41    0.05
  -4   4   1    0.40    0.07
  -4   4   1    0.41    0.06
  -4   4   1    0.42    0.05
   3  -4  -1   10.47    0.22
   3  -4  -1   10.40    0.24
   3  -4  -1   10.65    0.32
   3  -4  -1   10.72    0.24
   3  -4  -1   10.52    0.21
  -3   4   1   11.16    0.26
  -3   4   1   10.36    0.22
  -3   4   1   10.92    0.20
  -3   4   1   10.89    0.25
  -3   4   1   10.51    0.24
  -3   4   1   10.69    0.21
   2  -4  -1   13.06    0.23
   2  -4  -1   12.41    0.24
   2  -4  -1   12.76    0.28
   2  -4  -1   12.26    0.31
  -2   4   1   12.34    0.23
  -2   4   1   13.00    0.28
  -2   4   1   12.76    0.28
  -2   4   1   12.66    0.27
  -2   4   1   11.98    0.23
   1  -4  -1   14.18    0.36
  -1   4   1   14.21    0.30
  -1   4   1   13.83    0.24
  -1   4   1   13.79    0.23
  -1   4   1   14.02    0.29
  -1   4   1   14.45    0.32
  -1   4   1   13.70    0.23
   0  -4  -1   12.94    0.30
   0   4   1   13.40    0.31
   0   4   1   13.35    0.27
   0   4   1   12.80    0.28
   0   4   1   12.68    0.22
   1   4   1    0.22    0.05
   1   4   1    0.21    0.02
   1   4   1    0.20    0.04
   1   4   1    0.18    0.04
   2   4   1    4.15    0.09
   2   4   1    4.62    0.17
   2   4   1    4.49    0.14
   2   4   1    4.36    0.16
   2   4   1    4.28    0.09
   3   4   1    0.17    0.02
   3   4   1    0.16    0.05
   3   4   1    0.20    0.03
   3   4   1    0.15    0.04
   3   4   1    0.17    0.02
   3   4   1    0.22    0.06
   4   4   1    0.59    0.04
   4   4   1    0.46    0.08
   4   4   1    0.70    0.10
   5   4   1    2.72    0.16
   5   4   1    2.86    0.18
   5   4   1    2.66    0.08
   6   4   1    0.92    0.06
   6   4   1    0.84    0.13
   7   4   1    0.01    0.04
   7   4   1   -0.01    0.08
   8   4   1    0.79    0.08
   9   4   1    0.35    0.07
  10   4   1    0.10    0.07
  14  -5  -1    0.25    0.11
 -14   5   1    0.37    0.15
  13  -5  -1    0.00    0.08
 -13   5   1   -0.04    0.12
  12  -5  -1    0.49    0.12
 -12   5   1    0.55    0.13
  11  -5  -1    0.45    0.07
  11  -5  -1    0.32    0.10
 -11   5   1    0.29    0.13
 -11   5   1    0.33    0.11
 -11   5   1    0.09    0.11
  10  -5  -1    1.36    0.11
  10  -5  -1    1.10    0.12
  10  -5  -1    1.06    0.17
 -10   5   1    1.27    0.13
 -10   5   1    1.32    0.16
 -10   5   1    1.23    0.17
   9  -5  -1    0.57    0.08
   9  -5  -1    0.55    0.10
   9  -5  -1    0.42    0.29
   9  -5  -1    0.75    0.10
  -9   5   1    0.65    0.12
  -9   5   1    0.52    0.09
  -9   5   1    0.68    0.13
   8  -5  -1    0.27    0.06
   8  -5  -1    0.17    0.06
   8  -5  -1    0.29    0.18
  -8   5   1    0.06    0.09
  -8   5   1    0.16    0.06
  -8   5   1    0.17    0.08
   7  -5  -1    7.28    0.18
   7  -5  -1    7.58    0.21
   7  -5  -1    7.68    0.22
   7  -5  -1    7.86    0.32
  -7   5   1    6.98    0.22
  -7   5   1    7.55    0.21
  -7   5   1    7.52    0.26
  -7   5   1    7.80    0.27
   6  -5  -1    6.73    0.19
   6  -5  -1    6.60    0.17
   6  -5  -1    6.68    0.19
   6  -5  -1    6.79    0.18
   6  -5  -1    6.99    0.29
  -6   5   1    6.28    0.18
  -6   5   1    6.35    0.23
  -6   5   1    6.43    0.19
  -6   5   1    6.27    0.22
   5  -5  -1   19.01    0.38
   5  -5  -1   18.56    0.40
   5  -5  -1   19.91    0.50
   5  -5  -1   18.77    0.35
   5  -5  -1   19.46    0.35
   5  -5  -1   19.33    0.37
  -5   5   1   19.10    0.42
  -5   5   1   18.97    0.35
  -5   5   1   19.11    0.42
  -5   5   1   18.61    0.37
  -5   5   1   18.96    0.36
   4  -5  -1   10.82    0.24
   4  -5  -1   10.74    0.26
   4  -5  -1   10.85    0.25
   4  -5  -1   10.76    0.32
   4  -5  -1   10.74    0.23
  -4   5   1   10.77    0.23
  -4   5   1   10.73    0.40
  -4   5   1   11.07    0.28
  -4   5   1   10.40    0.25
  -4   5   1   11.12    0.22
  -4   5   1   10.86    0.24
   3  -5  -1    0.22    0.05
   3  -5  -1    0.27    0.04
   3  -5  -1    0.21    0.07
   3  -5  -1    0.28    0.05
  -3   5   1    0.31    0.04
  -3   5   1    0.30    0.04
  -3   5   1    0.22    0.04
  -3   5   1    0.27    0.04
  -3   5   1    0.29    0.06
  -3   5   1    0.34    0.06
   2  -5  -1    4.11    0.11
   2  -5  -1    4.09    0.12
  -2   5   1    4.13    0.11
  -2   5   1    3.96    0.12
  -2   5   1    4.15    0.15
  -2   5   1    3.78    0.16
  -2   5   1    4.02    0.15
  -1   5   1   10.05    0.24
  -1   5   1    9.77    0.38
  -1   5   1   10.13    0.20
  -1   5   1    9.63    0.18
  -1   5   1    9.73    0.24
  -1   5   1    9.86    0.18
  -1   5   1   10.24    0.27
   0   5   1    0.47    0.04
   0   5   1    0.43    0.06
   0   5   1    0.47    0.06
   0   5   1    0.57    0.07
   1   5   1    5.06    0.18
   1   5   1    5.24    0.16
   1   5   1    5.06    0.12
   1   5   1    4.87    0.19
   2   5   1    0.46    0.04
   2   5   1    0.62    0.07
   2   5   1    0.60    0.08
   2   5   1    0.54    0.08
   3   5   1    3.20    0.09
   3   5   1    3.15    0.17
   3   5   1    3.10    0.17
   4   5   1    2.39    0.16
   4   5   1    2.14    0.16
   4   5   1    2.34    0.08
   5   5   1    0.17    0.08
   5   5   1    0.14    0.04
   5   5   1    0.06    0.06
   6   5   1    1.80    0.09
   6   5   1    1.51    0.16
   7   5   1    0.08    0.05
   7   5   1    0.08    0.10
   8   5   1   -0.02    0.05
   9   5   1    0.19    0.07
  10   5   1    0.01    0.07
  14  -6  -1    0.18    0.11
 -14   6   1   -0.20    0.13
  13  -6  -1   -0.05    0.09
 -13   6   1    0.02    0.13
  12  -6  -1    0.12    0.06
  12  -6  -1    0.20    0.10
 -12   6   1   -0.23    0.11
 -12   6   1    0.12    0.12
  11  -6  -1    0.49    0.09
  11  -6  -1    0.73    0.12
 -11   6   1    0.38    0.14
 -11   6   1    0.73    0.13
 -11   6   1    0.33    0.13
  10  -6  -1    1.05    0.20
  10  -6  -1    1.72    0.15
  10  -6  -1    1.60    0.13
 -10   6   1    1.20    0.16
 -10   6   1    1.30    0.31
 -10   6   1    1.29    0.14
   9  -6  -1    1.81    0.13
   9  -6  -1    1.08    0.36
   9  -6  -1    1.50    0.14
  -9   6   1    1.40    0.13
  -9   6   1    1.71    0.17
  -9   6   1    1.66    0.18
   8  -6  -1    3.57    0.17
   8  -6  -1    3.22    0.13
   8  -6  -1    3.09    0.25
   8  -6  -1    3.54    0.16
  -8   6   1    3.11    0.20
  -8   6   1    3.54    0.17
  -8   6   1    3.66    0.17
  -8   6   1    3.53    0.21
   7  -6  -1   14.10    0.30
   7  -6  -1   14.68    0.33
   7  -6  -1   13.99    0.93
   7  -6  -1   14.43    0.33
  -7   6   1   14.26    0.39
  -7   6   1   13.95    0.32
  -7   6   1   13.99    0.38
  -7   6   1   14.62    0.34
   6  -6  -1    3.33    0.14
   6  -6  -1    3.11    0.14
   6  -6  -1    3.27    0.23
   6  -6  -1    3.20    0.12
  -6   6   1    3.28    0.14
  -6   6   1    3.32    0.18
  -6   6   1    3.39    0.17
  -6   6   1    3.34    0.14
   5  -6  -1    7.83    0.21
   5  -6  -1    7.40    0.21
   5  -6  -1    8.01    0.57
   5  -6  -1    7.77    0.20
   5  -6  -1    7.57    0.21
  -5   6   1    7.65    0.25
  -5   6   1    7.73    0.25
  -5   6   1    7.66    0.21
  -5   6   1    7.71    0.19
  -5   6   1    7.90    0.20
   4  -6  -1    3.24    0.12
   4  -6  -1    3.24    0.13
   4  -6  -1    3.06    0.13
   4  -6  -1    3.32    0.20
  -4   6   1    3.14    0.11
  -4   6   1    3.09    0.12
  -4   6   1    3.23    0.15
  -4   6   1    3.13    0.14
  -4   6   1    3.33    0.16
  -4   6   1    3.20    0.12
   3  -6  -1    1.47    0.08
   3  -6  -1    1.47    0.09
   3  -6  -1    1.36    0.15
  -3   6   1    1.61    0.11
  -3   6   1    1.61    0.10
  -3   6   1    1.61    0.08
  -3   6   1    1.60    0.17
  -3   6   1    1.54    0.08
   2  -6  -1    0.78    0.07
  -2   6   1    0.74    0.08
  -2   6   1    0.82    0.09
  -2   6   1    0.78    0.08
  -2   6   1    0.65    0.06
  -2   6   1    0.80    0.06
  -1   6   1    4.46    0.15
  -1   6   1    4.86    0.19
  -1   6   1    4.47    0.16
  -1   6   1    4.41    0.13
   0   6   1   38.77    0.77
   0   6   1   37.99    0.97
   0   6   1   39.24    0.70
   0   6   1   38.12    0.60
   1   6   1   13.91    0.39
   1   6   1   14.16    0.46
   1   6   1   14.28    0.38
   1   6   1   14.50    0.27
   2   6   1    2.37    0.14
   2   6   1    2.44    0.16
   2   6   1    2.43    0.09
   2   6   1    2.39    0.09
   2   6   1    2.13    0.12
   3   6   1   14.85    0.41
   3   6   1   14.70    0.42
   3   6   1   14.95    0.27
   4   6   1    0.49    0.05
   4   6   1    0.41    0.09
   5   6   1    0.33    0.05
   5   6   1    0.44    0.11
   6   6   1    0.03    0.04
   6   6   1    0.00    0.07
   7   6   1    0.49    0.07
   8   6   1    0.01    0.06
   9   6   1    0.09    0.07
 -14   7   1    0.26    0.15
 -13   7   1    0.71    0.16
  12  -7  -1    0.59    0.10
 -12   7   1    0.71    0.15
 -12   7   1    0.26    0.15
  11  -7  -1    0.19    0.08
 -11   7   1    0.15    0.11
 -11   7   1   -0.10    0.11
  10  -7  -1    1.26    0.13
  10  -7  -1    1.47    0.15
 -10   7   1    1.16    0.14
 -10   7   1    1.05    0.16
   9  -7  -1    1.71    0.14
   9  -7  -1    1.12    0.18
  -9   7   1    1.73    0.15
  -9   7   1    1.35    0.17
   8  -7  -1    7.50    0.21
   8  -7  -1    7.79    0.37
   8  -7  -1    8.08    0.25
  -8   7   1    7.61    0.24
  -8   7   1    6.82    0.29
  -8   7   1    7.69    0.25
  -8   7   1    7.81    0.31
   7  -7  -1    4.29    0.18
   7  -7  -1    3.68    0.28
   7  -7  -1    4.14    0.16
  -7   7   1    4.09    0.22
  -7   7   1    4.43    0.18
  -7   7   1    3.89    0.21
  -7   7   1    3.96    0.16
   6  -7  -1    0.34    0.07
   6  -7  -1    0.22    0.12
   6  -7  -1    0.45    0.08
  -6   7   1    0.36    0.07
  -6   7   1    0.25    0.09
  -6   7   1    0.28    0.06
  -6   7   1    0.54    0.11
  -6   7   1    0.35    0.07
   5  -7  -1    0.59    0.08
   5  -7  -1    0.48    0.07
   5  -7  -1    0.59    0.12
   5  -7  -1    0.46    0.08
  -5   7   1    0.52    0.09
  -5   7   1    0.53    0.06
  -5   7   1    0.43    0.07
  -5   7   1    0.50    0.09
  -5   7   1    0.54    0.07
   4  -7  -1   10.15    0.35
   4  -7  -1   10.46    0.26
   4  -7  -1   10.22    0.28
   4  -7  -1    9.96    0.24
  -4   7   1    9.74    0.17
  -4   7   1   10.60    0.30
  -4   7   1   10.06    0.25
  -4   7   1   10.21    0.24
  -4   7   1   10.70    0.28
  -4   7   1    9.81    0.28
   3  -7  -1   14.45    0.29
   3  -7  -1   14.77    0.42
  -3   7   1   14.25    0.30
  -3   7   1   14.32    0.34
  -3   7   1   14.37    0.29
  -3   7   1   14.59    0.36
  -3   7   1   14.53    0.37
   2  -7  -1    0.05    0.05
  -2   7   1    0.08    0.05
  -2   7   1    0.02    0.05
  -2   7   1    0.02    0.03
  -2   7   1    0.03    0.05
  -2   7   1    0.04    0.03
  -1   7   1    1.80    0.14
  -1   7   1    1.72    0.09
  -1   7   1    1.85    0.12
  -1   7   1    1.75    0.11
   0   7   1   -0.01    0.04
   0   7   1    0.08    0.06
   0   7   1    0.06    0.04
   0   7   1    0.09    0.07
   1   7   1   17.12    0.33
   1   7   1   16.64    0.43
   1   7   1   17.51    0.46
   1   7   1   17.09    0.42
   1   7   1   17.05    0.32
   2   7   1    0.32    0.08
   2   7   1    0.49    0.06
   3   7   1    1.67    0.15
   3   7   1    1.85    0.09
   4   7   1    0.52    0.11
   4   7   1    0.56    0.07
   5   7   1    0.59    0.13
   5   7   1    0.68    0.08
   6   7   1    0.40    0.07
   7   7   1    0.21    0.07
   8   7   1    0.03    0.07
 -13   8   1    0.07    0.14
 -13   8   1    0.24    0.13
  12  -8  -1    0.81    0.12
 -12   8   1    0.79    0.15
 -12   8   1    1.04    0.19
  11  -8  -1    0.02    0.07
 -11   8   1    0.10    0.11
 -11   8   1    0.06    0.12
  10  -8  -1    0.86    0.12
  10  -8  -1    0.78    0.23
 -10   8   1    0.74    0.12
 -10   8   1    0.71    0.15
   9  -8  -1    1.17    0.21
   9  -8  -1    1.77    0.13
   9  -8  -1    1.98    0.15
  -9   8   1    1.57    0.14
  -9   8   1    1.92    0.19
  -9   8   1    1.77    0.16
   8  -8  -1    1.78    0.27
   8  -8  -1    2.29    0.14
   8  -8  -1    2.63    0.16
  -8   8   1    2.27    0.20
  -8   8   1    2.42    0.15
  -8   8   1    2.47    0.16
   7  -8  -1    0.31    0.08
   7  -8  -1    0.43    0.08
   7  -8  -1    0.13    0.13
  -7   8   1    0.33    0.07
  -7   8   1    0.26    0.10
  -7   8   1    0.34    0.08
   6  -8  -1    3.89    0.17
   6  -8  -1    3.13    0.54
   6  -8  -1    3.40    0.16
  -6   8   1    3.80    0.20
  -6   8   1    3.60    0.16
  -6   8   1    3.83    0.16
  -6   8   1    3.52    0.14
   5  -8  -1    0.06    0.06
   5  -8  -1    0.03    0.10
   5  -8  -1    0.05    0.04
  -5   8   1    0.06    0.07
  -5   8   1    0.01    0.05
  -5   8   1    0.03    0.05
  -5   8   1    0.03    0.04
   4  -8  -1    0.68    0.09
   4  -8  -1    0.82    0.36
   4  -8  -1    0.79    0.10
  -4   8   1    0.79    0.11
  -4   8   1    0.85    0.11
  -4   8   1    0.75    0.08
  -4   8   1    0.78    0.09
   3  -8  -1    0.76    0.09
   3  -8  -1    0.78    0.13
  -3   8   1    0.85    0.11
  -3   8   1    0.65    0.08
  -3   8   1    0.85    0.11
  -3   8   1    0.63    0.07
  -2   8   1   23.98    0.52
  -2   8   1   23.48    0.45
  -2   8   1   24.18    0.57
  -1   8   1    1.77    0.10
  -1   8   1    1.63    0.13
   0   8   1   -0.03    0.04
   0   8   1    0.00    0.04
   0   8   1    0.04    0.04
   1   8   1    0.10    0.04
   2   8   1    2.88    0.13
   3   8   1    0.34    0.06
   4   8   1    0.10    0.05
   5   8   1    0.10    0.06
   6   8   1    0.05    0.06
   7   8   1    0.23    0.08
 -13   9   1   -0.25    0.12
 -13   9   1   -0.04    0.11
 -12   9   1   -0.17    0.10
 -12   9   1    0.02    0.13
  11  -9  -1    0.46    0.10
 -11   9   1    0.42    0.12
 -11   9   1    0.43    0.14
  10  -9  -1    1.27    0.18
  10  -9  -1    1.79    0.17
 -10   9   1    1.37    0.15
 -10   9   1    1.25    0.18
   9  -9  -1    0.33    0.09
   9  -9  -1    0.13    0.08
  -9   9   1    0.23    0.08
  -9   9   1    0.11    0.09
  -9   9   1    0.27    0.12
   8  -9  -1    1.23    0.13
   8  -9  -1    1.16    0.12
  -8   9   1    1.01    0.15
  -8   9   1    1.09    0.11
  -8   9   1    1.12    0.13
   7  -9  -1   -0.17    0.12
   7  -9  -1    0.08    0.06
   7  -9  -1    0.06    0.07
  -7   9   1    0.04    0.06
  -7   9   1    0.11    0.08
  -7   9   1    0.06    0.06
   6  -9  -1    0.46    0.09
   6  -9  -1    0.35    0.13
  -6   9   1    0.37    0.08
  -6   9   1    0.38    0.08
  -6   9   1    0.57    0.11
  -6   9   1    0.44    0.08
   5  -9  -1    2.80    0.16
   5  -9  -1    2.94    0.24
   5  -9  -1    2.71    0.16
  -5   9   1    2.71    0.17
  -5   9   1    2.73    0.14
  -5   9   1    2.73    0.19
  -5   9   1    2.70    0.15
   4  -9  -1    4.52    0.18
   4  -9  -1    4.56    0.33
  -4   9   1    4.25    0.21
  -4   9   1    4.57    0.18
  -4   9   1    4.34    0.16
   3  -9  -1    6.55    0.21
   3  -9  -1    6.79    0.31
  -3   9   1    6.54    0.17
  -3   9   1    6.41    0.25
  -3   9   1    6.63    0.21
  -2   9   1    0.63    0.08
  -2   9   1    0.56    0.08
  -2   9   1    0.56    0.10
  -1   9   1    4.63    0.21
  -1   9   1    4.62    0.17
  -1   9   1    4.53    0.17
   0   9   1    0.07    0.05
   0   9   1    0.13    0.06
   1   9   1    1.49    0.11
   2   9   1    0.85    0.09
   3   9   1    1.17    0.11
   4   9   1    1.19    0.11
   5   9   1    1.94    0.14
   6   9   1    0.08    0.07
 -13  10   1   -0.02    0.13
 -12  10   1    0.19    0.12
 -12  10   1    0.07    0.13
  11 -10  -1    1.05    0.15
 -11  10   1    0.76    0.16
 -11  10   1    1.22    0.15
  10 -10  -1    0.36    0.09
  10 -10  -1    0.30    0.18
  10 -10  -1    0.27    0.10
 -10  10   1    0.26    0.10
 -10  10   1    0.19    0.09
 -10  10   1    0.06    0.10
   9 -10  -1    0.03    0.08
   9 -10  -1    0.04    0.08
  -9  10   1    0.09    0.08
  -9  10   1    0.03    0.10
  -9  10   1    0.03    0.07
   8 -10  -1    0.67    0.11
  -8  10   1    0.85    0.15
  -8  10   1    1.02    0.10
  -8  10   1    0.92    0.13
   7 -10  -1    0.64    0.11
  -7  10   1    0.79    0.14
  -7  10   1    0.75    0.11
   6 -10  -1    3.49    0.19
  -6  10   1    3.45    0.22
  -6  10   1    3.73    0.18
   5 -10  -1    3.38    0.18
  -5  10   1    3.37    0.21
  -5  10   1    3.46    0.16
  -5  10   1    3.37    0.17
  -5  10   1    3.84    0.18
   4 -10  -1    1.69    0.14
  -4  10   1    1.73    0.16
  -4  10   1    1.64    0.13
  -4  10   1    1.48    0.13
  -4  10   1    1.65    0.11
   3 -10  -1   -0.05    0.06
  -3  10   1    0.12    0.06
  -3  10   1    0.20    0.06
  -3  10   1    0.12    0.07
  -2  10   1    4.05    0.22
  -2  10   1    4.08    0.18
  -2  10   1    4.01    0.18
  -1  10   1    0.85    0.12
  -1  10   1    0.69    0.09
   0  10   1    0.58    0.09
   1  10   1   -0.01    0.06
   2  10   1    0.36    0.09
   3  10   1    0.17    0.08
   4  10   1    0.43    0.10
   5  10   1    0.08    0.08
 -12  11   1   -0.27    0.10
 -12  11   1   -0.06    0.11
 -11  11   1    0.06    0.19
 -11  11   1   -0.02    0.08
 -11  11   1   -0.14    0.11
  10 -11  -1    0.12    0.09
  10 -11  -1    0.01    0.08
 -10  11   1    0.01    0.08
 -10  11   1    0.04    0.11
   9 -11  -1   -0.01    0.10
  -9  11   1    0.06    0.08
  -9  11   1   -0.03    0.10
   8 -11  -1    1.84    0.17
  -8  11   1    1.80    0.17
  -8  11   1    1.51    0.19
   7 -11  -1    0.35    0.11
  -7  11   1    0.44    0.13
  -7  11   1    0.58    0.10
   6 -11  -1   -0.01    0.09
  -6  11   1   -0.01    0.06
  -6  11   1   -0.04    0.08
   5 -11  -1    0.60    0.11
  -5  11   1    0.56    0.09
  -5  11   1    0.46    0.12
  -5  11   1    0.45    0.09
  -5  11   1    0.47    0.09
   4 -11  -1    0.54    0.11
  -4  11   1    0.62    0.10
  -4  11   1    0.44    0.07
  -4  11   1    0.43    0.11
  -3  11   1    0.14    0.07
  -3  11   1   -0.02    0.07
  -2  11   1   -0.10    0.07
  -2  11   1    0.07    0.06
  -1  11   1    0.20    0.08
   0  11   1    0.76    0.11
   1  11   1   -0.06    0.07
   2  11   1    0.07    0.09
   3  11   1    0.25    0.10
   4  11   1    0.14    0.09
 -11  12   1    0.01    0.12
  10 -12  -1    0.08    0.11
 -10  12   1    0.00    0.12
   9 -12  -1    0.08    0.11
  -9  12   1    0.27    0.10
  -9  12   1    0.17    0.12
   8 -12  -1    0.12    0.11
  -8  12   1    0.25    0.12
  -8  12   1    0.11    0.09
   7 -12  -1    0.91    0.14
  -7  12   1    0.85    0.16
  -7  12   1    0.72    0.11
   6 -12  -1    0.42    0.12
  -6  12   1    0.30    0.11
  -6  12   1    0.30    0.08
   5 -12  -1    0.67    0.13
  -5  12   1    0.85    0.13
  -5  12   1    0.64    0.13
  -5  12   1    0.56    0.08
   4 -12  -1    0.27    0.11
  -4  12   1    0.24    0.11
  -4  12   1    0.48    0.10
  -3  12   1    0.28    0.09
  -3  12   1    0.24    0.10
  -2  12   1   -0.03    0.08
  -1  12   1    0.29    0.09
   0  12   1   -0.20    0.08
   1  12   1   -0.03    0.09
   2  12   1    0.18    0.10
  10 -13  -1    0.53    0.13
 -10  13   1    0.30    0.14
   9 -13  -1    0.60    0.13
  -9  13   1    0.20    0.12
   8 -13  -1    0.02    0.11
  -8  13   1   -0.01    0.10
   7 -13  -1    0.16    0.11
  -7  13   1    0.26    0.12
   6 -13  -1    0.01    0.11
  -6  13   1    0.19    0.10
   5 -13  -1   -0.08    0.10
  -5  13   1    0.13    0.09
  -5  13   1    0.05    0.09
   4 -13  -1   -0.09    0.10
  -4  13   1    0.06    0.10
  -4  13   1   -0.19    0.08
  -3  13   1    0.21    0.10
  -2  13   1    0.17    0.10
  -1  13   1   -0.15    0.09
   0  13   1    0.28    0.12
   7 -14  -1    0.09    0.12
  -7  14   1    0.04    0.10
   6 -14  -1    0.08    0.12
  -6  14   1    0.01    0.10
   5 -14  -1    0.07    0.12
  -5  14   1    0.30    0.12
  -5  14   1    0.20    0.11
   4 -14  -1    0.89    0.15
  -4  14   1    0.64    0.14
  -3  14   1    0.01    0.10
  -3  15  -2    0.23    0.11
   3 -15   2   -0.12    0.11
   4 -15   2    0.12    0.12
  -5  15  -2    0.06    0.10
   5 -15   2   -0.02    0.11
  -6  15  -2   -0.05    0.10
   6 -15   2   -0.09    0.11
  -7  15  -2   -0.08    0.10
   7 -15   2    0.05    0.12
   0  14  -2    0.07    0.10
  -1  14  -2    0.29    0.11
  -2  14  -2    0.01    0.09
   2 -14   2    0.22    0.11
  -3  14  -2    0.88    0.14
   3 -14   2    0.88    0.15
  -4  14  -2    0.10    0.10
   4 -14   2    0.09    0.12
  -5  14  -2   -0.09    0.09
   5 -14   2    0.03    0.11
  -6  14  -2    0.04    0.10
   6 -14   2    0.07    0.11
  -7  14  -2    0.14    0.12
   7 -14   2    0.04    0.11
  -8  14  -2    0.38    0.15
   8 -14   2    0.53    0.13
  -9  14  -2   -0.19    0.10
   9 -14   2   -0.04    0.11
   2  13  -2    0.13    0.10
   1  13  -2    0.20    0.10
   0  13  -2    1.19    0.15
  -1  13  -2    0.57    0.12
  -2  13  -2    0.23    0.10
   2 -13   2    0.33    0.11
  -3  13  -2    0.43    0.11
   3 -13   2    0.40    0.12
  -4  13  -2    0.04    0.08
  -4  13  -2    0.18    0.07
  -4  13  -2    0.14    0.10
  -4  13  -2    0.20    0.10
   4 -13   2    0.07    0.10
  -5  13  -2    1.63    0.15
  -5  13  -2    1.20    0.17
   5 -13   2    1.43    0.16
  -6  13  -2    1.27    0.14
  -6  13  -2    0.99    0.16
   6 -13   2    1.14    0.14
  -7  13  -2    0.27    0.13
  -7  13  -2    0.56    0.11
   7 -13   2    0.49    0.12
  -8  13  -2   -0.04    0.08
  -8  13  -2    0.10    0.12
   8 -13   2    0.25    0.11
  -9  13  -2    0.84    0.18
  -9  13  -2    1.07    0.16
   9 -13   2    0.98    0.13
   9 -13   2    1.30    0.16
 -10  13  -2    0.02    0.13
 -11  13  -2   -0.06    0.10
 -11  13  -2   -0.16    0.12
   4  12  -2    0.10    0.10
   3  12  -2    0.69    0.13
   2  12  -2    0.71    0.13
   1  12  -2    0.50    0.11
   0  12  -2    0.29    0.09
  -1  12  -2    0.97    0.13
  -2  12  -2    0.21    0.08
   2 -12   2    0.25    0.09
  -3  12  -2    0.42    0.11
  -3  12  -2    0.13    0.07
  -3  12  -2    0.35    0.10
  -3  12  -2    0.30    0.07
   3 -12   2    0.25    0.10
  -4  12  -2    0.58    0.09
  -4  12  -2    0.70    0.11
  -4  12  -2    0.52    0.12
   4 -12   2    0.40    0.10
  -5  12  -2    0.05    0.06
  -5  12  -2    0.00    0.09
   5 -12   2    0.13    0.09
  -6  12  -2    0.13    0.07
  -6  12  -2    0.09    0.10
   6 -12   2   -0.13    0.07
  -7  12  -2   -0.01    0.07
  -7  12  -2   -0.01    0.10
   7 -12   2    0.01    0.09
  -8  12  -2    1.43    0.15
  -8  12  -2    1.45    0.13
  -8  12  -2    1.33    0.19
   8 -12   2    1.38    0.14
   8 -12   2    1.37    0.15
  -9  12  -2    0.11    0.09
  -9  12  -2   -0.05    0.09
  -9  12  -2    0.13    0.14
   9 -12   2    0.11    0.08
   9 -12   2   -0.01    0.08
 -10  12  -2   -0.07    0.12
 -10  12  -2   -0.05    0.10
  10 -12   2   -0.02    0.08
 -11  12  -2   -0.13    0.12
 -11  12  -2   -0.25    0.10
 -12  12  -2   -0.36    0.12
   5  11  -2   -0.01    0.09
   4  11  -2    1.00    0.13
   3  11  -2    0.39    0.11
   2  11  -2    0.04    0.07
   1  11  -2    0.04    0.07
   0  11  -2   -0.01    0.05
  -1  11  -2    0.59    0.09
  -2  11  -2    0.81    0.10
  -2  11  -2    1.05    0.09
  -2  11  -2    0.91    0.12
   2 -11   2    0.89    0.11
  -3  11  -2    1.81    0.16
  -3  11  -2    1.58    0.12
  -3  11  -2    1.77    0.14
   3 -11   2    2.75    0.27
   3 -11   2    1.82    0.15
  -4  11  -2    1.12    0.12
  -4  11  -2    1.02    0.11
  -4  11  -2    1.09    0.15
   4 -11   2    1.29    0.13
   4 -11   2    1.73    0.20
  -5  11  -2    0.10    0.09
  -5  11  -2    0.10    0.06
   5 -11   2    0.01    0.08
   5 -11   2    0.17    0.10
  -6  11  -2    1.47    0.18
  -6  11  -2    1.92    0.12
  -6  11  -2    2.10    0.16
   6 -11   2    1.64    0.15
   6 -11   2    1.79    0.21
  -7  11  -2    2.60    0.16
  -7  11  -2    2.59    0.17
  -7  11  -2    2.65    0.23
   7 -11   2    2.54    0.17
   7 -11   2    2.78    0.18
  -8  11  -2    0.22    0.13
  -8  11  -2    0.37    0.09
  -8  11  -2    0.29    0.10
   8 -11   2    0.28    0.09
   8 -11   2    0.34    0.10
  -9  11  -2    0.02    0.13
  -9  11  -2    0.07    0.10
   9 -11   2   -0.10    0.06
 -10  11  -2    0.10    0.11
 -10  11  -2    0.23    0.15
  10 -11   2    0.15    0.08
 -11  11  -2   -0.12    0.10
 -11  11  -2   -0.29    0.11
 -12  11  -2   -0.05    0.11
 -12  11  -2   -0.29    0.13
   6  10  -2    0.19    0.09
   5  10  -2    1.03    0.13
   4  10  -2    0.10    0.08
   3  10  -2    0.21    0.07
   3  10  -2    0.38    0.10
   2  10  -2    0.48    0.13
   2  10  -2    0.36    0.08
   1  10  -2    2.85    0.24
   1  10  -2    2.88    0.15
   0  10  -2    0.11    0.06
   0  10  -2   -0.03    0.05
  -1  10  -2    2.00    0.22
  -1  10  -2    1.86    0.09
  -1  10  -2    1.84    0.12
  -1  10  -2    1.74    0.13
   1 -10   2    1.88    0.13
  -2  10  -2    0.60    0.08
  -2  10  -2    0.70    0.11
  -2  10  -2    0.49    0.10
  -2  10  -2    0.55    0.07
   2 -10   2    0.48    0.08
  -3  10  -2    1.14    0.13
  -3  10  -2    1.39    0.11
  -3  10  -2    1.24    0.10
  -3  10  -2    1.48    0.15
   3 -10   2    1.23    0.11
   3 -10   2    1.05    0.13
  -4  10  -2    0.02    0.05
  -4  10  -2    0.01    0.17
  -4  10  -2    0.00    0.05
  -4  10  -2    0.14    0.09
  -4  10  -2   -0.01    0.04
   4 -10   2    0.16    0.09
   4 -10   2   -0.07    0.06
  -5  10  -2    0.42    0.07
  -5  10  -2    0.43    0.12
  -5  10  -2    0.47    0.08
  -5  10  -2    0.43    0.08
  -5  10  -2    0.37    0.11
   5 -10   2    0.35    0.08
   5 -10   2    0.45    0.12
   5 -10   2    0.62    0.09
  -6  10  -2    2.23    0.21
  -6  10  -2    2.16    0.15
  -6  10  -2    1.94    0.20
  -6  10  -2    2.01    0.13
   6 -10   2    2.10    0.14
   6 -10   2    1.93    0.20
   6 -10   2    1.99    0.15
  -7  10  -2    4.44    0.19
  -7  10  -2    4.36    0.20
  -7  10  -2    4.38    0.26
  -7  10  -2    4.18    0.26
   7 -10   2    4.31    0.18
   7 -10   2    3.75    0.32
   7 -10   2    4.80    0.21
  -8  10  -2   -0.02    0.11
  -8  10  -2    0.04    0.07
  -8  10  -2   -0.01    0.08
   8 -10   2    0.12    0.07
   8 -10   2   -0.03    0.06
  -9  10  -2    0.00    0.09
  -9  10  -2    0.10    0.12
   9 -10   2   -0.08    0.06
 -10  10  -2    0.81    0.18
 -10  10  -2    1.03    0.15
  10 -10   2    1.08    0.13
 -11  10  -2    0.15    0.15
 -11  10  -2    0.39    0.13
  11 -10   2    0.42    0.10
 -12  10  -2    0.21    0.14
 -12  10  -2   -0.13    0.15
 -13  10  -2    0.85    0.17
 -13  10  -2    0.56    0.19
   7   9  -2    0.16    0.09
   6   9  -2    1.55    0.14
   5   9  -2    0.06    0.06
   4   9  -2    0.54    0.11
   4   9  -2    0.43    0.08
   3   9  -2    0.00    0.05
   3   9  -2    0.07    0.17
   2   9  -2    4.61    0.33
   2   9  -2    4.47    0.17
   1   9  -2    1.12    0.12
   1   9  -2    0.99    0.10
   0   9  -2    2.44    0.13
   0   9  -2    2.48    0.16
  -1   9  -2   32.72    1.22
  -1   9  -2   31.61    0.71
  -1   9  -2   31.44    0.63
  -1   9  -2   32.17    0.54
  -1   9  -2   32.42    0.57
  -1   9  -2   33.27    0.68
   1  -9   2   31.44    0.55
  -2   9  -2    2.21    0.15
  -2   9  -2    2.05    0.11
  -2   9  -2    2.34    0.16
  -2   9  -2    2.39    0.17
  -2   9  -2    2.20    0.12
   2  -9   2    2.21    0.13
  -3   9  -2   25.23    0.56
  -3   9  -2   25.74    0.49
  -3   9  -2   25.68    0.48
  -3   9  -2   25.65    0.58
  -3   9  -2   25.70    0.95
   3  -9   2   26.02    0.44
   3  -9   2   25.84    0.48
   3  -9   2   25.41    0.95
  -4   9  -2   26.01    0.61
  -4   9  -2   26.31    0.50
  -4   9  -2   26.12    0.58
  -4   9  -2   25.54    0.44
  -4   9  -2   25.56    0.57
  -4   9  -2   25.46    0.50
   4  -9   2   25.62    0.63
   4  -9   2   26.01    0.64
   4  -9   2   26.65    0.52
   4  -9   2   25.92    0.49
  -5   9  -2    1.95    0.12
  -5   9  -2    1.99    0.13
  -5   9  -2    1.96    0.18
  -5   9  -2    1.96    0.18
  -5   9  -2    2.04    0.13
   5  -9   2    2.12    0.20
   5  -9   2    2.04    0.13
   5  -9   2    2.18    0.13
   5  -9   2    2.29    0.31
  -6   9  -2    0.03    0.12
  -6   9  -2    0.15    0.07
  -6   9  -2    0.12    0.06
  -6   9  -2    0.12    0.10
   6  -9   2    0.17    0.06
   6  -9   2   -0.01    0.10
   6  -9   2    0.16    0.07
  -7   9  -2    1.40    0.17
  -7   9  -2    1.89    0.14
  -7   9  -2    1.71    0.19
  -7   9  -2    1.58    0.13
   7  -9   2    1.22    0.18
   7  -9   2    1.91    0.14
   7  -9   2    1.46    0.12
  -8   9  -2    0.12    0.28
  -8   9  -2    0.12    0.11
  -8   9  -2    0.08    0.08
   8  -9   2    0.24    0.07
   8  -9   2    0.15    0.06
  -9   9  -2    1.40    0.20
  -9   9  -2    1.38    0.19
  -9   9  -2    1.45    0.15
   9  -9   2    2.03    0.15
 -10   9  -2    1.06    0.19
 -10   9  -2    1.02    0.19
 -10   9  -2    1.37    0.15
  10  -9   2    1.71    0.15
 -11   9  -2    0.90    0.15
 -11   9  -2    0.52    0.17
  11  -9   2    0.81    0.11
 -12   9  -2    0.17    0.13
 -12   9  -2   -0.21    0.14
  12  -9   2    0.08    0.16
 -13   9  -2   -0.34    0.13
 -13   9  -2    0.13    0.14
   8   8  -2   -0.15    0.07
   7   8  -2   -0.10    0.07
   6   8  -2    0.65    0.10
   5   8  -2    0.01    0.05
   5   8  -2    0.07    0.07
   4   8  -2    0.07    0.05
   4   8  -2    0.14    0.08
   3   8  -2    2.57    0.24
   3   8  -2    2.45    0.12
   2   8  -2    5.07    0.17
   2   8  -2    5.09    0.47
   1   8  -2    0.98    0.08
   1   8  -2    0.95    0.12
   1   8  -2    0.79    0.12
   0   8  -2    1.63    0.11
   0   8  -2    1.69    0.28
   0   8  -2    1.71    0.16
   0   8  -2    1.68    0.10
   0   8  -2    1.66    0.08
   0  -8   2    1.64    0.10
  -1   8  -2   13.01    0.26
  -1   8  -2   12.79    0.58
  -1   8  -2   12.88    0.28
  -1   8  -2   12.13    0.31
  -1   8  -2   12.76    0.36
   1  -8   2   13.18    0.27
  -2   8  -2    0.42    0.08
  -2   8  -2    0.39    0.08
  -2   8  -2    0.43    0.06
  -2   8  -2    0.53    0.18
  -2   8  -2    0.43    0.06
   2  -8   2    0.37    0.07
  -3   8  -2    0.50    0.11
  -3   8  -2    0.57    0.08
  -3   8  -2    0.55    0.07
  -3   8  -2    0.63    0.10
  -3   8  -2    0.44    0.05
  -3   8  -2    0.62    0.07
   3  -8   2    0.46    0.09
   3  -8   2    0.58    0.07
   3  -8   2    0.66    0.08
  -4   8  -2    1.78    0.16
  -4   8  -2    1.88    0.11
  -4   8  -2    1.85    0.12
  -4   8  -2    1.87    0.11
  -4   8  -2    2.14    0.18
  -4   8  -2    2.01    0.11
   4  -8   2    2.02    0.12
   4  -8   2    1.96    0.11
   4  -8   2    2.09    0.13
   4  -8   2    1.73    0.18
  -5   8  -2    3.48    0.15
  -5   8  -2    3.78    0.21
  -5   8  -2    3.75    0.15
  -5   8  -2    3.64    0.15
  -5   8  -2    3.80    0.31
   5  -8   2    3.80    0.23
   5  -8   2    3.58    0.15
   5  -8   2    3.86    0.26
   5  -8   2    3.87    0.16
  -6   8  -2    0.11    0.09
  -6   8  -2    0.01    0.09
  -6   8  -2    0.32    0.07
  -6   8  -2    0.22    0.06
   6  -8   2    0.10    0.11
   6  -8   2    0.19    0.06
   6  -8   2    0.21    0.06
  -7   8  -2    0.71    0.14
  -7   8  -2    0.84    0.10
  -7   8  -2    0.77    0.14
  -7   8  -2    0.78    0.10
   7  -8   2    0.81    0.10
   7  -8   2    0.82    0.09
   7  -8   2    0.47    0.31
   7  -8   2    0.78    0.08
  -8   8  -2    1.08    0.16
  -8   8  -2    1.06    0.11
  -8   8  -2    0.96    0.15
   8  -8   2    1.17    0.12
   8  -8   2    1.24    0.11
  -9   8  -2    2.42    0.22
  -9   8  -2    2.18    0.23
  -9   8  -2    2.62    0.17
   9  -8   2    2.92    0.15
   9  -8   2    2.59    0.17
 -10   8  -2    0.51    0.11
 -10   8  -2    0.55    0.16
 -10   8  -2    0.53    0.16
  10  -8   2    0.65    0.09
  10  -8   2    0.81    0.12
 -11   8  -2   -0.05    0.14
 -11   8  -2    0.12    0.11
  11  -8   2    0.19    0.09
  11  -8   2    0.20    0.07
 -12   8  -2    0.00    0.12
 -12   8  -2   -0.12    0.14
  12  -8   2    0.10    0.10
 -13   8  -2   -0.11    0.13
 -13   8  -2   -0.43    0.13
  13  -8   2    0.01    0.09
   9   7  -2    0.01    0.08
   8   7  -2    0.12    0.08
   7   7  -2    0.28    0.07
   6   7  -2   -0.01    0.05
   6   7  -2   -0.02    0.07
   5   7  -2    2.33    0.12
   5   7  -2    2.55    0.19
   4   7  -2    0.46    0.06
   4   7  -2    0.56    0.11
   3   7  -2    0.15    0.04
   3   7  -2    0.07    0.06
   3   7  -2    0.05    0.09
   2   7  -2    8.08    0.29
   2   7  -2    8.25    0.33
   2   7  -2    8.07    0.20
   1   7  -2    1.70    0.13
   1   7  -2    1.70    0.12
   1   7  -2    1.83    0.09
   1   7  -2    1.88    0.09
   0   7  -2    3.39    0.34
   0   7  -2    3.36    0.10
   0   7  -2    3.39    0.12
   0   7  -2    3.46    0.13
   0   7  -2    3.31    0.31
   0  -7   2    3.55    0.12
  -1   7  -2    1.26    0.08
  -1   7  -2    1.32    0.32
  -1   7  -2    1.35    0.08
  -1   7  -2    1.38    0.10
  -1   7  -2    1.44    0.13
   1  -7   2    1.37    0.08
   1  -7   2    1.33    0.09
  -2   7  -2    4.13    0.18
  -2   7  -2    4.12    0.11
  -2   7  -2    4.15    0.13
  -2   7  -2    4.02    0.13
  -2   7  -2    3.91    0.24
  -2   7  -2    4.10    0.17
   2  -7   2    3.98    0.14
   2  -7   2    4.01    0.13
  -3   7  -2   20.41    0.46
  -3   7  -2   20.63    0.36
  -3   7  -2   21.36    0.46
  -3   7  -2   21.00    0.40
  -3   7  -2   21.01    0.39
  -3   7  -2   20.68    0.49
   3  -7   2   21.38    0.60
   3  -7   2   21.30    0.41
   3  -7   2   21.02    0.38
  -4   7  -2    0.87    0.08
  -4   7  -2    0.69    0.11
  -4   7  -2    0.78    0.08
  -4   7  -2    0.85    0.11
  -4   7  -2    0.94    0.08
  -4   7  -2    0.86    0.08
   4  -7   2    0.73    0.07
   4  -7   2    0.82    0.11
   4  -7   2    1.03    0.18
   4  -7   2    0.93    0.08
   4  -7   2    0.63    0.07
  -5   7  -2    8.78    0.33
  -5   7  -2    8.90    0.23
  -5   7  -2    8.82    0.22
  -5   7  -2    9.03    0.29
  -5   7  -2    8.92    0.23
   5  -7   2    8.59    0.23
   5  -7   2    8.70    0.21
   5  -7   2    8.74    0.22
   5  -7   2    8.73    0.42
   5  -7   2    8.53    0.24
  -6   7  -2    2.73    0.19
  -6   7  -2    2.96    0.19
  -6   7  -2    2.60    0.13
  -6   7  -2    2.80    0.13
   6  -7   2    2.64    0.13
   6  -7   2    2.46    0.11
   6  -7   2    2.69    0.13
   6  -7   2    2.24    0.20
  -7   7  -2   14.95    0.43
  -7   7  -2   15.14    0.44
  -7   7  -2   15.15    0.33
   7  -7   2   14.96    0.34
   7  -7   2   15.16    0.34
   7  -7   2   14.41    0.44
   7  -7   2   14.82    0.26
  -8   7  -2    1.60    0.13
  -8   7  -2    1.69    0.18
  -8   7  -2    1.57    0.17
   8  -7   2    1.75    0.14
   8  -7   2    0.99    0.31
   8  -7   2    1.62    0.11
  -9   7  -2    2.19    0.22
  -9   7  -2    1.77    0.20
  -9   7  -2    1.96    0.15
   9  -7   2    2.31    0.13
   9  -7   2    1.85    0.15
 -10   7  -2    0.57    0.15
 -10   7  -2    0.59    0.11
 -10   7  -2    0.50    0.15
  10  -7   2    0.58    0.17
  10  -7   2    0.78    0.11
 -11   7  -2    1.24    0.15
 -11   7  -2    0.72    0.18
  11  -7   2    0.99    0.13
 -12   7  -2    0.45    0.16
 -12   7  -2    0.63    0.14
  12  -7   2    0.51    0.11
  13  -7   2    0.37    0.10
  10   6  -2    0.05    0.09
   9   6  -2   -0.07    0.07
   8   6  -2    0.50    0.09
   7   6  -2    0.00    0.05
   7   6  -2    0.05    0.08
   6   6  -2    0.91    0.14
   6   6  -2    0.83    0.09
   5   6  -2    0.70    0.12
   5   6  -2    0.62    0.10
   5   6  -2    0.76    0.07
   4   6  -2   12.39    0.38
   4   6  -2   12.29    0.75
   4   6  -2   12.31    0.26
   3   6  -2    4.93    0.23
   3   6  -2    4.98    0.14
   3   6  -2    5.01    0.23
   2   6  -2    2.58    0.14
   2   6  -2    2.74    0.10
   2   6  -2    2.63    0.15
   1   6  -2   17.71    0.41
   1   6  -2   17.31    0.41
   1   6  -2   17.64    0.39
   1   6  -2   16.25    0.28
   1   6  -2   16.78    0.31
   0   6  -2   34.89    0.56
   0   6  -2   35.96    0.65
   0   6  -2   35.22    0.68
   0   6  -2   34.17    0.55
   0   6  -2   34.86    0.55
   0   6  -2   35.11    0.60
   0   6  -2   34.70    0.70
   0  -6   2   35.08    0.58
   0  -6   2   35.30    0.54
  -1   6  -2    6.85    0.19
  -1   6  -2    7.17    0.21
  -1   6  -2    6.76    0.16
  -1   6  -2    6.76    0.12
  -1   6  -2    6.81    0.16
  -1   6  -2    6.58    0.44
   1  -6   2    6.52    0.17
   1  -6   2    6.72    0.16
  -2   6  -2    2.12    0.08
  -2   6  -2    2.19    0.33
  -2   6  -2    1.95    0.09
  -2   6  -2    2.36    0.13
  -2   6  -2    2.05    0.11
  -2   6  -2    2.00    0.09
   2  -6   2    2.12    0.09
   2  -6   2    2.01    0.10
  -3   6  -2    2.86    0.12
  -3   6  -2    2.79    0.10
  -3   6  -2    2.87    0.22
  -3   6  -2    2.99    0.14
  -3   6  -2    2.87    0.11
  -3   6  -2    3.03    0.11
   3  -6   2    2.73    0.12
   3  -6   2    2.86    0.15
   3  -6   2    2.80    0.11
   3  -6   2    2.97    0.11
   3  -6   2    2.82    0.10
  -4   6  -2    0.43    0.21
  -4   6  -2    0.47    0.06
  -4   6  -2    0.45    0.05
  -4   6  -2    0.37    0.05
  -4   6  -2    0.36    0.08
  -4   6  -2    0.39    0.05
   4  -6   2    0.46    0.12
   4  -6   2    0.47    0.06
   4  -6   2    0.40    0.05
   4  -6   2    0.40    0.08
   4  -6   2    0.37    0.05
   4  -6   2    0.49    0.06
  -5   6  -2    1.77    0.10
  -5   6  -2    1.81    0.15
  -5   6  -2    1.68    0.10
  -5   6  -2    1.74    0.08
  -5   6  -2    1.65    0.14
   5  -6   2    1.61    0.10
   5  -6   2    1.79    0.09
   5  -6   2    1.52    0.10
   5  -6   2    1.63    0.16
   5  -6   2    1.70    0.09
  -6   6  -2   33.48    0.56
  -6   6  -2   32.95    0.59
  -6   6  -2   33.17    0.68
  -6   6  -2   33.82    0.73
   6  -6   2   33.44    0.57
   6  -6   2   34.06    0.73
   6  -6   2   33.12    0.58
   6  -6   2   33.60    0.51
  -7   6  -2    0.03    0.09
  -7   6  -2    0.04    0.05
  -7   6  -2    0.06    0.08
   7  -6   2    0.04    0.08
   7  -6   2   -0.01    0.04
   7  -6   2    0.08    0.06
  -8   6  -2    0.15    0.09
  -8   6  -2    0.20    0.10
  -8   6  -2    0.10    0.06
   8  -6   2    0.12    0.05
   8  -6   2    0.04    0.06
   8  -6   2   -0.10    0.12
  -9   6  -2   -0.12    0.08
  -9   6  -2    0.13    0.10
  -9   6  -2    0.08    0.06
   9  -6   2    0.02    0.05
   9  -6   2    0.07    0.06
 -10   6  -2    0.64    0.15
 -10   6  -2    0.52    0.09
 -10   6  -2    0.61    0.38
  10  -6   2    0.66    0.11
 -11   6  -2   -0.07    0.12
  11  -6   2   -0.09    0.07
 -12   6  -2    0.22    0.15
  12  -6   2    0.34    0.10
  13  -6   2    0.39    0.12
  11   5  -2    0.26    0.11
  10   5  -2    0.54    0.11
   9   5  -2    0.03    0.07
   8   5  -2    0.30    0.07
   8   5  -2    0.25    0.11
   7   5  -2    1.77    0.11
   7   5  -2    2.03    0.18
   6   5  -2   -0.02    0.05
   6   5  -2    0.00    0.04
   6   5  -2   -0.01    0.06
   5   5  -2    0.52    0.15
   5   5  -2    0.44    0.10
   5   5  -2    0.48    0.06
   4   5  -2    0.05    0.06
   4   5  -2    0.00    0.03
   4   5  -2   -0.01    0.09
   3   5  -2    0.70    0.05
   3   5  -2    0.59    0.08
   3   5  -2    0.65    0.10
   2   5  -2   10.77    0.29
   2   5  -2   10.67    0.21
   2   5  -2   10.44    0.29
   1   5  -2    4.36    0.10
   1   5  -2    4.39    0.17
   1   5  -2    4.40    0.12
   1   5  -2    4.35    0.10
   1   5  -2    4.65    0.16
  -1  -5   2    4.26    0.12
   0   5  -2    1.13    0.09
   0   5  -2    1.06    0.06
   0   5  -2    1.11    0.08
   0   5  -2    1.11    0.06
   0  -5   2    1.06    0.06
   0  -5   2    1.14    0.06
   0  -5   2    1.05    0.08
  -1   5  -2   32.24    0.47
  -1   5  -2   31.13    0.50
  -1   5  -2   31.18    0.59
  -1   5  -2   30.79    0.51
  -1   5  -2   32.58    0.56
  -1   5  -2   31.37    0.63
   1  -5   2   31.43    0.58
   1  -5   2   32.15    0.49
   1  -5   2   30.87    0.51
  -2   5  -2    0.21    0.03
  -2   5  -2    0.20    0.03
  -2   5  -2    0.21    0.05
  -2   5  -2    0.20    0.04
  -2   5  -2    0.16    0.03
  -2   5  -2    0.17    0.06
   2  -5   2    0.20    0.03
   2  -5   2    0.18    0.04
   2  -5   2    0.15    0.04
   2  -5   2    0.12    0.03
  -3   5  -2    3.26    0.11
  -3   5  -2    3.54    0.12
  -3   5  -2    3.35    0.10
  -3   5  -2    3.54    0.20
  -3   5  -2    3.24    0.14
   3  -5   2    3.23    0.12
   3  -5   2    3.45    0.10
   3  -5   2    3.16    0.27
   3  -5   2    3.25    0.11
   3  -5   2    3.45    0.11
  -4   5  -2   14.46    0.30
  -4   5  -2   14.89    0.34
  -4   5  -2   14.68    0.27
  -4   5  -2   14.66    0.36
  -4   5  -2   14.49    0.29
   4  -5   2   15.19    0.36
   4  -5   2   14.15    0.28
   4  -5   2   14.64    0.26
   4  -5   2   14.69    0.29
   4  -5   2   14.02    0.30
  -5   5  -2   12.47    0.33
  -5   5  -2   12.84    0.27
  -5   5  -2   13.21    0.35
  -5   5  -2   13.08    0.26
   5  -5   2   13.51    0.35
   5  -5   2   12.95    0.27
   5  -5   2   13.32    0.23
   5  -5   2   13.09    0.27
  -6   5  -2    0.02    0.04
  -6   5  -2    0.00    0.06
  -6   5  -2   -0.06    0.06
  -6   5  -2   -0.02    0.03
   6  -5   2   -0.02    0.06
   6  -5   2    0.00    0.04
   6  -5   2   -0.01    0.03
  -7   5  -2    0.03    0.08
  -7   5  -2    0.16    0.08
  -7   5  -2    0.13    0.05
   7  -5   2    0.12    0.06
   7  -5   2    0.12    0.07
   7  -5   2    0.13    0.04
  -8   5  -2    3.65    0.14
  -8   5  -2    3.37    0.22
  -8   5  -2    3.51    0.21
   8  -5   2    3.50    0.16
   8  -5   2    3.38    0.20
   8  -5   2    3.51    0.15
  -9   5  -2    1.89    0.19
  -9   5  -2    1.54    0.18
   9  -5   2    1.86    0.13
 -10   5  -2    0.20    0.12
 -10   5  -2    0.02    0.10
  10  -5   2    0.08    0.07
 -11   5  -2   -0.19    0.11
  11  -5   2    0.04    0.07
  12  -5   2    0.13    0.09
  13  -5   2    0.04    0.09
  11   4  -2   -0.04    0.09
  10   4  -2    0.04    0.07
   9   4  -2    0.10    0.06
   8   4  -2    1.12    0.11
   8   4  -2    1.12    0.16
   7   4  -2    0.02    0.04
   7   4  -2    0.05    0.07
   7   4  -2   -0.03    0.06
   6   4  -2    1.85    0.17
   6   4  -2    2.18    0.17
   6   4  -2    1.84    0.10
   6   4  -2    1.76    0.20
   5   4  -2    1.70    0.15
   5   4  -2    1.79    0.14
   5   4  -2    1.77    0.19
   5   4  -2    1.68    0.09
   4   4  -2    1.29    0.07
   4   4  -2    1.19    0.10
   4   4  -2    1.20    0.11
   4   4  -2    1.46    0.13
   3   4  -2    2.50    0.19
   3   4  -2    2.64    0.09
   3   4  -2    2.59    0.12
   2   4  -2    9.72    0.24
   2   4  -2    9.27    0.18
   2   4  -2    9.21    0.25
   2   4  -2    9.30    0.16
   2   4  -2    8.97    0.16
  -2  -4   2    9.28    0.24
   1   4  -2   36.16    0.69
   1   4  -2   35.18    0.54
   1   4  -2   35.69    0.65
   1   4  -2   35.71    0.53
   1   4  -2   35.58    0.70
  -1  -4   2   35.55    0.64
  -1  -4   2   34.01    0.55
   0   4  -2    0.08    0.03
   0   4  -2    0.17    0.03
   0   4  -2    0.16    0.12
   0   4  -2    0.19    0.02
   0   4  -2    0.12    0.02
   0  -4   2    0.15    0.04
   0  -4   2    0.19    0.03
  -1   4  -2    4.58    0.12
  -1   4  -2    4.65    0.14
  -1   4  -2    4.87    0.10
  -1   4  -2    4.72    0.16
   1  -4   2    4.48    0.12
   1  -4   2    4.75    0.11
   1  -4   2    4.48    0.14
  -2   4  -2   59.53    0.94
  -2   4  -2   59.70    0.84
  -2   4  -2   57.03    0.87
  -2   4  -2   58.07    0.96
  -2   4  -2   59.13    1.05
   2  -4   2   59.36    0.84
   2  -4   2   55.75    1.18
   2  -4   2   57.49    0.96
   2  -4   2   56.03    0.87
  -3   4  -2    0.07    0.04
  -3   4  -2    0.13    0.03
  -3   4  -2    0.12    0.03
  -3   4  -2    0.21    0.05
  -3   4  -2    0.15    0.03
   3  -4   2    0.15    0.04
   3  -4   2    0.16    0.03
   3  -4   2    0.18    0.03
   3  -4   2    0.10    0.08
   3  -4   2    0.16    0.03
  -4   4  -2    1.26    0.06
  -4   4  -2    1.27    0.10
  -4   4  -2    1.31    0.07
  -4   4  -2    1.29    0.05
  -4   4  -2    1.25    0.19
  -4   4  -2    1.25    0.10
   4  -4   2    1.22    0.06
   4  -4   2    1.38    0.05
   4  -4   2    1.33    0.07
   4  -4   2    1.28    0.08
   4  -4   2    1.37    0.13
  -5   4  -2    0.01    0.03
  -5   4  -2    0.00    0.05
  -5   4  -2    0.00    0.03
  -5   4  -2    0.01    0.05
   5  -4   2    0.02    0.03
   5  -4   2   -0.01    0.10
   5  -4   2    0.00    0.03
   5  -4   2   -0.03    0.02
  -6   4  -2    0.04    0.03
  -6   4  -2    0.03    0.05
  -6   4  -2    0.05    0.06
   6  -4   2   -0.02    0.03
   6  -4   2    0.02    0.02
   6  -4   2    0.00    0.05
  -7   4  -2    0.53    0.06
  -7   4  -2    0.44    0.09
  -7   4  -2    0.61    0.11
   7  -4   2    0.45    0.07
   7  -4   2    0.36    0.08
   7  -4   2    0.36    0.06
  -8   4  -2    0.23    0.09
  -8   4  -2    0.22    0.09
   8  -4   2    0.25    0.09
   8  -4   2    0.23    0.06
  -9   4  -2    0.89    0.15
  -9   4  -2    1.15    0.15
   9  -4   2    1.02    0.10
 -10   4  -2    2.66    0.22
 -10   4  -2    2.38    0.23
  10  -4   2    2.69    0.16
  11  -4   2    0.43    0.10
  12  -4   2    0.96    0.13
  13  -4   2    0.06    0.08
  12   3  -2    0.05    0.10
  11   3  -2    0.12    0.09
  10   3  -2    0.73    0.10
   9   3  -2    0.25    0.11
   9   3  -2    0.41    0.08
   8   3  -2    0.14    0.06
   8   3  -2    0.17    0.09
   8   3  -2    0.19    0.09
   7   3  -2    0.04    0.04
   7   3  -2   -0.02    0.06
   7   3  -2    0.04    0.06
   6   3  -2    0.05    0.07
   6   3  -2    0.08    0.07
   6   3  -2    0.00    0.07
   6   3  -2    0.12    0.04
   5   3  -2    0.16    0.03
   5   3  -2    0.10    0.04
   5   3  -2    0.11    0.06
   5   3  -2    0.04    0.05
   4   3  -2    0.89    0.08
   4   3  -2    0.96    0.09
   4   3  -2    0.87    0.10
   4   3  -2    0.89    0.05
  -4  -3   2    0.87    0.09
   3   3  -2    9.84    0.28
   3   3  -2    9.31    0.18
   3   3  -2    9.53    0.26
   3   3  -2    9.78    0.24
  -3  -3   2    9.33    0.24
   2   3  -2    0.81    0.04
   2   3  -2    0.80    0.04
   2   3  -2    0.71    0.07
   2   3  -2    0.92    0.07
   2   3  -2    0.74    0.04
   2   3  -2    0.76    0.07
  -2  -3   2    0.85    0.07
   1   3  -2   25.46    0.39
   1   3  -2   25.65    0.47
   1   3  -2   24.87    0.42
   1   3  -2   25.41    0.50
  -1  -3   2   24.76    0.51
  -1  -3   2   25.47    0.47
  -1  -3   2   25.27    0.41
   0   3  -2    8.73    0.39
   0   3  -2    8.72    0.16
   0   3  -2    8.76    0.20
   0  -3   2    8.67    0.20
   0  -3   2    8.40    0.20
   0  -3   2    8.65    0.16
  -1   3  -2    3.02    0.08
  -1   3  -2    3.10    0.10
  -1   3  -2    3.14    0.13
   1  -3   2    3.34    0.08
   1  -3   2    3.00    0.10
   1  -3   2    2.95    0.08
  -2   3  -2    1.34    0.06
  -2   3  -2    1.34    0.09
  -2   3  -2    1.15    0.06
   2  -3   2    1.23    0.05
   2  -3   2    1.19    0.05
   2  -3   2    1.32    0.07
   2  -3   2    1.12    0.07
  -3   3  -2   12.91    0.27
  -3   3  -2   13.08    0.24
  -3   3  -2   13.11    0.31
  -3   3  -2   12.80    0.24
  -3   3  -2   12.94    0.27
   3  -3   2   12.98    0.28
   3  -3   2   12.62    0.23
   3  -3   2   12.74    0.23
   3  -3   2   12.73    0.24
  -4   3  -2    0.10    0.03
  -4   3  -2    0.16    0.05
  -4   3  -2    0.09    0.05
  -4   3  -2    0.08    0.04
   4  -3   2    0.10    0.04
   4  -3   2    0.15    0.07
   4  -3   2    0.12    0.03
   4  -3   2    0.11    0.02
  -5   3  -2    0.81    0.06
  -5   3  -2    1.13    0.09
  -5   3  -2    0.97    0.10
   5  -3   2    0.90    0.06
   5  -3   2    1.03    0.10
   5  -3   2    0.89    0.05
   5  -3   2    0.93    0.09
  -6   3  -2    2.46    0.14
  -6   3  -2    2.33    0.15
   6  -3   2    2.04    0.09
   6  -3   2    2.26    0.13
  -7   3  -2    4.62    0.23
  -7   3  -2    5.09    0.20
   7  -3   2    5.03    0.15
   7  -3   2    5.02    0.22
  -8   3  -2    3.19    0.18
  -8   3  -2    3.82    0.22
   8  -3   2    3.05    0.13
   8  -3   2    3.03    0.19
  -9   3  -2    1.12    0.16
  -9   3  -2    1.07    0.13
   9  -3   2    0.85    0.13
   9  -3   2    1.16    0.11
 -10   3  -2    0.06    0.10
  10  -3   2   -0.01    0.06
  11  -3   2    0.62    0.11
  12  -3   2   -0.01    0.09
  13  -3   2   -0.03    0.10
  12   2  -2    0.04    0.10
  11   2  -2    0.01    0.08
  10   2  -2    0.16    0.08
   9   2  -2    1.24    0.11
   9   2  -2    0.99    0.16
   8   2  -2    5.60    0.18
   8   2  -2    5.70    0.27
   8   2  -2    5.21    0.28
   7   2  -2    0.04    0.07
   7   2  -2   -0.01    0.06
   7   2  -2   -0.02    0.04
   6   2  -2    1.36    0.13
   6   2  -2    1.50    0.09
   6   2  -2    1.58    0.15
   6   2  -2    1.66    0.08
  -6  -2   2    1.22    0.11
   5   2  -2   12.43    0.23
   5   2  -2   12.42    0.36
   5   2  -2   12.47    0.34
   5   2  -2   12.42    0.28
  -5  -2   2   12.03    0.29
   4   2  -2   33.99    0.68
   4   2  -2   32.75    0.52
   4   2  -2   33.77    0.72
   4   2  -2   34.90    0.61
  -4  -2   2   34.16    0.62
   3   2  -2   33.96    0.60
   3   2  -2   33.23    0.51
   3   2  -2   34.19    1.02
   3   2  -2   34.24    0.69
   3   2  -2   33.34    0.52
   3   2  -2   33.90    0.51
  -3  -2   2   34.31    0.61
   2   2  -2   18.14    0.29
   2   2  -2   18.92    0.40
   2   2  -2   18.48    0.35
   2   2  -2   18.41    0.29
   2   2  -2   17.97    0.38
  -2  -2   2   18.40    0.30
  -2  -2   2   18.66    0.40
  -2  -2   2   18.39    0.36
   1   2  -2   10.74    0.22
   1   2  -2   10.48    0.23
   1   2  -2   10.14    0.18
   1   2  -2   10.43    0.23
  -1  -2   2   10.30    0.23
  -1  -2   2   10.44    0.18
  -1  -2   2   10.13    0.22
   0   2  -2    0.22    0.04
   0   2  -2    0.30    0.03
   0   2  -2    0.18    0.07
   0  -2   2    0.25    0.04
   0  -2   2    0.26    0.03
   0  -2   2    0.22    0.03
  -1   2  -2  140.76    2.04
  -1   2  -2  147.15    2.26
  -1   2  -2  146.05    2.43
   1  -2   2  147.55    2.45
   1  -2   2  143.02    2.21
   1  -2   2  142.62    2.46
  -2   2  -2  207.70    3.17
  -2   2  -2  208.80    3.48
  -2   2  -2  200.13    3.43
   2  -2   2  203.36    3.28
   2  -2   2  202.99    2.97
   2  -2   2  203.74    3.55
  -3   2  -2    0.10    0.03
  -3   2  -2    0.11    0.04
  -3   2  -2    0.03    0.04
   3  -2   2    0.08    0.02
   3  -2   2    0.10    0.03
   3  -2   2    0.24    0.03
   3  -2   2    0.14    0.02
  -4   2  -2   11.86    0.31
  -4   2  -2   12.01    0.26
  -4   2  -2   12.30    0.29
   4  -2   2   12.29    0.36
   4  -2   2   11.67    0.21
  -5   2  -2   16.99    0.36
  -5   2  -2   16.48    0.41
   5  -2   2   16.82    0.39
   5  -2   2   17.04    0.29
  -6   2  -2    1.49    0.11
  -6   2  -2    1.46    0.13
   6  -2   2    1.48    0.11
   6  -2   2    1.39    0.08
  -7   2  -2    0.02    0.06
  -7   2  -2   -0.09    0.05
   7  -2   2    0.03    0.04
   7  -2   2    0.04    0.05
  -8   2  -2    0.46    0.11
  -8   2  -2    0.34    0.09
   8  -2   2    0.28    0.08
   8  -2   2    0.37    0.06
  -9   2  -2    1.06    0.15
  -9   2  -2    1.06    0.13
   9  -2   2    0.86    0.13
   9  -2   2    1.17    0.11
 -10   2  -2    0.37    0.11
  10  -2   2    0.13    0.07
  11  -2   2    0.23    0.09
  12  -2   2   -0.08    0.09
  13  -2   2    0.00    0.10
  13   1  -2    0.15    0.12
  12   1  -2    0.56    0.13
  11   1  -2   -0.02    0.07
  10   1  -2    0.20    0.10
  10   1  -2    0.31    0.08
   9   1  -2    1.06    0.22
   9   1  -2    0.70    0.14
   9   1  -2    0.98    0.10
   8   1  -2    0.13    0.08
   8   1  -2    0.17    0.05
   8   1  -2    0.19    0.08
   7   1  -2    0.05    0.06
   7   1  -2    0.13    0.07
   7   1  -2    0.13    0.05
   6   1  -2    3.73    0.19
   6   1  -2    3.69    0.18
   6   1  -2    3.54    0.12
   6   1  -2    3.63    0.13
  -6  -1   2    3.38    0.14
   5   1  -2    2.25    0.12
   5   1  -2    2.16    0.07
   5   1  -2    2.02    0.06
   5   1  -2    2.23    0.14
   5   1  -2    2.07    0.06
   5   1  -2    2.12    0.09
   5   1  -2    2.04    0.08
  -5  -1   2    1.91    0.10
   4   1  -2    0.21    0.05
   4   1  -2    0.16    0.03
   4   1  -2    0.20    0.03
   4   1  -2    0.16    0.03
   4   1  -2    0.20    0.03
   4   1  -2    0.17    0.05
  -4  -1   2    0.22    0.03
  -4  -1   2    0.21    0.05
   3   1  -2    5.20    0.17
   3   1  -2    5.30    0.14
   3   1  -2    5.31    0.11
   3   1  -2    5.32    0.16
   3   1  -2    5.20    0.11
  -3  -1   2    5.22    0.14
  -3  -1   2    5.31    0.18
   2   1  -2   11.72    0.34
   2   1  -2   11.65    0.26
   2   1  -2   12.17    0.24
   2   1  -2   11.40    0.20
  -2  -1   2   11.85    0.27
  -2  -1   2   11.68    0.20
  -2  -1   2   11.66    0.24
   1   1  -2    0.02    0.02
   1   1  -2    0.04    0.02
   1   1  -2    0.00    0.03
   1   1  -2    0.04    0.02
  -1  -1   2    0.01    0.01
  -1  -1   2    0.04    0.05
  -1  -1   2   -0.02    0.02
  -1  -1   2    0.03    0.02
   0   1  -2   67.65    1.12
   0   1  -2   66.01    0.94
   0   1  -2   65.47    1.05
   0   1  -2   66.21    1.18
   0  -1   2   64.34    0.94
   0  -1   2   65.34    1.13
   0  -1   2   64.67    1.22
   0  -1   2   66.90    1.29
  -1   1  -2  198.83    3.13
  -1   1  -2  200.35    3.29
   1  -1   2  194.94    3.05
   1  -1   2  197.13    2.87
   1  -1   2  197.57    3.29
   1  -1   2  195.98    2.78
   1  -1   2  195.11    2.81
  -2   1  -2   91.47    1.57
  -2   1  -2   90.83    1.58
  -2   1  -2   90.03    1.43
   2  -1   2   92.97    1.58
   2  -1   2   89.66    1.43
  -3   1  -2  122.71    2.14
  -3   1  -2  122.65    1.93
  -3   1  -2  125.58    2.15
  -3   1  -2  123.55    1.93
   3  -1   2  123.87    2.15
   3  -1   2  121.45    1.67
  -4   1  -2    7.65    0.16
  -4   1  -2    7.34    0.23
  -4   1  -2    7.62    0.17
   4  -1   2    7.38    0.21
   4  -1   2    7.51    0.14
  -5   1  -2    2.87    0.09
  -5   1  -2    2.90    0.15
  -5   1  -2    3.06    0.09
  -5   1  -2    2.82    0.12
   5  -1   2    3.05    0.14
   5  -1   2    2.94    0.08
  -6   1  -2    7.15    0.21
  -6   1  -2    6.85    0.26
   6  -1   2    6.78    0.25
   6  -1   2    6.85    0.15
  -7   1  -2    1.01    0.10
  -7   1  -2    1.07    0.14
   7  -1   2    1.03    0.08
   7  -1   2    0.90    0.11
  -8   1  -2    0.35    0.10
  -8   1  -2    0.41    0.09
   8  -1   2    0.12    0.07
   8  -1   2    0.34    0.06
  -9   1  -2    0.50    0.16
   9  -1   2    0.55    0.08
   9  -1   2    0.26    0.09
  10  -1   2    0.06    0.06
  11  -1   2   -0.06    0.07
  12  -1   2    0.28    0.10
  13   0  -2    0.03    0.10
  12   0  -2    0.11    0.10
  11   0  -2    0.26    0.09
  10   0  -2    0.05    0.07
  10   0  -2    0.17    0.10
   9   0  -2   -0.06    0.06
   9   0  -2   -0.05    0.04
   9   0  -2   -0.03    0.06
   8   0  -2    2.86    0.20
   8   0  -2    2.72    0.25
   8   0  -2    2.63    0.13
   7   0  -2   13.17    0.41
   7   0  -2   13.56    0.38
   7   0  -2   12.83    0.28
   6   0  -2    1.27    0.07
   6   0  -2    1.46    0.16
   6   0  -2    1.22    0.07
   6   0  -2    1.20    0.10
   6   0  -2    1.32    0.06
   6   0  -2    1.25    0.06
  -6   0   2    1.19    0.07
  -6   0   2    1.29    0.14
   5   0  -2   16.15    0.28
   5   0  -2   16.21    0.32
   5   0  -2   15.73    0.40
   5   0  -2   15.92    0.28
   5   0  -2   16.02    0.38
   5   0  -2   15.92    0.29
  -5   0   2   15.74    0.36
  -5   0   2   16.34    0.30
   4   0  -2    0.39    0.04
   4   0  -2    0.41    0.06
   4   0  -2    0.28    0.03
   4   0  -2    0.39    0.04
   4   0  -2    0.37    0.06
  -4   0   2    0.39    0.04
  -4   0   2    0.35    0.09
   3   0  -2   17.97    0.28
   3   0  -2   18.05    0.47
   3   0  -2   17.96    0.36
   3   0  -2   17.65    0.30
   3   0  -2   18.36    0.33
  -3   0   2   17.28    0.34
  -3   0   2   18.24    0.42
  -3   0   2   18.03    0.31
   2   0  -2   56.00    0.83
   2   0  -2   56.35    1.09
   2   0  -2   57.21    0.92
   2   0  -2   57.02    1.03
  -2   0   2   57.09    0.98
  -2   0   2   57.04    0.93
  -2   0   2   57.19    0.83
  -2   0   2   57.01    1.06
   1   0  -2   70.86    1.09
   1   0  -2   67.21    1.21
   1   0  -2   68.87    1.20
   1   0  -2   69.25    1.12
  -1   0   2   66.10    1.09
  -1   0   2   68.25    1.21
  -1   0   2   68.86    1.40
   0   0  -2   80.97    1.34
   0   0  -2   80.33    1.27
   0   0   2   79.81    1.34
   0   0   2   78.34    1.27
  -1   0  -2  110.38    1.73
  -1   0  -2  108.03    2.06
  -1   0  -2  110.54    1.86
   1   0   2  111.87    1.74
  -2   0  -2    4.28    0.11
  -2   0  -2    4.17    0.11
  -2   0  -2    4.31    0.13
   2   0   2    4.15    0.13
  -3   0  -2   10.65    0.26
  -3   0  -2   10.59    0.25
  -3   0  -2   10.44    0.22
   3   0   2   10.46    0.26
   3   0   2   10.62    0.26
   3   0   2   10.35    0.20
  -4   0  -2    3.72    0.15
  -4   0  -2    3.56    0.13
   4   0   2    3.80    0.16
   4   0   2    3.71    0.15
   4   0   2    3.63    0.12
  -5   0  -2    7.80    0.19
  -5   0  -2    8.03    0.19
   5   0   2    7.79    0.26
   5   0   2    7.89    0.21
   5   0   2    7.90    0.14
   5   0   2    7.78    0.14
   5   0   2    8.25    0.26
  -6   0  -2    3.04    0.13
  -6   0  -2    3.03    0.11
   6   0   2    2.88    0.09
   6   0   2    3.15    0.18
   6   0   2    3.19    0.18
  -7   0  -2    0.08    0.05
   7   0   2    0.02    0.03
   7   0   2    0.16    0.08
   7   0   2    0.06    0.06
  -8   0  -2    0.15    0.07
   8   0   2    0.09    0.06
   8   0   2    0.09    0.04
  -9   0  -2    0.12    0.07
   9   0   2    0.10    0.05
   9   0   2    0.00    0.07
  10   0   2    1.22    0.12
  11   0   2    0.52    0.10
  12   0   2    0.42    0.11
  13  -1  -2    0.27    0.11
  12  -1  -2    0.06    0.10
  11  -1  -2    0.09    0.08
  10  -1  -2    0.81    0.14
  10  -1  -2    0.87    0.11
  10  -1  -2    0.75    0.15
   9  -1  -2    3.16    0.15
   9  -1  -2    2.92    0.20
   9  -1  -2    2.95    0.22
   8  -1  -2    7.28    0.28
   8  -1  -2    6.96    0.16
   8  -1  -2    7.54    0.31
   8  -1  -2    7.12    0.20
  -8   1   2    6.87    0.20
   7  -1  -2    1.31    0.12
   7  -1  -2    1.50    0.09
   7  -1  -2    1.40    0.15
   7  -1  -2    1.39    0.07
  -7   1   2    1.37    0.09
  -7   1   2    1.28    0.11
   6  -1  -2    0.45    0.07
   6  -1  -2    0.27    0.07
   6  -1  -2    0.29    0.04
   6  -1  -2    0.28    0.05
  -6   1   2    0.36    0.05
  -6   1   2    0.39    0.05
  -6   1   2    0.33    0.06
   5  -1  -2   38.28    0.73
   5  -1  -2   37.84    0.63
   5  -1  -2   38.27    0.77
   5  -1  -2   35.67    0.59
   5  -1  -2   37.43    0.58
  -5   1   2   36.20    0.60
  -5   1   2   35.87    0.61
  -5   1   2   37.81    0.58
   4  -1  -2    4.01    0.11
   4  -1  -2    3.82    0.11
   4  -1  -2    3.77    0.36
   4  -1  -2    3.66    0.10
   4  -1  -2    3.85    0.13
   4  -1  -2    3.83    0.09
  -4   1   2    4.03    0.11
  -4   1   2    3.74    0.10
   3  -1  -2   13.34    0.22
   3  -1  -2   13.11    0.31
   3  -1  -2   12.76    0.27
   3  -1  -2   12.98    0.29
   3  -1  -2   12.43    0.23
  -3   1   2   13.04    0.24
  -3   1   2   13.52    0.23
  -3   1   2   12.85    0.24
   2  -1  -2  136.38    1.95
   2  -1  -2  136.37    2.28
   2  -1  -2  138.98    2.39
   2  -1  -2  138.68    2.15
  -2   1   2  135.44    1.95
  -2   1   2  137.92    1.95
  -2   1   2  138.16    2.33
  -2   1   2  134.75    2.15
  -2   1   2  138.40    2.39
   1  -1  -2  803.20   12.10
   1  -1  -2  803.82   13.49
  -1   1   2  762.66   12.14
  -1   1   2  776.50   12.13
   0  -1  -2   21.53    0.60
   0  -1  -2   21.51    0.38
   0  -1  -2   21.47    0.39
   0   1   2   21.15    0.38
   0   1   2   21.08    0.35
   0   1   2   21.16    0.38
  -1  -1  -2   10.06    0.21
  -1  -1  -2   10.02    0.22
   1   1   2    9.75    0.19
   1   1   2    9.85    0.21
  -2  -1  -2    6.34    0.20
  -2  -1  -2    6.04    0.16
  -2  -1  -2    6.20    0.16
   2   1   2    6.04    0.17
   2   1   2    6.19    0.16
  -3  -1  -2    3.15    0.15
  -3  -1  -2    3.24    0.11
   3   1   2    3.15    0.11
   3   1   2    3.07    0.11
   3   1   2    3.09    0.13
  -4  -1  -2   11.17    0.25
  -4  -1  -2   10.98    0.26
   4   1   2   11.12    0.37
   4   1   2   11.30    0.25
  -5  -1  -2   11.05    0.26
  -5  -1  -2   10.95    0.26
   5   1   2   10.60    0.26
   5   1   2   10.96    0.33
  -6  -1  -2    0.37    0.09
   6   1   2    0.32    0.04
   6   1   2    0.36    0.09
   7   1   2    2.71    0.10
   7   1   2    2.65    0.19
   8   1   2    0.46    0.06
   8   1   2    0.40    0.11
  -9  -1  -2    0.43    0.10
   9   1   2    0.18    0.06
  10   1   2    0.38    0.08
  11   1   2    0.00    0.07
  12   1   2    0.09    0.09
  14  -2  -2    0.23    0.11
  13  -2  -2    0.77    0.14
  12  -2  -2    0.25    0.10
  11  -2  -2    0.54    0.10
 -11   2   2    0.54    0.35
  10  -2  -2    0.01    0.09
  10  -2  -2    0.08    0.07
 -10   2   2    0.19    0.07
   9  -2  -2    2.84    0.11
   9  -2  -2    3.04    0.27
   9  -2  -2    2.94    0.15
  -9   2   2    2.90    0.19
  -9   2   2    2.75    0.14
   8  -2  -2    2.65    0.13
   8  -2  -2    2.62    0.17
   8  -2  -2    2.43    0.19
   8  -2  -2    2.52    0.11
  -8   2   2    2.73    0.13
  -8   2   2    2.23    0.15
   7  -2  -2   -0.01    0.05
   7  -2  -2   -0.02    0.06
   7  -2  -2    0.04    0.04
   7  -2  -2   -0.01    0.03
  -7   2   2    0.04    0.06
  -7   2   2    0.03    0.04
   6  -2  -2    1.75    0.08
   6  -2  -2    2.13    0.15
   6  -2  -2    2.06    0.12
   6  -2  -2    1.82    0.09
   6  -2  -2    1.83    0.06
  -6   2   2    1.94    0.10
  -6   2   2    1.89    0.09
  -6   2   2    1.88    0.12
  -6   2   2    1.99    0.10
   5  -2  -2   16.56    0.31
   5  -2  -2   16.77    0.31
   5  -2  -2   16.76    0.31
   5  -2  -2   16.80    0.43
   5  -2  -2   16.98    0.29
  -5   2   2   17.09    0.32
  -5   2   2   17.19    0.31
  -5   2   2   16.50    0.32
  -5   2   2   16.38    0.33
  -5   2   2   17.33    0.35
   4  -2  -2   19.03    0.32
   4  -2  -2   19.38    0.35
   4  -2  -2   19.03    0.34
   4  -2  -2   19.09    0.45
   4  -2  -2   19.72    0.33
  -4   2   2   19.37    0.33
  -4   2   2   19.42    0.37
  -4   2   2   18.99    0.35
   3  -2  -2    4.52    0.12
   3  -2  -2    4.71    0.12
   3  -2  -2    4.49    0.12
   3  -2  -2    4.70    0.11
   3  -2  -2    4.95    0.18
  -3   2   2    4.64    0.20
  -3   2   2    4.58    0.12
  -3   2   2    4.43    0.12
  -3   2   2    4.38    0.12
  -3   2   2    4.72    0.11
   2  -2  -2    3.88    0.10
   2  -2  -2    3.92    0.11
   2  -2  -2    4.02    0.11
   2  -2  -2    3.83    0.14
  -2   2   2    3.87    0.08
  -2   2   2    3.88    0.20
  -2   2   2    3.87    0.10
  -2   2   2    3.81    0.08
  -2   2   2    3.70    0.11
   1  -2  -2   78.46    1.27
   1  -2  -2   77.85    1.27
  -1   2   2   78.70    1.11
  -1   2   2   76.65    1.08
  -1   2   2   77.84    1.12
   0  -2  -2  111.47    1.78
   0  -2  -2  111.98    1.86
   0  -2  -2  111.74    1.79
   0   2   2  109.43    1.86
   0   2   2  109.15    1.50
   0   2   2  111.35    1.79
  -1  -2  -2    0.01    0.02
  -1  -2  -2    0.03    0.02
   1   2   2    0.00    0.02
   1   2   2    0.04    0.03
  -2  -2  -2    5.58    0.16
  -2  -2  -2    5.52    0.18
   2   2   2    5.81    0.17
   2   2   2    5.64    0.15
   2   2   2    5.56    0.17
  -3  -2  -2    6.12    0.18
  -3  -2  -2    6.21    0.18
   3   2   2    6.24    0.19
   3   2   2    6.08    0.20
   3   2   2    6.10    0.17
  -4  -2  -2    1.81    0.10
   4   2   2    1.58    0.12
   4   2   2    1.63    0.09
   4   2   2    1.86    0.11
  -5  -2  -2    4.23    0.16
   5   2   2    4.28    0.15
   5   2   2    4.53    0.21
   5   2   2    4.32    0.17
   6   2   2    3.03    0.19
   6   2   2    2.81    0.08
   7   2   2    0.20    0.09
   7   2   2    0.15    0.04
   8   2   2    1.25    0.09
   8   2   2    1.00    0.16
   9   2   2    0.08    0.05
  10   2   2   -0.01    0.06
  11   2   2   -0.01    0.07
  14  -3  -2   -0.03    0.09
  13  -3  -2    1.14    0.15
  12  -3  -2    0.74    0.12
  11  -3  -2    0.36    0.10
 -11   3   2    0.41    0.12
 -11   3   2    0.35    0.10
  10  -3  -2    0.04    0.06
  10  -3  -2    0.01    0.08
  10  -3  -2   -0.02    0.04
 -10   3   2    0.18    0.08
 -10   3   2    0.00    0.07
   9  -3  -2    1.60    0.13
   9  -3  -2    1.71    0.11
   9  -3  -2    1.36    0.17
   9  -3  -2    1.47    0.09
  -9   3   2    1.82    0.16
  -9   3   2    1.49    0.13
  -9   3   2    1.51    0.15
   8  -3  -2    1.90    0.10
   8  -3  -2    2.17    0.13
   8  -3  -2    1.84    0.19
  -8   3   2    1.76    0.19
  -8   3   2    2.05    0.13
  -8   3   2    1.83    0.15
   7  -3  -2    3.11    0.13
   7  -3  -2    3.60    0.21
   7  -3  -2    3.20    0.08
   7  -3  -2    3.14    0.12
  -7   3   2    3.17    0.14
  -7   3   2    3.18    0.14
  -7   3   2    3.29    0.16
  -7   3   2    3.11    0.19
   6  -3  -2   13.20    0.39
   6  -3  -2   12.96    0.25
   6  -3  -2   12.78    0.25
   6  -3  -2   13.22    0.28
   6  -3  -2   13.28    0.28
   6  -3  -2   13.44    0.39
  -6   3   2   13.63    0.34
  -6   3   2   12.79    0.27
  -6   3   2   13.28    0.32
   5  -3  -2    9.70    0.21
   5  -3  -2    9.69    0.20
   5  -3  -2    9.85    0.21
   5  -3  -2    9.57    0.22
   5  -3  -2    9.79    0.31
   5  -3  -2    9.51    0.21
  -5   3   2   10.17    0.26
  -5   3   2   10.06    0.25
  -5   3   2    9.57    0.21
  -5   3   2    9.52    0.42
   4  -3  -2    3.61    0.18
   4  -3  -2    3.61    0.11
   4  -3  -2    3.68    0.11
   4  -3  -2    3.64    0.11
   4  -3  -2    3.73    0.11
  -4   3   2    3.49    0.17
  -4   3   2    3.62    0.12
  -4   3   2    3.67    0.11
  -4   3   2    3.64    0.14
  -4   3   2    3.52    0.11
   3  -3  -2    4.39    0.13
   3  -3  -2    4.63    0.12
   3  -3  -2    4.23    0.13
   3  -3  -2    4.30    0.12
  -3   3   2    4.58    0.14
  -3   3   2    4.26    0.11
  -3   3   2    4.41    0.12
  -3   3   2    4.28    0.12
  -3   3   2    4.37    0.12
  -3   3   2    4.41    0.11
   2  -3  -2    6.66    0.14
   2  -3  -2    6.86    0.18
   2  -3  -2    6.66    0.21
   2  -3  -2    6.73    0.17
   2  -3  -2    6.65    0.15
  -2   3   2    6.68    0.15
  -2   3   2    6.58    0.17
  -2   3   2    6.84    0.14
  -2   3   2    6.64    0.14
   1  -3  -2   -0.03    0.02
   1  -3  -2    0.01    0.03
   1  -3  -2    0.00    0.02
  -1   3   2    0.01    0.02
  -1   3   2   -0.01    0.02
  -1   3   2    0.02    0.01
  -1   3   2   -0.02    0.01
  -1   3   2    0.01    0.01
  -1   3   2    0.06    0.03
   0  -3  -2    2.00    0.09
   0  -3  -2    1.99    0.10
   0   3   2    1.94    0.05
   0   3   2    1.94    0.07
   0   3   2    2.00    0.09
   0   3   2    1.97    0.10
  -1  -3  -2   82.44    1.62
   1   3   2   84.02    1.31
   1   3   2   84.45    1.40
   1   3   2   82.37    1.45
   2   3   2    4.57    0.16
   2   3   2    4.54    0.16
   2   3   2    4.39    0.14
   3   3   2    0.02    0.04
   3   3   2   -0.02    0.03
   3   3   2    0.03    0.04
  -4  -3  -2    2.41    0.13
   4   3   2    2.37    0.11
   4   3   2    2.28    0.13
   4   3   2    2.38    0.14
  -5  -3  -2   14.28    0.36
   5   3   2   14.50    0.41
   5   3   2   14.21    0.37
   6   3   2    0.90    0.05
   6   3   2    0.82    0.15
   7   3   2    0.39    0.05
   7   3   2    0.30    0.10
   8   3   2    0.45    0.06
   8   3   2    0.51    0.13
   9   3   2    0.00    0.05
  10   3   2    0.02    0.06
  11   3   2    0.05    0.07
  14  -4  -2    0.21    0.11
  13  -4  -2    0.36    0.11
 -13   4   2    0.30    0.14
  12  -4  -2    0.59    0.12
 -12   4   2    0.94    0.15
  11  -4  -2    0.42    0.07
  11  -4  -2    0.43    0.11
 -11   4   2    0.46    0.11
 -11   4   2    0.44    0.12
  10  -4  -2    0.29    0.10
  10  -4  -2    0.18    0.11
  10  -4  -2    0.25    0.08
  10  -4  -2    0.39    0.07
 -10   4   2    0.40    0.10
 -10   4   2    0.34    0.11
 -10   4   2    0.28    0.11
   9  -4  -2    0.11    0.10
   9  -4  -2    0.39    0.08
   9  -4  -2    0.33    0.06
  -9   4   2    0.27    0.08
  -9   4   2    0.26    0.09
  -9   4   2    0.21    0.09
   8  -4  -2    1.00    0.09
   8  -4  -2    0.91    0.14
   8  -4  -2    1.01    0.10
  -8   4   2    1.24    0.12
  -8   4   2    1.06    0.13
  -8   4   2    1.05    0.13
   7  -4  -2   18.33    0.51
   7  -4  -2   18.04    0.37
   7  -4  -2   18.60    0.37
   7  -4  -2   18.10    0.33
  -7   4   2   18.12    0.44
  -7   4   2   18.18    0.38
  -7   4   2   18.22    0.37
  -7   4   2   18.13    0.43
   6  -4  -2   16.23    0.31
   6  -4  -2   16.29    0.46
   6  -4  -2   15.81    0.32
   6  -4  -2   15.60    0.31
   6  -4  -2   15.94    0.33
   6  -4  -2   15.73    0.32
  -6   4   2   16.06    0.32
  -6   4   2   16.30    2.58
  -6   4   2   15.74    0.38
  -6   4   2   15.76    0.38
   5  -4  -2   18.46    0.37
   5  -4  -2   18.67    0.36
   5  -4  -2   19.28    0.49
   5  -4  -2   18.66    0.34
   5  -4  -2   18.14    0.34
   5  -4  -2   18.48    0.36
  -5   4   2   18.49    0.34
  -5   4   2   18.36    0.61
  -5   4   2   18.12    0.36
  -5   4   2   18.77    0.35
  -5   4   2   18.96    0.41
   4  -4  -2    0.48    0.22
   4  -4  -2    0.52    0.05
   4  -4  -2    0.49    0.05
   4  -4  -2    0.58    0.06
   4  -4  -2    0.61    0.06
  -4   4   2    0.59    0.07
  -4   4   2    0.69    0.06
  -4   4   2    0.56    0.07
  -4   4   2    0.57    0.05
  -4   4   2    0.60    0.06
   3  -4  -2  108.92    1.73
   3  -4  -2  107.07    1.51
   3  -4  -2  103.28    1.55
   3  -4  -2  104.83    2.15
   3  -4  -2  105.24    1.73
  -3   4   2  103.97    1.50
  -3   4   2  105.45    1.55
  -3   4   2  108.59    1.48
  -3   4   2  103.67    1.66
  -3   4   2  106.34    1.79
   2  -4  -2   24.88    0.50
   2  -4  -2   24.44    0.46
   2  -4  -2   25.29    0.42
   2  -4  -2   25.98    0.49
   2  -4  -2   25.97    0.98
  -2   4   2   25.36    0.41
  -2   4   2   25.26    0.41
  -2   4   2   24.66    0.41
  -2   4   2   25.84    0.50
  -2   4   2   25.10    0.46
  -2   4   2   25.90    0.48
   1  -4  -2    1.62    0.09
  -1   4   2    1.37    0.08
  -1   4   2    1.48    0.06
  -1   4   2    1.43    0.07
  -1   4   2    1.48    0.09
   0   4   2    2.65    0.11
   0   4   2    2.45    0.07
   0   4   2    2.70    0.13
   0   4   2    2.69    0.11
   1   4   2    1.13    0.08
   1   4   2    1.04    0.07
   1   4   2    1.07    0.04
   1   4   2    1.14    0.09
   2   4   2    4.00    0.14
   2   4   2    4.00    0.08
   2   4   2    3.85    0.08
   2   4   2    3.97    0.16
   2   4   2    4.03    0.17
   3   4   2    1.65    0.12
   3   4   2    1.83    0.13
   3   4   2    1.90    0.10
  -4  -4  -2    4.46    0.19
   4   4   2    4.57    0.20
   4   4   2    4.44    0.21
  -5  -4  -2    2.54    0.15
   5   4   2    2.57    0.18
   5   4   2    2.74    0.16
   6   4   2    0.28    0.09
   6   4   2    0.30    0.04
   7   4   2    0.10    0.04
   7   4   2   -0.02    0.07
   8   4   2    0.73    0.08
   9   4   2    0.04    0.06
  10   4   2    0.02    0.06
  14  -5  -2   -0.03    0.09
 -14   5   2    0.19    0.14
  13  -5  -2   -0.04    0.09
 -13   5   2   -0.15    0.13
  12  -5  -2   -0.01    0.08
  12  -5  -2    0.11    0.06
 -12   5   2   -0.04    0.11
  11  -5  -2   -0.03    0.05
  11  -5  -2   -0.02    0.08
 -11   5   2   -0.02    0.09
 -11   5   2    0.11    0.10
 -11   5   2   -0.14    0.09
  10  -5  -2    0.02    0.07
  10  -5  -2    0.11    0.06
  10  -5  -2   -0.06    0.10
  10  -5  -2    0.11    0.06
 -10   5   2    0.08    0.10
 -10   5   2    0.21    0.10
 -10   5   2    0.13    0.09
   9  -5  -2    0.10    0.10
   9  -5  -2    0.16    0.06
   9  -5  -2    0.24    0.07
  -9   5   2    0.05    0.09
  -9   5   2    0.20    0.08
  -9   5   2    0.19    0.09
   8  -5  -2   19.01    0.40
   8  -5  -2   19.23    0.40
   8  -5  -2   18.22    0.34
   8  -5  -2   19.32    0.56
  -8   5   2   19.32    0.42
  -8   5   2   18.69    0.47
  -8   5   2   18.76    0.48
  -8   5   2   18.24    0.39
   7  -5  -2    0.14    0.10
   7  -5  -2    0.17    0.05
   7  -5  -2    0.24    0.06
   7  -5  -2    0.09    0.06
  -7   5   2    0.12    0.05
  -7   5   2    0.11    0.07
  -7   5   2    0.14    0.13
  -7   5   2    0.10    0.06
   6  -5  -2    0.70    0.08
   6  -5  -2    0.46    0.12
   6  -5  -2    0.57    0.08
   6  -5  -2    0.65    0.07
   6  -5  -2    0.47    0.10
   6  -5  -2    0.61    0.07
  -6   5   2    0.65    0.07
  -6   5   2    0.58    0.08
  -6   5   2    0.51    0.07
  -6   5   2    0.50    0.09
  -6   5   2    0.57    0.07
   5  -5  -2    1.42    0.09
   5  -5  -2    1.39    0.10
   5  -5  -2    1.42    0.11
   5  -5  -2    1.39    0.09
   5  -5  -2    1.23    0.14
  -5   5   2    1.47    0.09
  -5   5   2    1.55    0.10
  -5   5   2    1.47    0.09
  -5   5   2    1.55    0.09
  -5   5   2    1.66    0.12
   4  -5  -2   10.10    0.23
   4  -5  -2   10.22    0.22
   4  -5  -2    9.98    0.33
   4  -5  -2   10.20    0.31
   4  -5  -2    9.94    0.52
  -4   5   2   10.09    0.23
  -4   5   2   10.02    0.26
  -4   5   2   10.01    0.22
  -4   5   2   10.09    0.21
  -4   5   2    9.88    0.27
   3  -5  -2    0.04    0.03
   3  -5  -2    0.00    0.04
   3  -5  -2   -0.02    0.06
   3  -5  -2    0.02    0.02
  -3   5   2   -0.06    0.07
  -3   5   2    0.03    0.02
  -3   5   2   -0.02    0.04
   2  -5  -2    8.51    0.24
   2  -5  -2    8.14    0.19
   2  -5  -2    8.40    0.17
  -2   5   2    8.02    0.17
  -2   5   2    7.82    0.17
  -2   5   2    8.15    0.20
  -2   5   2    8.22    0.23
  -2   5   2    8.05    0.18
  -2   5   2    8.10    0.24
  -1   5   2   27.48    0.44
  -1   5   2   26.59    0.52
  -1   5   2   27.43    0.56
  -1   5   2   27.22    0.65
   0   5   2   10.76    0.30
   0   5   2   11.05    0.31
   0   5   2   10.88    0.27
   0   5   2   11.07    0.21
   1   5   2    0.79    0.08
   1   5   2    0.91    0.08
   1   5   2    0.91    0.10
   1   5   2    0.94    0.05
   2   5   2   23.77    0.48
   2   5   2   23.26    0.53
   2   5   2   23.40    0.37
   2   5   2   23.75    0.54
   3   5   2   10.24    0.27
   3   5   2   10.65    0.32
   3   5   2   10.70    0.19
   3   5   2   10.40    0.32
  -4  -5  -2    0.04    0.05
   4   5   2   -0.03    0.05
   4   5   2    0.00    0.05
   4   5   2    0.04    0.03
   5   5   2    0.64    0.12
   5   5   2    0.59    0.06
   6   5   2    0.05    0.04
   6   5   2    0.03    0.08
   8   5   2    0.16    0.05
   9   5   2    0.16    0.06
 -14   6   2    0.16    0.15
 -13   6   2   -0.18    0.12
  12  -6  -2    0.08    0.07
 -12   6   2   -0.06    0.12
 -12   6   2   -0.22    0.10
  11  -6  -2    2.50    0.16
  11  -6  -2    2.26    0.45
 -11   6   2    2.43    0.20
 -11   6   2    2.38    0.22
  10  -6  -2    1.10    0.12
 -10   6   2    1.19    0.16
 -10   6   2    1.19    0.14
   9  -6  -2   -0.08    0.11
   9  -6  -2    0.07    0.06
   9  -6  -2    0.08    0.05
  -9   6   2    0.05    0.09
  -9   6   2    0.07    0.07
   8  -6  -2   -0.22    0.11
   8  -6  -2    0.01    0.06
   8  -6  -2    0.04    0.05
  -8   6   2   -0.03    0.06
  -8   6   2    0.04    0.08
  -8   6   2   -0.07    0.05
   7  -6  -2    0.82    0.09
   7  -6  -2    0.71    0.15
   7  -6  -2    0.76    0.09
  -7   6   2    0.87    0.09
  -7   6   2    0.73    0.11
  -7   6   2    1.05    0.12
  -7   6   2    0.97    0.10
   6  -6  -2    2.09    0.13
   6  -6  -2    2.29    0.12
   6  -6  -2    2.38    0.24
   6  -6  -2    2.22    0.11
  -6   6   2    2.07    0.14
  -6   6   2    2.29    0.15
  -6   6   2    2.41    0.12
  -6   6   2    2.08    0.12
  -6   6   2    2.22    0.12
   5  -6  -2    6.82    0.19
   5  -6  -2    6.91    0.22
   5  -6  -2    6.84    0.20
   5  -6  -2    7.03    0.30
  -5   6   2    6.58    0.22
  -5   6   2    6.71    0.19
  -5   6   2    6.45    0.23
  -5   6   2    6.84    0.20
  -5   6   2    6.99    0.19
   4  -6  -2    0.39    0.06
   4  -6  -2    0.40    0.10
   4  -6  -2    0.38    0.06
   4  -6  -2    0.52    0.07
  -4   6   2    0.42    0.04
  -4   6   2    0.56    0.08
  -4   6   2    0.60    0.09
  -4   6   2    0.50    0.06
  -4   6   2    0.45    0.06
   3  -6  -2    1.61    0.11
   3  -6  -2    1.52    0.10
   3  -6  -2    1.46    0.16
  -3   6   2    1.51    0.09
  -3   6   2    1.73    0.09
  -3   6   2    1.52    0.08
  -3   6   2    1.57    0.11
  -3   6   2    1.48    0.11
   2  -6  -2    2.30    0.13
   2  -6  -2    2.00    0.09
  -2   6   2    2.08    0.09
  -2   6   2    2.06    0.12
  -2   6   2    1.94    0.13
  -2   6   2    1.96    0.09
  -2   6   2    2.09    0.08
  -1   6   2   27.04    0.54
  -1   6   2   26.12    0.45
  -1   6   2   26.01    0.57
  -1   6   2   26.64    0.80
   0   6   2    6.03    0.20
   0   6   2    5.72    0.19
   0   6   2    5.77    0.15
   0   6   2    5.98    0.23
   1   6   2    0.49    0.08
   1   6   2    0.36    0.08
   1   6   2    0.40    0.07
   1   6   2    0.41    0.05
   2   6   2    0.16    0.07
   2   6   2    0.25    0.07
   2   6   2    0.06    0.06
   2   6   2    0.14    0.04
   3   6   2    0.93    0.07
   3   6   2    0.76    0.11
   4   6   2    0.00    0.03
   4   6   2   -0.02    0.05
   5   6   2    0.03    0.04
   5   6   2    0.12    0.07
   6   6   2    0.03    0.04
   6   6   2    0.15    0.09
   7   6   2    0.57    0.07
   8   6   2    0.38    0.07
 -13   7   2   -0.16    0.11
  12  -7  -2    0.37    0.09
 -12   7   2    0.53    0.13
 -12   7   2    0.29    0.15
  11  -7  -2    0.17    0.15
  11  -7  -2    0.07    0.07
 -11   7   2    0.26    0.11
 -11   7   2    0.12    0.12
  10  -7  -2    0.12    0.07
 -10   7   2    0.14    0.09
 -10   7   2    0.13    0.10
   9  -7  -2   -0.06    0.06
   9  -7  -2    0.04    0.06
   9  -7  -2   -0.27    0.12
  -9   7   2    0.00    0.06
  -9   7   2   -0.07    0.07
  -9   7   2    0.03    0.09
   8  -7  -2    2.36    0.14
   8  -7  -2    2.04    0.24
   8  -7  -2    2.63    0.16
  -8   7   2    2.41    0.16
  -8   7   2    2.29    0.18
  -8   7   2    2.42    0.15
   7  -7  -2    1.16    0.18
   7  -7  -2    1.46    0.13
   7  -7  -2    1.55    0.12
  -7   7   2    1.58    0.13
  -7   7   2    1.70    0.16
  -7   7   2    1.37    0.12
   6  -7  -2    3.46    0.16
   6  -7  -2    3.40    0.26
   6  -7  -2    3.30    0.16
   6  -7  -2    3.39    0.16
  -6   7   2    3.25    0.15
  -6   7   2    3.48    0.19
  -6   7   2    3.26    0.17
  -6   7   2    3.42    0.15
   5  -7  -2    4.65    0.27
   5  -7  -2    4.63    0.18
   5  -7  -2    4.55    0.17
   5  -7  -2    4.64    0.29
  -5   7   2    4.43    0.11
  -5   7   2    4.93    0.17
  -5   7   2    4.61    0.21
  -5   7   2    4.58    0.16
   4  -7  -2    0.77    0.08
   4  -7  -2    0.65    0.12
   4  -7  -2    0.66    0.08
  -4   7   2    0.91    0.11
  -4   7   2    0.95    0.08
  -4   7   2    0.82    0.08
   3  -7  -2    2.73    0.15
   3  -7  -2    2.81    0.13
   3  -7  -2    2.64    0.20
  -3   7   2    2.61    0.16
  -3   7   2    2.72    0.11
  -3   7   2    2.67    0.12
  -3   7   2    2.84    0.15
   2  -7  -2    0.20    0.06
  -2   7   2    0.25    0.05
  -2   7   2    0.24    0.06
  -2   7   2    0.11    0.06
  -1   7   2    2.18    0.14
  -1   7   2    2.30    0.11
  -1   7   2    2.09    0.15
   0   7   2   11.11    0.31
   0   7   2   10.62    0.24
   1   7   2    9.39    0.28
   1   7   2    9.17    0.21
   2   7   2    0.00    0.04
   2   7   2    0.01    0.03
   3   7   2    0.07    0.04
   4   7   2    0.08    0.05
   5   7   2    0.66    0.07
   6   7   2    0.09    0.05
   7   7   2    0.16    0.06
   8   7   2    0.21    0.07
 -13   8   2   -0.18    0.11
 -13   8   2   -0.22    0.11
  12  -8  -2    0.31    0.09
 -12   8   2    0.35    0.13
 -12   8   2    0.11    0.13
  11  -8  -2    0.60    0.11
  11  -8  -2    0.60    0.14
 -11   8   2    0.35    0.14
 -11   8   2    0.38    0.12
  10  -8  -2    0.07    0.07
 -10   8   2   -0.11    0.09
 -10   8   2   -0.01    0.09
   9  -8  -2    0.00    0.08
   9  -8  -2    0.17    0.08
  -9   8   2    0.03    0.09
  -9   8   2    0.01    0.08
  -9   8   2   -0.08    0.06
   8  -8  -2    0.12    0.07
   8  -8  -2    0.02    0.07
   8  -8  -2   -0.28    0.13
  -8   8   2    0.12    0.07
  -8   8   2    0.04    0.08
  -8   8   2    0.11    0.07
   7  -8  -2    0.26    0.08
   7  -8  -2    0.24    0.14
   7  -8  -2    0.31    0.08
  -7   8   2    0.26    0.09
  -7   8   2    0.38    0.08
  -7   8   2    0.29    0.07
   6  -8  -2    5.76    0.21
   6  -8  -2    5.63    0.65
  -6   8   2    5.83    0.20
  -6   8   2    5.98    0.21
  -6   8   2    5.62    0.25
   5  -8  -2    8.86    0.37
   5  -8  -2    8.87    0.50
   5  -8  -2    8.33    0.24
  -5   8   2    9.07    0.25
  -5   8   2    8.43    0.30
  -5   8   2    8.47    0.23
   4  -8  -2    0.94    0.11
   4  -8  -2    0.76    0.14
   4  -8  -2    0.97    0.10
  -4   8   2    1.01    0.12
  -4   8   2    1.00    0.09
  -4   8   2    1.07    0.10
   3  -8  -2    1.65    0.19
   3  -8  -2    1.62    0.12
   3  -8  -2    1.54    0.13
  -3   8   2    1.51    0.09
  -3   8   2    1.56    0.11
  -3   8   2    1.66    0.14
  -3   8   2    1.51    0.14
  -2   8   2    3.09    0.17
  -2   8   2    3.26    0.14
  -1   8   2    0.00    0.04
  -1   8   2    0.04    0.06
   0   8   2    0.06    0.04
   0   8   2    0.01    0.06
   1   8   2    0.04    0.06
   1   8   2   -0.04    0.04
   1   8   2   -0.01    0.04
   2   8   2    0.13    0.05
   3   8   2    0.34    0.06
   4   8   2    0.46    0.08
   5   8   2    0.02    0.06
   6   8   2    0.04    0.06
   7   8   2    0.00    0.06
 -13   9   2   -0.08    0.12
 -13   9   2   -0.03    0.12
 -12   9   2    0.06    0.12
 -12   9   2    0.20    0.12
  11  -9  -2    0.11    0.08
 -11   9   2   -0.04    0.11
 -11   9   2    0.21    0.11
  10  -9  -2    0.11    0.08
  10  -9  -2    0.06    0.08
 -10   9   2    0.01    0.10
 -10   9   2    0.06    0.08
 -10   9   2   -0.15    0.08
   9  -9  -2    1.37    0.15
   9  -9  -2    1.39    0.13
  -9   9   2    1.52    0.15
  -9   9   2    1.25    0.17
  -9   9   2    1.18    0.14
   8  -9  -2   -0.06    0.08
   8  -9  -2   -0.03    0.06
  -8   9   2   -0.01    0.09
  -8   9   2   -0.02    0.06
  -8   9   2   -0.01    0.06
   7  -9  -2    0.01    0.08
  -7   9   2   -0.01    0.08
  -7   9   2   -0.04    0.06
   6  -9  -2    0.13    0.12
   6  -9  -2    0.29    0.09
  -6   9   2    0.31    0.10
  -6   9   2    0.22    0.07
  -6   9   2    0.30    0.07
   5  -9  -2    0.57    0.09
   5  -9  -2    0.49    0.14
  -5   9   2    0.74    0.10
  -5   9   2    0.87    0.09
  -5   9   2    0.65    0.11
   4  -9  -2    1.84    0.14
   4  -9  -2    1.72    0.48
  -4   9   2    1.67    0.12
  -4   9   2    1.65    0.15
  -4   9   2    1.78    0.11
   3  -9  -2    2.23    0.22
  -3   9   2    2.29    0.16
  -3   9   2    2.24    0.13
  -2   9   2   -0.05    0.04
  -2   9   2    0.12    0.07
  -1   9   2    0.98    0.10
  -1   9   2    1.09    0.13
   0   9   2   -0.06    0.06
   0   9   2    0.03    0.05
   0   9   2    0.12    0.05
   1   9   2    0.16    0.06
   2   9   2    0.20    0.07
   3   9   2    0.74    0.10
   4   9   2    0.04    0.07
   5   9   2    0.10    0.07
 -12  10   2   -0.11    0.11
 -12  10   2   -0.27    0.18
  11 -10  -2    0.12    0.09
 -11  10   2   -0.14    0.10
 -11  10   2    0.08    0.11
 -11  10   2   -0.09    0.08
  10 -10  -2    0.39    0.10
  10 -10  -2    0.35    0.10
 -10  10   2    0.45    0.13
 -10  10   2    0.37    0.11
 -10  10   2    0.45    0.10
   9 -10  -2    1.28    0.14
  -9  10   2    1.19    0.17
  -9  10   2    1.26    0.15
   8 -10  -2   -0.05    0.09
  -8  10   2   -0.09    0.09
  -8  10   2    0.11    0.08
   7 -10  -2    0.03    0.09
  -7  10   2    0.00    0.06
  -7  10   2    0.12    0.09
   6 -10  -2    0.04    0.09
  -6  10   2   -0.02    0.08
  -6  10   2    0.16    0.07
  -6  10   2    0.17    0.07
  -6  10   2    0.08    0.06
   5 -10  -2    1.42    0.14
  -5  10   2    1.49    0.12
  -5  10   2    1.09    0.15
  -5  10   2    1.51    0.14
   4 -10  -2    0.06    0.08
  -4  10   2    0.09    0.08
  -4  10   2    0.06    0.06
  -3  10   2    0.21    0.07
  -3  10   2    0.21    0.07
  -3  10   2    0.15    0.09
  -2  10   2   -0.01    0.07
  -2  10   2    0.04    0.05
  -2  10   2    0.03    0.06
  -1  10   2    0.93    0.11
  -1  10   2    0.84    0.13
  -1  10   2    0.61    0.09
   0  10   2    0.05    0.07
   1  10   2    0.02    0.07
   2  10   2    0.11    0.08
   3  10   2   -0.03    0.08
   4  10   2    0.14    0.08
 -12  11   2   -0.13    0.12
 -11  11   2    0.25    0.13
  10 -11  -2    0.35    0.12
 -10  11   2    0.46    0.12
 -10  11   2    0.53    0.15
   9 -11  -2   -0.19    0.09
  -9  11   2   -0.12    0.07
  -9  11   2    0.10    0.11
   8 -11  -2    0.06    0.10
  -8  11   2   -0.04    0.09
  -8  11   2    0.11    0.08
   7 -11  -2    0.02    0.10
  -7  11   2    0.27    0.08
  -7  11   2    0.11    0.10
   6 -11  -2   -0.08    0.09
  -6  11   2    0.11    0.07
  -6  11   2   -0.01    0.08
  -6  11   2    0.11    0.08
  -6  11   2   -0.02    0.06
   5 -11  -2    0.07    0.09
  -5  11   2    0.13    0.09
  -5  11   2    0.09    0.07
  -5  11   2    0.23    0.09
  -5  11   2    0.10    0.06
   4 -11  -2    1.75    0.17
  -4  11   2    1.76    0.15
  -4  11   2    1.83    0.16
  -4  11   2    1.87    0.19
  -3  11   2    0.01    0.06
  -3  11   2    0.01    0.08
  -3  11   2    0.12    0.07
  -2  11   2    0.00    0.07
  -2  11   2    0.00    0.06
  -1  11   2    0.03    0.07
   0  11   2   -0.02    0.08
   1  11   2    0.71    0.11
   2  11   2    0.03    0.09
   3  11   2    0.01    0.09
 -11  12   2   -0.19    0.10
  10 -12  -2    0.30    0.12
 -10  12   2    0.11    0.12
   9 -12  -2   -0.15    0.10
  -9  12   2   -0.03    0.11
   8 -12  -2    0.10    0.11
  -8  12   2    0.10    0.10
   7 -12  -2    0.97    0.15
  -7  12   2    0.88    0.15
  -7  12   2    1.15    0.12
   6 -12  -2    0.01    0.10
  -6  12   2    0.22    0.07
  -6  12   2    0.12    0.10
   5 -12  -2    0.12    0.11
  -5  12   2    0.18    0.10
  -5  12   2    0.17    0.09
  -4  12   2    0.29    0.11
  -4  12   2    0.37    0.10
  -3  12   2   -0.02    0.09
  -3  12   2    0.15    0.08
  -2  12   2    0.00    0.08
  -1  12   2    0.02    0.09
   0  12   2    0.05    0.09
   1  12   2    0.02    0.10
   9 -13  -2    0.07    0.12
  -9  13   2    0.07    0.11
   8 -13  -2    0.02    0.12
  -8  13   2    0.07    0.10
   7 -13  -2    0.16    0.12
  -7  13   2   -0.08    0.08
   6 -13  -2    0.03    0.11
  -6  13   2   -0.16    0.09
   5 -13  -2   -0.02    0.11
  -5  13   2    0.02    0.10
  -5  13   2   -0.03    0.09
  -4  13   2    0.14    0.10
  -4  13   2    0.05    0.10
  -3  13   2    0.05    0.10
  -2  13   2    0.31    0.12
  -1  13   2    0.06    0.11
  -2  15  -3    0.57    0.13
   2 -15   3    0.31    0.13
   3 -15   3   -0.18    0.11
   4 -15   3    0.09    0.11
  -5  15  -3    0.42    0.14
   5 -15   3    0.77    0.14
  -6  15  -3   -0.03    0.09
   6 -15   3    0.07    0.11
  -7  15  -3   -0.10    0.10
   7 -15   3   -0.11    0.11
  -8  15  -3    0.01    0.12
   8 -15   3    0.04    0.11
   1  14  -3   -0.03    0.09
   0  14  -3   -0.06    0.10
  -1  14  -3    1.32    0.16
  -2  14  -3    0.34    0.11
   2 -14   3    0.03    0.11
  -3  14  -3    0.13    0.10
   3 -14   3    0.31    0.12
  -4  14  -3   -0.11    0.09
  -4  14  -3   -0.03    0.05
   4 -14   3    0.10    0.11
  -5  14  -3    0.08    0.08
  -5  14  -3    0.06    0.10
   5 -14   3    0.08    0.11
  -6  14  -3    0.16    0.09
  -6  14  -3    0.21    0.12
   6 -14   3    0.04    0.10
  -7  14  -3    0.68    0.16
   7 -14   3    0.55    0.13
  -8  14  -3    2.97    0.27
   8 -14   3    2.40    0.19
  -9  14  -3   -0.23    0.10
 -10  14  -3   -0.07    0.12
   3  13  -3    0.23    0.11
   2  13  -3    0.21    0.10
   1  13  -3    0.51    0.12
   0  13  -3    1.88    0.18
  -1  13  -3    2.86    0.20
   1 -13   3    1.99    0.19
  -2  13  -3   -0.12    0.07
   2 -13   3    0.00    0.09
  -3  13  -3    0.25    0.10
  -3  13  -3    0.08    0.07
   3 -13   3    0.14    0.10
  -4  13  -3    0.55    0.13
  -4  13  -3    0.38    0.09
   4 -13   3    0.54    0.12
  -5  13  -3    0.99    0.16
  -5  13  -3    0.95    0.12
   5 -13   3    1.04    0.14
  -6  13  -3    0.70    0.11
  -6  13  -3    0.66    0.15
   6 -13   3    0.68    0.12
  -7  13  -3    3.46    0.27
  -7  13  -3    3.70    0.22
   7 -13   3    3.34    0.21
  -8  13  -3   -0.05    0.08
  -8  13  -3    0.05    0.14
   8 -13   3    0.06    0.08
   8 -13   3    0.07    0.10
  -9  13  -3    0.04    0.10
  -9  13  -3   -0.27    0.13
  -9  13  -3   -0.14    0.09
   9 -13   3   -0.10    0.08
 -10  13  -3    0.16    0.11
 -10  13  -3    0.05    0.16
 -11  13  -3    0.17    0.12
 -11  13  -3   -0.17    0.15
   4  12  -3    0.23    0.10
   3  12  -3    0.04    0.10
   2  12  -3   -0.07    0.08
   1  12  -3    0.03    0.08
   0  12  -3    0.00    0.07
  -1  12  -3    1.26    0.14
   1 -12   3    1.27    0.13
  -2  12  -3   -0.01    0.06
  -2  12  -3   -0.05    0.05
   2 -12   3    0.12    0.09
  -3  12  -3    0.68    0.13
  -3  12  -3    0.75    0.10
  -3  12  -3    0.87    0.12
   3 -12   3    0.76    0.12
  -4  12  -3    0.84    0.14
  -4  12  -3    0.76    0.10
   4 -12   3    0.85    0.12
  -5  12  -3   -0.11    0.08
  -5  12  -3   -0.01    0.06
   5 -12   3    0.05    0.08
  -6  12  -3    0.63    0.15
  -6  12  -3    0.52    0.10
   6 -12   3    0.52    0.10
  -7  12  -3   -0.13    0.07
  -7  12  -3   -0.08    0.12
  -7  12  -3    0.09    0.08
   7 -12   3    0.04    0.06
   7 -12   3    0.09    0.09
  -8  12  -3   -0.04    0.13
  -8  12  -3   -0.11    0.09
  -8  12  -3    0.00    0.08
   8 -12   3    0.07    0.09
   8 -12   3   -0.10    0.07
  -9  12  -3    0.05    0.10
  -9  12  -3   -0.03    0.13
   9 -12   3    0.00    0.08
 -10  12  -3   -0.10    0.14
 -10  12  -3    0.26    0.12
  10 -12   3    0.36    0.11
 -11  12  -3    0.76    0.15
 -11  12  -3    0.09    0.16
 -12  12  -3   -0.18    0.15
   6  11  -3    0.16    0.11
   5  11  -3    0.41    0.12
   4  11  -3    0.14    0.09
   3  11  -3   -0.12    0.06
   2  11  -3    1.19    0.15
   2  11  -3    0.80    0.11
   1  11  -3    0.08    0.06
   1  11  -3    0.32    0.10
   0  11  -3    0.18    0.15
   0  11  -3    0.03    0.06
  -1  11  -3    0.60    0.28
  -1  11  -3    0.48    0.07
  -1  11  -3    0.36    0.08
   1 -11   3    0.36    0.09
  -2  11  -3    0.77    0.12
  -2  11  -3    0.96    0.13
  -2  11  -3    0.59    0.09
  -2  11  -3    0.74    0.08
  -2  11  -3    0.92    0.13
   2 -11   3    0.90    0.10
  -3  11  -3    3.20    0.21
  -3  11  -3    2.99    0.15
  -3  11  -3    3.35    0.17
  -3  11  -3    3.41    0.20
   3 -11   3    4.10    0.24
   3 -11   3    3.14    0.17
  -4  11  -3    0.92    0.25
  -4  11  -3    0.69    0.10
  -4  11  -3    0.76    0.13
  -4  11  -3    0.71    0.10
   4 -11   3    0.81    0.13
   4 -11   3    0.82    0.11
  -5  11  -3    0.40    0.09
  -5  11  -3    0.40    0.13
  -5  11  -3    0.16    0.11
  -5  11  -3    0.26    0.06
   5 -11   3    0.26    0.11
  -6  11  -3    0.13    0.16
  -6  11  -3   -0.03    0.10
  -6  11  -3    0.16    0.07
  -6  11  -3    0.21    0.08
   6 -11   3    0.16    0.08
   6 -11   3    0.25    0.07
  -7  11  -3    0.33    0.13
  -7  11  -3    0.18    0.13
  -7  11  -3    0.39    0.09
  -7  11  -3    0.28    0.09
   7 -11   3    0.25    0.09
   7 -11   3    0.33    0.08
  -8  11  -3    1.25    0.20
  -8  11  -3    1.46    0.15
  -8  11  -3    1.54    0.15
   8 -11   3    1.87    0.17
   8 -11   3    1.46    0.13
  -9  11  -3    1.84    0.17
  -9  11  -3    1.55    0.22
   9 -11   3    2.26    0.18
 -10  11  -3    0.02    0.13
 -10  11  -3   -0.15    0.10
  10 -11   3    0.09    0.08
 -11  11  -3   -0.04    0.11
 -11  11  -3   -0.08    0.14
 -12  11  -3   -0.11    0.14
 -12  11  -3   -0.16    0.12
   7  10  -3    0.11    0.10
   6  10  -3   -0.12    0.07
   5  10  -3    0.53    0.11
   4  10  -3    1.25    0.13
   3  10  -3    0.65    0.09
   3  10  -3    0.63    0.12
   2  10  -3    0.35    0.16
   2  10  -3    0.37    0.08
   1  10  -3    0.34    0.07
   1  10  -3    0.61    0.10
   0  10  -3    2.21    0.16
   0  10  -3    2.21    0.13
   0 -10   3    2.09    0.13
  -1  10  -3    4.36    0.18
  -1  10  -3    4.17    0.36
  -1  10  -3    4.07    0.19
  -1  10  -3    4.24    0.15
   1 -10   3    4.37    0.17
  -2  10  -3    1.94    0.17
  -2  10  -3    1.91    0.11
  -2  10  -3    1.87    0.13
  -2  10  -3    1.69    0.14
   2 -10   3    1.58    0.13
  -3  10  -3    2.17    0.13
  -3  10  -3    1.90    0.15
  -3  10  -3    2.08    0.17
  -3  10  -3    2.27    0.20
  -3  10  -3    2.20    0.13
   3 -10   3    2.02    0.24
   3 -10   3    1.93    0.14
  -4  10  -3    0.05    0.05
  -4  10  -3    0.18    0.06
  -4  10  -3    0.07    0.08
  -4  10  -3    0.06    0.06
  -4  10  -3    0.06    0.10
  -4  10  -3    0.05    0.05
   4 -10   3    0.04    0.08
   4 -10   3    0.12    0.07
   4 -10   3    0.09    0.06
  -5  10  -3    9.64    0.35
  -5  10  -3    9.75    0.38
  -5  10  -3    9.75    0.24
  -5  10  -3    9.87    0.28
   5 -10   3    9.09    0.26
   5 -10   3    9.50    0.28
   5 -10   3    9.48    0.35
  -6  10  -3    3.41    0.16
  -6  10  -3    3.51    0.18
  -6  10  -3    3.44    0.24
  -6  10  -3    3.68    0.24
   6 -10   3    3.50    0.16
   6 -10   3    3.82    0.18
  -7  10  -3    0.72    0.15
  -7  10  -3    0.82    0.36
  -7  10  -3    0.89    0.12
  -7  10  -3    0.67    0.10
   7 -10   3    0.79    0.11
   7 -10   3    0.83    0.09
  -8  10  -3    0.22    0.13
  -8  10  -3    0.27    0.09
  -8  10  -3    0.21    0.14
   8 -10   3    0.44    0.09
  -9  10  -3   -0.16    0.12
  -9  10  -3   -0.19    0.13
  -9  10  -3    0.10    0.09
   9 -10   3    0.03    0.06
 -10  10  -3    0.20    0.11
 -10  10  -3   -0.18    0.13
  10 -10   3    0.03    0.07
 -11  10  -3    0.29    0.12
 -11  10  -3   -0.02    0.15
  11 -10   3    0.19    0.08
 -12  10  -3    0.52    0.15
 -12  10  -3    0.24    0.17
   8   9  -3    0.46    0.12
   7   9  -3    0.18    0.09
   6   9  -3    0.11    0.08
   5   9  -3    0.39    0.12
   5   9  -3    0.31    0.09
   4   9  -3    0.07    0.07
   4   9  -3    0.04    0.05
   3   9  -3    0.08    0.14
   3   9  -3   -0.02    0.04
   2   9  -3    0.37    0.07
   2   9  -3    0.54    0.13
   1   9  -3    0.44    0.07
   1   9  -3    0.54    0.15
   0   9  -3    4.45    0.14
   0   9  -3    4.40    0.21
   0   9  -3    4.27    0.16
   0  -9   3    4.23    0.16
  -1   9  -3    0.57    0.07
  -1   9  -3    0.63    0.10
  -1   9  -3    0.49    0.07
  -1   9  -3    0.52    0.10
  -1   9  -3    0.72    0.11
  -1   9  -3    0.49    0.09
   1  -9   3    0.57    0.08
  -2   9  -3    0.03    0.04
  -2   9  -3    0.01    0.04
  -2   9  -3    0.02    0.07
  -2   9  -3    0.04    0.05
  -2   9  -3    0.07    0.08
   2  -9   3    0.12    0.06
  -3   9  -3    0.07    0.13
  -3   9  -3   -0.05    0.08
  -3   9  -3    0.08    0.05
  -3   9  -3    0.00    0.04
  -3   9  -3    0.02    0.06
  -3   9  -3    0.00    0.04
   3  -9   3    0.04    0.05
   3  -9   3    0.09    0.14
   3  -9   3    0.07    0.06
  -4   9  -3   -0.02    0.04
  -4   9  -3    0.09    0.05
  -4   9  -3    0.02    0.04
  -4   9  -3    0.02    0.09
  -4   9  -3    0.03    0.05
  -4   9  -3   -0.04    0.08
   4  -9   3    0.02    0.10
   4  -9   3    0.00    0.06
   4  -9   3    0.05    0.05
  -5   9  -3    0.11    0.09
  -5   9  -3    0.00    0.05
  -5   9  -3    0.03    0.09
  -5   9  -3    0.00    0.05
  -5   9  -3   -0.04    0.04
   5  -9   3    0.01    0.05
   5  -9   3    0.02    0.06
   5  -9   3   -0.07    0.08
  -6   9  -3    4.45    0.18
  -6   9  -3    4.25    0.25
  -6   9  -3    4.08    0.17
  -6   9  -3    4.18    0.25
   6  -9   3    4.71    0.18
   6  -9   3    3.74    0.25
   6  -9   3    4.45    0.16
  -7   9  -3    4.29    0.19
  -7   9  -3    3.64    0.25
  -7   9  -3    3.81    0.25
  -7   9  -3    3.96    0.17
   7  -9   3    3.98    0.14
   7  -9   3    3.93    0.18
  -8   9  -3    3.63    0.25
  -8   9  -3    3.03    0.17
  -8   9  -3    2.99    0.24
   8  -9   3    3.56    0.18
  -9   9  -3    0.33    0.09
  -9   9  -3    0.22    0.13
  -9   9  -3    0.11    0.13
   9  -9   3    0.29    0.07
 -10   9  -3    0.26    0.15
 -10   9  -3    0.46    0.16
 -10   9  -3    0.47    0.12
  10  -9   3    0.47    0.11
  10  -9   3    0.53    0.21
 -11   9  -3    0.01    0.11
 -11   9  -3    0.10    0.15
  11  -9   3    0.07    0.09
  11  -9   3    0.01    0.12
 -12   9  -3    0.10    0.15
 -12   9  -3    0.17    0.13
  12  -9   3   -0.02    0.09
 -13   9  -3   -0.39    0.13
 -13   9  -3   -0.09    0.13
   9   8  -3   -0.03    0.09
   8   8  -3   -0.02    0.08
   7   8  -3    0.03    0.07
   6   8  -3    1.30    0.12
   5   8  -3    1.58    0.17
   5   8  -3    1.15    0.11
   4   8  -3    0.16    0.06
   4   8  -3    0.29    0.12
   3   8  -3    3.25    0.14
   3   8  -3    3.42    0.66
   2   8  -3    2.82    0.13
   2   8  -3    2.76    0.17
   1   8  -3    4.38    0.15
   1   8  -3    4.37    0.20
   1   8  -3    4.28    0.12
   1   8  -3    4.00    0.20
  -1  -8   3    4.16    0.15
   0   8  -3    0.09    0.04
   0   8  -3    0.11    0.07
   0   8  -3    0.22    0.06
   0   8  -3    0.12    0.06
   0   8  -3    0.15    0.04
   0  -8   3    0.15    0.05
  -1   8  -3    5.75    0.17
  -1   8  -3    5.61    0.22
  -1   8  -3    5.27    0.20
  -1   8  -3    5.50    0.23
  -1   8  -3    5.64    0.16
   1  -8   3    5.56    0.17
  -2   8  -3   -0.02    0.03
  -2   8  -3    0.04    0.18
  -2   8  -3   -0.02    0.03
  -2   8  -3   -0.07    0.06
  -2   8  -3   -0.05    0.04
  -2   8  -3   -0.02    0.04
   2  -8   3   -0.03    0.03
   2  -8   3   -0.01    0.05
  -3   8  -3    0.11    0.04
  -3   8  -3    0.09    0.04
  -3   8  -3    0.08    0.05
  -3   8  -3    0.01    0.16
  -3   8  -3    0.11    0.05
  -3   8  -3    0.05    0.07
   3  -8   3    0.09    0.05
   3  -8   3    0.14    0.07
   3  -8   3    0.07    0.04
  -4   8  -3    0.11    0.08
  -4   8  -3    0.09    0.05
  -4   8  -3    0.08    0.04
  -4   8  -3    0.10    0.09
  -4   8  -3    0.01    0.03
  -4   8  -3    0.09    0.05
   4  -8   3    0.03    0.05
   4  -8   3    0.06    0.04
   4  -8   3    0.09    0.09
  -5   8  -3   -0.01    0.08
  -5   8  -3    0.14    0.06
  -5   8  -3    0.11    0.05
  -5   8  -3    0.12    0.05
  -5   8  -3    0.07    0.09
   5  -8   3    0.07    0.05
   5  -8   3    0.18    0.06
   5  -8   3    0.08    0.11
   5  -8   3    0.02    0.04
  -6   8  -3    0.24    0.06
  -6   8  -3    0.31    0.11
  -6   8  -3    0.24    0.06
  -6   8  -3    0.28    0.11
   6  -8   3    0.19    0.06
   6  -8   3    0.26    0.06
   6  -8   3    0.12    0.10
   6  -8   3    0.17    0.06
  -7   8  -3   -0.09    0.09
  -7   8  -3    0.00    0.06
  -7   8  -3   -0.02    0.09
   7  -8   3    0.01    0.04
   7  -8   3    0.03    0.05
  -8   8  -3    0.06    0.10
  -8   8  -3    0.02    0.06
  -8   8  -3    0.10    0.11
   8  -8   3    0.07    0.06
   8  -8   3   -0.01    0.05
  -9   8  -3    0.10    0.08
  -9   8  -3    0.21    0.13
  -9   8  -3   -0.07    0.10
   9  -8   3    0.16    0.06
   9  -8   3    0.05    0.07
 -10   8  -3    0.69    0.16
 -10   8  -3    1.00    0.13
 -10   8  -3    0.72    0.18
  10  -8   3    1.19    0.14
  10  -8   3    1.01    0.11
 -11   8  -3    0.15    0.14
 -11   8  -3    0.18    0.11
  11  -8   3    0.15    0.10
 -12   8  -3   -0.13    0.15
 -12   8  -3   -0.13    0.11
  12  -8   3   -0.01    0.09
 -13   8  -3   -0.02    0.16
 -13   8  -3   -0.06    0.13
  13  -8   3   -0.05    0.09
  10   7  -3    0.04    0.10
   9   7  -3   -0.06    0.08
   8   7  -3    0.30    0.09
   7   7  -3    0.09    0.07
   6   7  -3    0.04    0.07
   6   7  -3   -0.09    0.04
   5   7  -3    0.09    0.07
   5   7  -3    0.04    0.04
   4   7  -3    0.03    0.07
   4   7  -3    0.13    0.05
   3   7  -3    0.08    0.04
   3   7  -3    0.07    0.16
   3   7  -3    0.05    0.05
   2   7  -3    0.06    0.04
   2   7  -3    0.00    0.05
   2   7  -3   -0.04    0.04
   1   7  -3    0.25    0.06
   1   7  -3    0.41    0.06
   1   7  -3    0.33    0.04
   1   7  -3    0.33    0.05
   1   7  -3    0.31    0.12
  -1  -7   3    0.36    0.06
   0   7  -3    4.30    0.14
   0   7  -3    4.25    0.17
   0   7  -3    3.90    0.15
   0   7  -3    3.87    0.19
   0   7  -3    4.23    0.13
   0   7  -3    3.87    0.17
   0  -7   3    4.05    0.13
   0  -7   3    4.07    0.14
  -1   7  -3   -0.01    0.03
  -1   7  -3    0.03    0.05
  -1   7  -3    0.00    0.03
  -1   7  -3   -0.05    0.07
  -1   7  -3    0.00    0.03
  -1   7  -3   -0.01    0.03
   1  -7   3    0.01    0.04
   1  -7   3    0.03    0.03
  -2   7  -3    8.40    0.25
  -2   7  -3    8.24    0.21
  -2   7  -3    8.41    0.28
  -2   7  -3    8.25    0.20
  -2   7  -3    8.45    0.25
  -2   7  -3    8.52    0.18
   2  -7   3    8.02    0.21
   2  -7   3    8.61    0.20
  -3   7  -3   25.82    0.58
  -3   7  -3   24.96    0.52
  -3   7  -3   25.85    0.47
  -3   7  -3   25.79    0.45
  -3   7  -3   25.30    0.52
  -3   7  -3   25.60    0.43
   3  -7   3   26.08    0.44
   3  -7   3   25.32    0.45
   3  -7   3   25.52    0.56
   3  -7   3   25.22    0.47
  -4   7  -3   18.39    0.36
  -4   7  -3   18.40    0.37
  -4   7  -3   17.64    0.42
  -4   7  -3   18.72    0.46
  -4   7  -3   18.49    0.34
  -4   7  -3   17.77    0.39
   4  -7   3   18.30    0.34
   4  -7   3   18.40    0.36
   4  -7   3   17.53    0.40
   4  -7   3   18.37    0.37
   4  -7   3   18.39    0.44
  -5   7  -3    0.34    0.06
  -5   7  -3    0.28    0.05
  -5   7  -3    0.22    0.09
  -5   7  -3    0.37    0.10
  -5   7  -3    0.33    0.06
   5  -7   3    0.12    0.09
   5  -7   3    0.40    0.07
   5  -7   3    0.28    0.06
   5  -7   3    0.28    0.05
  -6   7  -3    1.56    0.17
  -6   7  -3    1.94    0.18
  -6   7  -3    1.92    0.11
  -6   7  -3    1.82    0.12
   6  -7   3    1.91    0.09
   6  -7   3    1.62    0.17
   6  -7   3    1.93    0.11
   6  -7   3    1.82    0.12
  -7   7  -3    0.10    0.09
  -7   7  -3    0.14    0.06
  -7   7  -3    0.14    0.10
   7  -7   3    0.22    0.06
   7  -7   3    0.14    0.06
   7  -7   3    0.09    0.09
  -8   7  -3    6.01    0.28
  -8   7  -3    6.03    0.30
  -8   7  -3    5.91    0.20
   8  -7   3    6.22    0.19
   8  -7   3    6.47    0.22
  -9   7  -3    3.25    0.24
  -9   7  -3    2.89    0.16
  -9   7  -3    2.87    0.24
   9  -7   3    3.19    0.14
   9  -7   3    3.16    0.17
 -10   7  -3    0.08    0.13
 -10   7  -3   -0.20    0.10
 -10   7  -3    0.12    0.08
  10  -7   3    0.11    0.08
 -11   7  -3   -0.08    0.09
 -11   7  -3    0.08    0.14
  11  -7   3    0.11    0.09
 -12   7  -3    0.17    0.15
  12  -7   3    0.00    0.09
  13  -7   3   -0.06    0.09
  10   6  -3    0.50    0.11
   9   6  -3    0.83    0.12
   8   6  -3    0.63    0.09
   7   6  -3    0.00    0.08
   7   6  -3   -0.02    0.05
   6   6  -3    0.11    0.08
   6   6  -3    0.13    0.05
   5   6  -3    1.35    0.26
   5   6  -3    1.42    0.15
   5   6  -3    1.68    0.10
   4   6  -3    2.34    0.15
   4   6  -3    2.41    0.50
   4   6  -3    2.50    0.11
   3   6  -3   23.78    0.75
   3   6  -3   22.04    0.40
   3   6  -3   23.08    0.52
   2   6  -3    2.49    0.10
   2   6  -3    2.30    0.13
   2   6  -3    2.44    0.08
   2   6  -3    2.26    0.07
   2   6  -3    2.48    0.17
  -2  -6   3    2.35    0.09
   1   6  -3    0.42    0.07
   1   6  -3    0.39    0.07
   1   6  -3    0.32    0.07
   1   6  -3    0.29    0.04
   1   6  -3    0.38    0.05
  -1  -6   3    0.39    0.05
  -1  -6   3    0.40    0.05
   0   6  -3    3.21    0.11
   0   6  -3    3.42    0.16
   0   6  -3    3.32    0.11
   0   6  -3    3.53    0.13
   0   6  -3    3.42    0.15
   0  -6   3    3.41    0.11
   0  -6   3    3.33    0.12
  -1   6  -3   16.18    0.31
  -1   6  -3   16.75    0.37
  -1   6  -3   16.66    0.28
  -1   6  -3   15.93    0.31
  -1   6  -3   16.63    0.34
  -1   6  -3   16.23    0.43
   1  -6   3   16.72    0.30
   1  -6   3   16.28    0.32
  -2   6  -3    3.05    0.13
  -2   6  -3    2.98    0.14
  -2   6  -3    2.93    0.11
  -2   6  -3    2.96    0.16
  -2   6  -3    2.99    0.10
  -2   6  -3    2.90    0.10
   2  -6   3    2.94    0.13
   2  -6   3    2.99    0.11
   2  -6   3    2.88    0.11
  -3   6  -3    0.85    0.09
  -3   6  -3    0.76    0.07
  -3   6  -3    1.02    0.08
  -3   6  -3    0.88    0.07
  -3   6  -3    0.98    0.07
  -3   6  -3    1.01    0.12
   3  -6   3    0.93    0.08
   3  -6   3    0.92    0.07
   3  -6   3    0.88    0.09
   3  -6   3    0.80    0.07
   3  -6   3    1.07    0.11
  -4   6  -3    0.00    0.02
  -4   6  -3   -0.03    0.03
  -4   6  -3    0.07    0.06
  -4   6  -3    0.02    0.04
  -4   6  -3    0.03    0.07
   4  -6   3   -0.01    0.03
   4  -6   3    0.02    0.12
   4  -6   3   -0.02    0.03
   4  -6   3    0.03    0.05
   4  -6   3    0.07    0.04
  -5   6  -3    0.44    0.09
  -5   6  -3    0.42    0.06
  -5   6  -3    0.54    0.10
  -5   6  -3    0.48    0.06
  -5   6  -3    0.57    0.05
   5  -6   3    0.59    0.06
   5  -6   3    0.44    0.09
   5  -6   3    0.39    0.06
   5  -6   3    0.46    0.07
   5  -6   3    0.52    0.05
  -6   6  -3    2.29    0.18
  -6   6  -3    2.28    0.17
  -6   6  -3    2.10    0.11
   6  -6   3    2.38    0.17
   6  -6   3    2.35    0.11
   6  -6   3    2.39    0.12
  -7   6  -3    0.21    0.09
  -7   6  -3    0.23    0.09
  -7   6  -3    0.10    0.05
   7  -6   3    0.03    0.14
   7  -6   3    0.05    0.04
   7  -6   3    0.07    0.06
  -8   6  -3    0.03    0.09
  -8   6  -3    0.18    0.10
  -8   6  -3    0.13    0.06
   8  -6   3    0.07    0.06
   8  -6   3    0.11    0.04
  -9   6  -3    0.44    0.13
  -9   6  -3    0.67    0.14
  -9   6  -3    0.62    0.09
   9  -6   3    0.63    0.10
 -10   6  -3    1.81    0.23
 -10   6  -3    1.57    0.19
  10  -6   3    1.64    0.15
 -11   6  -3   -0.07    0.12
  11  -6   3    0.00    0.08
 -12   6  -3   -0.31    0.12
  12  -6   3    0.00    0.08
  13  -6   3    0.03    0.09
  11   5  -3    0.08    0.10
  10   5  -3    0.62    0.11
   9   5  -3    0.34    0.09
   8   5  -3    0.04    0.08
   8   5  -3    0.02    0.05
   7   5  -3    0.21    0.09
   7   5  -3    0.02    0.05
   6   5  -3   -0.01    0.10
   6   5  -3   -0.05    0.06
   6   5  -3   -0.03    0.03
   5   5  -3    1.97    0.10
   5   5  -3    2.18    0.14
   5   5  -3    2.22    0.16
   4   5  -3    0.15    0.08
   4   5  -3    0.24    0.04
   4   5  -3    0.22    0.06
   3   5  -3    0.71    0.08
   3   5  -3    0.75    0.09
   3   5  -3    0.68    0.06
   3   5  -3    0.71    0.04
   2   5  -3    9.59    0.25
   2   5  -3    9.19    0.18
   2   5  -3    9.39    0.27
   2   5  -3    9.73    0.26
   2   5  -3    9.56    0.20
  -2  -5   3    9.52    0.35
   1   5  -3    8.92    0.19
   1   5  -3    8.89    0.25
   1   5  -3    9.03    0.24
   1   5  -3    8.52    0.18
  -1  -5   3    8.90    0.18
  -1  -5   3    8.73    0.27
   0   5  -3    7.33    0.17
   0   5  -3    7.26    0.29
   0   5  -3    7.56    0.14
   0   5  -3    7.42    0.17
   0   5  -3    7.49    0.22
   0  -5   3    7.63    0.16
   0  -5   3    7.22    0.17
   0  -5   3    7.37    0.21
  -1   5  -3    1.21    0.07
  -1   5  -3    1.19    0.06
  -1   5  -3    1.10    0.10
  -1   5  -3    1.15    0.11
  -1   5  -3    1.12    0.09
  -1   5  -3    1.13    0.06
   1  -5   3    1.06    0.06
   1  -5   3    1.18    0.07
   1  -5   3    1.35    0.09
  -2   5  -3    0.96    0.06
  -2   5  -3    1.15    0.28
  -2   5  -3    1.18    0.09
  -2   5  -3    0.94    0.08
  -2   5  -3    1.07    0.06
   2  -5   3    0.97    0.06
   2  -5   3    0.94    0.08
   2  -5   3    0.94    0.06
  -3   5  -3   27.96    0.59
  -3   5  -3   28.61    0.45
  -3   5  -3   28.36    0.76
  -3   5  -3   28.31    0.53
  -3   5  -3   27.38    0.47
   3  -5   3   27.22    0.47
   3  -5   3   27.84    0.46
   3  -5   3   27.37    0.52
   3  -5   3   28.38    0.55
   3  -5   3   28.83    0.44
  -4   5  -3    0.44    0.07
  -4   5  -3    0.49    0.05
  -4   5  -3    0.62    0.06
  -4   5  -3    0.50    0.09
  -4   5  -3    0.56    0.05
   4  -5   3    0.50    0.07
   4  -5   3    0.45    0.06
   4  -5   3    0.54    0.06
   4  -5   3    0.52    0.04
   4  -5   3    0.43    0.05
  -5   5  -3    1.15    0.12
  -5   5  -3    1.19    0.08
  -5   5  -3    0.84    0.10
  -5   5  -3    1.02    0.06
  -5   5  -3    1.13    0.08
   5  -5   3    1.18    0.11
   5  -5   3    1.06    0.07
   5  -5   3    1.00    0.10
   5  -5   3    1.04    0.08
  -6   5  -3    0.20    0.08
  -6   5  -3    0.21    0.05
  -6   5  -3    0.03    0.07
   6  -5   3    0.17    0.09
   6  -5   3    0.20    0.07
   6  -5   3    0.24    0.05
  -7   5  -3    4.60    0.15
  -7   5  -3    4.59    0.22
  -7   5  -3    4.70    0.27
   7  -5   3    4.58    0.20
   7  -5   3    4.43    0.23
   7  -5   3    4.59    0.16
  -8   5  -3    0.59    0.12
  -8   5  -3    0.51    0.11
   8  -5   3    0.60    0.08
  -9   5  -3    0.47    0.13
  -9   5  -3    0.46    0.12
   9  -5   3    0.67    0.09
 -10   5  -3    0.00    0.11
 -10   5  -3   -0.05    0.10
  10  -5   3   -0.11    0.06
 -11   5  -3    0.24    0.14
  11  -5   3    0.18    0.08
  12  -5   3   -0.01    0.07
  13  -5   3    0.14    0.09
  11   4  -3    0.06    0.09
  10   4  -3   -0.01    0.07
   9   4  -3    0.10    0.07
   8   4  -3    0.21    0.06
   8   4  -3    0.29    0.10
   7   4  -3    1.46    0.15
   7   4  -3    1.64    0.11
   7   4  -3    1.24    0.16
   6   4  -3    0.12    0.07
   6   4  -3    0.12    0.07
   6   4  -3    0.06    0.05
   6   4  -3    0.08    0.04
   5   4  -3    2.81    0.11
   5   4  -3    2.95    0.19
   5   4  -3    2.86    0.17
   5   4  -3    2.84    0.14
   4   4  -3   13.63    0.27
   4   4  -3   13.63    0.33
   4   4  -3   13.91    0.40
   4   4  -3   13.68    0.53
   3   4  -3    4.28    0.18
   3   4  -3    4.15    0.10
   3   4  -3    4.33    0.12
   3   4  -3    4.38    0.16
   3   4  -3    4.42    0.10
   3   4  -3    4.48    0.19
  -3  -4   3    4.50    0.18
   2   4  -3   63.13    0.94
   2   4  -3   64.62    1.09
   2   4  -3   61.41    0.94
   2   4  -3   61.41    0.91
   2   4  -3   64.02    1.20
   2   4  -3   63.85    1.16
  -2  -4   3   62.67    0.95
  -2  -4   3   63.88    1.09
   1   4  -3   84.44    1.20
   1   4  -3   84.03    1.50
   1   4  -3   86.02    1.17
   1   4  -3   84.54    1.40
   1   4  -3   84.46    1.23
  -1  -4   3   84.80    1.41
  -1  -4   3   82.09    1.51
  -1  -4   3   85.18    1.20
   0   4  -3    7.81    0.17
   0   4  -3    7.84    0.15
   0   4  -3    8.03    0.46
   0   4  -3    7.54    0.20
   0  -4   3    7.80    0.21
   0  -4   3    7.63    0.20
   0  -4   3    7.75    0.17
   0  -4   3    8.12    0.16
  -1   4  -3   45.57    0.70
  -1   4  -3   46.51    0.68
  -1   4  -3   46.34    0.79
  -1   4  -3   45.00    0.85
   1  -4   3   46.05    0.80
   1  -4   3   45.00    0.98
   1  -4   3   46.55    0.68
  -2   4  -3   32.01    0.79
  -2   4  -3   33.26    0.57
  -2   4  -3   32.40    0.50
  -2   4  -3   32.48    0.56
  -2   4  -3   32.36    0.52
   2  -4   3   31.89    0.60
   2  -4   3   33.24    0.49
   2  -4   3   31.60    0.50
   2  -4   3   32.02    0.52
   2  -4   3   31.87    0.58
  -3   4  -3    0.11    0.03
  -3   4  -3    0.12    0.03
  -3   4  -3    0.12    0.03
  -3   4  -3    0.16    0.05
  -3   4  -3    0.12    0.04
   3  -4   3    0.11    0.02
   3  -4   3    0.04    0.04
   3  -4   3    0.07    0.03
   3  -4   3    0.11    0.04
   3  -4   3    0.05    0.03
  -4   4  -3    0.24    0.03
  -4   4  -3    0.14    0.04
  -4   4  -3    0.14    0.06
  -4   4  -3    0.27    0.04
  -4   4  -3    0.18    0.05
  -4   4  -3    0.35    0.05
   4  -4   3    0.25    0.04
   4  -4   3    0.19    0.05
   4  -4   3    0.35    0.08
   4  -4   3    0.14    0.05
   4  -4   3    0.21    0.04
  -5   4  -3    1.39    0.07
  -5   4  -3    1.33    0.12
  -5   4  -3    1.47    0.08
  -5   4  -3    1.38    0.11
   5  -4   3    1.30    0.06
   5  -4   3    1.28    0.09
   5  -4   3    1.41    0.07
   5  -4   3    1.30    0.08
   5  -4   3    1.26    0.09
  -6   4  -3    8.99    0.30
  -6   4  -3    8.58    0.27
   6  -4   3    9.06    0.26
   6  -4   3    8.35    0.18
   6  -4   3    8.62    0.20
  -7   4  -3    4.64    0.21
  -7   4  -3    4.74    0.24
   7  -4   3    4.35    0.15
   7  -4   3    4.54    0.20
  -8   4  -3    0.45    0.10
  -8   4  -3    0.51    0.12
   8  -4   3    0.43    0.07
  -9   4  -3    0.07    0.09
  -9   4  -3    0.23    0.10
   9  -4   3    0.15    0.06
 -10   4  -3    0.35    0.13
 -10   4  -3    0.73    0.14
  10  -4   3    0.54    0.10
  11  -4   3   -0.03    0.07
  12  -4   3    0.05    0.07
  13  -4   3   -0.19    0.07
  12   3  -3    0.18    0.10
  11   3  -3    0.04    0.08
  10   3  -3    0.50    0.10
   9   3  -3   -0.02    0.05
   9   3  -3   -0.10    0.07
   8   3  -3    0.80    0.14
   8   3  -3    0.84    0.09
   8   3  -3    0.56    0.12
   7   3  -3    0.66    0.12
   7   3  -3    0.63    0.07
   7   3  -3    0.64    0.11
   6   3  -3   36.83    0.60
   6   3  -3   37.57    0.85
   6   3  -3   35.88    0.70
   6   3  -3   36.64    0.80
   5   3  -3    0.00    0.05
   5   3  -3   -0.03    0.04
   5   3  -3    0.01    0.03
   5   3  -3   -0.03    0.03
   4   3  -3    1.03    0.05
   4   3  -3    1.01    0.10
   4   3  -3    1.01    0.17
   4   3  -3    1.04    0.10
   4   3  -3    1.00    0.06
   4   3  -3    1.05    0.05
  -4  -3   3    0.96    0.06
  -4  -3   3    1.06    0.10
   3   3  -3    4.85    0.16
   3   3  -3    4.57    0.24
   3   3  -3    4.74    0.12
   3   3  -3    4.84    0.11
   3   3  -3    4.81    0.18
   3   3  -3    4.83    0.11
  -3  -3   3    4.91    0.13
  -3  -3   3    4.76    0.17
   2   3  -3   18.30    0.37
   2   3  -3   18.14    0.39
   2   3  -3   18.54    0.41
   2   3  -3   18.45    0.31
   2   3  -3   18.48    0.31
  -2  -3   3   18.24    0.32
  -2  -3   3   18.51    0.38
   1   3  -3   34.25    0.53
   1   3  -3   35.32    0.62
   1   3  -3   34.06    0.66
   1   3  -3   33.75    0.65
   1   3  -3   34.47    0.51
  -1  -3   3   34.72    0.66
  -1  -3   3   34.93    0.52
  -1  -3   3   34.41    0.54
  -1  -3   3   33.92    0.62
   0   3  -3   46.32    0.71
   0   3  -3   47.47    0.86
   0   3  -3   49.15    0.81
   0   3  -3   48.33    0.69
   0  -3   3   46.84    0.71
   0  -3   3   47.10    0.86
   0  -3   3   47.42    0.69
   0  -3   3   46.64    0.81
  -1   3  -3   72.89    1.28
  -1   3  -3   71.22    1.06
  -1   3  -3   74.11    1.19
   1  -3   3   72.49    1.19
   1  -3   3   74.44    1.03
   1  -3   3   71.86    1.06
  -2   3  -3    4.51    0.13
  -2   3  -3    4.24    0.15
  -2   3  -3    4.34    0.11
   2  -3   3    4.27    0.11
   2  -3   3    4.17    0.10
   2  -3   3    4.12    0.12
   2  -3   3    4.20    0.10
  -3   3  -3   89.82    1.39
  -3   3  -3   87.32    1.28
  -3   3  -3   88.27    1.53
  -3   3  -3   88.63    1.56
  -3   3  -3   89.33    1.41
   3  -3   3   89.73    1.30
   3  -3   3   86.28    1.24
   3  -3   3   87.73    1.27
   3  -3   3   86.91    1.27
   3  -3   3   87.10    1.42
   3  -3   3   89.22    1.54
  -4   3  -3  195.88    3.31
  -4   3  -3  199.69    2.93
  -4   3  -3  196.68    3.00
  -4   3  -3  191.29    3.32
   4  -3   3  188.56    2.71
   4  -3   3  190.94    3.32
   4  -3   3  192.33    2.71
   4  -3   3  198.85    2.76
   4  -3   3  189.30    2.64
   4  -3   3  183.90    2.99
  -5   3  -3    5.99    0.19
  -5   3  -3    5.93    0.22
   5  -3   3    5.83    0.14
   5  -3   3    6.15    0.15
   5  -3   3    5.81    0.19
  -6   3  -3    5.87    0.24
  -6   3  -3    5.62    0.20
   6  -3   3    5.75    0.15
   6  -3   3    5.89    0.21
  -7   3  -3    6.13    0.23
  -7   3  -3    6.10    0.27
   7  -3   3    6.08    0.23
   7  -3   3    6.17    0.17
  -8   3  -3    0.38    0.10
  -8   3  -3    0.36    0.10
   8  -3   3    0.37    0.06
  -9   3  -3    0.99    0.14
  -9   3  -3    0.95    0.15
   9  -3   3    0.88    0.09
 -10   3  -3    1.31    0.21
 -10   3  -3    1.58    0.19
  10  -3   3    1.33    0.12
  11  -3   3   -0.04    0.07
  12  -3   3    0.13    0.10
  13  -3   3   -0.06    0.08
  12   2  -3   -0.11    0.09
  11   2  -3    0.09    0.08
  10   2  -3    1.69    0.15
   9   2  -3    2.50    0.20
   9   2  -3    2.66    0.15
   8   2  -3    0.03    0.05
   8   2  -3    0.11    0.08
   8   2  -3    0.15    0.08
   7   2  -3    6.85    0.30
   7   2  -3    7.15    0.28
   7   2  -3    7.13    0.20
   6   2  -3    5.17    0.22
   6   2  -3    4.90    0.17
   6   2  -3    5.24    0.24
   6   2  -3    5.14    0.15
  -6  -2   3    4.88    0.19
   5   2  -3    1.98    0.07
   5   2  -3    1.83    0.09
   5   2  -3    1.82    0.08
   5   2  -3    2.00    0.14
   5   2  -3    1.90    0.12
   5   2  -3    1.80    0.10
  -5  -2   3    2.04    0.09
  -5  -2   3    2.16    0.10
  -5  -2   3    1.80    0.12
   4   2  -3   12.57    0.24
   4   2  -3   12.93    0.24
   4   2  -3   13.62    0.49
   4   2  -3   13.07    0.24
   4   2  -3   13.49    0.29
  -4  -2   3   13.24    0.30
  -4  -2   3   13.03    0.25
   3   2  -3   72.41    1.16
   3   2  -3   70.07    1.30
   3   2  -3   69.46    1.02
   3   2  -3   69.81    1.00
   3   2  -3   69.13    1.46
  -3  -2   3   69.58    1.17
  -3  -2   3   67.43    1.03
   2   2  -3    0.08    0.03
   2   2  -3    0.11    0.03
   2   2  -3    0.09    0.02
   2   2  -3    0.11    0.04
   2   2  -3    0.03    0.03
  -2  -2   3    0.07    0.03
  -2  -2   3    0.11    0.03
  -2  -2   3    0.09    0.05
   1   2  -3    1.67    0.07
   1   2  -3    1.93    0.10
   1   2  -3    1.74    0.06
   1   2  -3    1.54    0.09
  -1  -2   3    1.72    0.07
  -1  -2   3    1.68    0.10
  -1  -2   3    1.67    0.06
   0   2  -3    0.47    0.03
   0   2  -3    0.54    0.06
   0   2  -3    0.58    0.07
   0   2  -3    0.52    0.04
   0  -2   3    0.52    0.03
   0  -2   3    0.41    0.03
   0  -2   3    0.49    0.05
   0  -2   3    0.56    0.05
  -1   2  -3    9.78    0.22
  -1   2  -3    9.42    0.17
  -1   2  -3    9.92    0.21
   1  -2   3    9.28    0.24
   1  -2   3    9.61    0.19
   1  -2   3    9.23    0.17
  -2   2  -3   24.18    0.42
  -2   2  -3   24.26    0.49
   2  -2   3   24.09    0.39
   2  -2   3   23.99    0.36
   2  -2   3   23.72    0.38
   2  -2   3   23.49    0.42
   2  -2   3   23.53    0.36
  -3   2  -3    0.90    0.08
  -3   2  -3    0.92    0.06
  -3   2  -3    0.92    0.08
   3  -2   3    0.99    0.05
   3  -2   3    0.88    0.05
   3  -2   3    0.95    0.06
   3  -2   3    0.88    0.05
   3  -2   3    0.91    0.07
  -4   2  -3   21.05    0.37
  -4   2  -3   21.19    0.47
  -4   2  -3   21.54    0.41
  -4   2  -3   21.38    0.50
  -4   2  -3   21.37    0.45
   4  -2   3   20.59    0.37
   4  -2   3   20.62    0.35
   4  -2   3   20.99    0.44
   4  -2   3   20.88    0.33
  -5   2  -3   22.58    0.45
  -5   2  -3   23.05    0.53
  -5   2  -3   22.56    0.40
   5  -2   3   22.83    0.50
   5  -2   3   22.84    0.36
   5  -2   3   22.27    0.38
  -6   2  -3    0.89    0.09
  -6   2  -3    0.90    0.12
   6  -2   3    0.86    0.10
   6  -2   3    0.81    0.06
  -7   2  -3    1.33    0.15
  -7   2  -3    1.30    0.12
   7  -2   3    1.39    0.13
   7  -2   3    1.47    0.09
  -8   2  -3    0.52    0.09
  -8   2  -3    0.38    0.10
   8  -2   3    0.39    0.06
  -9   2  -3    1.31    0.18
  -9   2  -3    1.36    0.15
   9  -2   3    1.55    0.11
  10  -2   3    1.46    0.13
  11  -2   3    0.78    0.12
  12  -2   3    0.04    0.09
  13   1  -3    0.10    0.11
  12   1  -3    0.04    0.09
  11   1  -3   -0.04    0.07
  10   1  -3    1.27    0.18
  10   1  -3    1.17    0.12
   9   1  -3    1.29    0.17
   9   1  -3    1.60    0.12
   9   1  -3    1.26    0.16
   8   1  -3    1.62    0.15
   8   1  -3    1.86    0.17
   8   1  -3    1.97    0.12
   7   1  -3    1.80    0.07
   7   1  -3    1.71    0.15
   7   1  -3    1.87    0.11
   7   1  -3    1.63    0.10
   7   1  -3    1.65    0.16
   6   1  -3    2.04    0.13
   6   1  -3    1.90    0.09
   6   1  -3    1.78    0.09
   6   1  -3    2.03    0.08
   6   1  -3    2.15    0.15
  -6  -1   3    1.83    0.09
  -6  -1   3    2.10    0.11
   5   1  -3    0.73    0.09
   5   1  -3    0.75    0.07
   5   1  -3    0.67    0.05
   5   1  -3    0.83    0.08
   5   1  -3    0.74    0.06
   5   1  -3    0.71    0.05
  -5  -1   3    0.81    0.15
  -5  -1   3    0.80    0.08
  -5  -1   3    0.74    0.06
   4   1  -3   34.53    0.55
   4   1  -3   35.82    0.62
   4   1  -3   34.76    0.68
   4   1  -3   34.53    0.54
   4   1  -3   34.89    0.72
  -4  -1   3   33.88    0.55
  -4  -1   3   34.08    0.61
  -4  -1   3   34.98    0.53
   3   1  -3    6.56    0.13
   3   1  -3    6.26    0.14
   3   1  -3    6.32    0.14
   3   1  -3    6.66    0.18
   3   1  -3    6.26    0.19
   3   1  -3    6.29    0.29
  -3  -1   3    6.22    0.16
  -3  -1   3    6.39    0.14
  -3  -1   3    6.37    0.24
   2   1  -3   16.39    0.28
   2   1  -3   17.29    0.27
   2   1  -3   17.07    0.52
   2   1  -3   16.02    0.33
   2   1  -3   16.78    0.36
  -2  -1   3   16.84    0.30
  -2  -1   3   16.74    0.36
  -2  -1   3   16.51    0.47
   1   1  -3  352.04    5.95
   1   1  -3  354.16    5.06
   1   1  -3  360.44    6.24
   1   1  -3  355.81    5.50
  -1  -1   3  350.01    5.82
  -1  -1   3  349.94    5.10
  -1  -1   3  356.60    6.02
  -1  -1   3  359.55    6.30
   0   1  -3  163.42    2.73
   0   1  -3  165.20    2.62
   0   1  -3  164.94    2.78
   0  -1   3  157.80    2.84
   0  -1   3  166.51    2.34
   0  -1   3  160.11    2.39
   0  -1   3  161.91    2.56
   0  -1   3  165.70    2.73
  -1   1  -3   18.86    0.34
  -1   1  -3   18.54    0.37
   1  -1   3   18.30    0.34
   1  -1   3   18.64    0.31
  -2   1  -3   25.60    0.50
  -2   1  -3   26.25    0.45
  -2   1  -3   25.72    0.48
   2  -1   3   25.17    0.36
   2  -1   3   24.84    0.45
   2  -1   3   25.91    0.42
  -3   1  -3   17.10    0.32
  -3   1  -3   16.82    0.36
  -3   1  -3   16.41    0.32
  -3   1  -3   16.84    0.38
   3  -1   3   17.01    0.33
   3  -1   3   16.88    0.30
   3  -1   3   16.62    0.32
   3  -1   3   16.29    0.25
   3  -1   3   16.65    0.35
  -4   1  -3    4.23    0.12
  -4   1  -3    4.27    0.12
  -4   1  -3    4.38    0.19
   4  -1   3    4.25    0.14
   4  -1   3    4.43    0.12
   4  -1   3    4.16    0.15
   4  -1   3    4.07    0.09
  -5   1  -3    4.89    0.13
  -5   1  -3    5.09    0.47
  -5   1  -3    4.97    0.15
   5  -1   3    5.06    0.17
   5  -1   3    4.98    0.11
   5  -1   3    4.71    0.18
   5  -1   3    4.84    0.13
  -6   1  -3    8.60    0.25
  -6   1  -3    8.39    0.66
   6  -1   3    8.64    0.28
   6  -1   3    8.67    0.18
  -7   1  -3    0.69    0.09
  -7   1  -3    0.60    0.12
   7  -1   3    0.65    0.10
   7  -1   3    0.77    0.07
  -8   1  -3    0.51    0.09
  -8   1  -3    0.36    0.10
   8  -1   3    0.41    0.06
   8  -1   3    0.26    0.08
  -9   1  -3    0.50    0.12
   9  -1   3    0.38    0.07
  10  -1   3    0.02    0.07
  11  -1   3    0.17    0.08
  12  -1   3    0.60    0.11
  13   0  -3    0.02    0.10
  12   0  -3    0.05    0.09
  11   0  -3    0.24    0.09
  10   0  -3    0.07    0.08
  10   0  -3    0.02    0.06
   9   0  -3    0.24    0.12
   9   0  -3    0.24    0.07
   9   0  -3    0.23    0.09
   8   0  -3    0.50    0.05
   8   0  -3    0.37    0.10
   8   0  -3    0.39    0.07
   8   0  -3    0.54    0.13
   8   0  -3    0.39    0.10
  -8   0   3    0.41    0.07
   7   0  -3   11.13    0.57
   7   0  -3   10.68    0.25
   7   0  -3   10.77    0.33
   7   0  -3   10.54    0.22
  -7   0   3   10.42    0.24
   6   0  -3    0.20    0.06
   6   0  -3    0.27    0.05
   6   0  -3    0.31    0.07
   6   0  -3    0.24    0.04
   6   0  -3    0.21    0.04
  -6   0   3    0.25    0.06
  -6   0   3    0.22    0.04
  -6   0   3    0.27    0.05
   5   0  -3    0.22    0.05
   5   0  -3    0.21    0.04
   5   0  -3    0.12    0.03
   5   0  -3    0.15    0.05
   5   0  -3    0.18    0.05
  -5   0   3    0.17    0.04
  -5   0   3    0.19    0.04
  -5   0   3    0.18    0.05
   4   0  -3   19.75    0.37
   4   0  -3   18.64    0.33
   4   0  -3   18.68    0.32
   4   0  -3   18.81    0.40
   4   0  -3   18.99    0.47
   4   0  -3   19.15    0.31
  -4   0   3   19.38    0.32
  -4   0   3   18.70    0.37
  -4   0   3   19.00    0.56
   3   0  -3    4.73    0.12
   3   0  -3    4.95    0.22
   3   0  -3    4.84    0.13
   3   0  -3    4.81    0.14
   3   0  -3    4.96    0.11
  -3   0   3    4.88    0.12
  -3   0   3    4.88    0.12
  -3   0   3    4.56    0.13
   2   0  -3   13.10    0.23
   2   0  -3   13.45    0.42
   2   0  -3   14.13    0.24
   2   0  -3   13.91    0.31
   2   0  -3   12.97    0.36
  -2   0   3   13.63    0.22
  -2   0   3   12.97    0.26
  -2   0   3   13.25    0.23
  -2   0   3   13.05    0.30
  -2   0   3   12.89    0.26
   1   0  -3  987.27   14.95
   1   0  -3  954.03   13.55
   1   0  -3  991.66   16.05
   1   0  -3 1000.00   16.45
  -1   0   3  966.35   16.60
  -1   0   3  963.21   13.65
  -1   0   3  943.82   13.54
  -1   0   3  950.11   14.95
  -1   0   3  973.05   13.68
  -1   0   3  993.14   16.00
   0   0  -3  119.03    1.84
   0   0  -3  117.56    1.94
   0   0  -3  115.23    2.19
   0   0   3  110.20    1.83
   0   0   3  113.80    1.94
   0   0   3  118.47    1.68
  -1   0  -3   -0.01    0.02
  -1   0  -3    0.00    0.02
   1   0   3    0.04    0.02
  -2   0  -3    0.13    0.03
  -2   0  -3    0.04    0.03
  -2   0  -3    0.06    0.02
  -2   0  -3    0.08    0.03
   2   0   3    0.08    0.03
   2   0   3    0.06    0.03
   2   0   3    0.17    0.03
  -3   0  -3   19.08    0.37
  -3   0  -3   19.23    0.37
  -3   0  -3   19.11    0.43
   3   0   3   19.31    0.37
   3   0   3   19.38    0.34
  -4   0  -3    0.04    0.02
  -4   0  -3    0.02    0.02
   4   0   3    0.06    0.03
   4   0   3    0.05    0.03
   4   0   3    0.07    0.04
  -5   0  -3    1.50    0.08
  -5   0  -3    1.65    0.09
   5   0   3    1.57    0.10
  -6   0  -3   26.35    0.64
   6   0   3   26.24    0.40
  -7   0  -3    4.70    0.24
  -7   0  -3    4.35    0.18
   7   0   3    4.40    0.12
  -8   0  -3    0.30    0.09
   8   0   3    0.08    0.04
  -9   0  -3    0.54    0.13
   9   0   3    0.40    0.07
  10   0   3    0.34    0.08
  11   0   3    0.30    0.09
  12   0   3    0.06    0.09
  13  -1  -3    1.15    0.16
  12  -1  -3    0.17    0.10
  11  -1  -3   -0.06    0.08
  11  -1  -3    0.12    0.08
  10  -1  -3    0.01    0.06
  10  -1  -3    0.01    0.08
   9  -1  -3    2.29    0.15
   9  -1  -3    2.35    0.11
   9  -1  -3    2.30    0.14
   9  -1  -3    2.33    0.18
   9  -1  -3    2.55    0.21
  -9   1   3    2.34    0.14
   8  -1  -3    6.45    0.29
   8  -1  -3    6.62    0.18
   8  -1  -3    6.49    0.20
   8  -1  -3    6.59    0.26
  -8   1   3    6.72    0.20
   7  -1  -3   21.34    0.39
   7  -1  -3   21.62    0.58
   7  -1  -3   21.37    0.40
   7  -1  -3   22.34    0.57
  -7   1   3   21.52    0.40
  -7   1   3   21.94    0.43
   6  -1  -3    0.26    0.04
   6  -1  -3    0.31    0.03
   6  -1  -3    0.22    0.05
   6  -1  -3    0.30    0.06
   6  -1  -3    0.16    0.06
   6  -1  -3    0.29    0.06
  -6   1   3    0.32    0.05
  -6   1   3    0.39    0.04
  -6   1   3    0.24    0.05
  -6   1   3    0.24    0.05
   5  -1  -3    1.68    0.08
   5  -1  -3    1.68    0.14
   5  -1  -3    1.55    0.07
   5  -1  -3    1.64    0.13
   5  -1  -3    1.59    0.09
   5  -1  -3    1.55    0.08
  -5   1   3    1.63    0.07
  -5   1   3    1.55    0.09
  -5   1   3    1.65    0.08
  -5   1   3    1.55    0.08
   4  -1  -3    1.09    0.06
   4  -1  -3    1.10    0.07
   4  -1  -3    1.10    0.16
   4  -1  -3    1.03    0.06
   4  -1  -3    1.21    0.07
   4  -1  -3    1.20    0.11
  -4   1   3    1.21    0.07
  -4   1   3    1.09    0.07
  -4   1   3    1.13    0.06
   3  -1  -3   -0.02    0.03
   3  -1  -3    0.03    0.07
   3  -1  -3    0.01    0.02
   3  -1  -3   -0.02    0.03
   3  -1  -3   -0.02    0.02
  -3   1   3    0.02    0.02
  -3   1   3    0.07    0.03
  -3   1   3    0.02    0.02
  -3   1   3   -0.01    0.02
  -3   1   3    0.00    0.02
   2  -1  -3   40.12    0.68
   2  -1  -3   40.50    0.61
   2  -1  -3   40.09    0.77
  -2   1   3   39.14    0.68
  -2   1   3   39.75    0.62
  -2   1   3   40.73    0.58
  -2   1   3   39.47    0.76
  -2   1   3   39.99    0.62
   1  -1  -3  171.95    2.64
   1  -1  -3  171.62    3.03
  -1   1   3  167.45    2.91
  -1   1   3  164.88    2.28
  -1   1   3  165.93    2.35
  -1   1   3  166.04    2.35
  -1   1   3  164.71    2.41
   0  -1  -3    8.89    0.18
   0  -1  -3    8.85    0.20
   0  -1  -3    8.88    0.18
   0  -1  -3    8.79    0.21
   0   1   3    8.55    0.14
   0   1   3    8.79    0.19
   0   1   3    8.67    0.20
  -1  -1  -3    2.49    0.10
  -1  -1  -3    2.57    0.10
   1   1   3    2.55    0.09
   1   1   3    2.48    0.09
   1   1   3    2.44    0.09
  -2  -1  -3    8.44    0.22
  -2  -1  -3    8.65    0.21
   2   1   3    8.44    0.19
   2   1   3    8.36    0.20
   2   1   3    8.45    0.22
  -3  -1  -3    3.38    0.13
  -3  -1  -3    3.29    0.18
   3   1   3    3.40    0.12
   3   1   3    3.38    0.14
  -4  -1  -3    3.80    0.14
  -4  -1  -3    3.80    0.15
   4   1   3    3.86    0.14
   4   1   3    3.85    0.17
  -5  -1  -3   19.61    0.41
   5   1   3   20.45    0.50
   5   1   3   19.66    0.41
   6   1   3    0.10    0.05
   6   1   3    0.11    0.07
   7   1   3    0.05    0.08
   7   1   3    0.11    0.03
  -8  -1  -3    0.33    0.08
   8   1   3    0.00    0.04
   9   1   3    0.29    0.06
  10   1   3   -0.04    0.06
  11   1   3    0.06    0.07
  14  -2  -3    0.29    0.12
  13  -2  -3   -0.04    0.10
  12  -2  -3    0.00    0.09
  11  -2  -3    0.01    0.08
 -11   2   3    0.18    0.09
 -11   2   3   -0.18    0.07
  10  -2  -3    0.04    0.04
  10  -2  -3    0.02    0.20
  10  -2  -3    0.07    0.07
 -10   2   3   -0.07    0.07
 -10   2   3    0.27    0.08
   9  -2  -3    0.82    0.10
   9  -2  -3    0.68    0.12
   9  -2  -3    0.90    0.09
   9  -2  -3    0.79    0.13
  -9   2   3    0.83    0.10
   8  -2  -3    3.86    0.14
   8  -2  -3    4.20    0.24
   8  -2  -3    3.98    0.20
   8  -2  -3    3.83    0.16
  -8   2   3    3.81    0.17
  -8   2   3    4.29    0.17
   7  -2  -3    2.66    0.12
   7  -2  -3    2.45    0.11
   7  -2  -3    2.59    0.14
   7  -2  -3    2.47    0.33
   7  -2  -3    2.52    0.07
  -7   2   3    2.68    0.13
  -7   2   3    2.50    0.11
  -7   2   3    2.62    0.14
  -7   2   3    2.59    0.13
  -7   2   3    2.68    0.13
   6  -2  -3    0.36    0.06
   6  -2  -3    0.30    0.05
   6  -2  -3    0.37    0.05
   6  -2  -3    0.28    0.06
   6  -2  -3    0.31    0.15
   6  -2  -3    0.33    0.05
  -6   2   3    0.39    0.05
  -6   2   3    0.37    0.08
  -6   2   3    0.32    0.06
  -6   2   3    0.35    0.06
  -6   2   3    0.26    0.05
  -6   2   3    0.28    0.05
   5  -2  -3   20.20    0.35
   5  -2  -3   20.05    0.42
   5  -2  -3   20.06    0.37
   5  -2  -3   20.09    0.48
   5  -2  -3   20.02    0.36
   5  -2  -3   19.46    0.49
  -5   2   3   19.94    0.37
  -5   2   3   20.31    0.37
  -5   2   3   20.06    0.36
  -5   2   3   19.52    0.53
  -5   2   3   19.79    0.39
   4  -2  -3   15.85    0.31
   4  -2  -3   15.62    0.32
   4  -2  -3   15.43    0.29
   4  -2  -3   16.16    0.29
   4  -2  -3   16.19    0.41
  -4   2   3   15.73    0.28
  -4   2   3   15.85    0.29
  -4   2   3   15.28    0.31
  -4   2   3   15.79    0.36
  -4   2   3   15.85    0.32
   3  -2  -3    3.39    0.11
   3  -2  -3    3.35    0.10
   3  -2  -3    3.50    0.10
   3  -2  -3    3.48    0.16
  -3   2   3    3.35    0.10
  -3   2   3    3.29    0.12
  -3   2   3    3.44    0.09
  -3   2   3    3.57    0.14
  -3   2   3    3.44    0.10
  -3   2   3    3.52    0.12
  -3   2   3    3.43    0.11
  -3   2   3    3.47    0.09
   2  -2  -3    8.75    0.17
   2  -2  -3    9.12    0.21
   2  -2  -3    8.52    0.21
   2  -2  -3    8.67    0.24
  -2   2   3    8.72    0.17
  -2   2   3    8.44    0.17
  -2   2   3    8.51    0.20
  -2   2   3    8.80    0.19
  -2   2   3    8.51    0.20
   1  -2  -3   21.29    0.45
   1  -2  -3   21.65    0.41
   1  -2  -3   21.27    0.42
  -1   2   3   21.06    0.32
  -1   2   3   21.00    0.37
  -1   2   3   21.45    0.40
  -1   2   3   21.47    0.33
  -1   2   3   21.55    0.32
   0  -2  -3    0.25    0.04
   0  -2  -3    0.30    0.03
   0  -2  -3    0.25    0.06
   0   2   3    0.24    0.04
   0   2   3    0.27    0.04
   0   2   3    0.27    0.05
   0   2   3    0.25    0.02
  -1  -2  -3    0.30    0.05
  -1  -2  -3    0.27    0.05
   1   2   3    0.33    0.04
   1   2   3    0.47    0.05
  -2  -2  -3    7.05    0.20
   2   2   3    7.19    0.19
   2   2   3    6.92    0.20
  -3  -2  -3    0.46    0.06
   3   2   3    0.46    0.06
   3   2   3    0.45    0.15
  -4  -2  -3    7.61    0.31
   4   2   3    7.15    0.25
   4   2   3    7.37    0.21
  -5  -2  -3    0.11    0.12
   5   2   3    0.12    0.07
   5   2   3    0.18    0.06
   6   2   3    0.08    0.07
   7   2   3    0.09    0.08
   7   2   3    0.07    0.03
  -8  -2  -3    2.01    0.18
   8   2   3    1.55    0.09
   9   2   3    0.09    0.05
  10   2   3    0.04    0.06
  11   2   3    0.22    0.08
  14  -3  -3    0.16    0.11
  13  -3  -3    0.15    0.10
 -13   3   3   -0.07    0.12
  12  -3  -3    0.38    0.10
 -12   3   3    0.35    0.12
  11  -3  -3    1.61    0.16
  11  -3  -3    1.35    0.11
 -11   3   3    1.18    0.14
 -11   3   3    1.58    0.18
  10  -3  -3    0.06    0.05
  10  -3  -3   -0.03    0.09
  10  -3  -3    0.02    0.04
  10  -3  -3    0.09    0.07
 -10   3   3    0.11    0.08
 -10   3   3    0.19    0.08
   9  -3  -3   -0.01    0.04
   9  -3  -3    0.02    0.06
   9  -3  -3   -0.04    0.08
  -9   3   3   -0.03    0.06
  -9   3   3    0.11    0.07
  -9   3   3   -0.01    0.07
   8  -3  -3    0.51    0.07
   8  -3  -3    0.48    0.27
   8  -3  -3    0.47    0.08
  -8   3   3    0.66    0.10
  -8   3   3    0.51    0.08
  -8   3   3    0.53    0.19
   7  -3  -3    1.67    0.09
   7  -3  -3    1.42    0.17
   7  -3  -3    1.51    0.11
   7  -3  -3    1.59    0.10
  -7   3   3    1.64    0.12
  -7   3   3    1.59    0.12
  -7   3   3    1.59    0.17
  -7   3   3    1.77    0.11
   6  -3  -3    0.35    0.10
   6  -3  -3    0.46    0.06
   6  -3  -3    0.35    0.05
   6  -3  -3    0.40    0.06
   6  -3  -3    0.43    0.11
   6  -3  -3    0.41    0.06
  -6   3   3    0.39    0.06
  -6   3   3    0.47    0.07
  -6   3   3    0.56    0.08
  -6   3   3    0.44    0.07
   5  -3  -3    5.11    0.15
   5  -3  -3    5.02    0.15
   5  -3  -3    5.34    0.15
   5  -3  -3    5.12    0.15
   5  -3  -3    5.25    0.24
   5  -3  -3    5.18    0.15
  -5   3   3    5.03    0.15
  -5   3   3    5.24    0.15
  -5   3   3    5.32    0.27
  -5   3   3    5.24    0.18
  -5   3   3    5.14    0.16
   4  -3  -3   30.70    0.49
   4  -3  -3   30.12    0.51
   4  -3  -3   29.68    0.55
   4  -3  -3   31.74    0.67
   4  -3  -3   29.37    0.55
  -4   3   3   30.35    0.49
  -4   3   3   29.97    0.54
  -4   3   3   30.32    0.56
  -4   3   3   29.43    0.55
  -4   3   3   29.58    2.13
   3  -3  -3    5.23    0.16
   3  -3  -3    5.18    0.13
   3  -3  -3    5.23    0.16
   3  -3  -3    5.19    0.14
  -3   3   3    4.72    0.13
  -3   3   3    5.19    0.16
  -3   3   3    5.22    0.13
  -3   3   3    5.28    0.11
   2  -3  -3    7.83    0.21
   2  -3  -3    7.84    0.17
   2  -3  -3    7.76    0.21
   2  -3  -3    7.74    0.24
  -2   3   3    7.77    0.16
  -2   3   3    7.66    0.16
  -2   3   3    7.71    0.16
  -2   3   3    7.74    0.20
   1  -3  -3   21.98    0.44
   1  -3  -3   21.73    0.72
  -1   3   3   21.01    0.41
  -1   3   3   21.20    0.34
   0  -3  -3    0.02    0.03
   0   3   3    0.02    0.02
   0   3   3    0.01    0.01
   0   3   3    0.01    0.05
  -1  -3  -3   16.30    0.37
   1   3   3   16.67    0.35
   1   3   3   16.21    0.35
   1   3   3   16.34    0.24
  -2  -3  -3   21.64    0.46
   2   3   3   21.58    0.46
   2   3   3   21.15    0.43
  -3  -3  -3    3.32    0.15
   3   3   3    3.30    0.15
   3   3   3    3.17    0.14
  -4  -3  -3    0.89    0.09
   4   3   3    0.92    0.09
   4   3   3    0.74    0.11
  -5  -3  -3    2.01    0.21
   5   3   3    2.14    0.17
   6   3   3    1.06    0.14
   7   3   3    0.27    0.11
   8   3   3    0.04    0.04
   9   3   3    0.20    0.06
  10   3   3    0.03    0.06
  14  -4  -3    0.08    0.10
 -14   4   3    0.13    0.14
  13  -4  -3    0.02    0.09
 -13   4   3    0.20    0.14
  12  -4  -3    0.14    0.09
  12  -4  -3   -0.02    0.06
 -12   4   3   -0.06    0.11
  11  -4  -3    0.74    0.12
  11  -4  -3    0.68    0.09
  11  -4  -3    0.75    0.12
 -11   4   3    0.61    0.13
 -11   4   3    0.80    0.15
  10  -4  -3    0.12    0.11
  10  -4  -3    0.28    0.07
  10  -4  -3    0.35    0.09
 -10   4   3    0.24    0.09
 -10   4   3    0.03    0.08
 -10   4   3    0.21    0.09
   9  -4  -3    1.58    0.12
   9  -4  -3    1.68    0.14
   9  -4  -3    1.14    0.44
  -9   4   3    1.74    0.16
  -9   4   3    1.54    0.14
  -9   4   3    1.47    0.15
   8  -4  -3    0.65    0.09
   8  -4  -3    0.56    0.07
   8  -4  -3    0.83    0.09
   8  -4  -3    0.63    0.17
  -8   4   3    0.86    0.12
  -8   4   3    0.68    0.10
  -8   4   3    0.83    0.11
  -8   4   3    0.70    0.09
   7  -4  -3    0.39    0.07
   7  -4  -3    0.46    0.12
   7  -4  -3    0.47    0.07
   7  -4  -3    0.40    0.06
  -7   4   3    0.48    0.08
  -7   4   3    0.50    0.08
  -7   4   3    0.38    0.08
  -7   4   3    0.46    0.08
   6  -4  -3   16.28    0.32
   6  -4  -3   16.01    0.34
   6  -4  -3   16.47    0.33
   6  -4  -3   16.68    0.35
   6  -4  -3   15.90    0.34
   6  -4  -3   16.89    0.91
  -6   4   3   17.00    0.39
  -6   4   3   16.32    0.33
  -6   4   3   16.98    0.80
  -6   4   3   16.58    0.33
  -6   4   3   16.07    0.37
   5  -4  -3   21.63    0.43
   5  -4  -3   22.76    0.56
   5  -4  -3   21.70    0.44
   5  -4  -3   22.07    0.41
   5  -4  -3   21.74    0.40
  -5   4   3   21.51    0.46
  -5   4   3   21.79    0.44
  -5   4   3   21.71    0.38
  -5   4   3   21.93    0.40
  -5   4   3   22.37    0.41
   4  -4  -3    3.82    0.14
   4  -4  -3    3.75    0.14
   4  -4  -3    3.87    0.21
   4  -4  -3    3.52    0.12
   4  -4  -3    3.66    0.13
  -4   4   3    3.42    0.10
  -4   4   3    3.79    0.12
  -4   4   3    3.59    0.15
  -4   4   3    3.62    0.15
   3  -4  -3    0.63    0.06
   3  -4  -3    0.50    0.05
   3  -4  -3    0.53    0.07
   3  -4  -3    0.52    0.09
  -3   4   3    0.49    0.06
  -3   4   3    0.62    0.05
  -3   4   3    0.50    0.05
   2  -4  -3    0.88    0.06
   2  -4  -3    0.80    0.21
   2  -4  -3    0.74    0.09
  -2   4   3    0.73    0.07
  -2   4   3    0.76    0.05
  -2   4   3    0.79    0.06
  -2   4   3    0.72    0.05
   1  -4  -3    1.04    0.08
   1  -4  -3    1.05    0.09
  -1   4   3    1.21    0.08
  -1   4   3    1.12    0.05
  -1   4   3    1.08    0.06
   0  -4  -3    7.15    0.22
   0   4   3    7.05    0.22
   0   4   3    6.79    0.26
   0   4   3    6.76    0.18
   0   4   3    6.60    0.14
  -1  -4  -3    2.02    0.12
   1   4   3    2.15    0.11
   1   4   3    1.85    0.10
   1   4   3    1.91    0.06
   1   4   3    1.75    0.06
   1   4   3    2.03    0.13
  -2  -4  -3    2.37    0.13
   2   4   3    2.12    0.12
   2   4   3    2.32    0.12
   2   4   3    2.12    0.13
  -3  -4  -3    0.03    0.04
   3   4   3    0.00    0.05
   3   4   3    0.01    0.04
  -4  -4  -3    3.39    0.17
   4   4   3    2.95    0.18
   4   4   3    3.09    0.15
   5   4   3    3.09    0.32
   6   4   3   -0.01    0.08
   7   4   3    0.03    0.04
   7   4   3   -0.04    0.08
   8   4   3    0.04    0.04
   9   4   3    0.13    0.05
 -14   5   3    0.06    0.14
  13  -5  -3    0.19    0.07
 -13   5   3    0.04    0.13
  12  -5  -3    1.99    0.15
 -12   5   3    1.96    0.19
  11  -5  -3    0.53    0.09
  11  -5  -3    0.34    0.08
 -11   5   3    0.37    0.12
 -11   5   3    0.45    0.12
  10  -5  -3    1.10    0.12
 -10   5   3    0.96    0.12
 -10   5   3    0.89    0.13
   9  -5  -3    3.46    0.13
   9  -5  -3    3.89    0.18
   9  -5  -3    2.84    0.40
  -9   5   3    3.53    0.18
  -9   5   3    3.37    0.20
   8  -5  -3    2.79    0.26
   8  -5  -3    3.18    0.14
   8  -5  -3    3.20    0.16
  -8   5   3    3.36    0.17
  -8   5   3    2.94    0.16
  -8   5   3    2.95    0.19
   7  -5  -3    0.63    0.08
   7  -5  -3    0.45    0.13
   7  -5  -3    0.68    0.08
  -7   5   3    0.63    0.10
  -7   5   3    0.53    0.10
  -7   5   3    0.56    0.08
  -7   5   3    0.67    0.09
   6  -5  -3    0.09    0.11
   6  -5  -3    0.36    0.06
   6  -5  -3    0.25    0.07
   6  -5  -3    0.27    0.06
  -6   5   3    0.31    0.05
  -6   5   3    0.25    0.06
  -6   5   3    0.27    0.07
  -6   5   3    0.31    0.08
  -6   5   3    0.27    0.06
   5  -5  -3    0.01    0.03
   5  -5  -3   -0.04    0.03
   5  -5  -3   -0.10    0.09
   5  -5  -3   -0.02    0.05
  -5   5   3    0.00    0.05
  -5   5   3   -0.01    0.03
  -5   5   3   -0.03    0.04
  -5   5   3   -0.02    0.04
  -5   5   3   -0.09    0.07
   4  -5  -3    0.11    0.08
   4  -5  -3    0.25    0.05
   4  -5  -3    0.22    0.04
   4  -5  -3    0.22    0.05
  -4   5   3    0.26    0.06
  -4   5   3    0.21    0.04
  -4   5   3    0.24    0.08
  -4   5   3    0.25    0.05
   3  -5  -3    0.89    0.07
   3  -5  -3    1.06    0.19
   3  -5  -3    1.09    0.09
   3  -5  -3    1.03    0.25
  -3   5   3    1.09    0.07
  -3   5   3    1.11    0.07
  -3   5   3    0.99    0.09
   2  -5  -3    0.86    0.08
   2  -5  -3    0.86    0.09
   2  -5  -3    0.77    0.12
  -2   5   3    0.84    0.06
  -2   5   3    0.80    0.07
  -2   5   3    0.89    0.05
  -2   5   3    0.82    0.05
  -2   5   3    0.85    0.08
   1  -5  -3    7.03    0.23
  -1   5   3    6.80    0.16
  -1   5   3    6.69    0.17
  -1   5   3    6.97    0.22
   0  -5  -3    0.73    0.09
   0   5   3    0.59    0.08
   0   5   3    0.67    0.05
   0   5   3    0.65    0.07
   0   5   3    0.71    0.13
  -1  -5  -3    2.55    0.15
   1   5   3    2.35    0.08
   1   5   3    2.24    0.12
   1   5   3    2.39    0.15
   1   5   3    2.30    0.13
  -2  -5  -3    1.92    0.13
   2   5   3    1.90    0.14
   2   5   3    1.64    0.12
   2   5   3    1.55    0.07
   2   5   3    1.57    0.12
   3   5   3    5.91    0.21
   3   5   3    6.02    0.24
   3   5   3    5.97    0.25
   3   5   3    6.06    0.13
   4   5   3    1.09    0.14
   4   5   3    1.09    0.06
   5   5   3    0.10    0.20
   6   5   3    0.80    0.14
   6   5   3    1.04    0.07
   7   5   3    0.07    0.04
   8   5   3    0.07    0.05
   9   5   3    0.02    0.05
 -14   6   3    0.00    0.13
 -13   6   3    0.24    0.13
  12  -6  -3    0.05    0.07
 -12   6   3    0.16    0.12
 -12   6   3   -0.06    0.11
  11  -6  -3    0.38    0.10
 -11   6   3    0.37    0.11
 -11   6   3    0.39    0.13
  10  -6  -3    0.93    0.11
 -10   6   3    0.87    0.14
 -10   6   3    0.81    0.12
   9  -6  -3   -0.06    0.12
   9  -6  -3    0.18    0.07
   9  -6  -3    0.39    0.08
  -9   6   3    0.28    0.08
  -9   6   3    0.34    0.10
  -9   6   3    0.43    0.09
   8  -6  -3    0.32    0.14
   8  -6  -3    0.52    0.09
   8  -6  -3    0.75    0.10
  -8   6   3    0.52    0.09
  -8   6   3    0.53    0.09
  -8   6   3    0.61    0.11
   7  -6  -3    5.14    0.19
   7  -6  -3    5.20    0.19
   7  -6  -3    5.12    0.32
  -7   6   3    5.28    0.18
  -7   6   3    5.13    0.19
  -7   6   3    5.18    0.23
   6  -6  -3    1.92    0.13
   6  -6  -3    2.01    0.12
   6  -6  -3    2.08    0.12
   6  -6  -3    1.72    0.19
  -6   6   3    2.16    0.15
  -6   6   3    1.82    0.12
  -6   6   3    2.05    0.12
  -6   6   3    2.12    0.11
   5  -6  -3    0.08    0.06
   5  -6  -3   -0.01    0.04
   5  -6  -3   -0.15    0.09
   5  -6  -3   -0.01    0.04
  -5   6   3   -0.05    0.04
  -5   6   3    0.09    0.06
  -5   6   3    0.01    0.03
  -5   6   3   -0.01    0.03
   4  -6  -3    1.92    0.11
   4  -6  -3    1.92    0.19
   4  -6  -3    1.96    0.16
  -4   6   3    2.22    0.11
  -4   6   3    1.88    0.10
  -4   6   3    2.08    0.14
   3  -6  -3    0.07    0.05
   3  -6  -3    0.19    0.05
   3  -6  -3    0.14    0.09
  -3   6   3    0.12    0.04
  -3   6   3    0.18    0.06
  -3   6   3    0.13    0.04
   2  -6  -3    0.41    0.07
   2  -6  -3    0.44    0.10
  -2   6   3    0.37    0.06
  -2   6   3    0.58    0.08
   1  -6  -3    2.43    0.15
  -1   6   3    2.38    0.10
  -1   6   3    2.27    0.14
  -1   6   3    2.27    0.15
   0  -6  -3    0.74    0.10
   0   6   3    0.71    0.10
   0   6   3    0.73    0.11
   0   6   3    0.72    0.06
   1   6   3    2.39    0.14
   1   6   3    2.56    0.10
   2   6   3    1.49    0.12
   2   6   3    1.61    0.08
   3   6   3    0.03    0.03
   4   6   3    0.19    0.04
   5   6   3    0.30    0.05
   6   6   3    0.07    0.04
   7   6   3    0.21    0.05
   8   6   3    0.31    0.06
 -13   7   3    0.01    0.12
  12  -7  -3   -0.07    0.07
 -12   7   3   -0.15    0.10
 -12   7   3    0.09    0.12
  11  -7  -3    0.32    0.10
 -11   7   3    0.40    0.13
 -11   7   3    0.52    0.12
  10  -7  -3   -0.03    0.06
 -10   7   3   -0.04    0.09
 -10   7   3    0.00    0.08
   9  -7  -3    0.23    0.08
   9  -7  -3    0.19    0.08
  -9   7   3    0.20    0.09
  -9   7   3    0.16    0.10
  -9   7   3    0.27    0.08
   8  -7  -3    1.08    0.12
   8  -7  -3    1.05    0.11
   8  -7  -3    0.84    0.46
  -8   7   3    1.02    0.14
  -8   7   3    1.09    0.12
  -8   7   3    1.14    0.11
   7  -7  -3   -0.05    0.04
   7  -7  -3    0.01    0.07
   7  -7  -3   -0.27    0.11
  -7   7   3   -0.02    0.05
  -7   7   3   -0.01    0.06
  -7   7   3    0.05    0.08
   6  -7  -3    0.21    0.07
   6  -7  -3    0.20    0.12
   6  -7  -3    0.24    0.06
  -6   7   3    0.16    0.06
  -6   7   3    0.23    0.05
  -6   7   3    0.24    0.07
  -6   7   3    0.30    0.08
   5  -7  -3    0.59    0.08
   5  -7  -3    0.52    0.08
   5  -7  -3    0.50    0.13
  -5   7   3    0.46    0.09
  -5   7   3    0.54    0.08
  -5   7   3    0.54    0.07
   4  -7  -3    1.21    0.11
   4  -7  -3    1.22    0.30
   4  -7  -3    1.18    0.37
  -4   7   3    1.13    0.10
  -4   7   3    1.08    0.09
  -4   7   3    1.06    0.12
   3  -7  -3    4.59    0.20
   3  -7  -3    4.69    0.26
   3  -7  -3    4.62    0.16
  -3   7   3    4.55    0.17
  -3   7   3    4.58    0.20
  -3   7   3    4.65    0.16
  -3   7   3    4.50    0.13
   2  -7  -3    4.62    0.25
   2  -7  -3    4.43    0.20
  -2   7   3    4.12    0.15
  -2   7   3    4.81    0.21
  -1   7   3    1.09    0.11
  -1   7   3    1.10    0.08
   0   7   3    0.01    0.05
   0   7   3    0.06    0.04
   1   7   3    2.36    0.10
   1   7   3    2.29    0.15
   2   7   3    4.18    0.14
   3   7   3    0.14    0.04
   4   7   3    0.26    0.06
   5   7   3    0.12    0.05
   6   7   3    0.02    0.05
   7   7   3    0.21    0.06
 -13   8   3    0.18    0.12
 -13   8   3   -0.24    0.11
  12  -8  -3    0.21    0.10
 -12   8   3    0.43    0.12
 -12   8   3    0.18    0.13
  11  -8  -3    0.51    0.11
 -11   8   3    0.52    0.14
 -11   8   3    0.62    0.12
  10  -8  -3    2.16    0.18
  10  -8  -3    2.09    0.15
 -10   8   3    1.95    0.17
 -10   8   3    2.05    0.18
 -10   8   3    1.68    0.19
   9  -8  -3    1.59    0.15
   9  -8  -3    1.69    0.16
  -9   8   3    2.04    0.15
  -9   8   3    2.05    0.17
  -9   8   3    2.16    0.20
   8  -8  -3    1.28    0.13
   8  -8  -3    1.59    0.14
  -8   8   3    1.62    0.18
  -8   8   3    1.34    0.12
  -8   8   3    1.37    0.14
   7  -8  -3    0.17    0.15
   7  -8  -3    0.34    0.09
  -7   8   3    0.40    0.10
  -7   8   3    0.27    0.08
   6  -8  -3    2.22    0.16
   6  -8  -3    2.05    0.50
  -6   8   3    2.12    0.17
  -6   8   3    2.34    0.14
  -6   8   3    2.37    0.15
   5  -8  -3    6.44    0.34
   5  -8  -3    6.52    0.25
   5  -8  -3    6.30    0.21
  -5   8   3    6.64    0.22
  -5   8   3    6.33    0.20
  -5   8   3    6.22    0.26
   4  -8  -3    0.55    0.13
   4  -8  -3    0.53    0.09
  -4   8   3    0.57    0.08
  -4   8   3    0.52    0.10
  -4   8   3    0.65    0.07
   3  -8  -3    0.31    0.11
  -3   8   3    0.34    0.07
  -3   8   3    0.30    0.09
   2  -8  -3    0.55    0.12
  -2   8   3    0.31    0.06
  -2   8   3    0.37    0.09
  -1   8   3    0.16    0.07
  -1   8   3    0.19    0.05
   0   8   3    1.30    0.10
   0   8   3    1.08    0.13
   1   8   3    0.66    0.11
   1   8   3    0.64    0.07
   2   8   3    0.30    0.06
   2   8   3    0.26    0.05
   3   8   3   -0.04    0.05
   4   8   3    0.10    0.06
   5   8   3   -0.14    0.05
   6   8   3    0.23    0.07
 -13   9   3    0.11    0.11
 -13   9   3   -0.22    0.11
 -12   9   3    0.01    0.12
 -12   9   3    0.06    0.10
  11  -9  -3    0.17    0.09
 -11   9   3   -0.02    0.11
 -11   9   3    0.06    0.10
 -11   9   3    0.10    0.09
  10  -9  -3    0.19    0.09
  10  -9  -3   -0.02    0.07
 -10   9   3    0.00    0.08
 -10   9   3   -0.09    0.07
 -10   9   3   -0.02    0.10
   9  -9  -3    0.38    0.10
   9  -9  -3    0.16    0.10
  -9   9   3    0.27    0.09
  -9   9   3    0.29    0.09
  -9   9   3    0.18    0.10
   8  -9  -3    0.07    0.09
  -8   9   3    0.05    0.07
  -8   9   3    0.10    0.09
   7  -9  -3    0.62    0.11
  -7   9   3    0.65    0.13
  -7   9   3    0.63    0.10
   6  -9  -3    0.48    0.10
  -6   9   3    0.51    0.08
  -6   9   3    0.52    0.09
  -6   9   3    0.54    0.12
   5  -9  -3    0.15    0.08
  -5   9   3    0.10    0.06
  -5   9   3    0.18    0.06
  -5   9   3    0.19    0.08
   4  -9  -3   -0.03    0.06
  -4   9   3   -0.05    0.03
  -4   9   3   -0.02    0.06
  -4   9   3    0.09    0.05
  -3   9   3    0.02    0.05
  -3   9   3   -0.02    0.06
  -2   9   3    0.42    0.08
  -2   9   3    0.42    0.10
  -1   9   3    0.24    0.12
  -1   9   3    0.24    0.06
   0   9   3    0.22    0.06
   0   9   3    0.22    0.09
   1   9   3    1.63    0.12
   1   9   3    2.03    0.13
   2   9   3    0.06    0.06
   3   9   3    0.15    0.07
   4   9   3    0.25    0.08
   5   9   3    0.00    0.06
 -12  10   3    0.22    0.13
 -12  10   3    0.16    0.10
  11 -10  -3    0.09    0.09
 -11  10   3    0.23    0.10
 -11  10   3    0.03    0.11
  10 -10  -3    0.53    0.12
 -10  10   3    0.58    0.11
 -10  10   3    0.45    0.13
   9 -10  -3    0.62    0.12
  -9  10   3    0.86    0.12
  -9  10   3    0.63    0.14
   8 -10  -3    0.18    0.11
  -8  10   3    0.24    0.11
  -8  10   3    0.18    0.08
   7 -10  -3    0.68    0.12
  -7  10   3    0.71    0.10
  -7  10   3    0.62    0.13
   6 -10  -3    2.03    0.18
  -6  10   3    2.27    0.16
  -6  10   3    2.14    0.19
  -6  10   3    2.31    0.14
   5 -10  -3    2.24    0.17
  -5  10   3    2.24    0.12
  -5  10   3    2.14    0.16
  -5  10   3    2.17    0.18
  -4  10   3   -0.16    0.06
  -4  10   3   -0.01    0.06
  -3  10   3    4.43    0.25
  -3  10   3    4.58    0.20
  -2  10   3    4.41    0.25
  -2  10   3    4.10    0.19
  -1  10   3   -0.12    0.06
  -1  10   3    0.06    0.08
  -1  10   3    0.15    0.06
   0  10   3    0.16    0.07
   0  10   3    0.17    0.06
   1  10   3   -0.04    0.06
   2  10   3   -0.10    0.07
   3  10   3    0.08    0.08
  11 -11  -3    0.15    0.10
 -11  11   3   -0.08    0.11
  10 -11  -3   -0.04    0.11
 -10  11   3    0.36    0.13
   9 -11  -3   -0.04    0.11
  -9  11   3    0.04    0.08
  -9  11   3    0.07    0.11
   8 -11  -3    0.71    0.13
  -8  11   3    0.74    0.15
  -8  11   3    0.68    0.11
   7 -11  -3    0.24    0.11
  -7  11   3    0.44    0.12
  -7  11   3    0.48    0.09
   6 -11  -3   -0.06    0.09
  -6  11   3   -0.04    0.06
  -6  11   3   -0.06    0.07
  -6  11   3    0.00    0.05
  -6  11   3    0.03    0.08
   5 -11  -3    0.31    0.11
  -5  11   3    0.14    0.10
  -5  11   3    0.15    0.08
  -5  11   3    0.19    0.08
  -4  11   3    0.10    0.08
  -4  11   3    0.27    0.10
  -4  11   3    0.29    0.12
  -3  11   3    0.33    0.11
  -3  11   3    0.42    0.10
  -3  11   3    0.42    0.10
  -2  11   3    0.06    0.07
  -2  11   3    0.23    0.09
  -2  11   3    0.12    0.15
  -1  11   3    0.24    0.09
   0  11   3    0.16    0.08
   1  11   3    0.02    0.08
   2  11   3   -0.14    0.09
  10 -12  -3    0.06    0.11
 -10  12   3    0.13    0.11
   9 -12  -3    0.25    0.12
  -9  12   3    0.17    0.11
   8 -12  -3    0.27    0.12
  -8  12   3    0.17    0.11
   7 -12  -3    0.20    0.12
  -7  12   3    0.01    0.10
   6 -12  -3    0.13    0.11
  -6  12   3    0.13    0.10
  -6  12   3    0.36    0.10
  -6  12   3    0.17    0.12
   5 -12  -3    0.83    0.14
  -5  12   3    0.69    0.15
  -5  12   3    1.22    0.15
  -5  12   3    0.77    0.13
  -4  12   3    0.08    0.10
  -4  12   3   -0.11    0.07
  -4  12   3    0.10    0.08
  -3  12   3    0.20    0.10
  -3  12   3    0.01    0.09
  -2  12   3    0.19    0.09
  -1  12   3   -0.01    0.09
   0  12   3    0.15    0.11
   8 -13  -3    0.04    0.12
  -8  13   3    0.00    0.09
   7 -13  -3   -0.02    0.12
  -7  13   3    0.03    0.11
   6 -13  -3    0.40    0.13
  -6  13   3    0.18    0.13
   5 -13  -3   -0.08    0.11
  -5  13   3   -0.07    0.08
  -5  13   3    0.05    0.10
  -4  13   3    0.06    0.09
  -4  13   3    0.03    0.11
  -3  13   3   -0.21    0.09
  -1  15  -4   -0.03    0.10
   1 -15   4    0.06    0.12
  -2  15  -4   -0.11    0.09
   2 -15   4   -0.04    0.11
   3 -15   4    0.09    0.12
   4 -15   4    0.28    0.12
  -5  15  -4    0.63    0.15
   5 -15   4    0.85    0.14
  -6  15  -4    0.12    0.13
   6 -15   4    0.39    0.12
  -7  15  -4    0.03    0.11
   7 -15   4    0.00    0.11
  -8  15  -4    0.17    0.14
   8 -15   4    0.47    0.13
   2  14  -4    0.02    0.10
   1  14  -4    0.07    0.10
   0  14  -4    0.08    0.09
  -1  14  -4    0.19    0.10
   1 -14   4    0.21    0.11
  -2  14  -4    1.21    0.15
   2 -14   4    0.87    0.15
  -3  14  -4    0.07    0.07
   3 -14   4    0.06    0.10
  -4  14  -4    0.23    0.08
  -4  14  -4    0.02    0.10
  -4  14  -4    0.06    0.10
   4 -14   4    0.23    0.11
  -5  14  -4    0.64    0.11
  -5  14  -4    0.39    0.13
   5 -14   4    0.44    0.12
  -6  14  -4    0.00    0.08
  -6  14  -4    0.06    0.11
   6 -14   4    0.17    0.11
  -7  14  -4    0.79    0.13
  -7  14  -4    0.60    0.16
   7 -14   4    0.38    0.12
  -8  14  -4    0.04    0.15
   8 -14   4    0.24    0.11
   8 -14   4    0.17    0.10
  -9  14  -4    0.19    0.17
 -10  14  -4   -0.17    0.15
 -10  14  -4   -0.02    0.11
   3  13  -4    0.22    0.11
   2  13  -4   -0.01    0.08
   1  13  -4    0.06    0.09
   0  13  -4    0.13    0.09
  -1  13  -4    0.55    0.12
   1 -13   4    0.56    0.12
  -2  13  -4    1.46    0.16
  -2  13  -4    1.26    0.12
   2 -13   4    1.40    0.15
  -3  13  -4    1.69    0.19
  -3  13  -4    1.30    0.13
   3 -13   4    1.59    0.15
  -4  13  -4   -0.04    0.07
  -4  13  -4    0.04    0.09
   4 -13   4   -0.07    0.09
  -5  13  -4    0.16    0.08
  -5  13  -4    0.22    0.12
   5 -13   4    0.15    0.10
  -6  13  -4    0.29    0.09
  -6  13  -4    0.26    0.14
   6 -13   4    0.28    0.10
  -7  13  -4   -0.13    0.13
  -7  13  -4    0.15    0.09
   7 -13   4    0.12    0.10
   7 -13   4    0.27    0.10
  -8  13  -4    0.78    0.14
  -8  13  -4    0.66    0.12
  -8  13  -4    0.64    0.19
   8 -13   4    0.81    0.11
   8 -13   4    0.91    0.15
  -9  13  -4   -0.04    0.16
  -9  13  -4    0.20    0.11
   9 -13   4    0.15    0.10
 -10  13  -4   -0.28    0.15
 -10  13  -4   -0.11    0.11
 -11  13  -4   -0.43    0.14
 -11  13  -4   -0.08    0.11
   5  12  -4   -0.02    0.10
   4  12  -4    0.04    0.09
   3  12  -4    0.05    0.09
   2  12  -4    0.62    0.12
   1  12  -4    0.68    0.12
   0  12  -4    2.32    0.55
   0  12  -4    2.06    0.17
   0 -12   4    1.80    0.16
  -1  12  -4    0.35    0.09
  -1  12  -4    0.51    0.19
  -1  12  -4    0.31    0.08
   1 -12   4    0.35    0.10
  -2  12  -4   -0.05    0.05
  -2  12  -4   -0.11    0.06
  -2  12  -4    0.05    0.06
  -2  12  -4    0.21    0.07
   2 -12   4   -0.05    0.08
  -3  12  -4    0.39    0.08
  -3  12  -4    0.51    0.11
  -3  12  -4    0.49    0.12
  -3  12  -4    0.40    0.09
   3 -12   4    0.67    0.13
   3 -12   4    0.27    0.09
  -4  12  -4    0.32    0.29
  -4  12  -4    0.13    0.10
  -4  12  -4    0.08    0.06
   4 -12   4    0.11    0.08
  -5  12  -4    0.16    0.27
  -5  12  -4   -0.01    0.07
  -5  12  -4    0.14    0.11
   5 -12   4    0.11    0.08
  -6  12  -4   -0.08    0.06
  -6  12  -4    0.01    0.11
  -6  12  -4   -0.10    0.11
  -6  12  -4    0.02    0.07
   6 -12   4    0.06    0.08
   6 -12   4    0.07    0.07
  -7  12  -4    0.28    0.10
  -7  12  -4    0.19    0.09
  -7  12  -4    0.17    0.14
   7 -12   4    0.14    0.09
   7 -12   4    0.27    0.09
  -8  12  -4    1.25    0.20
  -8  12  -4    1.35    0.16
  -8  12  -4    1.65    0.16
   8 -12   4    1.44    0.16
  -9  12  -4   -0.04    0.15
  -9  12  -4   -0.15    0.09
   9 -12   4    0.13    0.10
 -10  12  -4    0.32    0.12
 -10  12  -4   -0.04    0.15
 -11  12  -4    0.31    0.13
 -11  12  -4    0.50    0.19
   6  11  -4   -0.12    0.09
   5  11  -4    1.15    0.14
   4  11  -4    0.64    0.12
   3  11  -4    0.53    0.10
   2  11  -4    0.20    0.08
   2  11  -4    0.50    0.12
   1  11  -4    0.80    0.11
   0  11  -4    0.58    0.10
   0  11  -4    0.33    0.12
   0  11  -4    0.36    0.08
   0 -11   4    0.14    0.08
  -1  11  -4    0.31    0.07
  -1  11  -4    0.40    0.26
  -1  11  -4    0.18    0.06
   1 -11   4    0.20    0.08
  -2  11  -4    0.26    0.07
  -2  11  -4    0.13    0.06
  -2  11  -4    0.06    0.08
  -2  11  -4    0.17    0.08
   2 -11   4    0.02    0.07
  -3  11  -4    0.54    0.12
  -3  11  -4    0.30    0.07
  -3  11  -4    0.18    0.07
  -3  11  -4    0.24    0.10
   3 -11   4    0.38    0.08
  -4  11  -4    3.05    0.54
  -4  11  -4    3.25    0.22
  -4  11  -4    3.15    0.16
   4 -11   4    2.91    0.16
  -5  11  -4    5.98    0.31
  -5  11  -4    6.45    0.23
  -5  11  -4    6.18    0.20
  -5  11  -4    5.93    0.29
   5 -11   4    6.03    0.22
   5 -11   4    5.92    0.23
  -6  11  -4    2.64    0.17
  -6  11  -4    2.22    0.23
  -6  11  -4    2.04    0.21
  -6  11  -4    2.46    0.15
   6 -11   4    2.24    0.16
   6 -11   4    2.34    0.15
  -7  11  -4    0.86    0.11
  -7  11  -4    0.81    0.16
  -7  11  -4    0.80    0.11
  -7  11  -4    0.56    0.16
   7 -11   4    0.93    0.12
   7 -11   4    0.89    0.10
  -8  11  -4    1.96    0.23
  -8  11  -4    1.89    0.47
  -8  11  -4    2.12    0.17
   8 -11   4    2.19    0.17
  -9  11  -4    0.28    0.11
  -9  11  -4    0.18    0.15
   9 -11   4    0.30    0.22
 -10  11  -4    0.20    0.12
 -10  11  -4    0.03    0.14
  10 -11   4    0.21    0.08
 -11  11  -4   -0.12    0.11
 -11  11  -4   -0.06    0.15
 -12  11  -4   -0.29    0.14
 -12  11  -4   -0.12    0.12
   7  10  -4    0.22    0.10
   6  10  -4    0.13    0.09
   5  10  -4    0.41    0.10
   4  10  -4    0.14    0.15
   4  10  -4    0.24    0.08
   3  10  -4    0.42    0.08
   3  10  -4    0.53    0.14
   2  10  -4    1.55    0.14
   2  10  -4    1.12    0.11
   1  10  -4    0.18    0.07
   1  10  -4    0.03    0.05
   0  10  -4    0.07    0.05
   0  10  -4    0.04    0.08
   0  10  -4    0.19    0.07
   0 -10   4    0.10    0.06
  -1  10  -4    0.08    0.07
  -1  10  -4   -0.01    0.06
  -1  10  -4   -0.05    0.06
  -1  10  -4    0.00    0.05
  -1  10  -4    0.02    0.04
   1 -10   4    0.06    0.07
  -2  10  -4    0.38    0.07
  -2  10  -4    0.46    0.07
  -2  10  -4    0.68    0.12
  -2  10  -4    0.40    0.10
   2 -10   4    0.42    0.08
  -3  10  -4    0.39    0.08
  -3  10  -4    0.23    0.07
  -3  10  -4    0.22    0.09
  -3  10  -4    0.20    0.05
  -3  10  -4    0.38    0.25
  -3  10  -4    0.36    0.07
   3 -10   4    0.34    0.16
   3 -10   4    0.27    0.08
  -4  10  -4    2.69    0.20
  -4  10  -4    2.43    0.13
  -4  10  -4    2.51    0.19
  -4  10  -4    2.14    0.21
  -4  10  -4    2.66    0.15
   4 -10   4    2.40    0.14
   4 -10   4    2.71    0.15
   4 -10   4    2.68    0.24
  -5  10  -4    2.05    0.21
  -5  10  -4    2.17    0.13
  -5  10  -4    1.88    0.19
  -5  10  -4    2.26    0.15
   5 -10   4    2.31    0.15
   5 -10   4    1.90    0.13
  -6  10  -4    1.93    0.13
  -6  10  -4    2.13    0.15
  -6  10  -4    1.61    0.19
  -6  10  -4    1.87    0.21
   6 -10   4    1.84    0.13
   6 -10   4    2.13    0.15
  -7  10  -4    0.81    0.11
  -7  10  -4    0.93    0.17
  -7  10  -4    0.90    0.12
  -7  10  -4    0.52    0.14
   7 -10   4    0.78    0.10
   7 -10   4    0.85    0.09
  -8  10  -4    1.75    0.22
  -8  10  -4    2.51    0.25
  -8  10  -4    1.96    0.16
   8 -10   4    2.16    0.16
  -9  10  -4    0.07    0.09
  -9  10  -4   -0.17    0.13
  -9  10  -4    0.09    0.13
   9 -10   4    0.03    0.10
 -10  10  -4    0.17    0.15
 -10  10  -4    0.35    0.12
  10 -10   4    0.44    0.18
 -11  10  -4   -0.08    0.11
 -11  10  -4    0.01    0.15
  11 -10   4    0.10    0.07
 -12  10  -4    0.03    0.12
 -12  10  -4   -0.11    0.15
   8   9  -4    0.03    0.10
   7   9  -4    0.14    0.09
   6   9  -4    0.58    0.11
   5   9  -4    1.40    0.16
   5   9  -4    0.95    0.11
   4   9  -4    0.35    0.16
   4   9  -4    0.18    0.06
   3   9  -4    0.80    0.09
   3   9  -4    0.82    0.34
   2   9  -4    0.90    0.09
   2   9  -4    1.17    0.13
   1   9  -4    0.04    0.04
   1   9  -4    0.06    0.06
   1   9  -4   -0.10    0.04
  -1  -9   4   -0.07    0.05
   0   9  -4    1.64    0.10
   0   9  -4    1.57    0.15
   0   9  -4    1.60    0.16
   0   9  -4    1.54    0.11
   0  -9   4    1.61    0.12
  -1   9  -4    0.09    0.05
  -1   9  -4    0.29    0.08
  -1   9  -4    0.31    0.10
  -1   9  -4    0.14    0.06
  -1   9  -4    0.26    0.06
   1  -9   4    0.20    0.07
  -2   9  -4    8.90    0.29
  -2   9  -4    8.82    0.28
  -2   9  -4    9.16    0.24
  -2   9  -4    8.94    0.59
  -2   9  -4    9.22    0.25
  -2   9  -4    8.94    0.19
   2  -9   4    8.40    0.24
   2  -9   4    9.06    0.23
  -3   9  -4   12.36    0.30
  -3   9  -4   12.48    0.30
  -3   9  -4   12.22    0.34
  -3   9  -4   12.42    0.36
  -3   9  -4   12.58    0.39
  -3   9  -4   12.17    0.26
   3  -9   4   12.12    0.31
   3  -9   4   12.30    0.29
   3  -9   4   12.31    0.37
  -4   9  -4    6.13    0.20
  -4   9  -4    6.73    0.23
  -4   9  -4    6.23    0.26
  -4   9  -4    6.40    0.29
  -4   9  -4    5.87    0.18
   4  -9   4    6.48    0.28
   4  -9   4    6.33    0.19
   4  -9   4    6.58    0.21
  -5   9  -4    0.10    0.10
  -5   9  -4    0.10    0.05
  -5   9  -4    0.09    0.06
  -5   9  -4    0.19    0.06
  -5   9  -4    0.12    0.10
   5  -9   4    0.13    0.09
   5  -9   4    0.14    0.06
   5  -9   4    0.12    0.06
  -6   9  -4    0.00    0.05
  -6   9  -4   -0.01    0.05
  -6   9  -4    0.03    0.10
  -6   9  -4   -0.06    0.10
   6  -9   4   -0.02    0.04
   6  -9   4   -0.01    0.05
  -7   9  -4    1.49    0.19
  -7   9  -4    1.44    0.18
  -7   9  -4    1.62    0.13
   7  -9   4    1.58    0.12
   7  -9   4    1.63    0.14
  -8   9  -4    0.51    0.15
  -8   9  -4    0.84    0.11
  -8   9  -4    0.40    0.14
   8  -9   4    0.82    0.11
   8  -9   4    0.67    0.24
  -9   9  -4    0.89    0.18
  -9   9  -4    1.28    0.14
  -9   9  -4    0.92    0.18
   9  -9   4    1.26    0.14
   9  -9   4    1.36    0.12
 -10   9  -4    0.15    0.14
 -10   9  -4    0.00    0.09
  10  -9   4    0.23    0.07
  10  -9   4    0.27    0.10
 -11   9  -4    0.46    0.17
 -11   9  -4    0.50    0.13
  11  -9   4    0.36    0.11
 -12   9  -4    0.25    0.14
 -12   9  -4    0.33    0.17
  12  -9   4    0.44    0.12
 -13   9  -4   -0.26    0.15
 -13   9  -4   -0.18    0.13
  13  -9   4   -0.13    0.09
   9   8  -4    0.18    0.10
   8   8  -4   -0.09    0.07
   7   8  -4    1.08    0.13
   6   8  -4    0.64    0.10
   6   8  -4    0.80    0.15
   5   8  -4    2.43    0.14
   5   8  -4    2.72    0.20
   4   8  -4   -0.04    0.04
   4   8  -4    0.04    0.16
   3   8  -4    5.51    0.18
   3   8  -4    5.14    0.40
   2   8  -4    1.57    0.08
   2   8  -4    1.43    0.22
   2   8  -4    1.42    0.13
   2   8  -4    1.72    0.10
  -2  -8   4    1.44    0.11
   1   8  -4    1.05    0.13
   1   8  -4    1.09    0.08
   1   8  -4    1.30    0.09
   1   8  -4    1.18    0.12
  -1  -8   4    1.17    0.10
   0   8  -4    2.37    0.15
   0   8  -4    2.39    0.13
   0   8  -4    2.38    0.15
   0   8  -4    2.41    0.17
   0   8  -4    2.54    0.11
   0   8  -4    2.32    0.12
   0  -8   4    2.53    0.12
  -1   8  -4   35.13    1.32
  -1   8  -4   34.89    0.53
  -1   8  -4   35.39    0.60
  -1   8  -4   35.00    0.72
  -1   8  -4   34.04    0.59
  -1   8  -4   35.90    0.66
   1  -8   4   35.53    0.59
   1  -8   4   35.20    0.62
  -2   8  -4    6.56    0.19
  -2   8  -4    6.43    0.16
  -2   8  -4    6.32    0.30
  -2   8  -4    6.63    0.23
  -2   8  -4    6.31    0.22
  -2   8  -4    6.09    0.18
   2  -8   4    6.40    0.18
   2  -8   4    6.35    0.19
  -3   8  -4    1.27    0.10
  -3   8  -4    1.06    0.09
  -3   8  -4    1.21    0.09
  -3   8  -4    1.25    0.15
  -3   8  -4    1.12    0.08
  -3   8  -4    1.30    0.13
   3  -8   4    1.23    0.21
   3  -8   4    1.28    0.10
   3  -8   4    1.31    0.09
  -4   8  -4    0.85    0.09
  -4   8  -4    0.75    0.13
  -4   8  -4    0.90    0.09
  -4   8  -4    0.76    0.12
  -4   8  -4    0.88    0.08
   4  -8   4    0.90    0.09
   4  -8   4    0.75    0.08
   4  -8   4    0.82    0.10
   4  -8   4    0.88    0.08
  -5   8  -4    0.07    0.05
  -5   8  -4    0.11    0.05
  -5   8  -4    0.04    0.09
  -5   8  -4    0.06    0.04
  -5   8  -4    0.04    0.09
   5  -8   4    0.05    0.05
   5  -8   4    0.02    0.04
   5  -8   4    0.07    0.08
   5  -8   4    0.06    0.05
  -6   8  -4    4.05    0.17
  -6   8  -4    4.13    0.23
  -6   8  -4    3.77    0.39
  -6   8  -4    3.71    0.15
   6  -8   4    3.96    0.16
   6  -8   4    4.00    0.17
   6  -8   4    3.83    0.12
  -7   8  -4    1.59    0.19
  -7   8  -4    1.74    0.13
  -7   8  -4    1.66    0.18
   7  -8   4    1.98    0.14
   7  -8   4    1.82    0.16
  -8   8  -4    3.81    0.26
  -8   8  -4    4.10    0.18
  -8   8  -4    4.33    0.26
   8  -8   4    3.81    0.16
   8  -8   4    4.36    0.19
  -9   8  -4    0.35    0.13
  -9   8  -4    0.47    0.09
  -9   8  -4    0.38    0.14
   9  -8   4    0.21    0.08
   9  -8   4    0.54    0.08
 -10   8  -4    0.09    0.08
 -10   8  -4    0.04    0.13
  10  -8   4   -0.01    0.08
 -11   8  -4    1.39    0.16
 -11   8  -4    1.18    0.21
  11  -8   4    1.25    0.14
 -12   8  -4    0.12    0.15
  12  -8   4   -0.11    0.08
 -13   8  -4   -0.05    0.15
  13  -8   4   -0.14    0.08
  10   7  -4    0.26    0.11
   9   7  -4    0.14    0.09
   8   7  -4    0.01    0.07
   7   7  -4    0.09    0.07
   6   7  -4    1.28    0.17
   6   7  -4    1.11    0.11
   5   7  -4   -0.06    0.10
   5   7  -4   -0.02    0.04
   4   7  -4    1.45    0.14
   4   7  -4    1.63    0.11
   4   7  -4    1.69    0.19
   3   7  -4    1.03    0.13
   3   7  -4    1.19    0.09
   3   7  -4    0.80    0.10
   2   7  -4    3.95    0.19
   2   7  -4    4.36    0.14
   2   7  -4    4.17    0.20
   2   7  -4    4.28    0.17
  -2  -7   4    4.12    0.14
   1   7  -4    1.49    0.09
   1   7  -4    1.61    0.12
   1   7  -4    1.54    0.09
   1   7  -4    1.46    0.14
  -1  -7   4    1.67    0.10
   0   7  -4   38.85    0.63
   0   7  -4   37.76    0.80
   0   7  -4   38.29    0.63
   0   7  -4   39.17    0.76
   0   7  -4   38.65    0.67
   0   7  -4   38.22    0.56
   0  -7   4   39.29    0.62
   0  -7   4   38.41    0.83
  -1   7  -4    3.79    0.13
  -1   7  -4    3.64    0.13
  -1   7  -4    3.75    0.16
  -1   7  -4    3.79    0.16
  -1   7  -4    3.64    0.11
  -1   7  -4    3.75    0.42
   1  -7   4    3.91    0.13
   1  -7   4    3.66    0.13
  -2   7  -4    0.39    0.08
  -2   7  -4    0.46    0.06
  -2   7  -4    0.53    0.07
  -2   7  -4    0.48    0.05
  -2   7  -4    0.45    0.05
  -2   7  -4    0.46    0.12
   2  -7   4    0.46    0.06
   2  -7   4    0.45    0.06
   2  -7   4    0.46    0.06
  -3   7  -4    6.69    0.17
  -3   7  -4    6.53    0.26
  -3   7  -4    6.48    0.19
  -3   7  -4    6.45    0.20
  -3   7  -4    6.37    0.18
  -3   7  -4    6.06    0.22
   3  -7   4    6.35    0.21
   3  -7   4    6.37    0.18
   3  -7   4    6.45    0.18
   3  -7   4    6.45    0.17
  -4   7  -4   28.41    0.49
  -4   7  -4   28.56    0.58
  -4   7  -4   27.42    0.51
  -4   7  -4   27.57    0.54
  -4   7  -4   28.30    0.64
   4  -7   4   27.08    0.56
   4  -7   4   27.34    0.50
   4  -7   4   28.52    0.50
   4  -7   4   28.34    0.59
   4  -7   4   27.65    0.46
  -5   7  -4    2.63    0.17
  -5   7  -4    2.72    0.12
  -5   7  -4    2.86    0.12
  -5   7  -4    2.82    0.13
  -5   7  -4    2.85    0.20
   5  -7   4    2.73    0.17
   5  -7   4    2.90    0.10
   5  -7   4    2.76    0.13
   5  -7   4    2.84    0.12
  -6   7  -4   -0.05    0.05
  -6   7  -4   -0.06    0.08
  -6   7  -4    0.11    0.09
   6  -7   4    0.04    0.10
   6  -7   4    0.04    0.05
  -7   7  -4    1.65    0.12
  -7   7  -4    1.60    0.17
  -7   7  -4    1.72    0.19
   7  -7   4    1.76    0.11
   7  -7   4    1.67    0.12
  -8   7  -4    0.30    0.11
  -8   7  -4    0.00    0.10
  -8   7  -4    0.23    0.07
   8  -7   4    0.19    0.05
   8  -7   4    0.22    0.07
  -9   7  -4   -0.08    0.10
  -9   7  -4   -0.11    0.06
  -9   7  -4   -0.08    0.10
   9  -7   4    0.02    0.06
 -10   7  -4    1.50    0.20
  10  -7   4    1.71    0.15
 -11   7  -4    0.50    0.16
  11  -7   4    0.33    0.10
 -12   7  -4    0.11    0.15
  12  -7   4   -0.02    0.08
  13  -7   4    0.02    0.09
  10   6  -4    0.19    0.10
   9   6  -4    0.32    0.10
   8   6  -4    0.35    0.08
   7   6  -4    0.51    0.08
   7   6  -4    0.80    0.15
   6   6  -4    0.84    0.13
   6   6  -4    0.79    0.09
   5   6  -4    0.81    0.08
   5   6  -4    0.70    0.10
   5   6  -4    0.81    0.22
   4   6  -4    0.35    0.06
   4   6  -4    0.36    0.18
   4   6  -4    0.24    0.07
   3   6  -4   21.13    0.36
   3   6  -4   20.77    0.51
   3   6  -4   20.89    0.49
   3   6  -4   20.73    0.38
  -3  -6   4   21.15    0.37
   2   6  -4   11.94    0.32
   2   6  -4   12.06    0.25
   2   6  -4   11.73    0.24
   2   6  -4   12.09    0.34
  -2  -6   4   12.38    0.25
   1   6  -4    4.87    0.20
   1   6  -4    5.03    0.14
   1   6  -4    5.19    0.19
   1   6  -4    4.90    0.14
  -1  -6   4    4.93    0.26
  -1  -6   4    4.95    0.14
   0   6  -4    0.04    0.03
   0   6  -4    0.01    0.14
   0   6  -4    0.12    0.05
   0   6  -4    0.04    0.05
   0   6  -4    0.03    0.03
   0   6  -4    0.04    0.03
   0  -6   4    0.09    0.04
   0  -6   4    0.06    0.03
  -1   6  -4    0.57    0.07
  -1   6  -4    0.65    0.06
  -1   6  -4    0.58    0.06
  -1   6  -4    0.57    0.07
  -1   6  -4    0.58    0.06
  -1   6  -4    0.57    0.09
   1  -6   4    0.56    0.13
   1  -6   4    0.52    0.06
  -2   6  -4   60.34    1.15
  -2   6  -4   59.61    0.94
  -2   6  -4   61.04    0.91
  -2   6  -4   61.73    0.91
  -2   6  -4   60.26    1.01
  -2   6  -4   61.64    1.05
   2  -6   4   60.01    0.98
   2  -6   4   60.13    1.07
   2  -6   4   60.88    0.91
   2  -6   4   61.24    0.91
  -3   6  -4    5.26    0.19
  -3   6  -4    5.27    0.14
  -3   6  -4    5.23    0.22
  -3   6  -4    5.26    0.17
  -3   6  -4    5.34    0.16
   3  -6   4    5.24    0.17
   3  -6   4    5.46    0.14
   3  -6   4    5.40    0.28
   3  -6   4    5.23    0.15
   3  -6   4    5.13    0.19
  -4   6  -4   19.39    0.43
  -4   6  -4   20.08    0.59
  -4   6  -4   19.63    0.38
  -4   6  -4   19.94    0.36
  -4   6  -4   19.98    0.48
   4  -6   4   19.40    0.37
   4  -6   4   19.70    0.33
   4  -6   4   19.95    0.65
   4  -6   4   19.67    0.66
   4  -6   4   20.32    0.44
  -5   6  -4    1.18    0.08
  -5   6  -4    1.16    0.07
  -5   6  -4    1.00    0.13
  -5   6  -4    1.31    0.09
  -5   6  -4    1.02    0.11
   5  -6   4    1.26    0.09
   5  -6   4    1.23    0.11
   5  -6   4    1.14    0.10
   5  -6   4    1.11    0.12
  -6   6  -4   35.95    0.59
  -6   6  -4   36.10    0.79
  -6   6  -4   35.53    0.71
   6  -6   4   34.56    0.69
   6  -6   4   34.88    0.63
   6  -6   4   35.71    0.60
   6  -6   4   35.67    0.90
  -7   6  -4    0.20    0.10
  -7   6  -4    0.16    0.05
  -7   6  -4    0.25    0.10
   7  -6   4    0.18    0.06
   7  -6   4    0.16    0.04
  -8   6  -4   -0.02    0.09
  -8   6  -4    0.13    0.09
   8  -6   4    0.12    0.06
  -9   6  -4    0.64    0.14
  -9   6  -4    0.57    0.15
   9  -6   4    0.71    0.10
 -10   6  -4    1.80    0.21
  10  -6   4    2.32    0.16
 -11   6  -4    0.67    0.17
  11  -6   4    0.57    0.11
 -12   6  -4    0.24    0.16
  12  -6   4    0.40    0.10
  13  -6   4    0.01    0.09
  11   5  -4    0.38    0.11
  10   5  -4    0.28    0.09
   9   5  -4    1.90    0.16
   8   5  -4    0.27    0.07
   8   5  -4    0.27    0.10
   7   5  -4   -0.03    0.05
   7   5  -4    0.06    0.07
   7   5  -4    0.05    0.08
   6   5  -4    1.21    0.15
   6   5  -4    1.10    0.11
   6   5  -4    1.01    0.14
   6   5  -4    1.00    0.09
   5   5  -4    1.33    0.12
   5   5  -4    1.47    0.15
   5   5  -4    1.22    0.09
   5   5  -4    1.30    0.17
   4   5  -4   -0.01    0.10
   4   5  -4    0.02    0.02
   4   5  -4   -0.01    0.03
   4   5  -4    0.00    0.05
   4   5  -4   -0.03    0.03
  -4  -5   4    0.02    0.04
   3   5  -4    7.19    0.25
   3   5  -4    7.54    0.18
   3   5  -4    7.62    0.17
   3   5  -4    7.69    0.26
   3   5  -4    7.63    0.27
  -3  -5   4    7.76    0.18
   2   5  -4   43.67    0.81
   2   5  -4   43.45    0.68
   2   5  -4   43.37    0.88
   2   5  -4   43.14    0.67
  -2  -5   4   43.81    0.66
  -2  -5   4   43.44    0.70
   1   5  -4   24.80    0.42
   1   5  -4   25.56    0.48
   1   5  -4   24.34    0.42
   1   5  -4   24.98    0.51
   1   5  -4   24.11    0.53
   1   5  -4   25.11    0.38
  -1  -5   4   25.24    0.41
  -1  -5   4   24.69    0.43
   0   5  -4   18.86    0.33
   0   5  -4   19.28    0.40
   0   5  -4   19.48    0.32
   0   5  -4   19.09    0.34
   0  -5   4   19.10    0.36
   0  -5   4   18.61    0.42
   0  -5   4   19.87    0.33
  -1   5  -4    0.70    0.06
  -1   5  -4    0.81    0.06
  -1   5  -4    0.66    0.09
  -1   5  -4    0.80    0.07
  -1   5  -4    0.60    0.07
   1  -5   4    0.69    0.08
   1  -5   4    0.75    0.06
   1  -5   4    0.95    0.08
   1  -5   4    0.70    0.05
  -2   5  -4    5.15    0.16
  -2   5  -4    5.36    0.13
  -2   5  -4    5.23    0.16
  -2   5  -4    4.93    0.19
  -2   5  -4    4.97    0.14
   2  -5   4    5.17    0.13
   2  -5   4    5.16    0.17
   2  -5   4    4.94    0.14
   2  -5   4    5.17    0.14
  -3   5  -4   20.58    0.35
  -3   5  -4   19.03    0.46
  -3   5  -4   20.92    0.40
  -3   5  -4   19.76    0.41
  -3   5  -4   20.03    0.36
   3  -5   4   19.75    0.40
   3  -5   4   20.81    0.32
   3  -5   4   20.15    0.35
   3  -5   4   20.19    0.41
   3  -5   4   19.27    0.36
  -4   5  -4    5.06    0.15
  -4   5  -4    5.05    0.21
  -4   5  -4    5.09    0.14
  -4   5  -4    4.97    0.14
  -4   5  -4    5.06    0.18
   4  -5   4    5.09    0.16
   4  -5   4    4.91    0.16
   4  -5   4    4.73    0.25
   4  -5   4    5.03    0.14
   4  -5   4    5.66    0.25
  -5   5  -4   10.42    0.32
  -5   5  -4   10.29    0.22
  -5   5  -4   10.59    0.27
  -5   5  -4   10.18    0.29
  -5   5  -4   10.53    0.23
   5  -5   4   10.39    0.23
   5  -5   4   10.34    0.23
   5  -5   4    9.69    0.22
   5  -5   4    9.85    0.21
   5  -5   4   10.46    0.27
  -6   5  -4   15.16    0.39
  -6   5  -4   14.75    0.29
  -6   5  -4   15.18    0.43
   6  -5   4   15.04    0.36
   6  -5   4   15.05    0.31
   6  -5   4   15.15    0.28
  -7   5  -4    2.33    0.27
  -7   5  -4    2.47    0.18
   7  -5   4    2.39    0.12
  -8   5  -4    0.47    0.12
  -8   5  -4    0.30    0.10
   8  -5   4    0.35    0.07
  -9   5  -4    1.66    0.18
  -9   5  -4    1.47    0.19
   9  -5   4    1.74    0.13
 -10   5  -4    0.07    0.11
  10  -5   4   -0.06    0.06
 -11   5  -4   -0.06    0.12
  11  -5   4    0.11    0.08
  12  -5   4    0.04    0.09
  13  -5   4   -0.02    0.08
  12   4  -4   -0.06    0.10
  11   4  -4    0.15    0.09
  10   4  -4    0.14    0.08
   9   4  -4    0.16    0.07
   9   4  -4    0.06    0.09
   8   4  -4    0.06    0.08
   8   4  -4    0.06    0.06
   7   4  -4    1.97    0.19
   7   4  -4    2.28    0.18
   7   4  -4    2.16    0.12
   6   4  -4    3.95    0.15
   6   4  -4    3.88    0.18
   6   4  -4    3.94    0.21
   6   4  -4    4.26    0.24
   5   4  -4    7.99    0.30
   5   4  -4    7.57    0.59
   5   4  -4    7.75    0.16
   5   4  -4    7.50    0.24
   5   4  -4    7.86    0.20
   4   4  -4   19.26    0.77
   4   4  -4   18.97    0.35
   4   4  -4   19.55    0.50
   4   4  -4   19.15    0.34
   4   4  -4   19.73    0.43
  -4  -4   4   20.09    0.34
   3   4  -4   16.49    0.42
   3   4  -4   16.45    0.30
   3   4  -4   16.57    0.39
   3   4  -4   16.25    0.30
  -3  -4   4   16.67    0.29
  -3  -4   4   16.14    0.31
   2   4  -4   24.45    0.45
   2   4  -4   24.55    0.52
   2   4  -4   24.96    0.54
   2   4  -4   24.83    0.41
   2   4  -4   25.26    0.50
   2   4  -4   25.23    0.37
  -2  -4   4   24.13    0.51
  -2  -4   4   24.49    0.43
  -2  -4   4   25.03    0.40
   1   4  -4   18.19    0.36
   1   4  -4   18.80    0.39
   1   4  -4   18.10    0.40
   1   4  -4   17.80    0.32
   1   4  -4   18.71    0.32
   1   4  -4   18.45    0.30
   1   4  -4   18.49    0.40
  -1  -4   4   17.62    0.54
  -1  -4   4   17.43    0.39
  -1  -4   4   18.37    0.31
   0   4  -4   49.77    0.71
   0   4  -4   49.61    0.84
   0   4  -4   47.44    0.90
   0   4  -4   47.12    0.74
   0  -4   4   48.59    0.71
   0  -4   4   46.97    0.85
   0  -4   4   47.27    0.88
   0  -4   4   47.12    0.74
  -1   4  -4    5.68    0.17
  -1   4  -4    5.51    0.14
  -1   4  -4    5.44    0.19
  -1   4  -4    5.83    0.17
  -1   4  -4    5.76    0.13
   1  -4   4    5.71    0.12
   1  -4   4    5.33    0.14
   1  -4   4    5.63    0.14
   1  -4   4    5.59    0.17
   1  -4   4    5.44    0.13
  -2   4  -4   23.55    0.40
  -2   4  -4   23.69    0.52
  -2   4  -4   24.71    0.46
  -2   4  -4   24.57    0.45
  -2   4  -4   24.32    0.39
   2  -4   4   23.34    0.40
   2  -4   4   23.37    0.39
   2  -4   4   24.61    0.36
   2  -4   4   23.57    0.45
  -3   4  -4   22.67    0.50
  -3   4  -4   22.81    0.37
  -3   4  -4   23.38    0.43
  -3   4  -4   22.63    0.39
  -3   4  -4   23.41    0.45
   3  -4   4   22.38    0.63
   3  -4   4   22.35    0.38
   3  -4   4   23.32    0.41
   3  -4   4   22.19    0.38
  -4   4  -4    6.60    0.20
  -4   4  -4    6.44    0.16
  -4   4  -4    6.77    0.23
  -4   4  -4    6.61    0.19
  -4   4  -4    6.68    0.17
   4  -4   4    6.28    0.16
   4  -4   4    6.35    0.14
   4  -4   4    6.66    0.17
   4  -4   4    6.54    0.18
   4  -4   4    6.41    0.17
   4  -4   4    6.48    0.16
   4  -4   4    6.38    0.14
  -5   4  -4   11.95    0.24
  -5   4  -4   11.25    0.29
  -5   4  -4   11.47    0.52
  -5   4  -4   11.50    0.30
   5  -4   4   11.53    0.24
   5  -4   4   11.69    0.28
   5  -4   4   11.47    0.20
   5  -4   4   11.47    0.24
   5  -4   4   11.58    0.20
   5  -4   4   11.33    0.23
  -6   4  -4   19.11    0.50
  -6   4  -4   19.20    0.45
   6  -4   4   18.86    0.35
   6  -4   4   19.11    0.44
  -7   4  -4    1.22    0.13
  -7   4  -4    1.44    0.16
   7  -4   4    1.11    0.09
  -8   4  -4    0.65    0.13
  -8   4  -4    0.79    0.12
   8  -4   4    0.60    0.08
  -9   4  -4   -0.03    0.08
  -9   4  -4   -0.06    0.09
   9  -4   4    0.03    0.05
 -10   4  -4    0.16    0.12
  10  -4   4    0.13    0.07
  11  -4   4    0.15    0.08
  12  -4   4    0.51    0.10
  13  -4   4   -0.07    0.08
  12   3  -4    0.29    0.11
  11   3  -4    0.30    0.10
  10   3  -4    0.81    0.12
   9   3  -4    0.00    0.06
   9   3  -4   -0.02    0.07
   8   3  -4    3.69    0.16
   8   3  -4    3.83    0.23
   8   3  -4    3.69    0.25
   7   3  -4   16.49    0.51
   7   3  -4   15.76    0.46
   7   3  -4   16.35    0.34
   6   3  -4    0.42    0.09
   6   3  -4    0.62    0.05
   6   3  -4    0.33    0.08
   6   3  -4    0.36    0.07
   6   3  -4    0.49    0.06
   5   3  -4    1.37    0.12
   5   3  -4    1.38    0.07
   5   3  -4    1.33    0.08
   5   3  -4    1.32    0.10
   5   3  -4    1.43    0.13
  -5  -3   4    1.18    0.08
   4   3  -4    3.95    0.15
   4   3  -4    3.97    0.18
   4   3  -4    3.72    0.12
   4   3  -4    3.77    0.27
   4   3  -4    3.91    0.11
  -4  -3   4    3.89    0.12
  -4  -3   4    3.75    0.16
  -4  -3   4    3.85    0.12
   3   3  -4    4.22    0.12
   3   3  -4    4.55    0.16
   3   3  -4    4.45    0.17
   3   3  -4    4.37    0.12
   3   3  -4    4.27    0.16
   3   3  -4    4.53    0.09
  -3  -3   4    4.14    0.12
  -3  -3   4    4.11    0.16
  -3  -3   4    4.46    0.12
   2   3  -4    0.51    0.05
   2   3  -4    0.59    0.05
   2   3  -4    0.71    0.07
   2   3  -4    0.60    0.05
   2   3  -4    0.47    0.06
   2   3  -4    0.57    0.06
  -2  -3   4    0.53    0.05
  -2  -3   4    0.50    0.07
  -2  -3   4    0.59    0.05
   1   3  -4    1.99    0.07
   1   3  -4    2.01    0.20
   1   3  -4    2.01    0.11
   1   3  -4    2.07    0.08
   1   3  -4    1.95    0.07
   1   3  -4    2.02    0.09
  -1  -3   4    2.07    0.31
  -1  -3   4    2.06    0.08
  -1  -3   4    2.11    0.09
  -1  -3   4    2.09    0.07
   0   3  -4   31.05    0.49
   0   3  -4   30.57    0.57
   0   3  -4   31.52    0.47
   0   3  -4   31.06    0.60
   0   3  -4   31.62    0.57
   0  -3   4   30.41    0.46
   0  -3   4   29.98    0.49
   0  -3   4   30.02    0.56
   0  -3   4   30.38    0.56
  -1   3  -4   40.33    0.76
  -1   3  -4   40.17    0.62
  -1   3  -4   42.35    0.72
   1  -3   4   39.91    0.62
   1  -3   4   41.83    0.58
   1  -3   4   39.45    0.60
   1  -3   4   39.79    0.73
   1  -3   4   41.03    0.65
  -2   3  -4    4.45    0.15
  -2   3  -4    4.38    0.16
  -2   3  -4    4.70    0.11
   2  -3   4    4.14    0.10
   2  -3   4    4.07    0.13
   2  -3   4    4.33    0.11
   2  -3   4    4.19    0.12
   2  -3   4    4.20    0.10
   2  -3   4    4.10    0.25
  -3   3  -4   16.03    0.32
  -3   3  -4   16.09    0.38
   3  -3   4   15.79    0.26
   3  -3   4   15.55    0.26
   3  -3   4   15.47    0.27
   3  -3   4   15.31    0.30
   3  -3   4   16.19    0.30
  -4   3  -4    2.53    0.11
  -4   3  -4    2.62    0.11
  -4   3  -4    2.76    0.15
  -4   3  -4    2.65    0.13
   4  -3   4    2.43    0.09
   4  -3   4    2.34    0.09
   4  -3   4    2.51    0.09
   4  -3   4    2.55    0.10
  -5   3  -4    0.03    0.05
  -5   3  -4    0.01    0.04
  -5   3  -4    0.02    0.02
  -5   3  -4    0.04    0.05
   5  -3   4   -0.03    0.03
   5  -3   4    0.02    0.03
   5  -3   4    0.03    0.03
   5  -3   4    0.03    0.02
  -6   3  -4    0.89    0.10
  -6   3  -4    0.73    0.11
   6  -3   4    0.74    0.07
   6  -3   4    0.91    0.09
  -7   3  -4    3.07    0.17
  -7   3  -4    2.79    0.20
   7  -3   4    3.03    0.12
  -8   3  -4    0.83    0.15
  -8   3  -4    0.72    0.11
   8  -3   4    0.73    0.08
  -9   3  -4   -0.09    0.08
  -9   3  -4    0.10    0.08
   9  -3   4    0.09    0.06
 -10   3  -4    0.41    0.12
  10  -3   4    0.25    0.08
  11  -3   4    2.24    0.15
  12  -3   4    0.04    0.08
  13   2  -4    0.19    0.11
  12   2  -4   -0.11    0.08
  11   2  -4   -0.06    0.07
  10   2  -4    0.17    0.08
  10   2  -4    0.01    0.09
   9   2  -4   -0.06    0.07
   9   2  -4   -0.01    0.05
   8   2  -4    0.12    0.05
   8   2  -4    0.02    0.07
   8   2  -4    0.03    0.07
   7   2  -4    5.10    0.13
   7   2  -4    5.03    0.19
   7   2  -4    4.98    0.23
   7   2  -4    4.97    0.17
   7   2  -4    4.93    0.25
  -7  -2   4    4.86    0.16
   6   2  -4    5.56    0.22
   6   2  -4    5.32    0.18
   6   2  -4    5.11    0.16
   6   2  -4    5.27    0.14
   6   2  -4    5.29    0.24
  -6  -2   4    5.25    0.15
   5   2  -4    0.56    0.08
   5   2  -4    0.55    0.08
   5   2  -4    0.48    0.07
   5   2  -4    0.61    0.06
   5   2  -4    0.53    0.05
  -5  -2   4    0.44    0.07
  -5  -2   4    0.58    0.06
  -5  -2   4    0.59    0.06
  -5  -2   4    0.60    0.06
   4   2  -4    0.74    0.08
   4   2  -4    0.64    0.08
   4   2  -4    0.74    0.06
   4   2  -4    0.79    0.04
   4   2  -4    0.82    0.14
   4   2  -4    0.77    0.06
  -4  -2   4    0.84    0.15
  -4  -2   4    0.76    0.06
  -4  -2   4    0.70    0.08
  -4  -2   4    0.80    0.06
   3   2  -4   43.34    0.85
   3   2  -4   45.99    0.79
   3   2  -4   42.56    0.68
   3   2  -4   43.24    0.66
   3   2  -4   43.83    0.64
   3   2  -4   42.66    0.81
  -3  -2   4   42.92    0.77
  -3  -2   4   44.84    0.66
  -3  -2   4   44.14    1.00
  -3  -2   4   43.68    0.68
   2   2  -4   22.14    0.49
   2   2  -4   22.58    0.46
   2   2  -4   23.08    0.44
   2   2  -4   22.70    0.36
   2   2  -4   21.57    0.37
  -2  -2   4   21.75    0.48
  -2  -2   4   22.28    0.36
  -2  -2   4   22.00    0.43
  -2  -2   4   22.26    0.38
  -2  -2   4   22.60    0.38
   1   2  -4   60.41    1.08
   1   2  -4   58.98    0.90
   1   2  -4   59.43    1.12
   1   2  -4   62.29    0.87
   1   2  -4   62.37    1.43
  -1  -2   4   61.90    0.92
  -1  -2   4   60.54    0.86
  -1  -2   4   59.36    0.90
  -1  -2   4   59.76    1.08
  -1  -2   4   59.53    1.26
   0   2  -4   22.15    0.43
   0   2  -4   22.25    0.42
   0   2  -4   21.45    0.40
   0   2  -4   21.98    0.35
   0  -2   4   21.52    0.40
   0  -2   4   20.91    0.66
   0  -2   4   21.87    0.37
   0  -2   4   21.33    0.35
  -1   2  -4    9.88    0.40
  -1   2  -4    9.66    0.23
   1  -2   4    9.47    0.17
   1  -2   4    9.64    0.20
   1  -2   4    9.48    0.17
   1  -2   4    9.42    0.17
   1  -2   4    9.23    0.21
  -2   2  -4   14.23    0.31
  -2   2  -4   14.01    0.32
   2  -2   4   13.50    0.23
   2  -2   4   13.97    0.26
   2  -2   4   14.13    0.29
   2  -2   4   13.46    0.28
  -3   2  -4   50.96    0.96
  -3   2  -4   52.06    0.98
  -3   2  -4   51.58    0.96
   3  -2   4   51.66    0.86
   3  -2   4   51.60    0.79
   3  -2   4   48.77    0.72
   3  -2   4   50.04    0.85
  -4   2  -4    5.95    0.26
  -4   2  -4    5.78    0.18
  -4   2  -4    5.71    0.21
   4  -2   4    5.66    0.12
   4  -2   4    5.61    0.15
   4  -2   4    5.99    0.18
   4  -2   4    5.86    0.15
   4  -2   4    5.77    0.17
  -5   2  -4    3.66    0.20
  -5   2  -4    3.69    0.18
  -5   2  -4    3.53    0.11
   5  -2   4    3.46    0.11
   5  -2   4    3.71    0.15
   5  -2   4    3.54    0.10
  -6   2  -4    0.75    0.12
  -6   2  -4    0.65    0.09
   6  -2   4    0.70    0.08
   6  -2   4    0.84    0.06
  -7   2  -4    0.89    0.14
  -7   2  -4    0.85    0.11
   7  -2   4    0.78    0.07
  -8   2  -4    0.34    0.09
  -8   2  -4    0.33    0.10
   8  -2   4    0.27    0.06
  -9   2  -4    0.13    0.10
  -9   2  -4    0.26    0.10
   9  -2   4    0.22    0.06
  10  -2   4    1.42    0.13
  11  -2   4    0.06    0.08
  12  -2   4   -0.04    0.09
  13   1  -4   -0.07    0.09
  12   1  -4   -0.06    0.09
  11   1  -4    0.10    0.08
  10   1  -4    0.04    0.09
  10   1  -4    0.14    0.07
   9   1  -4   -0.06    0.06
   9   1  -4    0.05    0.08
   9   1  -4    0.01    0.05
   8   1  -4    0.21    0.04
   8   1  -4    0.06    0.08
   8   1  -4    0.32    0.05
   8   1  -4    0.17    0.06
   8   1  -4    0.27    0.09
  -8  -1   4    0.26    0.07
   7   1  -4    1.07    0.09
   7   1  -4    0.89    0.13
   7   1  -4    1.10    0.13
   7   1  -4    1.04    0.08
  -7  -1   4    0.90    0.08
   6   1  -4    0.06    0.09
   6   1  -4    0.20    0.06
   6   1  -4    0.12    0.04
   6   1  -4    0.16    0.04
   6   1  -4    0.08    0.05
  -6  -1   4    0.22    0.06
  -6  -1   4    0.11    0.05
   5   1  -4    6.15    0.23
   5   1  -4    6.51    0.12
   5   1  -4    6.39    0.20
   5   1  -4    6.34    0.21
   5   1  -4    6.47    0.16
   5   1  -4    6.39    0.16
  -5  -1   4    6.41    0.14
  -5  -1   4    6.75    0.17
  -5  -1   4    6.25    0.20
  -5  -1   4    6.34    0.16
   4   1  -4    7.87    0.36
   4   1  -4    8.10    0.18
   4   1  -4    8.42    0.17
   4   1  -4    8.44    0.23
   4   1  -4    7.90    0.18
   4   1  -4    8.10    0.25
  -4  -1   4    8.29    0.19
  -4  -1   4    7.73    0.36
  -4  -1   4    7.90    0.17
  -4  -1   4    8.24    0.32
   3   1  -4    0.04    0.04
   3   1  -4   -0.03    0.04
   3   1  -4    0.02    0.03
   3   1  -4    0.00    0.02
   3   1  -4   -0.03    0.08
  -3  -1   4   -0.02    0.04
  -3  -1   4   -0.03    0.02
  -3  -1   4    0.02    0.02
  -3  -1   4    0.01    0.03
   2   1  -4   74.25    1.12
   2   1  -4   76.74    1.38
   2   1  -4   74.27    1.31
   2   1  -4   77.26    1.08
   2   1  -4   77.48    1.25
  -2  -1   4   75.46    1.37
  -2  -1   4   74.60    1.35
  -2  -1   4   75.71    1.12
  -2  -1   4   75.79    1.11
  -2  -1   4   76.06    1.08
   1   1  -4   14.44    0.25
   1   1  -4   14.12    0.33
   1   1  -4   14.81    0.31
   1   1  -4   14.72    0.50
  -1  -1   4   14.37    0.48
  -1  -1   4   14.63    0.29
  -1  -1   4   13.88    0.29
  -1  -1   4   14.46    0.23
  -1  -1   4   14.17    0.26
   0   1  -4   11.61    0.24
   0   1  -4   11.24    0.40
   0   1  -4   11.27    0.25
   0  -1   4   11.09    0.19
   0  -1   4   11.50    0.22
   0  -1   4   11.23    0.19
   0  -1   4   11.22    0.19
   0  -1   4   11.12    0.24
  -1   1  -4    6.30    0.16
  -1   1  -4    6.05    0.17
   1  -1   4    6.09    0.11
   1  -1   4    6.00    0.16
   1  -1   4    6.20    0.15
   1  -1   4    6.20    0.16
  -2   1  -4   29.85    0.52
  -2   1  -4   29.36    0.55
  -2   1  -4   29.17    0.57
   2  -1   4   28.47    0.52
   2  -1   4   27.90    0.52
   2  -1   4   29.43    0.48
   2  -1   4   28.25    0.41
  -3   1  -4    1.89    0.11
  -3   1  -4    2.05    0.09
  -3   1  -4    2.06    0.09
  -3   1  -4    1.89    0.09
   3  -1   4    1.91    0.08
   3  -1   4    1.97    0.10
   3  -1   4    1.98    0.05
   3  -1   4    2.00    0.08
  -4   1  -4    0.91    0.10
  -4   1  -4    0.95    0.07
  -4   1  -4    0.78    0.06
   4  -1   4    0.96    0.08
   4  -1   4    0.86    0.04
   4  -1   4    0.89    0.06
   4  -1   4    0.92    0.04
  -5   1  -4    0.20    0.07
  -5   1  -4    0.32    0.05
  -5   1  -4    0.32    0.05
   5  -1   4    0.28    0.05
   5  -1   4    0.31    0.06
   5  -1   4    0.30    0.03
  -6   1  -4    2.23    0.17
   6  -1   4    2.26    0.08
  -7   1  -4    2.72    0.19
  -7   1  -4    2.82    0.16
   7  -1   4    2.48    0.10
  -8   1  -4    0.10    0.08
  -8   1  -4    0.18    0.08
   8  -1   4    0.19    0.05
  -9   1  -4    0.38    0.13
   9  -1   4    0.29    0.06
  10  -1   4    0.00    0.07
  11  -1   4    0.08    0.08
  12  -1   4    0.13    0.10
  13   0  -4    0.02    0.09
  12   0  -4   -0.08    0.08
  11   0  -4    0.09    0.08
  10   0  -4    0.94    0.15
  10   0  -4    1.24    0.13
   9   0  -4    0.18    0.06
   9   0  -4    0.04    0.08
   9   0  -4    0.11    0.06
   9   0  -4    0.11    0.08
   9   0  -4    0.13    0.05
  -9   0   4    0.11    0.07
   8   0  -4    2.11    0.13
   8   0  -4    2.35    0.17
   8   0  -4    1.68    0.17
   8   0  -4    2.13    0.10
  -8   0   4    1.96    0.13
   7   0  -4    1.99    0.11
   7   0  -4    2.01    0.14
   7   0  -4    2.17    0.17
   7   0  -4    2.10    0.10
  -7   0   4    2.12    0.12
   6   0  -4    3.65    0.12
   6   0  -4    3.58    0.13
   6   0  -4    3.58    0.15
   6   0  -4    3.75    0.09
   6   0  -4    3.63    0.16
   6   0  -4    3.67    0.19
  -6   0   4    3.75    0.14
  -6   0   4    3.67    0.12
  -6   0   4    3.65    0.12
  -6   0   4    3.71    0.13
   5   0  -4   24.85    0.51
   5   0  -4   24.39    0.43
   5   0  -4   24.81    0.57
   5   0  -4   24.52    0.39
   5   0  -4   24.21    0.48
   5   0  -4   24.46    0.42
  -5   0   4   24.15    0.44
  -5   0   4   23.60    0.46
  -5   0   4   24.37    0.39
  -5   0   4   24.63    0.42
   4   0  -4   12.21    0.33
   4   0  -4   12.18    0.24
   4   0  -4   12.47    0.28
   4   0  -4   12.25    0.23
   4   0  -4   11.91    0.28
   4   0  -4   12.04    0.24
  -4   0   4   12.03    0.22
  -4   0   4   12.38    0.23
  -4   0   4   11.50    0.26
  -4   0   4   11.69    0.24
   3   0  -4   12.56    0.31
   3   0  -4   12.65    0.32
   3   0  -4   12.35    0.23
   3   0  -4   12.01    0.28
   3   0  -4   12.04    0.24
  -3   0   4   12.75    0.23
  -3   0   4   12.38    0.23
  -3   0   4   12.38    0.24
  -3   0   4   11.99    0.26
   2   0  -4    5.69    0.13
   2   0  -4    5.88    0.13
   2   0  -4    5.77    0.18
   2   0  -4    5.24    0.13
   2   0  -4    5.77    0.18
  -2   0   4    5.45    0.14
  -2   0   4    5.92    0.13
  -2   0   4    5.91    0.12
  -2   0   4    5.61    0.17
  -2   0   4    5.68    0.13
  -2   0   4    5.63    0.14
  -2   0   4    5.65    0.15
   1   0  -4   63.93    1.41
   1   0  -4   64.59    1.06
   1   0  -4   64.20    1.08
   1   0  -4   63.45    0.93
  -1   0   4   62.68    1.14
  -1   0   4   64.05    1.08
  -1   0   4   62.40    0.92
  -1   0   4   63.05    1.05
  -1   0   4   62.85    0.90
  -1   0   4   62.56    0.92
   0   0  -4  102.70    1.62
   0   0  -4   99.44    1.69
   0   0  -4   99.15    1.75
   0   0   4   99.48    1.70
   0   0   4  102.59    1.55
   0   0   4   97.31    1.37
   0   0   4   98.56    1.48
  -1   0  -4    0.81    0.06
  -1   0  -4    0.80    0.06
   1   0   4    0.74    0.06
   1   0   4    0.69    0.05
   1   0   4    0.72    0.03
   1   0   4    0.79    0.09
  -2   0  -4    0.25    0.04
  -2   0  -4    0.36    0.05
  -2   0  -4    0.23    0.04
  -2   0  -4    0.27    0.04
   2   0   4    0.30    0.04
   2   0   4    0.29    0.05
   2   0   4    0.30    0.04
  -3   0  -4    0.29    0.06
  -3   0  -4    0.39    0.05
  -3   0  -4    0.32    0.05
   3   0   4    0.38    0.08
   3   0   4    0.33    0.05
  -4   0  -4    3.81    0.38
  -4   0  -4    3.87    0.14
  -4   0  -4    3.82    0.14
   4   0   4    3.74    0.15
   4   0   4    3.93    0.13
  -5   0  -4    1.36    0.09
  -5   0  -4    0.92    0.22
   5   0   4    1.05    0.10
  -6   0  -4    2.70    0.51
   6   0   4    2.80    0.15
   6   0   4    2.79    0.08
  -7   0  -4    0.84    0.13
  -7   0  -4    0.86    0.10
   7   0   4    0.74    0.06
  -8   0  -4    0.54    0.11
   8   0   4    0.41    0.06
   9   0   4    0.04    0.05
  10   0   4    0.22    0.07
  11   0   4    0.15    0.08
  13  -1  -4    0.40    0.13
  12  -1  -4    0.11    0.09
  11  -1  -4    0.11    0.10
  11  -1  -4    0.08    0.08
 -11   1   4   -0.05    0.09
  10  -1  -4    0.06    0.07
  10  -1  -4    0.09    0.05
  10  -1  -4    0.01    0.07
  10  -1  -4    0.02    0.09
 -10   1   4    0.03    0.07
   9  -1  -4    1.75    0.16
   9  -1  -4    1.85    0.13
   9  -1  -4    1.93    0.11
   9  -1  -4    1.81    0.19
  -9   1   4    2.02    0.14
   8  -1  -4   -0.02    0.07
   8  -1  -4    0.05    0.04
   8  -1  -4    0.02    0.05
   8  -1  -4    0.06    0.10
  -8   1   4    0.06    0.06
   7  -1  -4    2.03    0.17
   7  -1  -4    2.22    0.12
   7  -1  -4    2.03    0.13
   7  -1  -4    2.06    0.10
  -7   1   4    2.18    0.11
  -7   1   4    2.14    0.12
  -7   1   4    2.20    0.14
   6  -1  -4    6.03    0.20
   6  -1  -4    5.92    0.19
   6  -1  -4    5.86    0.40
   6  -1  -4    5.79    0.15
   6  -1  -4    5.96    0.17
   6  -1  -4    6.10    0.17
  -6   1   4    5.88    0.21
  -6   1   4    5.74    0.16
  -6   1   4    5.96    0.17
  -6   1   4    5.83    0.17
   5  -1  -4    0.17    0.07
   5  -1  -4    0.07    0.05
   5  -1  -4    0.10    0.03
   5  -1  -4    0.20    0.04
   5  -1  -4    0.16    0.04
   5  -1  -4    0.10    0.04
  -5   1   4    0.23    0.05
  -5   1   4    0.10    0.03
  -5   1   4    0.11    0.04
  -5   1   4    0.15    0.04
  -5   1   4    0.11    0.03
   4  -1  -4    3.91    0.18
   4  -1  -4    4.02    0.12
   4  -1  -4    4.12    0.12
   4  -1  -4    4.02    0.12
   4  -1  -4    4.01    0.18
  -4   1   4    3.83    0.12
  -4   1   4    4.04    0.12
  -4   1   4    3.98    0.12
  -4   1   4    4.10    0.13
  -4   1   4    4.00    0.11
  -4   1   4    4.10    0.13
   3  -1  -4   18.95    0.34
   3  -1  -4   19.09    0.36
   3  -1  -4   19.87    0.39
   3  -1  -4   20.11    0.45
   3  -1  -4   20.16    0.33
  -3   1   4   19.57    0.32
  -3   1   4   19.38    0.36
  -3   1   4   20.23    0.37
  -3   1   4   18.91    0.34
  -3   1   4   19.22    0.38
  -3   1   4   19.36    0.34
  -3   1   4   19.47    0.33
  -3   1   4   19.25    0.34
   2  -1  -4   28.39    0.45
   2  -1  -4   28.06    0.51
   2  -1  -4   28.18    0.69
  -2   1   4   27.42    0.46
  -2   1   4   27.66    0.44
  -2   1   4   27.60    0.43
  -2   1   4   27.21    0.51
  -2   1   4   27.25    0.49
   1  -1  -4    1.78    0.13
   1  -1  -4    1.76    0.09
  -1   1   4    1.81    0.06
  -1   1   4    1.86    0.05
  -1   1   4    1.77    0.08
  -1   1   4    1.78    0.06
  -1   1   4    1.79    0.19
  -1   1   4    1.87    0.09
   0  -1  -4    0.15    0.03
   0  -1  -4    0.18    0.03
   0  -1  -4    0.09    0.03
   0   1   4    0.15    0.03
   0   1   4    0.16    0.02
   0   1   4    0.14    0.03
   0   1   4    0.21    0.04
  -1  -1  -4    2.07    0.10
  -1  -1  -4    2.07    0.09
  -1  -1  -4    2.13    0.10
   1   1   4    2.05    0.10
   1   1   4    2.09    0.09
  -2  -1  -4   15.97    0.34
  -2  -1  -4   15.80    0.36
  -2  -1  -4   15.59    0.35
   2   1   4   15.73    0.32
   2   1   4   15.77    0.34
  -3  -1  -4    5.43    0.20
  -3  -1  -4    5.53    0.18
   3   1   4    5.34    0.16
   3   1   4    5.51    0.18
  -4  -1  -4    0.40    0.08
  -4  -1  -4    0.46    0.06
   4   1   4    0.45    0.07
  -5  -1  -4    0.19    0.07
  -5  -1  -4    0.10    0.04
   5   1   4    0.02    0.05
  -6  -1  -4    2.37    0.18
   6   1   4    2.25    0.14
  -7  -1  -4    0.24    0.08
  -8  -1  -4    0.24    0.09
   8   1   4    0.10    0.04
   9   1   4   -0.03    0.05
  10   1   4    0.14    0.06
  11   1   4    0.00    0.07
  14  -2  -4    0.23    0.11
 -14   2   4   -0.21    0.14
  13  -2  -4   -0.05    0.09
 -13   2   4    0.05    0.13
  12  -2  -4    0.14    0.09
 -12   2   4    0.07    0.11
  11  -2  -4    0.98    0.13
  11  -2  -4    1.24    0.11
 -11   2   4    1.12    0.14
  10  -2  -4    2.37    0.13
  10  -2  -4    2.13    0.16
 -10   2   4    2.51    0.19
 -10   2   4    2.23    0.17
   9  -2  -4    1.51    0.15
   9  -2  -4    1.41    0.17
   9  -2  -4    1.72    0.13
   9  -2  -4    1.76    0.12
  -9   2   4    1.59    0.14
   8  -2  -4    0.68    0.10
   8  -2  -4    0.41    0.11
   8  -2  -4    0.59    0.07
   8  -2  -4    0.73    0.09
  -8   2   4    0.56    0.09
  -8   2   4    0.59    0.09
   7  -2  -4    1.76    0.12
   7  -2  -4    1.55    0.17
   7  -2  -4    1.69    0.10
   7  -2  -4    1.76    0.11
   7  -2  -4    1.68    0.09
  -7   2   4    1.90    0.12
  -7   2   4    1.64    0.11
  -7   2   4    1.75    0.12
  -7   2   4    1.92    0.12
   6  -2  -4    0.11    0.04
   6  -2  -4    0.10    0.05
   6  -2  -4    0.09    0.08
   6  -2  -4    0.05    0.04
   6  -2  -4    0.06    0.04
   6  -2  -4    0.02    0.05
  -6   2   4    0.00    0.04
  -6   2   4    0.18    0.05
  -6   2   4    0.15    0.05
  -6   2   4    0.03    0.05
  -6   2   4    0.10    0.03
   5  -2  -4    4.58    0.14
   5  -2  -4    4.46    0.22
   5  -2  -4    4.41    0.14
   5  -2  -4    4.41    0.29
   5  -2  -4    4.50    0.14
   5  -2  -4    4.58    0.14
  -5   2   4    4.67    0.15
  -5   2   4    4.53    0.14
  -5   2   4    4.54    0.21
  -5   2   4    4.55    0.12
  -5   2   4    4.55    0.15
  -5   2   4    4.67    0.16
   4  -2  -4    1.11    0.08
   4  -2  -4    0.79    0.08
   4  -2  -4    1.32    0.14
   4  -2  -4    0.98    0.07
  -4   2   4    1.01    0.07
  -4   2   4    1.02    0.06
  -4   2   4    0.98    0.07
  -4   2   4    0.97    0.08
  -4   2   4    1.05    0.18
  -4   2   4    1.01    0.07
   3  -2  -4   26.59    0.42
   3  -2  -4   25.74    0.44
   3  -2  -4   26.09    0.57
   3  -2  -4   26.82    0.50
  -3   2   4   25.96    0.48
  -3   2   4   25.77    0.42
  -3   2   4   26.30    0.39
  -3   2   4   25.55    0.50
  -3   2   4   25.63    0.45
  -3   2   4   25.57    0.43
   2  -2  -4    2.01    0.10
   2  -2  -4    2.24    0.08
   2  -2  -4    2.29    0.14
  -2   2   4    2.37    0.10
  -2   2   4    2.24    0.08
  -2   2   4    2.11    0.10
  -2   2   4    2.01    0.09
  -2   2   4    2.22    0.07
  -2   2   4    2.20    0.07
   1  -2  -4   27.33    0.56
   1  -2  -4   26.73    0.52
   1  -2  -4   26.97    0.52
  -1   2   4   26.76    0.50
  -1   2   4   25.88    0.47
  -1   2   4   26.90    0.41
   0  -2  -4    2.37    0.09
   0  -2  -4    2.54    0.12
   0   2   4    2.69    0.11
   0   2   4    2.48    0.10
   0   2   4    2.47    0.07
  -1  -2  -4    8.19    0.23
   1   2   4    8.10    0.21
   1   2   4    7.88    0.22
   1   2   4    7.84    0.20
  -2  -2  -4    4.29    0.16
   2   2   4    4.23    0.15
   2   2   4    4.22    0.15
  -3  -2  -4    0.11    0.04
   3   2   4    0.07    0.05
   3   2   4    0.12    0.04
  -4  -2  -4    0.04    0.04
   4   2   4    0.07    0.05
   4   2   4    0.03    0.05
  -5  -2  -4    1.87    0.13
   5   2   4    1.56    0.15
   5   2   4    1.78    0.13
  -6  -2  -4    0.02    0.05
  -7  -2  -4    0.27    0.07
   8   2   4   -0.01    0.04
   9   2   4    0.29    0.06
  10   2   4    0.12    0.06
  14  -3  -4   -0.05    0.10
 -14   3   4    0.07    0.14
  13  -3  -4    0.53    0.13
 -13   3   4    0.49    0.15
  12  -3  -4   -0.09    0.08
  12  -3  -4   -0.09    0.05
 -12   3   4    0.12    0.12
  11  -3  -4    0.48    0.08
  11  -3  -4    0.41    0.08
  11  -3  -4    0.41    0.10
 -11   3   4    0.65    0.13
 -11   3   4    0.46    0.12
  10  -3  -4    0.13    0.06
  10  -3  -4   -0.08    0.06
 -10   3   4    0.26    0.08
 -10   3   4    0.08    0.08
   9  -3  -4   -0.18    0.08
   9  -3  -4    0.02    0.05
   9  -3  -4    0.03    0.07
  -9   3   4   -0.03    0.06
  -9   3   4    0.01    0.07
  -9   3   4   -0.04    0.07
   8  -3  -4   -0.09    0.04
   8  -3  -4   -0.10    0.08
   8  -3  -4   -0.11    0.05
   8  -3  -4   -0.04    0.05
  -8   3   4   -0.01    0.11
  -8   3   4    0.03    0.06
  -8   3   4    0.00    0.06
  -8   3   4   -0.05    0.04
   7  -3  -4    1.31    0.11
   7  -3  -4    1.49    0.10
   7  -3  -4    1.35    0.10
   7  -3  -4    1.35    0.16
  -7   3   4    1.45    0.12
  -7   3   4    1.47    0.12
  -7   3   4    1.37    0.13
   6  -3  -4    9.79    0.39
   6  -3  -4    9.99    0.24
   6  -3  -4    9.78    0.23
   6  -3  -4    9.73    0.23
   6  -3  -4   10.02    0.35
   6  -3  -4    9.41    0.24
  -6   3   4   10.00    0.27
  -6   3   4    9.70    0.23
  -6   3   4    9.56    0.26
  -6   3   4    9.56    0.51
  -6   3   4    9.74    0.23
  -6   3   4    9.52    0.24
   5  -3  -4   -0.02    0.05
   5  -3  -4    0.03    0.03
   5  -3  -4   -0.04    0.02
   5  -3  -4    0.00    0.08
   5  -3  -4    0.05    0.04
  -5   3   4    0.03    0.04
  -5   3   4    0.03    0.03
  -5   3   4   -0.01    0.03
  -5   3   4   -0.03    0.04
  -5   3   4    0.02    0.02
  -5   3   4   -0.01    0.03
   4  -3  -4    1.14    0.07
   4  -3  -4    1.29    0.08
   4  -3  -4    1.25    0.09
   4  -3  -4    1.39    0.16
   4  -3  -4    1.11    0.08
  -4   3   4    1.18    0.09
  -4   3   4    1.11    0.06
  -4   3   4    1.22    0.07
  -4   3   4    1.10    0.08
  -4   3   4    1.18    0.08
   3  -3  -4    8.29    0.18
   3  -3  -4    8.22    0.19
   3  -3  -4    8.15    0.27
   3  -3  -4    8.19    0.22
  -3   3   4    7.92    0.18
  -3   3   4    8.00    0.18
   2  -3  -4    3.83    0.15
   2  -3  -4    3.63    0.11
   2  -3  -4    3.98    0.21
  -2   3   4    3.65    0.11
  -2   3   4    3.78    0.14
  -2   3   4    3.52    0.09
  -2   3   4    3.71    0.10
   1  -3  -4   24.61    0.50
  -1   3   4   24.31    0.39
  -1   3   4   24.81    0.48
   0  -3  -4    4.09    0.16
   0   3   4    4.22    0.16
   0   3   4    3.89    0.12
   0   3   4    3.90    0.09
  -1  -3  -4    1.30    0.30
   1   3   4    1.15    0.09
   1   3   4    1.25    0.05
   1   3   4    1.13    0.04
   1   3   4    1.14    0.08
  -2  -3  -4    5.81    0.33
   2   3   4    5.83    0.19
   2   3   4    5.66    0.19
  -3  -3  -4    1.93    0.39
   3   3   4    1.61    0.12
   3   3   4    1.59    0.11
  -4  -3  -4    2.68    0.16
   4   3   4    2.48    0.16
   4   3   4    2.57    0.15
  -5  -3  -4    1.00    0.11
   5   3   4    0.91    0.11
   5   3   4    0.94    0.13
   6   3   4    0.34    0.10
   9   3   4    0.00    0.05
  10   3   4    0.07    0.06
 -14   4   4    0.37    0.16
  13  -4  -4    0.51    0.08
 -13   4   4    0.54    0.15
  12  -4  -4   -0.10    0.06
  12  -4  -4   -0.01    0.16
 -12   4   4    0.01    0.12
  11  -4  -4    0.46    0.09
 -11   4   4    0.61    0.13
  10  -4  -4    3.30    0.17
 -10   4   4    2.84    0.18
 -10   4   4    2.96    0.20
   9  -4  -4    6.78    0.35
   9  -4  -4    7.06    0.18
   9  -4  -4    8.09    0.24
  -9   4   4    7.62    0.28
  -9   4   4    7.25    0.24
   8  -4  -4   -0.06    0.11
   8  -4  -4    0.12    0.06
   8  -4  -4    0.05    0.05
  -8   4   4   -0.05    0.06
  -8   4   4    0.03    0.07
  -8   4   4   -0.02    0.05
   7  -4  -4    0.23    0.12
   7  -4  -4    0.23    0.06
   7  -4  -4    0.19    0.06
  -7   4   4    0.22    0.07
  -7   4   4    0.26    0.07
  -7   4   4    0.21    0.07
   6  -4  -4    0.36    0.06
   6  -4  -4    0.44    0.06
   6  -4  -4    0.40    0.07
   6  -4  -4    0.39    0.12
  -6   4   4    0.37    0.06
  -6   4   4    0.41    0.07
  -6   4   4    0.37    0.06
  -6   4   4    0.47    0.08
   5  -4  -4    0.96    0.08
   5  -4  -4    0.83    0.08
   5  -4  -4    0.78    0.13
   5  -4  -4    0.91    0.09
  -5   4   4    1.08    0.08
  -5   4   4    0.87    0.07
  -5   4   4    0.91    0.08
  -5   4   4    1.01    0.10
   4  -4  -4    4.51    0.24
   4  -4  -4    4.45    0.16
   4  -4  -4    4.50    0.15
   4  -4  -4    4.30    0.14
  -4   4   4    4.36    0.09
  -4   4   4    4.46    0.17
  -4   4   4    4.49    0.14
  -4   4   4    4.47    0.14
   3  -4  -4    2.13    0.17
   3  -4  -4    2.27    0.10
   3  -4  -4    2.25    0.12
   3  -4  -4    2.16    0.09
  -3   4   4    2.25    0.09
  -3   4   4    2.25    0.09
  -3   4   4    2.08    0.12
   2  -4  -4    0.14    0.05
   2  -4  -4    0.09    0.07
  -2   4   4    0.13    0.03
  -2   4   4    0.11    0.04
  -2   4   4    0.10    0.03
  -2   4   4    0.12    0.03
   1  -4  -4    0.45    0.08
  -1   4   4    0.27    0.05
  -1   4   4    0.36    0.04
   0  -4  -4    1.88    0.30
   0   4   4    1.96    0.10
   0   4   4    1.86    0.11
   0   4   4    1.94    0.07
  -1  -4  -4    2.67    0.23
   1   4   4    2.13    0.13
   1   4   4    2.38    0.13
   1   4   4    2.41    0.07
  -2  -4  -4    0.93    0.14
   2   4   4    0.84    0.10
   2   4   4    0.82    0.04
   2   4   4    0.96    0.25
  -3  -4  -4    1.67    0.21
   3   4   4    1.66    0.13
   3   4   4    1.65    0.13
   4   4   4    1.41    0.13
   4   4   4    1.41    0.14
   5   4   4    3.35    0.21
   6   4   4    0.28    0.10
 -14   5   4   -0.02    0.12
 -13   5   4    0.14    0.13
  12  -5  -4    0.11    0.08
  12  -5  -4   -0.05    0.08
 -12   5   4    0.10    0.11
  11  -5  -4    0.04    0.07
 -11   5   4    0.13    0.10
 -11   5   4    0.15    0.11
  10  -5  -4   -0.02    0.06
 -10   5   4   -0.06    0.08
 -10   5   4    0.03    0.09
   9  -5  -4    0.00    0.06
   9  -5  -4   -0.02    0.06
   9  -5  -4   -0.27    0.11
  -9   5   4    0.03    0.07
  -9   5   4    0.10    0.08
  -9   5   4   -0.01    0.06
   8  -5  -4   13.97    0.32
   8  -5  -4   14.21    0.51
   8  -5  -4   14.94    0.36
  -8   5   4   14.26    0.33
  -8   5   4   13.96    0.39
  -8   5   4   15.01    0.36
   7  -5  -4   -0.04    0.18
   7  -5  -4   -0.01    0.04
   7  -5  -4    0.10    0.06
  -7   5   4   -0.03    0.06
  -7   5   4    0.09    0.06
  -7   5   4   -0.07    0.05
   6  -5  -4    1.93    0.22
   6  -5  -4    1.88    0.12
   6  -5  -4    2.30    0.13
   6  -5  -4    1.89    0.13
  -6   5   4    1.81    0.14
  -6   5   4    2.08    0.11
  -6   5   4    2.05    0.11
  -6   5   4    2.10    0.12
   5  -5  -4    5.58    0.20
   5  -5  -4    5.57    0.29
   5  -5  -4    5.62    0.18
   5  -5  -4    5.82    0.18
  -5   5   4    5.76    0.22
  -5   5   4    5.66    0.17
  -5   5   4    5.58    0.13
   4  -5  -4   13.38    0.28
   4  -5  -4   13.25    0.34
   4  -5  -4   13.56    0.42
  -4   5   4   13.29    0.29
  -4   5   4   13.52    0.35
  -4   5   4   13.41    0.28
   3  -5  -4    4.21    0.14
   3  -5  -4    4.22    0.23
   3  -5  -4    4.12    0.17
  -3   5   4    4.05    0.12
  -3   5   4    4.16    0.14
  -3   5   4    4.07    0.17
   2  -5  -4    1.99    0.17
   2  -5  -4    1.88    0.14
  -2   5   4    1.83    0.12
  -2   5   4    1.82    0.09
   1  -5  -4    0.27    0.11
  -1   5   4    0.23    0.04
  -1   5   4    0.17    0.06
   0  -5  -4    1.08    0.30
   0   5   4    1.03    0.10
   0   5   4    0.97    0.06
  -1  -5  -4    7.86    0.33
   1   5   4    7.80    0.17
   1   5   4    7.74    0.25
   2   5   4    9.10    0.28
   2   5   4    9.15    0.18
   3   5   4    0.67    0.10
   3   5   4    0.69    0.05
 -13   6   4    0.02    0.11
  12  -6  -4    0.33    0.09
 -12   6   4    0.36    0.12
 -12   6   4    0.28    0.13
  11  -6  -4    0.73    0.12
 -11   6   4    0.62    0.14
 -11   6   4    0.63    0.12
  10  -6  -4    0.42    0.09
  10  -6  -4    0.32    0.08
 -10   6   4    0.36    0.10
 -10   6   4    0.27    0.11
   9  -6  -4    2.42    0.16
   9  -6  -4    2.15    0.14
  -9   6   4    2.15    0.19
  -9   6   4    2.08    0.16
  -9   6   4    2.05    0.16
   8  -6  -4    0.85    0.10
   8  -6  -4    1.09    0.12
   8  -6  -4    0.59    0.17
  -8   6   4    0.85    0.11
  -8   6   4    0.92    0.13
  -8   6   4    0.95    0.10
   7  -6  -4    5.64    0.21
   7  -6  -4    4.76    0.33
   7  -6  -4    5.22    0.20
  -7   6   4    5.50    0.23
  -7   6   4    5.07    0.20
  -7   6   4    5.15    0.17
   6  -6  -4    3.06    0.15
   6  -6  -4    2.73    0.15
   6  -6  -4    2.26    0.25
  -6   6   4    2.86    0.17
  -6   6   4    2.87    0.10
  -6   6   4    2.58    0.14
  -6   6   4    2.94    0.14
   5  -6  -4    0.64    0.13
   5  -6  -4    0.59    0.08
   5  -6  -4    0.75    0.09
  -5   6   4    0.72    0.08
  -5   6   4    0.59    0.09
  -5   6   4    0.65    0.08
   4  -6  -4    0.18    0.06
   4  -6  -4    0.12    0.09
   4  -6  -4    0.03    0.05
  -4   6   4    0.15    0.04
  -4   6   4    0.10    0.04
  -4   6   4    0.08    0.05
   3  -6  -4    0.77    0.13
   3  -6  -4    0.68    0.09
  -3   6   4    0.84    0.08
  -3   6   4    0.77    0.06
  -3   6   4    0.68    0.10
   2  -6  -4    2.16    0.20
   2  -6  -4    1.88    0.17
  -2   6   4    2.30    0.14
  -2   6   4    2.28    0.11
   1  -6  -4    5.68    0.43
  -1   6   4    5.50    0.16
  -1   6   4    5.90    0.23
   0   6   4    1.95    0.14
   0   6   4    1.93    0.09
   1   6   4    0.59    0.10
   1   6   4    0.60    0.06
   2   6   4    0.21    0.04
   2   6   4    0.13    0.07
   3   6   4    0.16    0.04
   4   6   4    0.10    0.04
 -13   7   4    0.00    0.23
  12  -7  -4    0.30    0.10
 -12   7   4    0.16    0.12
 -12   7   4    0.26    0.21
  11  -7  -4   -0.02    0.07
 -11   7   4   -0.06    0.17
 -11   7   4   -0.07    0.09
  10  -7  -4    0.26    0.09
  10  -7  -4    0.28    0.08
 -10   7   4    0.22    0.11
 -10   7   4    0.25    0.09
 -10   7   4    0.21    0.09
   9  -7  -4    0.77    0.12
   9  -7  -4    0.62    0.10
  -9   7   4    0.80    0.10
  -9   7   4    0.89    0.12
  -9   7   4    0.90    0.14
   8  -7  -4    3.70    0.18
   8  -7  -4    3.67    0.18
  -8   7   4    3.76    0.15
  -8   7   4    3.74    0.22
  -8   7   4    3.71    0.19
   7  -7  -4    0.95    0.19
   7  -7  -4    1.03    0.12
  -7   7   4    0.94    0.13
  -7   7   4    1.02    0.11
   6  -7  -4    1.64    0.20
   6  -7  -4    2.18    0.15
   6  -7  -4    2.57    0.15
  -6   7   4    2.20    0.13
  -6   7   4    2.44    0.14
  -6   7   4    2.52    0.17
   5  -7  -4    1.23    0.12
   5  -7  -4    0.88    0.10
   5  -7  -4    1.11    0.17
  -5   7   4    1.00    0.10
  -5   7   4    1.22    0.14
  -5   7   4    0.93    0.10
   4  -7  -4    7.86    0.22
   4  -7  -4    8.27    0.28
   4  -7  -4    7.95    0.35
  -4   7   4    8.17    0.20
  -4   7   4    8.04    0.23
  -4   7   4    7.87    0.28
   3  -7  -4    0.17    0.10
  -3   7   4    0.22    0.05
  -3   7   4    0.19    0.07
   2  -7  -4    9.43    0.47
  -2   7   4    9.01    0.30
  -2   7   4    9.02    0.23
  -1   7   4    1.70    0.40
  -1   7   4    1.66    0.10
   0   7   4    1.75    0.10
   0   7   4    1.78    0.15
   1   7   4    0.00    0.04
   1   7   4   -0.02    0.06
   2   7   4    2.29    0.11
   3   7   4    0.44    0.06
   3   7   4    0.64    0.07
   4   7   4    0.09    0.05
   5   7   4    0.12    0.05
   6   7   4   -0.04    0.05
 -13   8   4    0.41    0.13
 -13   8   4    0.02    0.11
 -12   8   4   -0.08    0.10
 -12   8   4   -0.08    0.10
  11  -8  -4    0.22    0.10
 -11   8   4    0.26    0.10
 -11   8   4    0.21    0.10
 -11   8   4    0.22    0.12
  10  -8  -4    1.04    0.13
  10  -8  -4    1.04    0.14
 -10   8   4    0.94    0.13
 -10   8   4    0.93    0.15
 -10   8   4    0.86    0.12
   9  -8  -4    1.22    0.14
   9  -8  -4    1.26    0.14
  -9   8   4    1.40    0.13
  -9   8   4    1.42    0.15
  -9   8   4    1.14    0.16
   8  -8  -4    0.35    0.10
  -8   8   4    0.43    0.09
  -8   8   4    0.41    0.11
   7  -8  -4    1.07    0.13
  -7   8   4    1.41    0.16
  -7   8   4    1.07    0.12
   6  -8  -4    1.07    0.12
  -6   8   4    0.97    0.10
  -6   8   4    0.90    0.13
  -6   8   4    0.93    0.11
   5  -8  -4    0.68    0.10
  -5   8   4    0.90    0.13
  -5   8   4    0.75    0.10
  -5   8   4    0.78    0.08
   4  -8  -4    0.19    0.07
   4  -8  -4    0.21    0.19
  -4   8   4    0.16    0.06
  -4   8   4    0.04    0.06
   3  -8  -4    3.77    0.27
  -3   8   4    3.61    0.21
  -3   8   4    3.69    0.16
  -2   8   4    0.13    0.07
  -2   8   4    0.19    0.06
  -1   8   4    0.01    0.07
  -1   8   4    0.01    0.04
   0   8   4    2.02    0.17
   0   8   4    1.74    0.11
   1   8   4   -0.08    0.07
   1   8   4    0.00    0.04
   2   8   4    0.03    0.04
   2   8   4    0.14    0.06
   3   8   4    0.10    0.05
   4   8   4    0.49    0.08
   5   8   4    0.02    0.06
 -12   9   4   -0.06    0.10
 -12   9   4   -0.13    0.10
  11  -9  -4    0.71    0.13
  11  -9  -4    0.68    0.12
 -11   9   4    0.59    0.15
 -11   9   4    0.73    0.12
 -11   9   4    0.90    0.15
  10  -9  -4    0.30    0.11
  10  -9  -4    0.06    0.09
 -10   9   4    0.07    0.08
 -10   9   4   -0.13    0.09
   9  -9  -4    0.20    0.10
  -9   9   4   -0.03    0.09
  -9   9   4    0.13    0.08
   8  -9  -4    0.12    0.10
  -8   9   4    0.20    0.10
  -8   9   4    0.18    0.08
   7  -9  -4    0.93    0.13
  -7   9   4    1.15    0.12
  -7   9   4    0.96    0.14
   6  -9  -4   -0.02    0.08
  -6   9   4    0.07    0.07
  -6   9   4    0.11    0.06
  -6   9   4    0.07    0.06
   5  -9  -4    0.62    0.11
  -5   9   4    0.57    0.12
  -5   9   4    0.69    0.10
  -5   9   4    0.64    0.08
  -4   9   4    2.69    0.20
  -4   9   4    2.91    0.16
  -3   9   4    1.86    0.13
  -3   9   4    1.75    0.17
  -2   9   4    1.10    0.11
  -2   9   4    0.87    0.14
  -1   9   4    0.74    0.14
  -1   9   4    0.79    0.09
   0   9   4    1.20    0.11
   0   9   4    1.35    0.17
   1   9   4    0.96    0.11
   1   9   4    0.61    0.08
   2   9   4    0.10    0.07
   3   9   4    0.56    0.09
   4   9   4    0.21    0.08
 -12  10   4    0.05    0.11
  11 -10  -4    0.20    0.10
 -11  10   4    0.05    0.11
  10 -10  -4    0.03    0.11
 -10  10   4   -0.16    0.08
 -10  10   4   -0.06    0.08
   9 -10  -4    0.05    0.11
  -9  10   4    0.01    0.07
  -9  10   4    0.06    0.10
   8 -10  -4    0.03    0.10
  -8  10   4    0.04    0.07
  -8  10   4    0.18    0.10
   7 -10  -4    0.47    0.12
  -7  10   4    0.49    0.09
  -7  10   4    0.61    0.14
   6 -10  -4    2.21    0.19
  -6  10   4    2.39    0.21
  -6  10   4    2.24    0.17
  -6  10   4    2.21    0.13
   5 -10  -4    2.02    0.18
  -5  10   4    2.22    0.17
  -5  10   4    2.02    0.19
  -4  10   4   -0.03    0.06
  -4  10   4   -0.01    0.08
  -3  10   4    1.44    0.14
  -3  10   4    1.58    0.19
  -2  10   4    0.12    0.10
  -2  10   4    0.27    0.08
  -1  10   4    0.09    0.06
  -1  10   4   -0.02    0.08
   0  10   4    0.43    0.10
   0  10   4    0.20    0.07
   1  10   4    0.05    0.07
   2  10   4    0.56    0.11
   3  10   4    0.15    0.09
  11 -11  -4    0.41    0.12
 -11  11   4    0.18    0.12
  10 -11  -4   -0.08    0.11
 -10  11   4    0.18    0.11
   9 -11  -4    1.14    0.16
  -9  11   4    0.94    0.17
   8 -11  -4    0.39    0.13
  -8  11   4    0.34    0.12
   7 -11  -4    0.14    0.11
  -7  11   4    0.04    0.06
  -7  11   4   -0.07    0.08
   6 -11  -4   -0.09    0.10
  -6  11   4   -0.02    0.09
  -6  11   4   -0.06    0.07
   5 -11  -4    0.02    0.10
  -5  11   4    0.05    0.08
  -5  11   4    0.03    0.10
  -4  11   4   -0.08    0.07
  -4  11   4    0.12    0.10
  -3  11   4    0.11    0.08
  -3  11   4    0.40    0.13
  -3  11   4    0.15    0.09
  -2  11   4   -0.07    0.06
  -2  11   4   -0.03    0.08
  -2  11   4   -0.08    0.08
  -1  11   4    0.26    0.10
  -1  11   4    0.01    0.07
   0  11   4    0.10    0.08
   1  11   4    0.02    0.09
   9 -12  -4    0.01    0.12
  -9  12   4   -0.03    0.10
   8 -12  -4    0.27    0.13
  -8  12   4    0.31    0.13
   7 -12  -4    0.32    0.13
  -7  12   4    0.26    0.12
   6 -12  -4    0.08    0.12
  -6  12   4    0.19    0.10
  -6  12   4   -0.06    0.09
  -6  12   4    0.13    0.10
  -5  12   4    0.05    0.09
  -5  12   4    0.06    0.10
  -5  12   4   -0.06    0.09
  -4  12   4    0.01    0.09
  -4  12   4   -0.11    0.08
  -4  12   4    0.00    0.08
  -3  12   4   -0.07    0.09
  -3  12   4   -0.01    0.08
  -3  12   4   -0.06    0.08
  -2  12   4   -0.02    0.09
   0  15  -5   -0.02    0.10
   0 -15   5    0.07    0.11
  -1  15  -5    0.25    0.11
   1 -15   5    0.23    0.12
   2 -15   5    0.44    0.13
   3 -15   5   -0.06    0.11
   4 -15   5    0.10    0.11
  -5  15  -5    0.10    0.12
   5 -15   5    0.00    0.11
  -6  15  -5   -0.12    0.11
   6 -15   5    0.21    0.11
  -7  15  -5   -0.08    0.11
   7 -15   5    0.00    0.10
  -8  15  -5   -0.33    0.14
   2  14  -5   -0.06    0.09
   1  14  -5   -0.05    0.09
   0  14  -5    0.01    0.08
   0 -14   5    0.00    0.11
  -1  14  -5    0.16    0.10
   1 -14   5   -0.14    0.10
  -2  14  -5    0.20    0.16
   2 -14   5    0.14    0.11
  -3  14  -5    0.04    0.07
   3 -14   5    0.16    0.11
  -4  14  -5    0.64    0.11
   4 -14   5    0.58    0.13
  -5  14  -5    0.04    0.11
  -5  14  -5   -0.05    0.07
   5 -14   5    0.05    0.10
  -6  14  -5    0.03    0.09
  -6  14  -5   -0.09    0.13
   6 -14   5    0.05    0.10
  -7  14  -5    0.25    0.10
  -7  14  -5    0.24    0.16
   7 -14   5    0.40    0.36
   7 -14   5    0.22    0.11
  -8  14  -5   -0.16    0.15
  -8  14  -5    0.00    0.09
   8 -14   5   -0.13    0.09
  -9  14  -5   -0.32    0.15
  -9  14  -5    0.05    0.10
 -10  14  -5    0.30    0.12
 -10  14  -5   -0.06    0.18
   4  13  -5   -0.04    0.09
   3  13  -5   -0.08    0.09
   2  13  -5   -0.11    0.08
   1  13  -5    1.02    0.15
   0  13  -5    3.34    0.21
   0 -13   5    3.48    0.22
  -1  13  -5   -0.02    0.05
  -1  13  -5   -0.03    0.07
   1 -13   5   -0.05    0.09
  -2  13  -5    5.86    0.40
  -2  13  -5    4.92    0.23
  -2  13  -5    4.86    0.20
   2 -13   5    4.75    0.23
  -3  13  -5    0.53    0.12
  -3  13  -5    0.25    0.09
   3 -13   5    0.14    0.10
  -4  13  -5    0.57    0.14
  -4  13  -5    0.77    0.14
  -4  13  -5    0.93    0.12
   4 -13   5    0.60    0.12
  -5  13  -5    0.64    0.11
  -5  13  -5    0.58    0.35
  -5  13  -5    0.56    0.15
   5 -13   5    0.71    0.12
  -6  13  -5    0.58    0.17
  -6  13  -5    0.70    0.11
   6 -13   5    0.83    0.12
   6 -13   5    0.53    0.16
  -7  13  -5    1.18    0.15
  -7  13  -5    0.90    0.20
  -7  13  -5    0.68    0.11
   7 -13   5    0.84    0.12
   7 -13   5    0.94    0.23
  -8  13  -5    0.84    0.14
  -8  13  -5    0.47    0.12
  -8  13  -5    0.40    0.18
   8 -13   5    0.77    0.14
  -9  13  -5    0.27    0.12
  -9  13  -5    0.11    0.18
   9 -13   5    0.13    0.09
 -10  13  -5   -0.06    0.17
 -10  13  -5    0.40    0.13
 -11  13  -5    0.03    0.12
 -11  13  -5   -0.24    0.16
   5  12  -5    0.31    0.11
   4  12  -5    1.03    0.15
   3  12  -5    2.90    0.20
   2  12  -5    1.18    0.14
   1  12  -5   -0.05    0.06
  -1 -12   5    0.14    0.09
   0  12  -5    0.12    0.07
   0  12  -5    0.08    0.05
   0  12  -5    0.27    0.08
   0 -12   5    0.23    0.09
  -1  12  -5    0.27    0.07
  -1  12  -5    0.15    0.08
  -1  12  -5    0.37    0.10
   1 -12   5    0.36    0.10
  -2  12  -5   -0.01    0.05
  -2  12  -5   -0.02    0.07
  -2  12  -5    0.13    0.08
  -2  12  -5    0.01    0.06
   2 -12   5   -0.05    0.07
  -3  12  -5    1.57    0.18
  -3  12  -5    1.16    0.16
  -3  12  -5    1.20    0.12
   3 -12   5    1.03    0.12
  -4  12  -5    1.18    0.17
  -4  12  -5    1.24    0.13
  -4  12  -5    1.49    0.35
   4 -12   5    1.36    0.13
  -5  12  -5    1.69    0.20
  -5  12  -5    1.87    0.16
  -5  12  -5    1.66    0.13
  -5  12  -5    1.56    0.20
   5 -12   5    1.72    0.16
   5 -12   5    1.44    0.14
  -6  12  -5    0.50    0.18
  -6  12  -5    0.54    0.10
  -6  12  -5    0.56    0.15
  -6  12  -5    0.45    0.10
   6 -12   5    0.56    0.10
   6 -12   5    0.32    0.10
  -7  12  -5    3.28    0.29
  -7  12  -5    3.87    0.22
  -7  12  -5    3.70    0.28
  -7  12  -5    3.97    0.21
   7 -12   5    3.74    0.36
   7 -12   5    3.59    0.17
  -8  12  -5    0.85    0.13
  -8  12  -5    1.09    0.20
   8 -12   5    1.29    0.15
  -9  12  -5   -0.12    0.14
  -9  12  -5   -0.02    0.10
   9 -12   5    0.07    0.08
 -10  12  -5   -0.04    0.11
 -10  12  -5   -0.27    0.14
 -11  12  -5   -0.22    0.14
 -11  12  -5    0.21    0.13
   6  11  -5   -0.09    0.09
   5  11  -5    0.56    0.12
   4  11  -5    0.28    0.10
   3  11  -5   -0.04    0.06
   2  11  -5    0.26    0.08
   2  11  -5    0.34    0.09
   1  11  -5    0.19    0.06
   1  11  -5    0.36    0.09
   1  11  -5    0.21    0.07
  -1 -11   5    0.23    0.08
   0  11  -5    0.18    0.07
   0  11  -5    0.09    0.05
   0  11  -5    0.24    0.08
   0 -11   5    0.17    0.08
  -1  11  -5    0.47    0.11
  -1  11  -5    0.33    0.08
  -1  11  -5    0.53    0.12
  -1  11  -5    0.51    0.08
   1 -11   5    0.42    0.09
  -2  11  -5    3.05    0.19
  -2  11  -5    3.28    0.17
  -2  11  -5    3.03    0.16
  -2  11  -5    3.18    0.22
   2 -11   5    3.07    0.17
  -3  11  -5    0.41    0.22
  -3  11  -5    0.79    0.10
  -3  11  -5    0.55    0.12
   3 -11   5    0.51    0.09
  -4  11  -5    0.20    0.06
  -4  11  -5    0.15    0.10
  -4  11  -5    0.39    0.14
  -4  11  -5    0.23    0.07
   4 -11   5    0.21    0.07
   4 -11   5    0.29    0.08
  -5  11  -5    0.20    0.12
  -5  11  -5    0.31    0.08
  -5  11  -5    0.45    0.09
  -5  11  -5    0.48    0.37
   5 -11   5    0.48    0.09
   5 -11   5    0.29    0.08
  -6  11  -5    0.01    0.11
  -6  11  -5    0.10    0.07
  -6  11  -5    0.05    0.06
  -6  11  -5   -0.18    0.10
   6 -11   5    0.15    0.08
   6 -11   5    0.02    0.07
  -7  11  -5    0.92    0.18
  -7  11  -5    0.92    0.11
  -7  11  -5    0.92    0.17
   7 -11   5    0.94    0.33
  -8  11  -5   -0.17    0.13
  -8  11  -5    0.05    0.09
  -8  11  -5    0.21    0.14
   8 -11   5    0.02    0.07
  -9  11  -5    0.92    0.19
  -9  11  -5    1.09    0.14
   9 -11   5    1.39    0.31
 -10  11  -5    0.03    0.15
 -10  11  -5    0.33    0.12
  10 -11   5    0.33    0.09
 -11  11  -5    0.18    0.12
 -11  11  -5   -0.09    0.14
 -12  11  -5   -0.15    0.16
 -12  11  -5   -0.26    0.12
   7  10  -5    0.07    0.10
   6  10  -5    1.74    0.17
   5  10  -5    0.63    0.11
   4  10  -5    0.14    0.13
   4  10  -5   -0.08    0.06
   3  10  -5    0.19    0.09
   3  10  -5    0.07    0.06
   2  10  -5    1.87    0.14
   2  10  -5    2.09    0.17
   1  10  -5    3.24    0.16
   1  10  -5    3.45    0.20
   1  10  -5    3.27    0.15
  -1 -10   5    3.23    0.16
   0  10  -5    0.19    0.08
   0  10  -5    0.15    0.06
   0  10  -5    0.14    0.05
   0 -10   5    0.09    0.07
  -1  10  -5    1.66    0.12
  -1  10  -5    1.76    0.11
  -1  10  -5    1.92    0.17
  -1  10  -5    1.73    0.15
   1 -10   5    1.74    0.13
  -2  10  -5    0.67    0.06
  -2  10  -5    0.95    0.15
  -2  10  -5    0.79    0.12
  -2  10  -5    0.74    0.09
  -2  10  -5    0.77    0.10
   2 -10   5    0.72    0.09
  -3  10  -5    1.51    0.12
  -3  10  -5    1.54    0.11
  -3  10  -5    1.61    0.50
  -3  10  -5    1.44    0.13
  -3  10  -5    1.50    0.16
   3 -10   5    1.58    0.12
   3 -10   5    2.09    0.19
   3 -10   5    2.12    0.15
  -4  10  -5    0.66    0.10
  -4  10  -5    0.31    0.07
  -4  10  -5    0.30    0.08
  -4  10  -5    0.19    0.29
  -4  10  -5    0.37    0.11
   4 -10   5    0.26    0.07
   4 -10   5    0.39    0.08
  -5  10  -5    3.80    0.18
  -5  10  -5    3.59    0.16
  -5  10  -5    3.75    0.26
  -5  10  -5    3.59    0.24
   5 -10   5    3.96    0.16
   5 -10   5    3.87    0.21
  -6  10  -5    4.36    0.28
  -6  10  -5    4.51    0.18
  -6  10  -5    4.62    0.20
  -6  10  -5    4.02    0.25
   6 -10   5    4.76    0.39
   6 -10   5    4.43    0.16
  -7  10  -5    0.77    0.16
  -7  10  -5    0.38    0.15
  -7  10  -5    0.60    0.10
   7 -10   5    0.62    0.10
  -8  10  -5   -0.19    0.12
  -8  10  -5    0.30    0.14
  -8  10  -5    0.17    0.09
   8 -10   5    0.37    0.08
  -9  10  -5    0.65    0.12
  -9  10  -5    0.44    0.16
   9 -10   5    0.63    0.10
 -10  10  -5    0.20    0.15
 -10  10  -5    0.18    0.12
  10 -10   5    0.26    0.07
  10 -10   5    0.14    0.10
 -11  10  -5    0.09    0.15
 -11  10  -5    0.34    0.13
  11 -10   5    0.24    0.10
 -12  10  -5    1.18    0.17
 -12  10  -5    0.44    0.19
  12 -10   5    1.01    0.17
   8   9  -5    0.03    0.09
   7   9  -5   -0.08    0.08
   6   9  -5    0.32    0.09
   5   9  -5    0.14    0.20
   5   9  -5   -0.04    0.06
   4   9  -5    0.17    0.08
   4   9  -5    0.10    0.06
   3   9  -5    0.36    0.09
   3   9  -5    0.21    0.06
   2   9  -5    1.79    0.12
   2   9  -5    1.95    0.10
   2   9  -5    2.20    0.17
  -2  -9   5    2.02    0.13
   1   9  -5    1.04    0.14
   1   9  -5    0.97    0.10
   1   9  -5    0.96    0.08
  -1  -9   5    1.03    0.10
   0   9  -5   37.94    0.66
   0   9  -5   37.78    0.80
   0   9  -5   37.38    0.83
   0   9  -5   37.55    0.65
   0   9  -5   37.35    0.76
   0  -9   5   38.12    0.64
  -1   9  -5    0.03    0.08
  -1   9  -5    0.09    0.04
  -1   9  -5    0.07    0.07
  -1   9  -5    0.04    0.05
  -1   9  -5    0.02    0.05
  -1   9  -5    0.20    0.07
   1  -9   5   -0.04    0.05
   1  -9   5   -0.01    0.06
  -2   9  -5    7.08    0.26
  -2   9  -5    6.89    0.25
  -2   9  -5    6.99    0.64
  -2   9  -5    7.13    0.18
  -2   9  -5    6.95    0.21
  -2   9  -5    7.14    0.21
   2  -9   5    7.16    0.21
   2  -9   5    7.38    0.41
  -3   9  -5   15.05    0.40
  -3   9  -5   15.28    0.35
  -3   9  -5   15.04    0.39
  -3   9  -5   15.05    0.49
  -3   9  -5   15.17    0.31
   3  -9   5   15.34    0.32
   3  -9   5   15.57    0.64
   3  -9   5   15.22    0.71
  -4   9  -5   15.10    0.35
  -4   9  -5   14.98    0.38
  -4   9  -5   14.99    0.46
  -4   9  -5   15.20    0.32
  -4   9  -5   15.10    0.41
   4  -9   5   15.04    0.61
   4  -9   5   14.99    0.32
  -5   9  -5    0.82    0.09
  -5   9  -5    0.97    0.18
  -5   9  -5    0.91    0.14
  -5   9  -5    0.91    0.10
   5  -9   5    0.78    0.15
   5  -9   5    0.80    0.08
  -6   9  -5    1.35    0.16
  -6   9  -5    1.36    0.19
  -6   9  -5    1.24    0.11
   6  -9   5    1.12    0.11
   6  -9   5    1.14    0.08
   6  -9   5    1.46    0.14
  -7   9  -5    0.48    0.08
  -7   9  -5    0.45    0.13
  -7   9  -5    0.59    0.15
   7  -9   5    0.47    0.08
   7  -9   5    0.42    0.09
  -8   9  -5    0.21    0.13
  -8   9  -5    0.37    0.13
  -8   9  -5    0.29    0.09
   8  -9   5    0.43    0.08
   8  -9   5    0.40    0.09
  -9   9  -5    1.56    0.15
  -9   9  -5    1.31    0.21
  -9   9  -5    1.32    0.19
   9  -9   5    1.69    0.16
   9  -9   5    1.53    0.13
 -10   9  -5    1.89    0.24
 -10   9  -5    1.83    0.17
  10  -9   5    1.59    0.16
 -11   9  -5    0.26    0.12
 -11   9  -5    0.03    0.15
  11  -9   5    0.11    0.10
 -12   9  -5    0.00    0.15
 -12   9  -5    0.01    0.12
  12  -9   5    0.04    0.09
   9   8  -5    0.16    0.10
   8   8  -5    0.33    0.10
   7   8  -5    0.26    0.09
   6   8  -5    0.30    0.10
   6   8  -5    0.16    0.07
   5   8  -5    1.98    0.17
   5   8  -5    1.55    0.13
   4   8  -5    3.35    0.58
   4   8  -5    3.33    0.15
   3   8  -5    8.54    0.32
   3   8  -5    8.49    0.24
   3   8  -5    8.40    0.19
  -3  -8   5    8.13    0.22
   2   8  -5    0.08    0.06
   2   8  -5    0.07    0.06
   2   8  -5   -0.01    0.04
   2   8  -5    0.07    0.04
  -2  -8   5    0.11    0.05
   1   8  -5    2.77    0.17
   1   8  -5    2.74    0.20
   1   8  -5    3.01    0.14
   1   8  -5    2.95    0.13
  -1  -8   5    2.73    0.13
   0   8  -5    1.55    0.16
   0   8  -5    1.65    0.10
   0   8  -5    1.70    0.06
   0   8  -5    1.66    0.10
   0   8  -5    1.58    0.13
   0   8  -5    1.53    0.12
   0  -8   5    1.66    0.11
   0  -8   5    1.87    0.19
  -1   8  -5    0.55    0.07
  -1   8  -5    0.45    0.09
  -1   8  -5    0.52    0.14
  -1   8  -5    0.60    0.07
  -1   8  -5    0.53    0.09
  -1   8  -5    0.54    0.06
   1  -8   5    0.60    0.07
   1  -8   5    0.51    0.07
  -2   8  -5    1.55    0.17
  -2   8  -5    1.48    0.09
  -2   8  -5    1.37    0.10
  -2   8  -5    1.51    0.14
  -2   8  -5    1.33    0.09
  -2   8  -5    1.41    0.11
   2  -8   5    1.28    0.10
   2  -8   5    1.45    0.11
  -3   8  -5    4.19    0.18
  -3   8  -5    4.64    0.20
  -3   8  -5    4.59    0.24
  -3   8  -5    4.44    0.15
  -3   8  -5    4.73    0.17
   3  -8   5    4.38    0.18
   3  -8   5    4.35    0.20
   3  -8   5    4.23    0.15
   3  -8   5    4.49    0.16
  -4   8  -5    0.01    0.05
  -4   8  -5    0.09    0.16
  -4   8  -5   -0.01    0.04
  -4   8  -5    0.06    0.05
  -4   8  -5    0.03    0.08
   4  -8   5   -0.01    0.04
   4  -8   5    0.00    0.05
   4  -8   5    0.00    0.05
   4  -8   5   -0.01    0.06
  -5   8  -5    0.05    0.05
  -5   8  -5   -0.02    0.08
  -5   8  -5    0.01    0.05
  -5   8  -5    0.04    0.10
  -5   8  -5    0.02    0.04
   5  -8   5    0.02    0.04
   5  -8   5    0.02    0.04
   5  -8   5   -0.01    0.05
  -6   8  -5    4.73    0.25
  -6   8  -5    5.12    0.18
  -6   8  -5    5.03    0.31
   6  -8   5    5.34    0.21
   6  -8   5    5.03    0.19
  -7   8  -5   -0.03    0.10
  -7   8  -5   -0.03    0.09
  -7   8  -5   -0.05    0.06
   7  -8   5   -0.04    0.05
   7  -8   5    0.03    0.05
  -8   8  -5    1.69    0.20
  -8   8  -5    1.93    0.14
  -8   8  -5    1.58    0.20
   8  -8   5    1.75    0.11
   8  -8   5    1.66    0.15
  -9   8  -5    0.92    0.18
  -9   8  -5    1.08    0.12
  -9   8  -5    0.95    0.19
   9  -8   5    0.99    0.12
   9  -8   5    1.17    0.12
 -10   8  -5    0.05    0.12
 -10   8  -5   -0.07    0.08
  10  -8   5    0.09    0.09
 -11   8  -5    0.22    0.15
  11  -8   5   -0.01    0.09
 -12   8  -5   -0.22    0.14
  12  -8   5    0.05    0.10
  10   7  -5   -0.07    0.09
   9   7  -5    0.21    0.10
   8   7  -5    0.63    0.11
   7   7  -5    1.15    0.12
   6   7  -5    0.04    0.06
   6   7  -5    0.09    0.07
   5   7  -5   -0.01    0.17
   5   7  -5    0.02    0.05
   4   7  -5    2.20    0.12
   4   7  -5    2.13    0.21
   4   7  -5    2.17    0.16
   3   7  -5   -0.03    0.04
   3   7  -5    0.03    0.04
   3   7  -5    0.00    0.05
   3   7  -5   -0.04    0.05
  -3  -7   5   -0.02    0.05
   2   7  -5    4.65    0.14
   2   7  -5    4.38    0.45
   2   7  -5    4.65    0.15
   2   7  -5    4.23    0.19
  -2  -7   5    4.49    0.15
   1   7  -5    0.04    0.03
   1   7  -5    0.04    0.04
   1   7  -5    0.00    0.03
   1   7  -5   -0.02    0.06
  -1  -7   5    0.10    0.05
  -1  -7   5    0.05    0.04
   0   7  -5    0.69    0.09
   0   7  -5    0.71    0.09
   0   7  -5    0.74    0.07
   0   7  -5    0.76    0.06
   0   7  -5    0.68    0.07
   0   7  -5    0.71    0.11
   0  -7   5    0.64    0.07
   0  -7   5    0.67    0.07
  -1   7  -5    1.26    0.08
  -1   7  -5    1.28    0.12
  -1   7  -5    1.14    0.09
  -1   7  -5    1.15    0.08
  -1   7  -5    1.30    0.17
  -1   7  -5    1.33    0.10
   1  -7   5    1.28    0.26
   1  -7   5    1.25    0.09
  -2   7  -5    4.16    0.17
  -2   7  -5    4.17    0.14
  -2   7  -5    4.25    0.22
  -2   7  -5    3.88    0.17
  -2   7  -5    4.04    0.15
  -2   7  -5    4.05    0.13
   2  -7   5    4.35    0.14
   2  -7   5    4.13    0.15
   2  -7   5    4.15    0.14
  -3   7  -5    3.36    0.17
  -3   7  -5    3.73    0.15
  -3   7  -5    3.61    0.13
  -3   7  -5    3.17    0.13
  -3   7  -5    3.37    0.20
   3  -7   5    3.45    0.25
   3  -7   5    3.44    0.12
   3  -7   5    3.53    0.14
   3  -7   5    3.47    0.13
  -4   7  -5    3.00    0.17
  -4   7  -5    3.12    0.17
  -4   7  -5    3.08    0.21
  -4   7  -5    2.79    0.12
  -4   7  -5    3.12    0.14
   4  -7   5    3.05    0.11
   4  -7   5    3.18    0.13
   4  -7   5    3.30    0.16
   4  -7   5    3.00    0.18
   4  -7   5    3.09    0.15
  -5   7  -5   -0.03    0.09
  -5   7  -5    0.05    0.04
  -5   7  -5    0.09    0.05
  -5   7  -5    0.05    0.07
   5  -7   5    0.05    0.09
   5  -7   5    0.16    0.05
  -6   7  -5   15.25    0.46
  -6   7  -5   15.47    0.33
  -6   7  -5   15.69    0.42
   6  -7   5   15.58    0.35
   6  -7   5   15.95    0.34
   6  -7   5   15.36    0.32
  -7   7  -5    1.05    0.15
  -7   7  -5    0.96    0.16
  -7   7  -5    1.12    0.11
   7  -7   5    0.85    0.10
   7  -7   5    0.77    0.08
  -8   7  -5    1.27    0.16
  -8   7  -5    1.03    0.17
  -8   7  -5    1.29    0.12
   8  -7   5    1.32    0.13
   8  -7   5    1.31    0.09
  -9   7  -5    1.24    0.18
  -9   7  -5    1.35    0.21
   9  -7   5    1.23    0.13
 -10   7  -5    0.43    0.15
  10  -7   5    0.31    0.09
 -11   7  -5    0.16    0.14
  11  -7   5    0.16    0.09
 -12   7  -5    0.09    0.14
  12  -7   5    0.22    0.09
  11   6  -5   -0.12    0.09
  10   6  -5    0.41    0.12
   9   6  -5    0.22    0.09
   8   6  -5    0.01    0.06
   7   6  -5    1.71    0.18
   7   6  -5    1.70    0.13
   6   6  -5    1.72    0.16
   6   6  -5    2.06    0.20
   6   6  -5    1.86    0.12
   5   6  -5    2.97    0.21
   5   6  -5    3.11    0.14
   5   6  -5    3.16    0.18
   5   6  -5    3.26    0.28
   4   6  -5    1.21    0.37
   4   6  -5    1.30    0.12
   4   6  -5    1.41    0.10
   4   6  -5    1.36    0.08
  -4  -6   5    1.25    0.10
   3   6  -5    2.46    0.11
   3   6  -5    2.35    0.10
   3   6  -5    2.29    0.36
   3   6  -5    2.51    0.22
  -3  -6   5    2.35    0.12
   2   6  -5    5.83    0.21
   2   6  -5    5.59    0.22
   2   6  -5    5.79    0.17
   2   6  -5    5.83    0.17
  -2  -6   5    5.84    0.16
  -2  -6   5    5.78    0.35
   1   6  -5    3.95    0.16
   1   6  -5    4.04    0.13
   1   6  -5    3.98    0.13
   1   6  -5    3.81    0.19
   1   6  -5    4.21    0.11
   1   6  -5    4.33    0.18
  -1  -6   5    4.35    0.14
  -1  -6   5    4.16    0.14
   0   6  -5   29.26    0.49
   0   6  -5   28.82    0.50
   0   6  -5   28.94    0.52
   0   6  -5   30.08    0.62
   0   6  -5   29.10    0.47
   0   6  -5   28.30    0.69
   0  -6   5   29.40    0.48
   0  -6   5   29.13    0.51
  -1   6  -5    9.56    0.20
  -1   6  -5    9.92    0.38
  -1   6  -5    9.71    0.26
  -1   6  -5    9.63    0.24
  -1   6  -5    9.37    0.21
  -1   6  -5    9.26    0.22
   1  -6   5    9.26    0.21
   1  -6   5    9.37    0.20
   1  -6   5    9.40    0.22
  -2   6  -5    6.18    0.16
  -2   6  -5    5.90    0.24
  -2   6  -5    5.91    0.19
  -2   6  -5    6.01    0.19
  -2   6  -5    6.02    0.17
   2  -6   5    6.15    0.17
   2  -6   5    5.97    0.16
   2  -6   5    6.13    0.15
  -3   6  -5    0.06    0.04
  -3   6  -5    0.04    0.05
  -3   6  -5    0.01    0.07
  -3   6  -5    0.12    0.04
  -3   6  -5   -0.02    0.03
   3  -6   5    0.03    0.03
   3  -6   5    0.11    0.04
   3  -6   5    0.11    0.04
   3  -6   5    0.06    0.05
   3  -6   5    0.06    0.06
  -4   6  -5    0.20    0.05
  -4   6  -5    0.23    0.09
  -4   6  -5    0.20    0.05
  -4   6  -5    0.14    0.07
  -4   6  -5    0.09    0.04
   4  -6   5    0.24    0.06
   4  -6   5    0.12    0.04
   4  -6   5    0.20    0.04
   4  -6   5    0.30    0.07
   4  -6   5    0.21    0.05
  -5   6  -5   12.88    0.27
  -5   6  -5   13.40    0.36
  -5   6  -5   13.28    0.39
  -5   6  -5   13.57    0.33
   5  -6   5   13.10    0.30
   5  -6   5   13.00    0.28
   5  -6   5   12.53    0.27
  -6   6  -5    1.41    0.15
  -6   6  -5    1.28    0.10
  -6   6  -5    1.50    0.17
   6  -6   5    1.30    0.11
   6  -6   5    1.26    0.13
   6  -6   5    1.49    0.11
  -7   6  -5    2.84    0.22
  -7   6  -5    2.86    0.19
   7  -6   5    3.07    0.15
  -8   6  -5    0.86    0.14
  -8   6  -5    0.80    0.16
   8  -6   5    0.99    0.10
  -9   6  -5   -0.10    0.10
  -9   6  -5   -0.05    0.10
   9  -6   5    0.07    0.06
 -10   6  -5    0.24    0.13
  10  -6   5    0.21    0.08
 -11   6  -5    0.28    0.15
  11  -6   5    0.27    0.09
 -12   6  -5    0.09    0.15
  12  -6   5    0.14    0.08
  11   5  -5    0.29    0.11
  10   5  -5    0.22    0.09
   9   5  -5    0.07    0.07
   8   5  -5    0.22    0.07
   8   5  -5    0.08    0.08
   7   5  -5    0.12    0.08
   7   5  -5    0.12    0.08
   7   5  -5    0.02    0.05
   6   5  -5    0.07    0.05
   6   5  -5    0.11    0.07
   6   5  -5    0.08    0.06
   6   5  -5    0.11    0.07
   5   5  -5    8.90    0.33
   5   5  -5    8.24    0.18
   5   5  -5    8.26    0.27
   5   5  -5    8.74    0.42
   5   5  -5    8.37    0.22
  -5  -5   5    8.35    0.21
   4   5  -5   20.85    0.61
   4   5  -5   22.13    0.40
   4   5  -5   22.21    0.56
   4   5  -5   21.52    0.38
   4   5  -5   21.76    0.49
  -4  -5   5   21.98    0.39
   3   5  -5    7.19    0.25
   3   5  -5    7.60    0.26
   3   5  -5    7.61    0.26
   3   5  -5    7.32    0.19
   3   5  -5    7.27    0.18
  -3  -5   5    7.55    0.19
  -3  -5   5    7.48    0.18
   2   5  -5    3.52    0.12
   2   5  -5    3.53    0.16
   2   5  -5    3.54    0.09
   2   5  -5    3.65    0.12
   2   5  -5    3.26    0.23
   2   5  -5    3.72    0.16
  -2  -5   5    3.48    0.12
  -2  -5   5    3.64    0.13
   1   5  -5   17.76    0.32
   1   5  -5   18.32    0.37
   1   5  -5   17.77    0.30
   1   5  -5   17.45    0.42
   1   5  -5   18.13    0.40
   1   5  -5   17.14    0.33
  -1  -5   5   17.47    0.31
  -1  -5   5   16.83    0.33
   0   5  -5    1.28    0.08
   0   5  -5    1.23    0.07
   0   5  -5    1.54    0.08
   0   5  -5    1.33    0.17
   0   5  -5    1.39    0.07
   0   5  -5    1.48    0.11
   0  -5   5    1.41    0.09
   0  -5   5    1.50    0.08
   0  -5   5    1.39    0.08
  -1   5  -5    8.50    0.24
  -1   5  -5    8.72    0.19
  -1   5  -5    8.21    0.21
  -1   5  -5    8.27    0.19
  -1   5  -5    8.28    0.26
   1  -5   5    8.46    0.20
   1  -5   5    8.35    0.19
   1  -5   5    8.46    0.19
   1  -5   5    8.04    0.40
   1  -5   5    8.14    0.17
  -2   5  -5    0.03    0.03
  -2   5  -5    0.06    0.04
  -2   5  -5    0.15    0.05
  -2   5  -5    0.05    0.03
  -2   5  -5    0.12    0.07
   2  -5   5    0.02    0.03
   2  -5   5    0.05    0.03
   2  -5   5    0.05    0.02
   2  -5   5    0.04    0.03
   2  -5   5    0.04    0.05
  -3   5  -5   15.33    0.30
  -3   5  -5   15.83    0.35
  -3   5  -5   15.78    0.40
  -3   5  -5   15.59    0.29
  -3   5  -5   15.72    0.34
   3  -5   5   15.25    0.30
   3  -5   5   15.02    0.32
   3  -5   5   15.38    0.30
   3  -5   5   15.22    0.52
  -4   5  -5    5.38    0.19
  -4   5  -5    4.52    0.16
  -4   5  -5    5.36    0.22
  -4   5  -5    5.32    0.15
  -4   5  -5    5.39    0.15
   4  -5   5    5.40    0.16
   4  -5   5    5.45    0.15
   4  -5   5    5.15    0.21
   4  -5   5    5.53    0.16
  -5   5  -5    3.35    0.19
  -5   5  -5    3.55    0.12
  -5   5  -5    3.30    0.13
   5  -5   5    3.23    0.13
   5  -5   5    3.45    0.10
   5  -5   5    3.28    0.13
  -6   5  -5    0.60    0.12
  -6   5  -5    0.36    0.09
   6  -5   5    0.50    0.07
  -7   5  -5    4.50    0.22
  -7   5  -5    4.12    0.24
   7  -5   5    4.28    0.16
  -8   5  -5    1.84    0.20
  -8   5  -5    2.29    0.19
   8  -5   5    2.23    0.13
  -9   5  -5   -0.09    0.08
  -9   5  -5   -0.06    0.27
   9  -5   5   -0.07    0.05
 -10   5  -5    0.12    0.12
  10  -5   5    0.06    0.07
 -11   5  -5    0.45    0.15
  11  -5   5    0.19    0.08
  12  -5   5   -0.09    0.07
  12   4  -5    0.06    0.11
  11   4  -5    0.54    0.11
  10   4  -5   -0.03    0.08
   9   4  -5    1.69    0.15
   9   4  -5    1.49    0.20
   8   4  -5    2.19    0.19
   8   4  -5    1.95    0.14
   7   4  -5    0.56    0.08
   7   4  -5    0.50    0.11
   7   4  -5    0.66    0.12
   6   4  -5    9.23    0.31
   6   4  -5    8.99    0.32
   6   4  -5    9.47    0.35
   6   4  -5    9.49    0.20
   6   4  -5    9.19    0.24
  -6  -4   5    9.22    0.23
   5   4  -5    6.71    0.19
   5   4  -5    6.90    0.28
   5   4  -5    6.71    0.17
   5   4  -5    6.92    0.23
   5   4  -5    6.83    0.39
  -5  -4   5    6.89    0.18
   4   4  -5    0.15    0.06
   4   4  -5    0.01    0.06
   4   4  -5    0.03    0.03
   4   4  -5    0.15    0.04
   4   4  -5    0.17    0.06
  -4  -4   5    0.11    0.05
  -4  -4   5    0.08    0.03
   3   4  -5    7.57    0.14
   3   4  -5    7.72    0.25
   3   4  -5    7.59    0.23
   3   4  -5    7.84    0.18
   3   4  -5    7.27    0.18
   3   4  -5    7.47    0.24
  -3  -4   5    7.61    0.18
  -3  -4   5    7.76    0.19
   2   4  -5    6.16    0.16
   2   4  -5    6.06    0.14
   2   4  -5    6.28    0.21
   2   4  -5    5.79    0.15
   2   4  -5    6.39    0.20
   2   4  -5    5.60    0.20
  -2  -4   5    5.69    0.16
  -2  -4   5    5.98    0.15
   1   4  -5    5.92    0.18
   1   4  -5    5.53    0.15
   1   4  -5    5.54    0.39
   1   4  -5    5.82    0.15
   1   4  -5    5.96    0.14
   1   4  -5    6.08    0.20
  -1  -4   5    5.73    0.14
  -1  -4   5    5.66    0.17
  -1  -4   5    5.67    0.23
   0   4  -5   10.60    0.30
   0   4  -5   10.73    0.27
   0   4  -5   10.77    0.21
   0   4  -5   10.18    0.21
   0  -4   5    9.93    0.26
   0  -4   5   10.55    0.20
   0  -4   5   10.49    0.21
   0  -4   5    9.91    0.23
   0  -4   5   10.45    0.22
  -1   4  -5    3.11    0.10
  -1   4  -5    3.06    0.14
  -1   4  -5    3.44    0.11
  -1   4  -5    3.29    0.21
  -1   4  -5    3.38    0.10
   1  -4   5    3.18    0.10
   1  -4   5    3.18    0.13
   1  -4   5    3.10    0.10
   1  -4   5    3.25    0.09
   1  -4   5    3.21    0.12
  -2   4  -5    0.91    0.10
  -2   4  -5    0.93    0.10
  -2   4  -5    0.93    0.06
  -2   4  -5    0.93    0.06
   2  -4   5    0.93    0.06
   2  -4   5    0.76    0.07
   2  -4   5    0.81    0.06
   2  -4   5    0.89    0.11
  -3   4  -5    0.01    0.03
  -3   4  -5    0.06    0.06
  -3   4  -5   -0.05    0.05
  -3   4  -5    0.01    0.04
   3  -4   5    0.00    0.10
   3  -4   5   -0.01    0.04
   3  -4   5   -0.03    0.06
   3  -4   5   -0.01    0.03
   3  -4   5    0.04    0.02
  -4   4  -5    3.82    0.15
  -4   4  -5    3.96    0.16
  -4   4  -5    3.92    0.19
   4  -4   5    3.70    0.12
   4  -4   5    3.67    0.09
   4  -4   5    3.71    0.09
   4  -4   5    3.60    0.12
   4  -4   5    3.63    0.13
  -5   4  -5    0.00    0.05
  -5   4  -5    0.04    0.06
  -5   4  -5    0.06    0.06
   5  -4   5    0.04    0.04
   5  -4   5    0.08    0.04
   5  -4   5    0.02    0.03
  -6   4  -5    5.83    0.31
  -6   4  -5    5.46    0.22
   6  -4   5    5.74    0.17
  -7   4  -5    3.23    0.21
  -7   4  -5    3.17    0.19
   7  -4   5    2.87    0.13
  -8   4  -5    0.29    0.10
  -8   4  -5    0.13    0.10
   8  -4   5    0.27    0.06
  -9   4  -5    2.59    0.21
  -9   4  -5    2.09    0.22
   9  -4   5    2.64    0.14
 -10   4  -5    1.18    0.17
  10  -4   5    0.86    0.10
  11  -4   5    0.16    0.08
  12  -4   5   -0.01    0.07
  12   3  -5    0.11    0.10
  11   3  -5    0.29    0.10
  10   3  -5    0.05    0.07
   9   3  -5    0.10    0.09
   9   3  -5    0.09    0.06
   8   3  -5    0.52    0.12
   8   3  -5    0.61    0.12
   8   3  -5    0.81    0.10
   7   3  -5    1.71    0.12
   7   3  -5    1.30    0.15
   7   3  -5    1.58    0.16
   7   3  -5    1.54    0.17
   7   3  -5    1.73    0.09
  -7  -3   5    1.56    0.12
   6   3  -5    2.51    0.10
   6   3  -5    2.58    0.17
   6   3  -5    2.30    0.12
   6   3  -5    2.56    0.18
   6   3  -5    2.32    0.14
  -6  -3   5    2.59    0.16
   5   3  -5   -0.03    0.05
   5   3  -5   -0.01    0.03
   5   3  -5   -0.04    0.04
   5   3  -5    0.02    0.03
   5   3  -5   -0.01    0.04
  -5  -3   5   -0.01    0.04
  -5  -3   5   -0.01    0.03
  -5  -3   5    0.00    0.04
   4   3  -5    6.02    0.29
   4   3  -5    5.74    0.15
   4   3  -5    5.86    0.12
   4   3  -5    5.62    0.22
   4   3  -5    5.83    0.16
   4   3  -5    6.12    0.21
  -4  -3   5    5.87    0.29
  -4  -3   5    5.68    0.16
  -4  -3   5    6.04    0.16
   3   3  -5   37.18    0.56
   3   3  -5   36.81    0.60
   3   3  -5   36.22    0.73
   3   3  -5   38.76    0.71
   3   3  -5   37.10    0.58
   3   3  -5   37.45    0.76
  -3  -3   5   37.93    0.62
  -3  -3   5   36.41    0.61
  -3  -3   5   37.26    0.58
  -3  -3   5   36.23    0.69
   2   3  -5   22.45    0.47
   2   3  -5   22.31    0.36
   2   3  -5   21.70    0.38
   2   3  -5   22.07    0.47
   2   3  -5   22.19    0.46
   2   3  -5   22.26    0.37
  -2  -3   5   21.05    0.45
  -2  -3   5   22.29    0.40
  -2  -3   5   21.53    0.38
  -2  -3   5   22.09    0.36
   1   3  -5    1.23    0.11
   1   3  -5    1.10    0.07
   1   3  -5    1.00    0.10
   1   3  -5    1.12    0.07
   1   3  -5    1.17    0.06
  -1  -3   5    1.23    0.08
  -1  -3   5    1.10    0.06
  -1  -3   5    1.05    0.09
  -1  -3   5    1.18    0.09
  -1  -3   5    1.13    0.06
   0   3  -5    9.86    0.26
   0   3  -5    9.99    0.20
   0   3  -5    9.92    0.21
   0   3  -5   10.61    0.20
   0   3  -5   10.57    0.26
   0  -3   5    9.96    0.20
   0  -3   5   10.04    0.25
   0  -3   5   10.18    0.22
   0  -3   5   10.39    0.18
   0  -3   5   10.07    0.20
   0  -3   5   10.22    0.22
  -1   3  -5    0.06    0.05
  -1   3  -5    0.09    0.03
  -1   3  -5    0.22    0.06
   1  -3   5    0.02    0.03
   1  -3   5    0.06    0.07
   1  -3   5    0.09    0.02
   1  -3   5    0.08    0.03
   1  -3   5    0.11    0.03
  -2   3  -5   21.88    0.43
  -2   3  -5   22.09    0.47
   2  -3   5   21.25    0.34
   2  -3   5   21.76    0.37
   2  -3   5   21.78    0.35
   2  -3   5   21.45    0.39
   2  -3   5   21.14    0.41
  -3   3  -5    3.44    0.16
  -3   3  -5    3.33    0.13
   3  -3   5    3.54    0.14
   3  -3   5    3.26    0.12
   3  -3   5    3.35    0.10
   3  -3   5    3.38    0.12
  -4   3  -5    1.35    0.12
  -4   3  -5    1.60    0.10
  -4   3  -5    1.32    0.26
   4  -3   5    1.64    0.08
   4  -3   5    1.51    0.08
   4  -3   5    1.65    0.11
   4  -3   5    1.43    0.07
  -5   3  -5    7.10    0.19
  -5   3  -5    7.51    0.27
  -5   3  -5    6.79    0.23
   5  -3   5    7.18    0.19
   5  -3   5    7.57    0.17
  -6   3  -5    1.37    0.15
  -6   3  -5    1.39    0.13
   6  -3   5    1.28    0.08
  -7   3  -5    0.83    0.14
  -7   3  -5    0.88    0.11
   7  -3   5    0.79    0.07
  -8   3  -5    0.18    0.10
  -8   3  -5    0.25    0.09
   8  -3   5    0.27    0.06
  -9   3  -5    0.03    0.10
  -9   3  -5    0.11    0.09
   9  -3   5    0.12    0.06
 -10   3  -5    0.14    0.11
  10  -3   5    0.10    0.06
  11  -3   5    0.05    0.07
  12  -3   5   -0.01    0.07
  13   2  -5    0.10    0.10
  12   2  -5    0.08    0.10
  11   2  -5    0.17    0.09
  10   2  -5    0.73    0.10
  10   2  -5    0.66    0.14
   9   2  -5    0.71    0.13
   9   2  -5    1.10    0.11
   8   2  -5   -0.06    0.06
   8   2  -5    0.02    0.04
   8   2  -5   -0.03    0.07
   8   2  -5   -0.01    0.05
  -8  -2   5    0.07    0.06
   7   2  -5    2.20    0.16
   7   2  -5    2.07    0.12
   7   2  -5    2.07    0.15
   7   2  -5    2.15    0.10
   7   2  -5    2.05    0.19
  -7  -2   5    2.25    0.13
   6   2  -5    4.15    0.17
   6   2  -5    4.66    0.22
   6   2  -5    4.27    0.15
   6   2  -5    4.50    0.20
   6   2  -5    4.70    0.14
  -6  -2   5    4.54    0.20
   5   2  -5   10.80    0.37
   5   2  -5   10.59    0.29
   5   2  -5   10.34    0.23
   5   2  -5   10.83    0.18
   5   2  -5   10.55    0.33
   5   2  -5   10.65    0.23
  -5  -2   5   10.63    0.22
  -5  -2   5   10.31    0.24
  -5  -2   5   10.54    0.23
   4   2  -5    3.45    0.31
   4   2  -5    3.39    0.10
   4   2  -5    3.33    0.10
   4   2  -5    3.34    0.11
   4   2  -5    3.46    0.16
   4   2  -5    3.36    0.16
   4   2  -5    3.24    0.11
  -4  -2   5    3.37    0.12
  -4  -2   5    3.31    0.12
  -4  -2   5    3.38    0.24
  -4  -2   5    3.26    0.11
   3   2  -5    6.12    0.15
   3   2  -5    6.15    0.15
   3   2  -5    6.30    0.21
   3   2  -5    6.16    0.15
   3   2  -5    6.35    0.20
   3   2  -5    5.85    0.19
  -3  -2   5    5.88    0.23
  -3  -2   5    6.25    0.30
  -3  -2   5    6.13    0.15
  -3  -2   5    6.11    0.15
   2   2  -5    1.38    0.10
   2   2  -5    1.39    0.09
   2   2  -5    1.41    0.07
   2   2  -5    1.23    0.08
   2   2  -5    1.11    0.17
  -2  -2   5    1.25    0.08
  -2  -2   5    1.20    0.10
  -2  -2   5    1.28    0.07
  -2  -2   5    1.41    0.07
   1   2  -5   23.93    0.53
   1   2  -5   24.26    0.47
   1   2  -5   24.52    0.38
   1   2  -5   24.27    0.47
  -1  -2   5   23.73    0.38
  -1  -2   5   23.55    0.47
  -1  -2   5   24.27    0.37
  -1  -2   5   23.02    0.49
  -1  -2   5   23.78    0.60
  -1  -2   5   24.28    0.42
   0   2  -5    7.34    0.25
   0   2  -5    6.95    0.21
   0   2  -5    6.97    0.21
   0   2  -5    7.01    0.15
   0  -2   5    6.89    0.19
   0  -2   5    6.85    0.23
   0  -2   5    7.19    0.18
   0  -2   5    6.95    0.15
   0  -2   5    6.94    0.15
   0  -2   5    7.09    0.17
  -1   2  -5   25.75    0.51
  -1   2  -5   24.92    0.69
   1  -2   5   24.87    0.43
   1  -2   5   24.63    0.47
   1  -2   5   25.50    0.42
   1  -2   5   24.12    0.38
   1  -2   5   25.32    0.46
   1  -2   5   23.82    0.38
   1  -2   5   25.10    0.40
  -2   2  -5   13.57    0.32
  -2   2  -5   13.41    0.44
   2  -2   5   12.72    0.22
   2  -2   5   13.41    0.29
   2  -2   5   12.48    0.28
   2  -2   5   13.16    0.27
  -3   2  -5   25.50    0.69
  -3   2  -5   25.61    0.55
  -3   2  -5   25.13    0.48
   3  -2   5   25.34    0.45
   3  -2   5   25.18    0.47
   3  -2   5   25.03    0.49
   3  -2   5   24.71    0.39
  -4   2  -5    2.21    0.22
  -4   2  -5    2.30    0.14
  -4   2  -5    2.16    0.10
   4  -2   5    2.15    0.07
   4  -2   5    2.23    0.10
   4  -2   5    2.36    0.12
   4  -2   5    2.29    0.10
  -5   2  -5    0.37    0.05
  -5   2  -5    0.33    0.09
  -5   2  -5    0.53    0.10
   5  -2   5    0.43    0.07
   5  -2   5    0.41    0.06
   5  -2   5    0.38    0.04
  -6   2  -5    2.03    0.17
   6  -2   5    1.96    0.09
  -7   2  -5   -0.05    0.07
  -7   2  -5    0.25    0.08
   7  -2   5    0.03    0.04
  -8   2  -5    3.21    0.19
  -8   2  -5    2.86    0.22
   8  -2   5    2.88    0.12
  -9   2  -5    0.44    0.11
   9  -2   5    0.35    0.07
  10  -2   5    0.01    0.06
  11  -2   5    0.03    0.07
  12  -2   5    0.01    0.07
  13   1  -5    0.17    0.12
  12   1  -5   -0.02    0.09
  11   1  -5    0.60    0.12
  10   1  -5   -0.06    0.08
  10   1  -5    0.13    0.07
 -10  -1   5   -0.01    0.08
   9   1  -5    0.09    0.04
   9   1  -5   -0.01    0.06
   9   1  -5   -0.09    0.07
   9   1  -5    0.01    0.06
   9   1  -5    0.01    0.04
  -9  -1   5    0.17    0.08
   8   1  -5    0.17    0.05
   8   1  -5    0.21    0.08
   8   1  -5    0.11    0.09
   8   1  -5    0.19    0.06
  -8  -1   5    0.11    0.07
   7   1  -5    4.84    0.16
   7   1  -5    5.20    0.22
   7   1  -5    5.00    0.34
   7   1  -5    4.60    0.18
   7   1  -5    5.05    0.17
  -7  -1   5    4.88    0.17
   6   1  -5    6.19    0.17
   6   1  -5    6.10    0.22
   6   1  -5    6.15    0.21
   6   1  -5    6.10    0.18
   6   1  -5    6.25    0.25
   6   1  -5    6.00    0.12
  -6  -1   5    6.23    0.20
  -6  -1   5    5.88    0.28
  -6  -1   5    6.08    0.22
   5   1  -5    7.19    0.22
   5   1  -5    7.50    0.24
   5   1  -5    7.00    0.18
   5   1  -5    7.45    0.17
   5   1  -5    7.62    0.19
   5   1  -5    7.43    0.26
  -5  -1   5    6.95    0.36
  -5  -1   5    7.24    0.17
  -5  -1   5    7.46    0.19
  -5  -1   5    7.22    0.18
   4   1  -5    9.83    0.22
   4   1  -5   10.12    0.21
   4   1  -5   10.13    0.21
   4   1  -5   10.28    0.29
   4   1  -5   10.12    0.27
   4   1  -5    9.98    0.34
  -4  -1   5    9.70    0.21
  -4  -1   5   10.16    0.23
  -4  -1   5    9.99    0.26
  -4  -1   5    9.71    0.21
   3   1  -5    2.28    0.09
   3   1  -5    2.29    0.09
   3   1  -5    2.39    0.13
   3   1  -5    2.29    0.10
   3   1  -5    2.25    0.13
  -3  -1   5    2.35    0.09
  -3  -1   5    2.39    0.09
  -3  -1   5    2.33    0.09
  -3  -1   5    2.17    0.12
  -3  -1   5    2.34    0.09
   2   1  -5   12.98    0.28
   2   1  -5   13.22    0.31
   2   1  -5   13.84    0.42
   2   1  -5   13.16    0.25
   2   1  -5   13.33    0.24
  -2  -1   5   13.48    0.23
  -2  -1   5   13.26    0.26
  -2  -1   5   12.86    0.27
  -2  -1   5   12.62    0.29
  -2  -1   5   13.09    0.24
   1   1  -5    3.53    0.12
   1   1  -5    3.69    0.23
   1   1  -5    3.44    0.10
   1   1  -5    3.57    0.17
  -1  -1   5    3.45    0.11
  -1  -1   5    3.52    0.12
  -1  -1   5    3.60    0.24
  -1  -1   5    3.58    0.10
  -1  -1   5    3.44    0.10
  -1  -1   5    3.55    0.12
   0   1  -5    0.32    0.09
   0   1  -5    0.29    0.05
   0   1  -5    0.28    0.05
   0  -1   5    0.30    0.04
   0  -1   5    0.30    0.03
   0  -1   5    0.30    0.03
   0  -1   5    0.34    0.05
   0  -1   5    0.30    0.03
   0  -1   5    0.32    0.05
  -1   1  -5    2.18    0.10
  -1   1  -5    2.19    0.10
  -1   1  -5    2.07    0.11
   1  -1   5    1.92    0.06
   1  -1   5    2.04    0.10
   1  -1   5    2.13    0.09
   1  -1   5    2.02    0.09
  -2   1  -5   14.73    0.34
  -2   1  -5   15.10    0.32
  -2   1  -5   14.98    0.32
   2  -1   5   14.46    0.32
   2  -1   5   14.73    0.30
   2  -1   5   14.74    0.23
   2  -1   5   14.60    0.32
  -3   1  -5    0.89    0.08
  -3   1  -5    0.91    0.09
  -3   1  -5    0.91    0.07
  -3   1  -5    0.96    0.07
   3  -1   5    0.86    0.04
   3  -1   5    0.82    0.07
   3  -1   5    0.82    0.07
   3  -1   5    0.92    0.04
   3  -1   5    0.88    0.08
  -4   1  -5    1.07    0.08
  -4   1  -5    1.15    0.11
  -4   1  -5    1.17    0.09
   4  -1   5    1.17    0.09
   4  -1   5    1.06    0.05
   4  -1   5    1.11    0.05
   4  -1   5    1.10    0.08
  -5   1  -5    0.30    0.08
  -5   1  -5    0.33    0.05
   5  -1   5    0.22    0.03
   5  -1   5    0.22    0.06
   5  -1   5    0.23    0.05
  -6   1  -5    1.14    0.14
   6  -1   5    1.20    0.07
   6  -1   5    1.13    0.12
  -7   1  -5    0.98    0.15
  -7   1  -5    0.78    0.10
   7  -1   5    0.64    0.06
  -8   1  -5    0.03    0.07
  -8   1  -5    0.08    0.08
   8  -1   5   -0.01    0.04
   9  -1   5    0.90    0.09
  10  -1   5   -0.03    0.07
  11  -1   5   -0.04    0.06
  13   0  -5   -0.07    0.09
  12   0  -5    0.09    0.09
  11   0  -5    0.09    0.10
  11   0  -5    0.24    0.09
 -11   0   5    0.13    0.10
  10   0  -5   -0.07    0.07
  10   0  -5   -0.05    0.06
  10   0  -5    0.05    0.06
  10   0  -5    0.00    0.04
 -10   0   5    0.00    0.08
   9   0  -5    0.23    0.06
   9   0  -5    0.13    0.07
   9   0  -5    0.22    0.09
   9   0  -5    0.12    0.08
  -9   0   5    0.28    0.08
   8   0  -5    2.88    0.13
   8   0  -5    2.79    0.18
   8   0  -5    2.65    0.21
   8   0  -5    3.05    0.15
  -8   0   5    2.94    0.15
   7   0  -5    1.65    0.17
   7   0  -5    1.81    0.13
   7   0  -5    2.01    0.12
   7   0  -5    1.76    0.10
   7   0  -5    1.70    0.14
  -7   0   5    1.97    0.12
   6   0  -5    6.96    0.17
   6   0  -5    7.64    0.28
   6   0  -5    7.17    0.23
   6   0  -5    7.24    0.19
   6   0  -5    7.21    0.19
   6   0  -5    7.33    0.24
  -6   0   5    7.18    0.19
  -6   0   5    7.19    0.20
  -6   0   5    6.90    0.19
  -6   0   5    7.13    0.31
   5   0  -5    4.90    0.15
   5   0  -5    4.74    0.16
   5   0  -5    4.72    0.18
   5   0  -5    4.71    0.14
   5   0  -5    4.68    0.14
   5   0  -5    4.87    0.24
  -5   0   5    4.71    0.15
  -5   0   5    4.69    0.15
  -5   0   5    4.65    0.14
  -5   0   5    4.38    0.12
  -5   0   5    4.57    0.14
   4   0  -5    0.98    0.07
   4   0  -5    1.08    0.07
   4   0  -5    1.01    0.07
   4   0  -5    0.95    0.10
   4   0  -5    0.95    0.11
   4   0  -5    0.96    0.07
  -4   0   5    0.96    0.07
  -4   0   5    0.94    0.07
  -4   0   5    0.99    0.07
  -4   0   5    0.97    0.07
  -4   0   5    1.01    0.07
  -4   0   5    0.97    0.06
   3   0  -5    7.02    0.23
   3   0  -5    6.96    0.23
   3   0  -5    6.69    0.27
   3   0  -5    6.95    0.17
   3   0  -5    7.11    0.16
  -3   0   5    6.63    0.19
  -3   0   5    6.84    0.18
  -3   0   5    7.13    0.17
  -3   0   5    6.74    0.16
  -3   0   5    6.99    0.16
  -3   0   5    6.96    0.15
   2   0  -5   13.09    0.48
   2   0  -5   13.43    0.33
   2   0  -5   12.78    0.27
   2   0  -5   13.69    0.24
   2   0  -5   13.48    0.26
  -2   0   5   13.09    0.26
  -2   0   5   13.40    0.21
  -2   0   5   13.01    0.24
  -2   0   5   13.03    0.24
  -2   0   5   13.42    0.28
  -2   0   5   12.54    0.27
  -2   0   5   13.55    0.28
   1   0  -5   38.49    0.60
   1   0  -5   38.12    0.74
   1   0  -5   38.69    0.68
   1   0  -5   39.35    0.69
  -1   0   5   37.54    0.62
  -1   0   5   37.97    0.68
  -1   0   5   38.53    0.66
  -1   0   5   37.52    0.68
  -1   0   5   37.60    0.57
  -1   0   5   36.63    0.57
  -1   0   5   38.53    0.65
   0   0  -5   11.15    0.24
   0   0  -5   11.24    0.26
   0   0  -5   11.58    0.27
   0   0   5   10.85    0.19
   0   0   5   11.23    0.26
   0   0   5   10.86    0.24
   0   0   5   11.48    0.26
  -1   0  -5    1.55    0.09
  -1   0  -5    1.49    0.11
   1   0   5    1.50    0.09
   1   0   5    1.55    0.08
   1   0   5    1.59    0.14
   1   0   5    1.50    0.05
  -2   0  -5    3.88    0.15
  -2   0  -5    3.84    0.14
   2   0   5    3.81    0.15
   2   0   5    3.68    0.13
   2   0   5    3.80    0.14
  -3   0  -5    0.78    0.09
  -3   0  -5    0.91    0.08
   3   0   5    0.89    0.19
   3   0   5    0.87    0.08
  -4   0  -5    8.40    0.28
  -4   0  -5    8.73    0.24
   4   0   5    8.22    0.25
   4   0   5    8.38    0.22
  -5   0  -5   12.00    0.30
  -5   0  -5   12.52    0.38
   5   0   5   12.23    0.33
  -6   0  -5    0.24    0.09
   6   0   5    0.23    0.07
  -7   0  -5    0.09    0.07
   7   0   5    0.14    0.04
  -8   0  -5   -0.13    0.07
   8   0   5   -0.01    0.04
   9   0   5    0.87    0.08
  10   0   5    0.24    0.07
  11   0   5    0.32    0.09
  13  -1  -5   -0.05    0.09
 -13   1   5    0.12    0.13
  12  -1  -5    0.19    0.09
 -12   1   5    0.00    0.11
  11  -1  -5   -0.05    0.08
  11  -1  -5    0.04    0.08
  11  -1  -5   -0.06    0.05
  11  -1  -5   -0.09    0.08
 -11   1   5   -0.09    0.09
  10  -1  -5    0.67    0.08
  10  -1  -5    0.53    0.12
  10  -1  -5    0.86    0.12
 -10   1   5    0.54    0.11
   9  -1  -5    6.69    0.23
   9  -1  -5    6.84    0.21
   9  -1  -5    6.39    0.27
   9  -1  -5    6.70    0.32
  -9   1   5    6.60    0.23
   8  -1  -5    6.08    0.30
   8  -1  -5    6.15    0.20
   8  -1  -5    5.84    0.19
   8  -1  -5    5.90    0.34
  -8   1   5    6.08    0.21
   7  -1  -5    0.48    0.08
   7  -1  -5    0.38    0.06
   7  -1  -5    0.32    0.08
   7  -1  -5    0.35    0.10
   7  -1  -5    0.39    0.06
   7  -1  -5    0.48    0.07
  -7   1   5    0.26    0.06
  -7   1   5    0.44    0.06
  -7   1   5    0.34    0.07
   6  -1  -5    1.11    0.13
   6  -1  -5    1.26    0.09
   6  -1  -5    1.05    0.08
   6  -1  -5    1.18    0.09
   6  -1  -5    1.08    0.11
   6  -1  -5    1.11    0.09
  -6   1   5    1.31    0.09
  -6   1   5    1.23    0.17
  -6   1   5    1.13    0.10
  -6   1   5    1.14    0.08
  -6   1   5    1.17    0.09
   5  -1  -5    0.39    0.05
   5  -1  -5    0.25    0.08
   5  -1  -5    0.39    0.06
   5  -1  -5    0.33    0.12
   5  -1  -5    0.35    0.06
   5  -1  -5    0.43    0.06
  -5   1   5    0.29    0.05
  -5   1   5    0.41    0.05
  -5   1   5    0.38    0.06
  -5   1   5    0.32    0.05
  -5   1   5    0.36    0.06
  -5   1   5    0.35    0.05
   4  -1  -5    2.45    0.11
   4  -1  -5    2.39    0.16
   4  -1  -5    2.59    0.10
   4  -1  -5    2.49    0.09
   4  -1  -5    2.55    0.24
  -4   1   5    2.62    0.11
  -4   1   5    2.49    0.09
  -4   1   5    2.66    0.10
  -4   1   5    2.51    0.11
  -4   1   5    2.70    0.10
  -4   1   5    2.60    0.10
  -4   1   5    2.57    0.11
  -4   1   5    2.51    0.09
   3  -1  -5   36.76    0.60
   3  -1  -5   37.12    0.58
   3  -1  -5   35.89    0.64
   3  -1  -5   38.10    0.68
   3  -1  -5   37.56    0.76
  -3   1   5   35.64    0.67
  -3   1   5   36.63    0.58
  -3   1   5   37.87    0.55
  -3   1   5   36.56    0.59
  -3   1   5   36.49    0.66
  -3   1   5   37.15    0.65
  -3   1   5   36.23    0.61
   2  -1  -5  284.07    5.53
   2  -1  -5  289.93    4.50
   2  -1  -5  291.52    4.04
  -2   1   5  292.98    4.91
  -2   1   5  285.32    4.11
  -2   1   5  282.06    3.89
  -2   1   5  286.54    4.16
  -2   1   5  277.63    4.50
   1  -1  -5   26.45    0.50
   1  -1  -5   25.77    0.62
  -1   1   5   24.85    0.48
  -1   1   5   25.15    0.94
  -1   1   5   25.32    0.46
  -1   1   5   24.82    0.40
   0  -1  -5   29.82    0.56
   0  -1  -5   29.36    0.54
   0  -1  -5   29.34    0.71
   0   1   5   29.36    0.52
   0   1   5   30.00    0.55
   0   1   5   28.05    0.44
  -1  -1  -5   21.61    0.44
  -1  -1  -5   22.45    0.45
   1   1   5   22.10    0.44
   1   1   5   21.57    0.32
   1   1   5   21.32    0.41
   1   1   5   21.03    0.32
  -2  -1  -5   12.35    0.31
  -2  -1  -5   11.83    0.30
   2   1   5   12.12    0.28
   2   1   5   12.69    0.31
  -3  -1  -5    0.33    0.07
  -3  -1  -5    0.42    0.07
   3   1   5    0.23    0.05
   3   1   5    0.32    0.06
  -4  -1  -5    1.02    0.12
  -4  -1  -5    1.24    0.10
   4   1   5    1.12    0.11
  -5  -1  -5    4.43    0.22
  -5  -1  -5    4.55    0.18
   5   1   5    4.49    0.20
  -6  -1  -5    0.59    0.11
   6   1   5    0.58    0.10
  -7  -1  -5    0.13    0.07
   8   1   5    0.19    0.04
   9   1   5   -0.08    0.05
  10   1   5    0.02    0.06
  14  -2  -5    0.82    0.15
 -14   2   5    0.64    0.17
  13  -2  -5   -0.12    0.09
 -13   2   5    0.05    0.13
  12  -2  -5    0.28    0.11
  12  -2  -5    0.20    0.06
 -12   2   5    0.21    0.13
  11  -2  -5    0.09    0.08
  11  -2  -5    0.08    0.06
 -11   2   5    0.22    0.11
  10  -2  -5    1.79    0.13
  10  -2  -5    1.35    0.14
 -10   2   5    1.53    0.15
   9  -2  -5    3.41    0.18
   9  -2  -5    3.05    0.24
   9  -2  -5    3.37    0.19
   9  -2  -5    3.54    0.16
  -9   2   5    3.19    0.18
   8  -2  -5    1.02    0.35
   8  -2  -5    1.16    0.11
   8  -2  -5    1.20    0.09
   8  -2  -5    0.94    0.11
   8  -2  -5    1.19    0.11
  -8   2   5    1.04    0.11
  -8   2   5    1.22    0.12
  -8   2   5    1.02    0.11
  -8   2   5    1.17    0.11
   7  -2  -5    0.00    0.04
   7  -2  -5    0.03    0.04
   7  -2  -5   -0.14    0.17
   7  -2  -5   -0.01    0.05
   7  -2  -5    0.00    0.04
  -7   2   5   -0.01    0.04
  -7   2   5   -0.04    0.07
  -7   2   5    0.05    0.05
  -7   2   5    0.01    0.04
   6  -2  -5   -0.04    0.05
   6  -2  -5    0.04    0.11
   6  -2  -5    0.00    0.04
   6  -2  -5    0.03    0.08
   6  -2  -5   -0.07    0.03
   6  -2  -5    0.00    0.03
  -6   2   5    0.02    0.05
  -6   2   5    0.06    0.03
  -6   2   5    0.02    0.04
  -6   2   5    0.08    0.04
  -6   2   5   -0.04    0.03
   5  -2  -5    4.45    0.13
   5  -2  -5    4.22    0.14
   5  -2  -5    4.30    0.23
   5  -2  -5    4.56    0.15
   5  -2  -5    4.64    0.25
  -5   2   5    4.14    0.13
  -5   2   5    4.46    0.15
  -5   2   5    4.25    0.14
  -5   2   5    4.41    0.14
  -5   2   5    4.47    0.16
   4  -2  -5    7.36    0.19
   4  -2  -5    7.38    0.28
   4  -2  -5    7.34    0.21
   4  -2  -5    7.09    0.18
  -4   2   5    7.02    0.16
  -4   2   5    7.24    0.18
  -4   2   5    7.10    0.21
  -4   2   5    7.38    0.16
  -4   2   5    7.04    0.18
  -4   2   5    7.01    0.27
   3  -2  -5    6.88    0.20
   3  -2  -5    7.09    0.17
   3  -2  -5    6.95    0.17
   3  -2  -5    6.65    0.29
  -3   2   5    6.91    0.62
  -3   2   5    6.62    0.18
  -3   2   5    6.76    0.16
   2  -2  -5    0.44    0.08
   2  -2  -5    0.39    0.06
   2  -2  -5    0.49    0.05
  -2   2   5    0.55    0.04
  -2   2   5    0.39    0.04
  -2   2   5    0.49    0.06
  -2   2   5    0.39    0.06
  -2   2   5    0.42    0.04
   1  -2  -5   12.42    0.33
   1  -2  -5   12.32    0.30
  -1   2   5   12.24    0.23
  -1   2   5   12.57    0.30
  -1   2   5   12.33    0.28
   0  -2  -5    7.39    0.18
   0  -2  -5    7.41    0.22
   0   2   5    7.31    0.20
   0   2   5    7.39    0.15
   0   2   5    7.27    0.22
  -1  -2  -5    5.12    0.16
  -1  -2  -5    5.48    0.19
   1   2   5    5.30    0.18
   1   2   5    5.14    0.10
   1   2   5    5.25    0.17
   1   2   5    5.15    0.10
  -2  -2  -5    0.71    0.19
  -2  -2  -5    0.76    0.09
   2   2   5    0.62    0.08
  -3  -2  -5    0.38    0.07
  -3  -2  -5    0.40    0.08
   3   2   5    0.34    0.07
  -4  -2  -5   12.00    0.36
  -4  -2  -5   11.74    0.32
   4   2   5   11.86    0.33
  -5  -2  -5    1.82    0.20
  -5  -2  -5    2.17    0.14
   5   2   5    1.87    0.15
  -6  -2  -5    1.87    0.41
  -7  -2  -5    0.94    0.14
  10   2   5    0.02    0.05
 -14   3   5    0.14    0.16
 -13   3   5    0.31    0.14
  12  -3  -5    0.16    0.08
  12  -3  -5    0.26    0.18
 -12   3   5    0.11    0.11
  11  -3  -5    0.15    0.07
 -11   3   5    0.07    0.10
  10  -3  -5    0.04    0.06
 -10   3   5   -0.03    0.08
   9  -3  -5    0.33    0.08
   9  -3  -5   -0.04    0.24
  -9   3   5    0.26    0.08
  -9   3   5    0.25    0.08
   8  -3  -5    0.50    0.07
   8  -3  -5    0.39    0.29
   8  -3  -5    0.52    0.08
  -8   3   5    0.43    0.08
  -8   3   5    0.58    0.09
  -8   3   5    0.48    0.09
   7  -3  -5   14.83    0.33
   7  -3  -5   14.19    0.31
   7  -3  -5   14.25    0.46
  -7   3   5   14.70    0.42
  -7   3   5   13.83    0.35
  -7   3   5   14.20    0.31
   6  -3  -5    7.70    0.22
   6  -3  -5    8.03    0.22
   6  -3  -5    7.72    0.33
   6  -3  -5    7.76    0.27
  -6   3   5    8.18    0.20
  -6   3   5    8.02    0.31
  -6   3   5    7.58    0.21
  -6   3   5    8.07    0.24
   5  -3  -5    0.71    0.08
   5  -3  -5    0.64    0.07
   5  -3  -5    0.54    0.07
   5  -3  -5    0.47    0.12
  -5   3   5    0.73    0.07
  -5   3   5    0.60    0.08
  -5   3   5    0.79    0.07
  -5   3   5    0.69    0.06
   4  -3  -5    0.56    0.06
   4  -3  -5    0.53    0.07
   4  -3  -5    0.53    0.11
   4  -3  -5    0.47    0.06
  -4   3   5    0.56    0.06
  -4   3   5    0.59    0.08
  -4   3   5    0.59    0.04
  -4   3   5    0.59    0.06
   3  -3  -5   -0.02    0.04
   3  -3  -5    0.05    0.04
   3  -3  -5    0.06    0.07
   3  -3  -5    0.05    0.03
  -3   3   5    0.14    0.04
  -3   3   5    0.04    0.03
  -3   3   5    0.04    0.04
   2  -3  -5    9.87    0.34
   2  -3  -5    9.78    0.27
  -2   3   5    9.63    0.18
  -2   3   5    9.68    0.20
  -2   3   5    9.47    0.26
  -2   3   5    9.23    0.17
   1  -3  -5    4.13    0.17
   1  -3  -5    4.39    0.26
  -1   3   5    4.13    0.11
  -1   3   5    4.24    0.17
   0  -3  -5    7.54    0.24
   0  -3  -5    7.59    0.18
   0   3   5    7.34    0.23
   0   3   5    7.45    0.15
  -1  -3  -5    4.26    0.16
  -1  -3  -5    4.68    0.18
   1   3   5    4.35    0.10
   1   3   5    4.58    0.18
  -2  -3  -5    1.06    0.09
  -2  -3  -5    0.93    0.10
   2   3   5    1.00    0.11
  -3  -3  -5    0.03    0.05
  -3  -3  -5    0.04    0.04
   3   3   5   -0.11    0.04
  -4  -3  -5    1.11    0.11
  -4  -3  -5    1.18    0.12
   4   3   5    0.78    0.11
  -5  -3  -5    0.24    0.07
   5   3   5   -0.04    0.06
  -6  -3  -5    0.23    0.08
 -14   4   5    0.15    0.32
 -13   4   5    0.42    0.14
  12  -4  -5    0.43    0.09
 -12   4   5    0.68    0.14
  11  -4  -5    0.02    0.06
 -11   4   5   -0.08    0.09
  10  -4  -5    0.42    0.09
 -10   4   5    0.53    0.10
 -10   4   5    0.35    0.10
   9  -4  -5    3.25    0.17
   9  -4  -5    2.27    0.37
   9  -4  -5    2.48    0.13
  -9   4   5    3.30    0.18
  -9   4   5    2.46    0.32
  -9   4   5    2.67    0.17
   8  -4  -5    2.06    0.25
   8  -4  -5    2.28    0.14
   8  -4  -5    2.59    0.15
  -8   4   5    2.51    0.16
  -8   4   5    2.35    0.15
  -8   4   5    2.52    0.16
   7  -4  -5    9.25    0.25
   7  -4  -5    8.30    0.37
   7  -4  -5    8.30    0.23
  -7   4   5    9.53    1.87
  -7   4   5    8.88    0.23
  -7   4   5    8.54    0.28
   6  -4  -5   18.67    0.39
   6  -4  -5   17.22    0.37
   6  -4  -5   17.49    0.40
   6  -4  -5   17.60    0.54
  -6   4   5   18.05    0.42
  -6   4   5   17.67    0.37
  -6   4   5   17.82    0.38
  -6   4   5   18.08    0.33
   5  -4  -5    2.27    0.13
   5  -4  -5    2.04    0.21
   5  -4  -5    2.11    0.12
   5  -4  -5    2.13    0.13
  -5   4   5    2.14    0.08
  -5   4   5    2.21    0.11
  -5   4   5    2.38    0.12
  -5   4   5    2.08    0.14
   4  -4  -5    9.62    0.23
   4  -4  -5    9.59    0.35
   4  -4  -5    9.61    0.27
  -4   4   5    9.48    0.23
  -4   4   5    9.64    0.22
  -4   4   5    9.60    0.28
   3  -4  -5    2.52    0.14
   3  -4  -5    2.72    0.11
   3  -4  -5    2.53    0.19
  -3   4   5    2.38    0.13
  -3   4   5    2.60    0.11
  -3   4   5    2.51    0.09
   2  -4  -5    2.36    0.14
   2  -4  -5    2.47    0.18
  -2   4   5    2.38    0.13
  -2   4   5    2.36    0.10
   1  -4  -5    0.82    0.10
   1  -4  -5    0.83    0.11
  -1   4   5    0.99    0.10
  -1   4   5    0.81    0.06
   0  -4  -5    4.87    0.20
   0   4   5    5.00    0.13
   0   4   5    4.80    0.19
  -1  -4  -5    2.56    0.15
   1   4   5    2.72    0.15
   1   4   5    2.52    0.08
  -2  -4  -5    0.21    0.07
   2   4   5    0.12    0.06
   2   4   5    0.08    0.03
   3   4   5    4.15    0.20
   4   4   5    9.60    0.31
 -13   5   5   -0.09    0.15
  12  -5  -5    0.02    0.08
 -12   5   5   -0.05    0.23
  11  -5  -5    0.13    0.08
 -11   5   5    0.03    0.09
 -11   5   5   -0.12    0.16
  10  -5  -5    0.19    0.08
  10  -5  -5    0.20    0.07
 -10   5   5    0.24    0.09
 -10   5   5    0.15    0.09
   9  -5  -5    1.70    0.13
   9  -5  -5    1.89    0.15
  -9   5   5    1.61    0.15
  -9   5   5    1.73    0.16
  -9   5   5    2.05    0.17
   8  -5  -5    0.19    0.14
   8  -5  -5    0.27    0.08
   8  -5  -5    0.23    0.07
  -8   5   5    0.21    0.08
  -8   5   5    0.25    0.07
  -8   5   5    0.15    0.07
   7  -5  -5    0.42    0.21
   7  -5  -5    0.48    0.09
   7  -5  -5    0.56    0.09
  -7   5   5    0.64    0.10
  -7   5   5    0.55    0.09
  -7   5   5    0.65    0.08
   6  -5  -5    0.42    0.07
   6  -5  -5    0.36    0.08
   6  -5  -5    0.32    0.07
   6  -5  -5    0.07    0.12
  -6   5   5    0.27    0.05
  -6   5   5    0.30    0.07
  -6   5   5    0.32    0.07
  -6   5   5    0.34    0.06
   5  -5  -5    4.66    0.19
   5  -5  -5    4.35    0.17
   5  -5  -5    3.96    0.27
  -5   5   5    4.17    0.16
  -5   5   5    4.76    0.20
  -5   5   5    4.48    0.16
   4  -5  -5    2.49    0.21
   4  -5  -5    2.20    0.12
   4  -5  -5    2.37    0.14
  -4   5   5    2.41    0.15
  -4   5   5    2.18    0.10
  -4   5   5    2.31    0.11
   3  -5  -5   -0.10    0.18
   3  -5  -5    0.01    0.04
  -3   5   5   -0.02    0.03
  -3   5   5    0.02    0.03
  -3   5   5    0.03    0.05
   2  -5  -5    9.53    0.34
   2  -5  -5    9.38    0.29
  -2   5   5    9.21    0.22
  -2   5   5    9.93    0.30
   1  -5  -5    5.25    0.31
   1  -5  -5    5.65    0.22
  -1   5   5    5.58    0.16
  -1   5   5    5.47    0.22
   0   5   5   -0.02    0.03
   0   5   5    0.00    0.05
   1   5   5    4.35    0.12
   1   5   5    4.49    0.20
   2   5   5    2.69    0.17
   2   5   5    2.52    0.09
   3   5   5    0.27    0.09
   3   5   5    0.46    0.04
 -13   6   5    0.18    0.12
  12  -6  -5    0.15    0.09
 -12   6   5    0.17    0.11
  11  -6  -5    0.84    0.12
 -11   6   5    0.66    0.14
 -11   6   5    0.86    0.13
  10  -6  -5    0.93    0.10
  10  -6  -5    1.04    0.13
 -10   6   5    0.90    0.14
 -10   6   5    1.02    0.14
 -10   6   5    1.12    0.13
   9  -6  -5    1.90    0.16
   9  -6  -5    1.96    0.15
  -9   6   5    1.71    0.17
  -9   6   5    1.84    0.14
  -9   6   5    2.00    0.17
   8  -6  -5    0.13    0.08
   8  -6  -5    0.17    0.07
  -8   6   5    0.20    0.07
  -8   6   5    0.18    0.08
  -8   6   5    0.27    0.09
   7  -6  -5    0.62    0.10
   7  -6  -5    0.20    0.15
  -7   6   5    0.51    0.08
  -7   6   5    0.52    0.10
  -7   6   5    0.44    0.06
   6  -6  -5    1.46    0.12
   6  -6  -5    1.09    0.11
   6  -6  -5    1.08    0.18
  -6   6   5    1.17    0.11
  -6   6   5    1.22    0.11
  -6   6   5    1.14    0.13
   5  -6  -5    2.61    0.31
   5  -6  -5    2.99    0.16
   5  -6  -5    2.96    0.15
  -5   6   5    2.83    0.17
  -5   6   5    3.15    0.15
  -5   6   5    3.07    0.13
   4  -6  -5    0.12    0.05
   4  -6  -5    0.14    0.10
   4  -6  -5    0.05    0.06
  -4   6   5    0.05    0.04
  -4   6   5    0.10    0.06
  -4   6   5    0.10    0.05
   3  -6  -5    1.60    0.18
  -3   6   5    1.82    0.11
  -3   6   5    1.54    0.13
   2  -6  -5    1.58    0.18
  -2   6   5    1.41    0.10
  -2   6   5    1.37    0.13
   1  -6  -5    0.62    0.20
  -1   6   5    0.45    0.06
  -1   6   5    0.40    0.08
   0   6   5    0.32    0.05
   0   6   5    0.22    0.08
   1   6   5    0.48    0.06
   1   6   5    0.48    0.10
   2   6   5    0.81    0.13
   2   6   5    0.65    0.06
   3   6   5    0.11    0.03
   4   6   5    0.04    0.03
 -13   7   5    0.18    0.12
  12  -7  -5    0.00    0.09
 -12   7   5    0.00    0.10
 -12   7   5    0.05    0.11
  11  -7  -5   -0.05    0.07
 -11   7   5   -0.09    0.09
 -11   7   5   -0.06    0.09
 -11   7   5    0.02    0.09
  10  -7  -5    0.16    0.08
  10  -7  -5    0.05    0.09
 -10   7   5    0.09    0.09
 -10   7   5    0.00    0.09
 -10   7   5    0.10    0.08
   9  -7  -5    0.05    0.09
   9  -7  -5    0.18    0.08
  -9   7   5    0.06    0.08
  -9   7   5    0.05    0.07
  -9   7   5    0.05    0.07
   8  -7  -5    0.19    0.09
  -8   7   5    0.22    0.08
  -8   7   5    0.12    0.08
   7  -7  -5   -0.04    0.07
  -7   7   5    0.05    0.06
  -7   7   5    0.00    0.06
  -7   7   5    0.03    0.07
   6  -7  -5    0.45    0.09
   6  -7  -5    0.42    0.15
  -6   7   5    0.62    0.10
  -6   7   5    0.57    0.11
  -6   7   5    0.42    0.07
   5  -7  -5   -0.18    0.10
   5  -7  -5   -0.04    0.07
  -5   7   5   -0.03    0.04
  -5   7   5    0.07    0.05
  -5   7   5    0.02    0.07
   4  -7  -5    0.67    0.09
   4  -7  -5    0.68    0.14
  -4   7   5    0.85    0.09
  -4   7   5    0.77    0.12
   3  -7  -5    0.03    0.24
  -3   7   5    0.04    0.04
  -3   7   5   -0.05    0.06
   2  -7  -5    0.86    0.14
  -2   7   5    0.87    0.12
  -2   7   5    0.87    0.09
   1  -7  -5    2.75    0.22
  -1   7   5    2.39    0.12
  -1   7   5    2.33    0.17
   0   7   5    3.01    0.20
   0   7   5    2.60    0.12
   1   7   5    0.15    0.09
   1   7   5    0.13    0.05
   2   7   5    0.29    0.10
   2   7   5    0.17    0.05
   3   7   5    0.07    0.04
   4   7   5   -0.05    0.04
 -13   8   5   -0.09    0.11
 -13   8   5    0.21    0.12
 -12   8   5    0.08    0.11
 -12   8   5    0.53    0.12
  11  -8  -5   -0.09    0.08
  11  -8  -5    0.06    0.09
 -11   8   5    0.05    0.09
 -11   8   5   -0.08    0.08
 -11   8   5    0.11    0.10
  10  -8  -5    0.25    0.10
  10  -8  -5    0.32    0.10
 -10   8   5    0.36    0.10
 -10   8   5    0.15    0.11
   9  -8  -5    0.30    0.11
  -9   8   5    0.19    0.08
  -9   8   5    0.26    0.10
   8  -8  -5    0.01    0.09
  -8   8   5    0.30    0.10
  -8   8   5    0.24    0.08
   7  -8  -5    1.89    0.17
  -7   8   5    1.93    0.17
  -7   8   5    2.14    0.15
  -7   8   5    1.92    0.16
   6  -8  -5    1.92    0.16
  -6   8   5    2.12    0.18
  -6   8   5    2.30    0.13
  -6   8   5    1.90    0.15
   5  -8  -5    0.61    0.10
  -5   8   5    0.54    0.09
  -5   8   5    0.58    0.11
  -5   8   5    0.57    0.07
  -4   8   5    0.26    0.09
  -4   8   5    0.19    0.07
  -3   8   5    0.10    0.08
  -3   8   5    0.09    0.06
  -2   8   5    0.10    0.05
  -2   8   5    0.23    0.11
  -1   8   5    0.60    0.08
  -1   8   5    0.71    0.13
   0   8   5    1.44    0.17
   0   8   5    1.33    0.11
   1   8   5    0.01    0.04
   1   8   5    0.03    0.08
   2   8   5    0.05    0.05
   3   8   5    0.10    0.06
   4   8   5   -0.04    0.06
 -12   9   5   -0.11    0.09
  11  -9  -5    0.18    0.11
  11  -9  -5   -0.02    0.09
 -11   9   5    0.15    0.11
  10  -9  -5   -0.18    0.09
 -10   9   5    0.10    0.10
 -10   9   5   -0.07    0.08
   9  -9  -5    0.05    0.11
  -9   9   5    0.10    0.09
  -9   9   5    0.04    0.07
   8  -9  -5   -0.01    0.10
  -8   9   5   -0.02    0.06
  -8   9   5   -0.02    0.08
   7  -9  -5    0.20    0.11
  -7   9   5    0.13    0.09
  -7   9   5    0.19    0.07
   6  -9  -5    0.38    0.11
  -6   9   5    0.32    0.09
  -6   9   5    0.57    0.08
  -6   9   5    0.63    0.14
   5  -9  -5    0.04    0.09
  -5   9   5    0.16    0.10
  -5   9   5    0.10    0.07
  -4   9   5    0.74    0.10
  -4   9   5    0.92    0.15
  -3   9   5    0.17    0.07
  -3   9   5    0.17    0.09
  -2   9   5    1.02    0.11
  -2   9   5    1.16    0.16
  -1   9   5    0.13    0.06
  -1   9   5    0.35    0.11
   0   9   5    0.26    0.11
   0   9   5    0.17    0.06
   1   9   5    0.03    0.05
   2   9   5    0.36    0.09
   3   9   5    0.13    0.07
  11 -10  -5    0.22    0.11
 -11  10   5    0.06    0.10
  10 -10  -5    0.88    0.15
 -10  10   5    1.13    0.18
   9 -10  -5    0.10    0.11
  -9  10   5    0.14    0.10
   8 -10  -5   -0.02    0.11
  -8  10   5   -0.02    0.07
  -8  10   5    0.00    0.09
   7 -10  -5    0.39    0.12
  -7  10   5    0.26    0.08
  -7  10   5    0.24    0.11
   6 -10  -5    1.05    0.14
  -6  10   5    1.19    0.14
  -6  10   5    1.27    0.19
  -5  10   5    0.11    0.07
  -5  10   5   -0.03    0.08
  -4  10   5    0.18    0.08
  -4  10   5   -0.07    0.08
  -3  10   5    0.07    0.07
  -3  10   5    0.01    0.14
  -2  10   5    0.01    0.09
  -2  10   5    0.07    0.06
  -1  10   5    0.09    0.10
  -1  10   5    0.08    0.06
   0  10   5    0.14    0.07
   0  10   5   -0.03    0.08
   1  10   5    0.33    0.09
  10 -11  -5   -0.01    0.12
 -10  11   5    0.15    0.11
   9 -11  -5    0.08    0.12
  -9  11   5    0.04    0.11
   8 -11  -5    1.02    0.16
  -8  11   5    1.11    0.18
   7 -11  -5    0.29    0.12
  -7  11   5    0.32    0.13
   6 -11  -5   -0.13    0.10
  -6  11   5   -0.03    0.09
  -6  11   5    0.11    0.09
  -5  11   5    0.57    0.11
  -5  11   5    0.71    0.15
  -4  11   5    0.48    0.11
  -4  11   5    0.52    0.14
  -3  11   5    0.19    0.11
  -3  11   5    0.23    0.09
  -2  11   5   -0.18    0.08
  -2  11   5   -0.12    0.09
  -2  11   5   -0.09    0.07
  -1  11   5    0.35    0.10
  -1  11   5    0.01    0.07
   7 -12  -5    0.07    0.12
  -7  12   5    0.05    0.10
   6 -12  -5   -0.16    0.12
  -6  12   5    0.12    0.11
  -6  12   5    0.03    0.09
  -6  12   5    0.12    0.10
  -5  12   5   -0.05    0.09
  -5  12   5   -0.01    0.09
  -5  12   5    0.07    0.11
  -4  12   5   -0.16    0.10
  -4  12   5   -0.02    0.08
  -4  12   5   -0.03    0.10
   4 -16   6    0.26    0.13
   0  15  -6    0.21    0.11
   0 -15   6   -0.06    0.11
   1 -15   6    0.25    0.13
   2 -15   6   -0.02    0.12
   3 -15   6   -0.07    0.10
   4 -15   6    1.04    0.15
  -5  15  -6    0.51    0.16
   5 -15   6    0.77    0.14
  -6  15  -6   -0.06    0.14
   6 -15   6   -0.04    0.10
  -7  15  -6   -0.41    0.13
   7 -15   6   -0.13    0.10
  -8  15  -6   -0.35    0.15
   2  14  -6    0.08    0.10
   1  14  -6    0.14    0.10
  -1 -14   6    0.22    0.12
   0  14  -6   -0.05    0.08
   0 -14   6    0.04    0.11
  -1  14  -6    0.53    0.15
   1 -14   6    0.61    0.13
  -2  14  -6    0.05    0.07
   2 -14   6    0.00    0.11
  -3  14  -6    0.09    0.08
   3 -14   6    0.16    0.11
  -4  14  -6    0.08    0.08
   4 -14   6   -0.06    0.09
  -5  14  -6   -0.14    0.13
  -5  14  -6   -0.02    0.08
   5 -14   6    0.15    0.10
  -6  14  -6   -0.07    0.14
  -6  14  -6   -0.03    0.08
   6 -14   6    0.18    0.10
  -7  14  -6    2.72    0.28
  -7  14  -6    2.97    0.22
   7 -14   6    3.01    0.24
   7 -14   6    2.84    0.18
  -8  14  -6    0.25    0.11
  -8  14  -6   -0.04    0.16
  -9  14  -6   -0.18    0.16
  -9  14  -6   -0.07    0.10
   4  13  -6   -0.11    0.09
   3  13  -6   -0.08    0.09
   2  13  -6    0.39    0.11
   1  13  -6    2.83    0.20
  -1 -13   6    2.65    0.21
   0  13  -6    3.28    0.21
   0  13  -6    3.24    0.15
   0 -13   6    3.03    0.21
  -1  13  -6    0.46    0.13
  -1  13  -6    0.41    0.10
   1 -13   6    0.33    0.11
  -2  13  -6   -0.05    0.08
  -2  13  -6    0.04    0.07
   2 -13   6    0.12    0.10
  -3  13  -6    0.63    0.13
  -3  13  -6    0.48    0.10
   3 -13   6    0.34    0.11
  -4  13  -6    2.57    0.18
  -4  13  -6    1.89    0.21
  -4  13  -6    2.47    0.41
   4 -13   6    2.18    0.18
  -5  13  -6    0.58    0.11
  -5  13  -6    0.73    0.16
   5 -13   6    0.61    0.11
  -6  13  -6    4.50    0.32
  -6  13  -6    4.37    0.20
  -6  13  -6    4.97    0.24
   6 -13   6    4.91    0.25
   6 -13   6    4.75    0.21
  -7  13  -6    0.63    0.19
  -7  13  -6    0.63    0.12
  -7  13  -6    0.72    0.13
   7 -13   6    0.83    0.13
  -8  13  -6   -0.28    0.14
  -8  13  -6   -0.03    0.10
   8 -13   6   -0.09    0.19
  -9  13  -6    0.31    0.12
  -9  13  -6    0.10    0.18
 -10  13  -6    0.05    0.11
 -10  13  -6    0.03    0.18
   5  12  -6    0.46    0.12
   4  12  -6    1.38    0.16
   3  12  -6    0.15    0.09
   2  12  -6    0.24    0.09
  -2 -12   6    0.15    0.09
   1  12  -6   -0.04    0.04
   1  12  -6    0.23    0.09
   1  12  -6   -0.01    0.07
  -1 -12   6   -0.03    0.09
   0  12  -6    2.64    0.17
   0  12  -6    2.52    0.14
   0  12  -6    2.78    0.29
   0 -12   6    2.46    0.18
  -1  12  -6    0.20    0.07
  -1  12  -6    0.20    0.08
  -1  12  -6    0.44    0.11
   1 -12   6    0.10    0.09
  -2  12  -6    0.20    0.09
  -2  12  -6    0.01    0.06
   2 -12   6    0.01    0.08
  -3  12  -6    0.42    0.12
  -3  12  -6    0.41    0.09
  -3  12  -6    0.40    0.31
   3 -12   6    0.31    0.09
  -4  12  -6    0.57    0.24
  -4  12  -6    0.61    0.09
  -4  12  -6    0.62    0.11
  -4  12  -6    0.64    0.15
   4 -12   6    0.50    0.10
   4 -12   6    0.56    0.10
  -5  12  -6    0.19    0.08
  -5  12  -6    0.10    0.13
  -5  12  -6    0.20    0.14
  -5  12  -6    0.07    0.07
   5 -12   6    0.14    0.08
   5 -12   6    0.15    0.08
  -6  12  -6   -0.11    0.12
  -6  12  -6   -0.07    0.08
  -6  12  -6    0.05    0.08
  -6  12  -6   -0.01    0.13
   6 -12   6   -0.16    0.07
   6 -12   6    0.08    0.07
  -7  12  -6    0.23    0.09
  -7  12  -6    0.34    0.16
   7 -12   6    0.38    0.23
  -8  12  -6    0.36    0.16
  -8  12  -6    0.36    0.11
   8 -12   6    0.32    0.10
  -9  12  -6    0.21    0.11
  -9  12  -6    0.06    0.15
   9 -12   6    0.16    0.09
 -10  12  -6    0.93    0.15
 -10  12  -6    0.53    0.19
 -11  12  -6    0.08    0.17
 -11  12  -6    0.26    0.13
   7  11  -6    0.10    0.11
   6  11  -6    0.06    0.09
   5  11  -6    0.26    0.10
   4  11  -6    0.03    0.07
   3  11  -6    0.76    0.12
   2  11  -6    0.24    0.07
   2  11  -6   -0.01    0.06
  -2 -11   6    0.07    0.08
   1  11  -6    1.12    0.13
   1  11  -6    1.43    0.16
   1  11  -6    1.20    0.11
  -1 -11   6    1.08    0.12
   0  11  -6    0.19    0.15
   0  11  -6    0.01    0.06
   0  11  -6   -0.04    0.05
   0 -11   6    0.01    0.07
  -1  11  -6    3.83    0.24
  -1  11  -6    3.51    0.17
  -1  11  -6    4.10    0.19
  -1  11  -6    3.40    0.21
   1 -11   6    3.81    0.18
  -2  11  -6    2.28    0.19
  -2  11  -6    2.67    0.15
  -2  11  -6    2.85    0.22
   2 -11   6    2.38    0.15
  -3  11  -6    0.13    0.11
  -3  11  -6    0.36    0.31
  -3  11  -6    0.38    0.07
  -3  11  -6    0.34    0.08
   3 -11   6    0.29    0.08
   3 -11   6    0.32    0.08
  -4  11  -6    1.29    0.17
  -4  11  -6    0.92    0.10
  -4  11  -6    1.08    0.12
  -4  11  -6    0.96    0.16
   4 -11   6    1.00    0.11
   4 -11   6    1.20    0.12
  -5  11  -6    0.19    0.13
  -5  11  -6    0.21    0.07
  -5  11  -6    0.34    0.08
  -5  11  -6    0.09    0.12
   5 -11   6    0.40    0.09
   5 -11   6    0.36    0.08
  -6  11  -6    0.25    0.13
  -6  11  -6    0.31    0.08
  -6  11  -6    0.24    0.13
  -6  11  -6    0.21    0.08
   6 -11   6    0.25    0.08
   6 -11   6    0.29    0.07
  -7  11  -6    1.05    0.19
  -7  11  -6    1.29    0.19
  -7  11  -6    0.99    0.12
   7 -11   6    1.14    0.32
  -8  11  -6    0.71    0.18
  -8  11  -6    0.85    0.13
   8 -11   6    0.85    0.11
  -9  11  -6    0.20    0.16
  -9  11  -6    0.11    0.10
   9 -11   6    0.06    0.07
 -10  11  -6    0.04    0.15
 -10  11  -6    0.15    0.12
  10 -11   6    0.02    0.15
 -11  11  -6    0.08    0.16
 -11  11  -6    0.26    0.13
   8  10  -6    0.09    0.10
   7  10  -6   -0.08    0.08
   6  10  -6    0.21    0.09
   5  10  -6    0.05    0.08
   4  10  -6    0.54    0.10
   4  10  -6    0.74    0.26
   3  10  -6    0.65    0.10
   3  10  -6    0.78    0.13
  -3 -10   6    0.68    0.10
   2  10  -6    0.16    0.07
   2  10  -6    0.04    0.06
   2  10  -6    0.01    0.04
  -2 -10   6    0.06    0.07
   1  10  -6   -0.03    0.05
   1  10  -6    0.14    0.08
   1  10  -6    0.02    0.05
  -1 -10   6   -0.08    0.06
   0  10  -6    0.99    0.10
   0  10  -6    0.93    0.09
   0  10  -6    0.89    0.14
   0 -10   6    0.88    0.10
  -1  10  -6    0.25    0.09
  -1  10  -6    0.26    0.07
  -1  10  -6    0.26    0.07
  -1  10  -6    0.24    0.10
   1 -10   6    0.27    0.08
  -2  10  -6    2.40    0.14
  -2  10  -6    2.54    0.22
  -2  10  -6    2.66    0.12
  -2  10  -6    2.53    0.18
   2 -10   6    2.57    0.15
   2 -10   6    2.50    0.28
  -3  10  -6    3.35    0.18
  -3  10  -6    3.58    0.14
  -3  10  -6    3.49    0.17
  -3  10  -6    3.13    0.21
  -3  10  -6    3.29    0.25
   3 -10   6    3.38    0.16
   3 -10   6    3.69    0.19
  -4  10  -6    0.10    0.12
  -4  10  -6    0.10    0.06
  -4  10  -6    0.18    0.06
  -4  10  -6    0.10    0.10
  -4  10  -6    0.14    0.06
   4 -10   6    0.09    0.06
   4 -10   6    0.12    0.06
  -5  10  -6   -0.05    0.09
  -5  10  -6    0.05    0.11
  -5  10  -6   -0.03    0.05
  -5  10  -6   -0.03    0.06
   5 -10   6   -0.03    0.05
   5 -10   6    0.01    0.08
  -6  10  -6    2.81    0.23
  -6  10  -6    2.92    0.16
  -6  10  -6    2.96    0.41
   6 -10   6    2.96    0.47
  -7  10  -6    1.80    0.15
  -7  10  -6    1.66    0.23
  -7  10  -6    1.31    0.18
   7 -10   6    1.77    0.14
  -8  10  -6    0.96    0.12
  -8  10  -6    0.44    0.17
  -8  10  -6    1.13    0.18
   8 -10   6    0.87    0.11
   8 -10   6    1.08    0.13
  -9  10  -6   -0.11    0.12
  -9  10  -6   -0.21    0.07
   9 -10   6    0.12    0.07
   9 -10   6    0.00    0.08
 -10  10  -6   -0.15    0.13
 -10  10  -6    0.13    0.11
  10 -10   6    0.14    0.10
  10 -10   6    0.16    0.06
 -11  10  -6    0.25    0.16
 -11  10  -6    0.59    0.14
  11 -10   6    0.53    0.13
 -12  10  -6    0.21    0.17
 -12  10  -6    0.18    0.14
  12 -10   6    0.26    0.11
   9   9  -6   -0.05    0.10
   8   9  -6    0.08    0.09
   7   9  -6   -0.02    0.07
   6   9  -6    0.55    0.10
   5   9  -6    0.32    0.22
   5   9  -6    0.15    0.07
   4   9  -6    0.71    0.10
   4   9  -6    0.73    0.17
   3   9  -6    0.09    0.06
   3   9  -6    0.17    0.05
   3   9  -6    0.28    0.09
  -3  -9   6    0.15    0.07
   2   9  -6    3.28    0.13
   2   9  -6    3.39    0.16
   2   9  -6    3.35    0.20
  -2  -9   6    3.26    0.16
   1   9  -6    5.12    0.29
   1   9  -6    5.55    0.19
   1   9  -6    5.30    0.29
  -1  -9   6    5.44    0.19
   0   9  -6    0.90    0.10
   0   9  -6    0.91    0.13
   0   9  -6    0.76    0.12
   0   9  -6    0.65    0.11
   0   9  -6    0.77    0.08
   0  -9   6    0.86    0.09
  -1   9  -6    1.54    0.11
  -1   9  -6    1.72    0.12
  -1   9  -6    1.58    0.13
  -1   9  -6    1.69    0.14
  -1   9  -6    1.53    0.09
  -1   9  -6    1.81    0.18
   1  -9   6    1.74    0.12
   1  -9   6    1.46    0.11
  -2   9  -6    0.27    0.06
  -2   9  -6    0.27    0.06
  -2   9  -6    0.37    0.12
  -2   9  -6    0.23    0.07
  -2   9  -6    0.26    0.09
   2  -9   6    0.31    0.18
   2  -9   6    0.32    0.07
  -3   9  -6    2.21    0.15
  -3   9  -6    2.05    0.17
  -3   9  -6    1.99    0.20
  -3   9  -6    2.18    0.12
  -3   9  -6    2.16    0.13
   3  -9   6    1.98    0.20
   3  -9   6    1.93    0.12
  -4   9  -6    0.45    0.08
  -4   9  -6    0.33    0.11
  -4   9  -6    0.35    0.08
  -4   9  -6    0.39    0.13
  -4   9  -6    0.42    0.07
   4  -9   6    0.36    0.07
   4  -9   6    0.26    0.14
  -5   9  -6    1.77    0.13
  -5   9  -6    2.07    0.25
  -5   9  -6    1.86    0.13
  -5   9  -6    1.50    0.16
   5  -9   6    1.82    0.10
   5  -9   6    1.87    0.16
   5  -9   6    1.81    0.13
  -6   9  -6    1.50    0.13
  -6   9  -6    1.62    0.18
  -6   9  -6    1.59    0.20
   6  -9   6    1.58    0.15
   6  -9   6    1.41    0.12
   6  -9   6    1.58    0.14
  -7   9  -6    1.62    0.14
  -7   9  -6    1.33    0.18
  -7   9  -6    1.27    0.19
   7  -9   6    1.72    0.14
   7  -9   6    1.62    0.12
  -8   9  -6    0.04    0.13
  -8   9  -6    0.12    0.08
  -8   9  -6    0.02    0.11
   8  -9   6    0.17    0.06
   8  -9   6    0.12    0.08
  -9   9  -6   -0.04    0.12
  -9   9  -6    0.02    0.08
   9  -9   6   -0.11    0.07
   9  -9   6   -0.02    0.05
 -10   9  -6   -0.06    0.09
 -10   9  -6    0.04    0.14
  10  -9   6    0.12    0.09
 -11   9  -6   -0.01    0.15
  11  -9   6    0.05    0.09
 -12   9  -6   -0.19    0.14
  12  -9   6    0.10    0.10
   9   8  -6    0.20    0.10
   8   8  -6    0.02    0.08
   7   8  -6   -0.07    0.07
   6   8  -6    0.63    0.13
   6   8  -6    0.73    0.10
   5   8  -6    0.31    0.08
   5   8  -6    0.22    0.15
   4   8  -6    0.13    0.06
   4   8  -6    0.01    0.04
   4   8  -6    0.10    0.11
  -4  -8   6    0.09    0.06
   3   8  -6    1.02    0.10
   3   8  -6    1.01    0.08
   3   8  -6    0.99    0.38
  -3  -8   6    0.82    0.09
   2   8  -6    0.58    0.08
   2   8  -6    0.47    0.09
   2   8  -6    0.42    0.06
   2   8  -6    0.58    0.11
  -2  -8   6    0.53    0.08
   1   8  -6    1.11    0.14
   1   8  -6    1.17    0.10
   1   8  -6    0.94    0.12
   1   8  -6    1.25    0.09
  -1  -8   6    1.38    0.11
   0   8  -6    2.31    0.19
   0   8  -6    2.25    0.23
   0   8  -6    2.54    0.12
   0   8  -6    2.45    0.10
   0   8  -6    2.35    0.14
   0   8  -6    2.50    0.12
   0  -8   6    2.58    0.13
   0  -8   6    2.30    0.13
  -1   8  -6    3.08    0.42
  -1   8  -6    3.28    0.12
  -1   8  -6    3.25    0.17
  -1   8  -6    3.40    0.14
  -1   8  -6    3.07    0.16
  -1   8  -6    3.24    0.14
   1  -8   6    3.20    0.14
   1  -8   6    3.33    0.14
  -2   8  -6    3.55    0.28
  -2   8  -6    3.35    0.17
  -2   8  -6    3.31    0.16
  -2   8  -6    3.54    0.15
  -2   8  -6    3.45    0.13
   2  -8   6    3.45    0.15
   2  -8   6    3.42    0.14
  -3   8  -6    2.81    0.21
  -3   8  -6    2.85    0.13
  -3   8  -6    2.87    0.17
  -3   8  -6    3.26    0.14
  -3   8  -6    2.89    0.15
   3  -8   6    3.09    0.12
   3  -8   6    2.91    0.14
   3  -8   6    3.16    0.14
  -4   8  -6    0.10    0.11
  -4   8  -6    0.21    0.06
  -4   8  -6    0.12    0.08
  -4   8  -6    0.10    0.05
  -4   8  -6    0.17    0.07
   4  -8   6    0.15    0.05
   4  -8   6    0.17    0.05
   4  -8   6    0.13    0.05
  -5   8  -6    1.72    0.19
  -5   8  -6    1.64    0.16
  -5   8  -6    1.63    0.11
   5  -8   6    1.66    0.15
   5  -8   6    1.60    0.12
   5  -8   6    1.58    0.11
  -6   8  -6    2.34    0.13
  -6   8  -6    2.39    0.23
  -6   8  -6    2.07    0.19
   6  -8   6    2.28    0.15
   6  -8   6    2.51    0.12
   6  -8   6    2.18    0.14
  -7   8  -6    3.36    0.23
  -7   8  -6    2.82    0.25
  -7   8  -6    3.19    0.16
   7  -8   6    3.32    0.24
   7  -8   6    3.16    0.16
  -8   8  -6    0.09    0.07
  -8   8  -6   -0.04    0.11
  -8   8  -6    0.03    0.10
   8  -8   6    0.06    0.04
   8  -8   6    0.11    0.07
  -9   8  -6    0.66    0.16
   9  -8   6    1.21    0.13
 -10   8  -6   -0.03    0.13
  10  -8   6    0.10    0.09
 -11   8  -6    0.08    0.14
  11  -8   6   -0.07    0.08
 -12   8  -6    0.01    0.14
  12  -8   6   -0.06    0.08
  10   7  -6    0.06    0.10
   9   7  -6    0.05    0.09
   8   7  -6    0.01    0.07
   7   7  -6    1.05    0.16
   7   7  -6    1.18    0.12
   6   7  -6    0.74    0.24
   6   7  -6    0.84    0.11
   5   7  -6    0.16    0.06
   5   7  -6    0.16    0.08
  -5  -7   6    0.10    0.07
   4   7  -6    0.62    0.11
   4   7  -6    0.36    0.09
   4   7  -6    0.42    0.06
   4   7  -6    0.41    0.07
  -4  -7   6    0.52    0.08
   3   7  -6    0.46    0.06
   3   7  -6    0.49    0.15
   3   7  -6    0.54    0.07
   3   7  -6    0.63    0.11
  -3  -7   6    0.52    0.07
   2   7  -6    0.37    0.09
   2   7  -6    0.33    0.06
   2   7  -6    0.38    0.08
   2   7  -6    0.33    0.06
  -2  -7   6    0.30    0.07
   1   7  -6    2.41    0.17
   1   7  -6    2.57    0.12
   1   7  -6    2.33    0.09
   1   7  -6    2.43    0.15
   1   7  -6    2.59    0.12
  -1  -7   6    2.48    0.12
  -1  -7   6    2.52    0.17
   0   7  -6   13.70    0.31
   0   7  -6   13.54    0.27
   0   7  -6   13.42    0.79
   0   7  -6   13.43    0.29
   0   7  -6   14.09    0.30
   0   7  -6   13.45    0.46
   0  -7   6   13.96    0.29
   0  -7   6   13.81    0.31
  -1   7  -6    1.08    0.08
  -1   7  -6    1.21    0.09
  -1   7  -6    1.15    0.12
  -1   7  -6    1.14    0.10
  -1   7  -6    1.07    0.09
  -1   7  -6    1.15    0.15
   1  -7   6    1.11    0.08
   1  -7   6    1.16    0.09
   1  -7   6    1.25    0.09
  -2   7  -6   25.91    0.52
  -2   7  -6   25.95    0.61
  -2   7  -6   25.69    0.54
  -2   7  -6   25.99    0.48
  -2   7  -6   26.26    0.46
   2  -7   6   26.26    0.47
   2  -7   6   25.89    0.44
   2  -7   6   26.45    0.48
  -3   7  -6   20.37    0.40
  -3   7  -6   19.62    0.96
  -3   7  -6   20.66    0.44
  -3   7  -6   19.79    0.45
  -3   7  -6   20.67    0.38
   3  -7   6   20.49    0.35
   3  -7   6   20.44    0.40
   3  -7   6   20.37    0.39
  -4   7  -6    1.36    0.12
  -4   7  -6    1.31    0.10
  -4   7  -6    1.40    0.17
  -4   7  -6    1.34    0.14
  -4   7  -6    1.26    0.10
   4  -7   6    1.44    0.12
   4  -7   6    1.41    0.09
   4  -7   6    1.45    0.10
  -5   7  -6   10.27    0.32
  -5   7  -6   10.77    0.37
  -5   7  -6   10.90    0.26
   5  -7   6   10.62    0.25
   5  -7   6   10.71    0.29
   5  -7   6   10.81    0.27
  -6   7  -6    0.30    0.06
  -6   7  -6    0.16    0.11
  -6   7  -6    0.25    0.09
   6  -7   6    0.33    0.07
   6  -7   6    0.33    0.07
   6  -7   6    0.38    0.06
  -7   7  -6    0.43    0.11
  -7   7  -6    0.48    0.13
  -7   7  -6    0.51    0.08
   7  -7   6    0.46    0.08
   7  -7   6    0.51    0.06
  -8   7  -6    0.43    0.12
  -8   7  -6    0.16    0.13
   8  -7   6    0.39    0.08
  -9   7  -6    0.24    0.12
  -9   7  -6   -0.16    0.11
   9  -7   6    0.05    0.07
 -10   7  -6    0.91    0.17
  10  -7   6    0.86    0.12
 -11   7  -6   -0.07    0.12
  11  -7   6    0.03    0.08
 -12   7  -6    0.08    0.15
  12  -7   6   -0.06    0.08
  11   6  -6   -0.05    0.10
  10   6  -6    0.35    0.11
   9   6  -6    0.05    0.08
   8   6  -6   -0.07    0.06
   7   6  -6    0.07    0.06
   7   6  -6    0.31    0.10
   6   6  -6    0.57    0.08
   6   6  -6    0.66    0.12
   6   6  -6    0.72    0.33
   5   6  -6    0.15    0.17
   5   6  -6    0.17    0.06
   5   6  -6    0.07    0.06
   5   6  -6    0.21    0.08
   5   6  -6    0.09    0.04
  -5  -6   6    0.10    0.06
   4   6  -6    7.27    0.28
   4   6  -6    7.59    0.21
   4   6  -6    7.41    0.29
   4   6  -6    7.05    0.19
   4   6  -6    7.38    0.26
  -4  -6   6    7.33    0.20
   3   6  -6    4.54    0.21
   3   6  -6    4.54    0.22
   3   6  -6    4.71    0.16
   3   6  -6    4.19    0.19
   3   6  -6    4.43    0.21
  -3  -6   6    4.27    0.15
   2   6  -6    3.33    0.16
   2   6  -6    3.37    0.13
   2   6  -6    3.27    0.10
   2   6  -6    3.09    0.18
   2   6  -6    3.41    0.13
  -2  -6   6    3.21    0.13
  -2  -6   6    3.36    0.13
   1   6  -6    0.36    0.09
   1   6  -6    0.49    0.06
   1   6  -6    0.40    0.06
   1   6  -6    0.45    0.05
   1   6  -6    0.46    0.07
   1   6  -6    0.55    0.06
   1   6  -6    0.42    0.08
  -1  -6   6    0.47    0.06
  -1  -6   6    0.39    0.06
   0   6  -6    2.83    0.11
   0   6  -6    2.85    0.12
   0   6  -6    2.92    0.11
   0   6  -6    3.08    0.52
   0   6  -6    2.91    0.15
   0   6  -6    2.75    0.12
   0  -6   6    2.76    0.12
   0  -6   6    2.85    0.11
   0  -6   6    2.71    0.11
  -1   6  -6    3.00    0.12
  -1   6  -6    3.07    0.19
  -1   6  -6    3.03    0.13
  -1   6  -6    3.03    0.12
  -1   6  -6    3.01    0.15
   1  -6   6    2.89    0.14
   1  -6   6    3.05    0.11
   1  -6   6    3.15    0.12
   1  -6   6    2.92    0.11
  -2   6  -6    3.39    0.19
  -2   6  -6    3.50    0.16
  -2   6  -6    3.33    0.12
  -2   6  -6    3.37    0.15
  -2   6  -6    3.40    0.13
   2  -6   6    3.61    0.19
   2  -6   6    3.38    0.11
   2  -6   6    3.45    0.12
   2  -6   6    3.42    0.11
   2  -6   6    3.61    0.13
  -3   6  -6   21.32    0.41
  -3   6  -6   20.79    0.45
  -3   6  -6   21.45    0.39
  -3   6  -6   21.44    0.45
  -3   6  -6   20.99    0.52
   3  -6   6   20.99    0.40
   3  -6   6   21.26    0.43
   3  -6   6   21.07    0.39
  -4   6  -6    5.64    0.25
  -4   6  -6    5.71    0.21
  -4   6  -6    5.26    0.16
  -4   6  -6    5.49    0.19
   4  -6   6    5.73    0.19
   4  -6   6    5.41    0.16
   4  -6   6    5.54    0.17
   4  -6   6    5.46    0.32
  -5   6  -6    0.85    0.09
  -5   6  -6    0.83    0.11
  -5   6  -6    0.82    0.13
  -5   6  -6    1.00    0.09
   5  -6   6    1.21    0.08
   5  -6   6    1.08    0.10
   5  -6   6    1.32    0.10
  -6   6  -6    0.11    0.10
  -6   6  -6    0.05    0.07
   6  -6   6    0.11    0.06
   6  -6   6    0.01    0.05
   6  -6   6    0.00    0.03
  -7   6  -6    1.59    0.19
  -7   6  -6    1.41    0.15
   7  -6   6    1.49    0.12
  -8   6  -6    1.79    0.21
  -8   6  -6    1.70    0.18
   8  -6   6    1.72    0.13
  -9   6  -6    1.25    0.20
  -9   6  -6    1.45    0.18
   9  -6   6    1.31    0.13
 -10   6  -6    0.05    0.12
  10  -6   6   -0.01    0.06
 -11   6  -6   -0.05    0.12
  11  -6   6    0.01    0.08
 -12   6  -6    0.29    0.16
  12  -6   6   -0.01    0.08
  11   5  -6    0.42    0.12
  10   5  -6    0.89    0.13
   9   5  -6    0.43    0.10
   8   5  -6    0.15    0.07
   8   5  -6    0.18    0.09
   7   5  -6    0.36    0.08
   7   5  -6    0.45    0.12
   7   5  -6    0.29    0.09
   6   5  -6    0.39    0.10
   6   5  -6    0.27    0.05
   6   5  -6    0.27    0.07
   6   5  -6    0.27    0.25
   6   5  -6    0.35    0.15
  -6  -5   6    0.24    0.07
   5   5  -6    2.58    0.11
   5   5  -6    2.55    0.19
   5   5  -6    2.60    0.16
   5   5  -6    2.47    0.51
   5   5  -6    2.78    0.13
  -5  -5   6    2.59    0.13
   4   5  -6    1.17    0.12
   4   5  -6    1.17    0.09
   4   5  -6    1.19    0.08
   4   5  -6    1.22    0.13
   4   5  -6    1.14    0.12
  -4  -5   6    1.21    0.10
   3   5  -6    3.76    0.18
   3   5  -6    3.92    0.18
   3   5  -6    3.78    0.18
   3   5  -6    4.16    0.17
   3   5  -6    3.76    0.10
   3   5  -6    3.95    0.14
  -3  -5   6    3.72    0.14
  -3  -5   6    3.85    0.14
   2   5  -6    6.09    0.21
   2   5  -6    6.24    0.23
   2   5  -6    6.13    0.15
   2   5  -6    6.23    0.17
   2   5  -6    6.35    0.17
   2   5  -6    6.46    0.23
  -2  -5   6    6.08    0.17
   1   5  -6    0.75    0.09
   1   5  -6    0.70    0.13
   1   5  -6    0.72    0.07
   1   5  -6    0.78    0.06
   1   5  -6    0.77    0.07
   1   5  -6    0.74    0.07
  -1  -5   6    0.65    0.06
  -1  -5   6    0.77    0.07
  -1  -5   6    0.83    0.07
   0   5  -6    7.68    0.26
   0   5  -6    7.55    0.18
   0   5  -6    7.72    0.19
   0   5  -6    8.15    0.25
   0   5  -6    7.81    0.20
   0  -5   6    7.74    0.18
   0  -5   6    7.42    0.20
   0  -5   6    7.72    0.19
   0  -5   6    7.54    0.17
  -1   5  -6   10.60    0.23
  -1   5  -6   11.26    0.32
  -1   5  -6   10.69    0.26
  -1   5  -6   10.66    0.24
  -1   5  -6   11.25    0.30
   1  -5   6   10.78    0.23
   1  -5   6   10.65    0.20
   1  -5   6   10.65    0.23
   1  -5   6   11.04    0.26
   1  -5   6   10.25    0.23
  -2   5  -6    9.82    0.27
  -2   5  -6    9.58    0.21
  -2   5  -6    9.24    0.22
  -2   5  -6    9.69    0.25
  -2   5  -6    9.35    0.29
   2  -5   6    9.66    0.21
   2  -5   6    9.54    0.21
   2  -5   6    9.58    0.24
   2  -5   6    9.30    0.44
  -3   5  -6    0.88    0.12
  -3   5  -6    0.94    0.10
  -3   5  -6    0.89    0.07
  -3   5  -6    0.88    0.07
  -3   5  -6    0.79    0.10
   3  -5   6    0.91    0.09
   3  -5   6    0.85    0.12
   3  -5   6    0.95    0.06
   3  -5   6    0.92    0.07
  -4   5  -6    1.01    0.13
  -4   5  -6    0.93    0.10
  -4   5  -6    1.08    0.10
  -4   5  -6    1.18    0.08
   4  -5   6    0.95    0.06
   4  -5   6    1.00    0.08
   4  -5   6    1.12    0.08
   4  -5   6    0.97    0.09
  -5   5  -6    4.77    0.24
  -5   5  -6    4.60    0.20
  -5   5  -6    4.53    0.18
   5  -5   6    5.05    0.16
   5  -5   6    4.65    0.16
  -6   5  -6    0.27    0.09
  -6   5  -6    0.25    0.10
   6  -5   6    0.37    0.06
  -7   5  -6    0.28    0.09
  -7   5  -6    0.18    0.11
   7  -5   6    0.32    0.07
  -8   5  -6    1.95    0.18
  -8   5  -6    1.99    0.22
   8  -5   6    1.91    0.12
  -9   5  -6    1.78    0.23
  -9   5  -6    1.75    0.19
   9  -5   6    1.97    0.14
 -10   5  -6   -0.05    0.11
  10  -5   6   -0.12    0.06
 -11   5  -6    0.13    0.13
  11  -5   6    0.11    0.08
  12  -5   6    0.14    0.09
  12   4  -6    0.01    0.10
  11   4  -6    0.30    0.10
  10   4  -6    0.57    0.11
   9   4  -6    0.07    0.08
   9   4  -6    0.02    0.07
   8   4  -6    0.83    0.11
   8   4  -6    0.62    0.13
   7   4  -6    4.77    0.19
   7   4  -6    4.73    0.24
   7   4  -6    4.99    0.15
   7   4  -6    4.31    0.37
   7   4  -6    4.27    0.27
  -7  -4   6    4.39    0.18
   6   4  -6    0.94    0.08
   6   4  -6    0.80    0.12
   6   4  -6    0.88    0.09
   6   4  -6    0.78    0.12
   6   4  -6    0.81    0.10
  -6  -4   6    0.88    0.09
  -6  -4   6    0.98    0.10
   5   4  -6   12.60    0.27
   5   4  -6   12.78    0.40
   5   4  -6   12.49    0.29
   5   4  -6   12.93    0.47
   5   4  -6   13.04    0.35
  -5  -4   6   13.00    0.30
  -5  -4   6   13.13    0.28
   4   4  -6    7.55    0.15
   4   4  -6    7.30    0.25
   4   4  -6    7.47    0.19
   4   4  -6    7.83    0.19
   4   4  -6    7.76    0.27
   4   4  -6    7.52    0.25
  -4  -4   6    7.58    0.20
  -4  -4   6    7.31    0.21
  -4  -4   6    7.39    0.19
   3   4  -6    0.86    0.07
   3   4  -6    0.85    0.07
   3   4  -6    0.87    0.10
   3   4  -6    0.78    0.10
   3   4  -6    0.96    0.10
   3   4  -6    0.85    0.07
  -3  -4   6    1.03    0.08
  -3  -4   6    0.93    0.09
  -3  -4   6    0.88    0.07
   2   4  -6    8.95    0.26
   2   4  -6    8.85    0.27
   2   4  -6    8.72    0.25
   2   4  -6    8.37    0.20
   2   4  -6    8.73    0.19
   2   4  -6    8.30    0.20
  -2  -4   6    8.35    0.22
  -2  -4   6    8.34    0.19
  -2  -4   6    8.44    0.20
   1   4  -6   18.14    0.34
   1   4  -6   17.03    0.32
   1   4  -6   18.20    0.39
   1   4  -6   17.80    0.74
   1   4  -6   17.82    0.32
   1   4  -6   19.27    0.42
  -1  -4   6   17.29    0.33
  -1  -4   6   17.96    0.32
  -1  -4   6   18.86    0.36
  -1  -4   6   17.73    0.39
  -1  -4   6   17.47    0.31
   0   4  -6    0.49    0.04
   0   4  -6    0.52    0.05
   0   4  -6    0.62    0.06
   0   4  -6    0.64    0.09
   0   4  -6    0.59    0.09
   0  -4   6    0.51    0.05
   0  -4   6    0.50    0.05
   0  -4   6    0.54    0.07
   0  -4   6    0.48    0.04
   0  -4   6    0.57    0.06
   0  -4   6    0.51    0.05
  -1   4  -6    9.33    0.19
  -1   4  -6    9.29    0.26
  -1   4  -6    8.92    0.50
  -1   4  -6    9.03    0.20
   1  -4   6    8.99    0.19
   1  -4   6    8.84    0.36
   1  -4   6    8.93    0.23
   1  -4   6    8.97    0.22
   1  -4   6    9.20    0.20
  -2   4  -6    7.09    0.22
  -2   4  -6    6.71    0.17
  -2   4  -6    7.21    0.16
  -2   4  -6    7.06    0.30
   2  -4   6    6.70    0.15
   2  -4   6    6.52    0.15
   2  -4   6    6.86    0.19
   2  -4   6    6.79    0.41
   2  -4   6    7.11    0.20
   2  -4   6    6.96    0.17
  -3   4  -6    6.72    0.23
  -3   4  -6    6.48    0.24
   3  -4   6    6.03    0.20
   3  -4   6    6.37    0.18
   3  -4   6    6.03    0.21
   3  -4   6    6.16    0.21
   3  -4   6    6.26    0.18
   3  -4   6    6.28    0.16
  -4   4  -6    0.55    0.10
  -4   4  -6    0.49    0.14
   4  -4   6    0.63    0.06
   4  -4   6    0.55    0.06
   4  -4   6    0.62    0.07
  -5   4  -6   25.56    0.55
  -5   4  -6   25.99    0.62
  -5   4  -6   25.70    0.53
   5  -4   6   26.03    0.48
   5  -4   6   25.84    0.44
  -6   4  -6   11.01    0.33
  -6   4  -6   11.43    0.38
   6  -4   6   11.23    0.25
  -7   4  -6    0.03    0.22
  -7   4  -6    0.02    0.07
   7  -4   6    0.12    0.05
  -8   4  -6    0.00    0.09
  -8   4  -6    0.10    0.09
   8  -4   6    0.08    0.05
  -9   4  -6    0.60    0.13
   9  -4   6    0.45    0.08
 -10   4  -6    0.21    0.12
  10  -4   6    0.05    0.07
  11  -4   6    0.02    0.07
  12  -4   6   -0.04    0.07
  12   3  -6    0.25    0.10
  11   3  -6    0.21    0.09
  10   3  -6    0.14    0.08
   9   3  -6    1.21    0.12
   9   3  -6    0.89    0.15
  -9  -3   6    1.04    0.12
   8   3  -6   -0.03    0.07
   8   3  -6    0.01    0.04
   8   3  -6    0.07    0.06
   8   3  -6    0.03    0.07
  -8  -3   6   -0.02    0.07
   7   3  -6   12.03    0.29
   7   3  -6   11.31    0.37
   7   3  -6   11.03    0.36
   7   3  -6   11.39    0.26
   7   3  -6   11.39    0.41
  -7  -3   6   11.77    0.29
   6   3  -6    1.58    0.11
   6   3  -6    1.54    0.13
   6   3  -6    1.44    0.09
   6   3  -6    1.38    0.13
   6   3  -6    1.39    0.15
  -6  -3   6    1.44    0.09
  -6  -3   6    1.54    0.12
   5   3  -6    3.16    0.13
   5   3  -6    3.04    0.08
   5   3  -6    3.04    0.18
   5   3  -6    2.87    0.16
   5   3  -6    3.26    0.12
   5   3  -6    3.07    0.24
  -5  -3   6    3.06    0.12
  -5  -3   6    2.99    0.13
  -5  -3   6    3.15    0.29
   4   3  -6    0.07    0.07
   4   3  -6    0.05    0.03
   4   3  -6    0.08    0.04
   4   3  -6    0.09    0.05
   4   3  -6    0.05    0.04
   4   3  -6    0.03    0.04
  -4  -3   6    0.04    0.04
  -4  -3   6    0.07    0.04
  -4  -3   6    0.06    0.04
   3   3  -6   24.76    0.42
   3   3  -6   25.34    0.53
   3   3  -6   24.08    0.68
   3   3  -6   24.92    0.55
   3   3  -6   25.09    0.55
   3   3  -6   24.69    0.42
  -3  -3   6   24.37    0.45
  -3  -3   6   24.23    0.44
  -3  -3   6   24.47    0.42
   2   3  -6   15.51    0.36
   2   3  -6   15.88    0.36
   2   3  -6   16.04    0.38
   2   3  -6   14.99    0.30
   2   3  -6   15.31    0.29
  -2  -3   6   15.71    0.29
  -2  -3   6   15.23    0.30
  -2  -3   6   15.12    0.31
  -2  -3   6   15.17    0.28
   1   3  -6    8.33    0.18
   1   3  -6    8.10    0.21
   1   3  -6    8.53    0.26
   1   3  -6    8.33    0.43
   1   3  -6    8.27    0.19
  -1  -3   6    8.37    0.19
  -1  -3   6    8.19    0.21
  -1  -3   6    8.28    0.18
  -1  -3   6    8.32    0.16
  -1  -3   6    8.62    0.20
  -1  -3   6    7.84    0.42
  -1  -3   6    8.09    0.39
   0   3  -6   30.16    0.46
   0   3  -6   28.97    0.54
   0   3  -6   28.97    0.59
   0   3  -6   28.32    0.48
   0   3  -6   29.42    0.57
   0  -3   6   29.47    0.42
   0  -3   6   28.37    0.46
   0  -3   6   28.77    0.47
   0  -3   6   29.17    0.51
   0  -3   6   28.44    0.54
   0  -3   6   29.45    0.52
  -1   3  -6   13.23    0.31
  -1   3  -6   13.33    0.33
  -1   3  -6   12.64    0.25
   1  -3   6   12.43    0.27
   1  -3   6   12.72    0.29
   1  -3   6   12.61    0.32
   1  -3   6   12.37    0.23
   1  -3   6   13.10    0.29
   1  -3   6   12.37    0.24
  -2   3  -6    6.85    0.21
  -2   3  -6    6.97    0.23
   2  -3   6    6.60    0.15
   2  -3   6    6.94    0.18
   2  -3   6    6.51    0.19
   2  -3   6    6.59    0.20
  -3   3  -6   31.24    0.59
  -3   3  -6   31.21    0.66
   3  -3   6   30.04    0.57
   3  -3   6   30.95    0.48
   3  -3   6   30.42    0.59
   3  -3   6   30.81    0.54
  -4   3  -6    4.10    0.20
  -4   3  -6    4.32    0.20
   4  -3   6    4.04    0.14
   4  -3   6    3.83    0.14
   4  -3   6    3.85    0.12
   4  -3   6    3.84    0.16
  -5   3  -6    0.90    0.09
  -5   3  -6    0.76    0.13
   5  -3   6    0.94    0.07
   5  -3   6    0.80    0.09
   5  -3   6    0.73    0.09
  -6   3  -6    1.42    0.13
  -6   3  -6    1.14    0.15
   6  -3   6    1.24    0.09
  -7   3  -6    0.79    0.15
  -7   3  -6    1.12    0.13
   7  -3   6    0.90    0.08
  -8   3  -6    0.05    0.08
  -8   3  -6   -0.05    0.09
   8  -3   6    0.17    0.05
  -9   3  -6    1.00    0.15
   9  -3   6    0.69    0.09
 -10   3  -6    0.15    0.12
  10  -3   6    0.00    0.06
  11  -3   6    0.28    0.09
  13   2  -6    0.20    0.12
  12   2  -6    0.04    0.09
  11   2  -6    0.07    0.08
  10   2  -6    0.97    0.13
  10   2  -6    0.74    0.14
 -10  -2   6    1.09    0.13
   9   2  -6    1.26    0.16
   9   2  -6    1.24    0.13
   9   2  -6    1.43    0.10
  -9  -2   6    1.15    0.12
   8   2  -6    8.50    0.37
   8   2  -6    8.74    0.22
   8   2  -6    8.64    0.25
   8   2  -6    8.47    0.32
  -8  -2   6    8.45    0.25
   7   2  -6   -0.12    0.05
   7   2  -6   -0.07    0.06
   7   2  -6    0.04    0.06
   7   2  -6   -0.03    0.05
   7   2  -6    0.01    0.04
  -7  -2   6   -0.02    0.06
   6   2  -6    3.97    0.09
   6   2  -6    3.96    0.15
   6   2  -6    3.73    0.18
   6   2  -6    3.92    0.14
   6   2  -6    4.09    0.21
   6   2  -6    4.02    0.19
  -6  -2   6    3.92    0.16
  -6  -2   6    3.84    0.13
  -6  -2   6    3.90    0.15
   5   2  -6    1.19    0.13
   5   2  -6    1.15    0.12
   5   2  -6    1.17    0.12
   5   2  -6    1.38    0.09
   5   2  -6    1.19    0.08
   5   2  -6    1.28    0.08
   5   2  -6    1.20    0.08
  -5  -2   6    1.26    0.10
  -5  -2   6    1.20    0.08
  -5  -2   6    1.21    0.09
   4   2  -6   24.76    0.44
   4   2  -6   24.82    0.53
   4   2  -6   24.49    0.42
   4   2  -6   23.78    0.42
   4   2  -6   24.45    0.68
   4   2  -6   25.18    0.56
  -4  -2   6   24.59    0.42
  -4  -2   6   24.16    0.44
  -4  -2   6   23.91    0.43
   3   2  -6   17.69    0.39
   3   2  -6   18.68    0.44
   3   2  -6   17.91    0.34
   3   2  -6   18.20    0.33
   3   2  -6   18.50    0.43
  -3  -2   6   18.01    0.33
  -3  -2   6   17.94    0.35
  -3  -2   6   17.95    0.32
  -3  -2   6   17.92    0.35
   2   2  -6   14.33    0.27
   2   2  -6   14.28    0.33
   2   2  -6   13.74    0.32
   2   2  -6   13.94    0.28
   2   2  -6   14.69    0.34
  -2  -2   6   14.16    0.29
  -2  -2   6   14.16    0.25
  -2  -2   6   13.99    0.27
  -2  -2   6   14.10    0.29
  -2  -2   6   13.70    0.63
  -2  -2   6   14.23    0.27
   1   2  -6    6.21    0.14
   1   2  -6    6.32    0.20
   1   2  -6    6.02    0.18
   1   2  -6    6.03    0.15
   1   2  -6    6.01    0.18
  -1  -2   6    5.85    0.14
  -1  -2   6    6.13    0.17
  -1  -2   6    5.94    0.17
  -1  -2   6    5.88    0.14
  -1  -2   6    6.03    0.11
  -1  -2   6    5.89    0.16
  -1  -2   6    5.78    0.18
   0   2  -6    0.60    0.06
   0   2  -6    0.69    0.09
   0   2  -6    0.63    0.15
   0   2  -6    0.55    0.05
   0  -2   6    0.58    0.06
   0  -2   6    0.54    0.06
   0  -2   6    0.51    0.05
   0  -2   6    0.53    0.04
   0  -2   6    0.60    0.05
   0  -2   6    0.54    0.06
  -1   2  -6   -0.06    0.04
  -1   2  -6    0.05    0.05
   1  -2   6    0.04    0.03
   1  -2   6   -0.05    0.03
   1  -2   6    0.00    0.02
   1  -2   6    0.04    0.03
  -2   2  -6    6.36    0.22
  -2   2  -6    6.24    0.21
   2  -2   6    5.97    0.19
   2  -2   6    6.33    0.18
   2  -2   6    6.17    0.18
   2  -2   6    6.22    0.14
  -3   2  -6   20.04    0.47
  -3   2  -6   19.57    0.50
  -3   2  -6   20.31    0.50
   3  -2   6   19.48    0.41
   3  -2   6   19.62    0.39
   3  -2   6   20.00    0.32
   3  -2   6   19.99    0.43
  -4   2  -6    6.71    0.25
  -4   2  -6    6.81    0.36
   4  -2   6    6.48    0.14
   4  -2   6    6.47    0.19
   4  -2   6    6.34    0.22
  -5   2  -6    0.30    0.08
  -5   2  -6    0.12    0.07
   5  -2   6    0.19    0.06
   5  -2   6    0.24    0.04
   5  -2   6    0.22    0.06
  -6   2  -6   -0.04    0.07
   6  -2   6    0.06    0.07
   6  -2   6    0.05    0.04
  -7   2  -6    0.22    0.08
  -7   2  -6    0.12    0.10
   7  -2   6    0.15    0.04
  -8   2  -6    0.42    0.11
  -8   2  -6    0.31    0.12
   8  -2   6    0.33    0.06
  -9   2  -6    0.74    0.14
   9  -2   6    0.70    0.09
  10  -2   6    0.65    0.09
  11  -2   6   -0.06    0.06
  13   1  -6    0.08    0.11
  12   1  -6    0.05    0.10
 -12  -1   6    0.05    0.11
  11   1  -6    0.79    0.12
 -11  -1   6    0.70    0.17
  10   1  -6    0.44    0.07
  10   1  -6    0.70    0.11
  10   1  -6    0.43    0.11
 -10  -1   6    0.47    0.25
   9   1  -6    0.08    0.08
   9   1  -6    0.05    0.06
   9   1  -6    0.12    0.05
  -9  -1   6    0.13    0.12
   8   1  -6    0.24    0.10
   8   1  -6    0.22    0.06
   8   1  -6    0.29    0.09
   8   1  -6    0.18    0.07
  -8  -1   6    0.20    0.07
   7   1  -6    0.16    0.05
   7   1  -6    0.23    0.07
   7   1  -6    0.27    0.07
   7   1  -6    0.15    0.08
   7   1  -6    0.30    0.08
  -7  -1   6    0.27    0.07
   6   1  -6    0.29    0.07
   6   1  -6    0.38    0.06
   6   1  -6    0.26    0.08
   6   1  -6    0.24    0.06
   6   1  -6    0.26    0.05
   6   1  -6    0.13    0.08
  -6  -1   6    0.22    0.05
  -6  -1   6    0.39    0.05
  -6  -1   6    0.28    0.06
   5   1  -6    4.19    0.16
   5   1  -6    4.25    0.14
   5   1  -6    4.53    0.20
   5   1  -6    4.33    0.15
   5   1  -6    4.49    0.21
   5   1  -6    4.76    0.15
  -5  -1   6    4.46    0.13
  -5  -1   6    4.61    0.17
  -5  -1   6    4.38    0.26
  -5  -1   6    4.40    0.15
   4   1  -6   21.29    0.38
   4   1  -6   22.01    0.40
   4   1  -6   21.55    0.69
   4   1  -6   22.69    0.48
   4   1  -6   22.16    0.39
   4   1  -6   21.69    0.71
  -4  -1   6   22.18    0.42
  -4  -1   6   22.34    0.41
  -4  -1   6   21.92    0.40
  -4  -1   6   21.77    0.39
  -4  -1   6   21.66    0.38
   3   1  -6    0.37    0.17
   3   1  -6    0.48    0.05
   3   1  -6    0.46    0.08
   3   1  -6    0.50    0.06
   3   1  -6    0.44    0.05
  -3  -1   6    0.43    0.05
  -3  -1   6    0.44    0.05
  -3  -1   6    0.40    0.05
  -3  -1   6    0.39    0.05
  -3  -1   6    0.45    0.05
   2   1  -6   96.35    1.34
   2   1  -6   92.00    1.37
   2   1  -6   90.93    1.60
   2   1  -6   95.01    1.57
   2   1  -6   94.50    1.68
  -2  -1   6   94.42    1.30
  -2  -1   6   91.96    1.46
  -2  -1   6   92.71    1.40
  -2  -1   6   91.55    1.32
  -2  -1   6   89.21    1.36
   1   1  -6   21.18    0.44
   1   1  -6   20.50    0.44
   1   1  -6   20.75    0.42
   1   1  -6   19.86    0.35
  -1  -1   6   20.16    0.34
  -1  -1   6   20.34    0.39
  -1  -1   6   20.94    0.40
  -1  -1   6   20.28    0.43
  -1  -1   6   20.13    0.34
  -1  -1   6   20.41    0.39
  -1  -1   6   20.69    0.35
  -1  -1   6   20.19    0.44
   0   1  -6    3.06    0.22
   0   1  -6    2.81    0.12
   0   1  -6    2.97    0.20
   0  -1   6    2.71    0.09
   0  -1   6    2.78    0.12
   0  -1   6    2.90    0.11
  -1   1  -6    1.09    0.09
  -1   1  -6    1.01    0.08
  -1   1  -6    1.02    0.09
   1  -1   6    0.95    0.07
   1  -1   6    0.87    0.05
   1  -1   6    1.02    0.08
  -2   1  -6   14.46    0.33
  -2   1  -6   14.06    0.31
  -2   1  -6   14.18    0.35
   2  -1   6   13.34    0.33
   2  -1   6   13.82    0.23
   2  -1   6   14.12    0.30
  -3   1  -6    0.01    0.05
  -3   1  -6    0.08    0.05
   3  -1   6    0.04    0.02
   3  -1   6    0.13    0.05
   3  -1   6    0.13    0.04
  -4   1  -6    0.08    0.06
  -4   1  -6    0.14    0.05
   4  -1   6    0.09    0.05
   4  -1   6    0.08    0.03
   4  -1   6    0.17    0.05
  -5   1  -6    0.13    0.05
  -5   1  -6    0.01    0.07
   5  -1   6    0.02    0.05
   5  -1   6    0.07    0.03
   5  -1   6    0.13    0.05
  -6   1  -6    0.03    0.07
   6  -1   6    0.01    0.06
   6  -1   6    0.03    0.03
  -7   1  -6   -0.06    0.07
   7  -1   6   -0.02    0.03
  -8   1  -6    0.49    0.14
  -8   1  -6    0.69    0.12
   8  -1   6    0.62    0.07
   9  -1   6    0.31    0.07
  10  -1   6   -0.01    0.06
  11  -1   6    0.17    0.07
  13   0  -6   -0.08    0.09
 -13   0   6    0.16    0.13
  12   0  -6   -0.03    0.09
 -12   0   6    0.07    0.14
  11   0  -6    0.04    0.06
  11   0  -6    0.11    0.09
  11   0  -6    0.24    0.10
 -11   0   6    0.09    0.23
  10   0  -6    1.23    0.14
  10   0  -6    1.23    0.11
  10   0  -6    1.24    0.41
 -10   0   6    1.15    0.25
   9   0  -6    0.33    0.09
   9   0  -6    0.39    0.07
   9   0  -6    0.27    0.10
   9   0  -6    0.17    0.08
  -9   0   6    0.33    0.14
   8   0  -6    1.26    0.16
   8   0  -6    1.25    0.11
   8   0  -6    1.18    0.11
   8   0  -6    1.18    0.13
  -8   0   6    1.15    0.11
   7   0  -6    5.50    0.18
   7   0  -6    5.75    0.19
   7   0  -6    5.04    0.22
   7   0  -6    5.28    0.26
   7   0  -6    5.36    0.15
   7   0  -6    5.22    0.21
  -7   0   6    5.21    0.19
  -7   0   6    5.59    0.20
   6   0  -6    0.08    0.05
   6   0  -6    0.08    0.04
   6   0  -6    0.06    0.07
   6   0  -6    0.02    0.07
   6   0  -6    0.04    0.04
   6   0  -6    0.06    0.04
  -6   0   6    0.04    0.04
  -6   0   6    0.02    0.03
  -6   0   6    0.01    0.05
  -6   0   6   -0.01    0.03
   5   0  -6    0.70    0.07
   5   0  -6    0.69    0.10
   5   0  -6    0.65    0.07
   5   0  -6    0.62    0.07
   5   0  -6    0.60    0.09
   5   0  -6    0.68    0.07
  -5   0   6    0.59    0.06
  -5   0   6    0.54    0.06
  -5   0   6    0.62    0.06
  -5   0   6    0.59    0.06
  -5   0   6    0.64    0.07
   4   0  -6    0.11    0.14
   4   0  -6    0.08    0.03
   4   0  -6    0.05    0.06
   4   0  -6    0.03    0.03
   4   0  -6    0.08    0.04
  -4   0   6    0.06    0.03
  -4   0   6    0.05    0.03
  -4   0   6    0.05    0.03
  -4   0   6    0.05    0.03
  -4   0   6    0.05    0.03
   3   0  -6    5.73    0.15
   3   0  -6    5.33    0.19
   3   0  -6    5.61    0.22
   3   0  -6    5.26    0.31
   3   0  -6    5.65    0.15
  -3   0   6    5.59    0.17
  -3   0   6    5.48    0.16
  -3   0   6    5.76    0.17
  -3   0   6    5.46    0.15
  -3   0   6    5.50    0.12
  -3   0   6    5.51    0.15
   2   0  -6   20.33    0.46
   2   0  -6   20.60    0.82
   2   0  -6   19.84    0.61
   2   0  -6   20.20    0.38
   2   0  -6   20.53    0.34
  -2   0   6   20.95    0.41
  -2   0   6   19.90    0.35
  -2   0   6   19.95    0.35
  -2   0   6   20.01    0.35
  -2   0   6   20.13    0.39
   1   0  -6   35.86    0.66
   1   0  -6   35.02    0.64
   1   0  -6   35.00    0.74
  -1   0   6   34.47    0.60
  -1   0   6   34.35    0.53
  -1   0   6   34.42    0.54
  -1   0   6   36.06    0.64
  -1   0   6   35.28    0.66
   0   0  -6    4.61    0.18
   0   0  -6    4.76    0.17
   0   0  -6    5.00    0.15
   0   0   6    4.76    0.11
   0   0   6    4.73    0.15
   0   0   6    4.79    0.16
  -1   0  -6   11.13    0.27
  -1   0  -6   10.99    0.28
   1   0   6   10.57    0.26
   1   0   6   10.80    0.19
   1   0   6   10.91    0.28
  -2   0  -6    0.39    0.06
  -2   0  -6    0.35    0.07
   2   0   6    0.36    0.06
   2   0   6    0.43    0.03
   2   0   6    0.44    0.06
   2   0   6    0.39    0.04
  -3   0  -6   10.06    0.30
  -3   0  -6   10.36    0.28
   3   0   6   10.37    0.29
   3   0   6   10.20    0.29
  -4   0  -6    0.28    0.08
  -4   0  -6    0.39    0.06
   4   0   6    0.45    0.08
   4   0   6    0.27    0.07
  -5   0  -6   12.09    0.38
   5   0   6   12.33    0.35
  -6   0  -6    2.29    0.19
   6   0   6    2.34    0.17
  -7   0  -6    0.00    0.07
   7   0   6   -0.05    0.07
   7   0   6    0.05    0.03
   8   0   6    0.05    0.04
   9   0   6    0.20    0.06
  10   0   6    0.17    0.06
  13  -1  -6   -0.02    0.10
 -13   1   6    0.09    0.13
  12  -1  -6   -0.06    0.05
  12  -1  -6   -0.12    0.09
 -12   1   6    0.00    0.14
  11  -1  -6    0.06    0.08
  11  -1  -6    0.05    0.08
  11  -1  -6   -0.01    0.06
 -11   1   6   -0.06    0.21
  10  -1  -6    1.24    0.14
  10  -1  -6    1.15    0.15
  10  -1  -6    1.11    0.11
 -10   1   6    1.10    0.29
   9  -1  -6    0.23    0.07
   9  -1  -6    0.09    0.10
   9  -1  -6    0.25    0.08
   9  -1  -6    0.11    0.07
  -9   1   6    0.13    0.08
   8  -1  -6    5.47    0.20
   8  -1  -6    5.36    0.19
   8  -1  -6    5.20    0.24
   8  -1  -6    5.18    0.15
   8  -1  -6    5.14    0.28
  -8   1   6    5.15    0.20
  -8   1   6    5.32    0.21
   7  -1  -6    0.80    0.08
   7  -1  -6    1.04    0.10
   7  -1  -6    0.80    0.36
   7  -1  -6    0.81    0.09
   7  -1  -6    0.59    0.10
   7  -1  -6    0.83    0.09
  -7   1   6    0.84    0.09
  -7   1   6    0.78    0.09
  -7   1   6    0.85    0.09
   6  -1  -6    3.79    0.15
   6  -1  -6    3.78    0.18
   6  -1  -6    4.00    0.15
   6  -1  -6    3.98    0.15
   6  -1  -6    3.79    0.15
   6  -1  -6    3.93    0.64
  -6   1   6    4.16    0.16
  -6   1   6    3.80    0.16
  -6   1   6    3.77    0.12
  -6   1   6    4.34    0.15
  -6   1   6    3.95    0.15
  -6   1   6    3.87    0.15
   5  -1  -6    2.40    0.11
   5  -1  -6    2.42    0.10
   5  -1  -6    2.41    0.12
   5  -1  -6    2.26    0.18
   5  -1  -6    2.61    0.17
  -5   1   6    2.36    0.11
  -5   1   6    2.48    0.12
  -5   1   6    2.34    0.11
  -5   1   6    2.64    0.11
  -5   1   6    2.46    0.12
  -5   1   6    2.43    0.10
   4  -1  -6    0.18    0.10
   4  -1  -6    0.04    0.06
   4  -1  -6    0.05    0.05
   4  -1  -6    0.05    0.03
   4  -1  -6    0.08    0.03
  -4   1   6    0.06    0.03
  -4   1   6    0.05    0.03
  -4   1   6    0.03    0.03
  -4   1   6    0.03    0.03
  -4   1   6    0.08    0.03
  -4   1   6    0.08    0.03
   3  -1  -6    4.86    0.15
   3  -1  -6    5.13    0.22
   3  -1  -6    4.84    0.18
   3  -1  -6    4.91    0.14
  -3   1   6    5.15    0.22
  -3   1   6    4.98    0.14
  -3   1   6    5.38    0.16
  -3   1   6    4.97    0.14
   2  -1  -6   98.80    1.48
   2  -1  -6  102.61    1.44
   2  -1  -6  102.96    1.68
   2  -1  -6  100.17    2.20
  -2   1   6   99.40    1.53
  -2   1   6   99.95    1.43
  -2   1   6  101.49    1.61
  -2   1   6  102.89    1.62
  -2   1   6   98.27    1.46
   1  -1  -6   19.38    0.45
   1  -1  -6   19.27    0.42
  -1   1   6   18.67    0.33
  -1   1   6   18.98    0.38
  -1   1   6   19.35    0.41
   0  -1  -6    0.89    0.11
   0  -1  -6    1.12    0.10
   0  -1  -6    0.92    0.07
   0   1   6    1.00    0.05
   0   1   6    0.86    0.08
   0   1   6    1.03    0.08
  -1  -1  -6    0.05    0.04
  -1  -1  -6    0.03    0.04
   1   1   6   -0.02    0.03
   1   1   6    0.01    0.03
   1   1   6    0.02    0.02
  -2  -1  -6    0.17    0.05
  -2  -1  -6    0.09    0.05
   2   1   6    0.12    0.05
   2   1   6    0.18    0.06
   2   1   6    0.11    0.02
  -3  -1  -6    3.37    0.17
  -3  -1  -6    3.33    0.16
   3   1   6    3.44    0.17
   3   1   6    3.61    0.15
  -4  -1  -6    9.23    0.31
  -4  -1  -6    9.77    0.28
   4   1   6    9.74    0.30
  -5  -1  -6    1.64    0.16
   5   1   6    1.79    0.15
  -6  -1  -6    0.30    0.10
   6   1   6    0.36    0.09
  -7  -1  -6    0.08    0.08
  10   1   6    0.02    0.05
 -13   2   6   -0.02    0.13
  12  -2  -6    0.02    0.06
  12  -2  -6   -0.04    0.06
 -12   2   6    0.18    0.12
  11  -2  -6   -0.07    0.06
 -11   2   6   -0.02    0.11
  10  -2  -6    0.05    0.06
 -10   2   6    0.00    0.08
   9  -2  -6    1.91    0.21
   9  -2  -6    2.32    0.15
  -9   2   6    2.32    0.16
   8  -2  -6    8.55    0.41
   8  -2  -6    9.31    0.26
   8  -2  -6    9.15    0.23
  -8   2   6    9.05    0.26
  -8   2   6    9.62    0.28
  -8   2   6    9.21    0.27
   7  -2  -6    0.89    0.09
   7  -2  -6    0.87    0.09
   7  -2  -6    1.03    0.11
   7  -2  -6    1.10    0.10
   7  -2  -6    0.86    0.15
  -7   2   6    1.00    0.10
  -7   2   6    1.20    0.10
  -7   2   6    0.80    0.09
   6  -2  -6    5.54    0.18
   6  -2  -6    5.55    0.18
   6  -2  -6    5.77    0.29
   6  -2  -6    5.59    0.41
   6  -2  -6    5.27    0.17
  -6   2   6    5.28    0.19
  -6   2   6    5.42    0.17
  -6   2   6    5.43    0.20
  -6   2   6    5.40    0.16
  -6   2   6    5.25    0.17
   5  -2  -6   10.56    0.26
   5  -2  -6   10.47    0.31
   5  -2  -6   10.58    0.54
   5  -2  -6   10.73    0.25
  -5   2   6   10.53    0.28
  -5   2   6   10.78    0.25
  -5   2   6   10.31    0.22
  -5   2   6   10.50    0.25
  -5   2   6   10.63    0.25
   4  -2  -6    0.17    0.09
   4  -2  -6    0.04    0.05
   4  -2  -6    0.02    0.03
   4  -2  -6    0.05    0.05
  -4   2   6    0.01    0.04
  -4   2   6    0.01    0.03
  -4   2   6    0.03    0.04
  -4   2   6    0.01    0.02
  -4   2   6    0.01    0.03
   3  -2  -6   13.04    0.26
   3  -2  -6   13.09    0.27
   3  -2  -6   13.36    0.42
   3  -2  -6   13.01    0.32
  -3   2   6   12.68    0.25
  -3   2   6   12.40    0.29
  -3   2   6   12.89    0.26
  -3   2   6   12.89    0.32
   2  -2  -6    0.39    0.09
   2  -2  -6    0.43    0.07
  -2   2   6    0.33    0.06
  -2   2   6    0.31    0.03
  -2   2   6    0.34    0.05
  -2   2   6    0.22    0.05
  -2   2   6    0.39    0.04
   1  -2  -6    0.58    0.08
   1  -2  -6    0.54    0.09
  -1   2   6    0.53    0.05
  -1   2   6    0.56    0.08
  -1   2   6    0.75    0.08
   0  -2  -6    0.12    0.05
   0  -2  -6    0.25    0.07
   0  -2  -6    0.19    0.04
   0   2   6    0.22    0.03
   0   2   6    0.10    0.05
   0   2   6    0.20    0.05
  -1  -2  -6    0.11    0.05
  -1  -2  -6    0.14    0.05
   1   2   6    0.11    0.03
   1   2   6    0.08    0.05
   1   2   6    0.10    0.05
  -2  -2  -6    0.29    0.06
  -2  -2  -6    0.45    0.08
   2   2   6    0.37    0.07
  -3  -2  -6    0.70    0.09
  -3  -2  -6    0.59    0.09
   3   2   6    0.63    0.10
  -4  -2  -6    0.09    0.07
   4   2   6    0.00    0.06
  -5  -2  -6    0.25    0.09
   5   2   6    0.23    0.08
  -6  -2  -6    0.05    0.07
   6   2   6    0.04    0.08
  -7  -2  -6    0.08    0.09
 -13   3   6    0.14    0.13
  12  -3  -6   -0.04    0.07
 -12   3   6   -0.01    0.11
  11  -3  -6    0.02    0.06
 -11   3   6   -0.07    0.09
  10  -3  -6    0.38    0.09
 -10   3   6    0.37    0.10
   9  -3  -6    0.17    0.07
   9  -3  -6    0.13    0.06
  -9   3   6    0.18    0.07
  -9   3   6    0.09    0.07
  -9   3   6    0.13    0.08
   8  -3  -6    0.08    0.12
   8  -3  -6    0.25    0.07
   8  -3  -6    0.31    0.08
  -8   3   6    0.20    0.17
  -8   3   6    0.28    0.08
  -8   3   6    0.22    0.07
   7  -3  -6    3.53    0.16
   7  -3  -6    3.48    0.16
   7  -3  -6    3.34    0.26
  -7   3   6    3.49    0.15
  -7   3   6    3.29    0.17
  -7   3   6    3.72    0.27
   6  -3  -6    1.49    0.18
   6  -3  -6    1.30    0.11
   6  -3  -6    1.60    0.17
   6  -3  -6    1.50    0.11
  -6   3   6    1.45    0.12
  -6   3   6    1.29    0.10
  -6   3   6    1.26    0.10
  -6   3   6    1.44    0.11
   5  -3  -6   14.51    0.46
   5  -3  -6   14.37    0.31
   5  -3  -6   14.64    0.32
   5  -3  -6   14.50    0.36
  -5   3   6   14.36    0.31
  -5   3   6   14.43    0.47
  -5   3   6   14.17    0.25
  -5   3   6   13.98    0.36
   4  -3  -6    2.57    0.15
   4  -3  -6    2.78    0.22
   4  -3  -6    2.86    0.13
  -4   3   6    2.71    0.12
  -4   3   6    2.66    0.11
  -4   3   6    2.69    0.14
  -4   3   6    2.48    0.13
   3  -3  -6    8.55    0.31
   3  -3  -6    8.63    0.26
   3  -3  -6    8.81    0.20
  -3   3   6    8.76    0.26
  -3   3   6    8.65    0.21
  -3   3   6    8.64    0.19
  -3   3   6    8.61    0.24
   2  -3  -6    0.02    0.04
   2  -3  -6   -0.05    0.15
  -2   3   6    0.02    0.04
  -2   3   6    0.02    0.03
  -2   3   6    0.08    0.05
   1  -3  -6    0.10    0.07
   1  -3  -6    0.05    0.05
  -1   3   6    0.05    0.03
  -1   3   6    0.06    0.05
   0  -3  -6    6.89    0.24
   0   3   6    6.90    0.16
   0   3   6    6.84    0.24
  -1  -3  -6    8.23    0.27
   1   3   6    8.01    0.16
   1   3   6    7.81    0.26
  -2  -3  -6    1.18    0.12
   2   3   6    0.93    0.11
   3   3   6    1.08    0.13
   4   3   6    0.09    0.08
   5   3   6    1.36    0.15
 -13   4   6    0.05    0.12
  12  -4  -6    0.63    0.11
 -12   4   6    0.45    0.13
  11  -4  -6    0.32    0.09
 -11   4   6    0.45    0.11
  10  -4  -6    0.68    0.11
 -10   4   6    0.78    0.12
 -10   4   6    0.68    0.11
   9  -4  -6    0.09    0.07
   9  -4  -6    0.08    0.07
  -9   4   6    0.09    0.08
  -9   4   6    0.08    0.07
  -9   4   6    0.07    0.07
   8  -4  -6    0.64    0.09
   8  -4  -6    0.61    0.10
   8  -4  -6    0.30    0.14
  -8   4   6    0.47    0.08
  -8   4   6    0.47    0.76
  -8   4   6    0.53    0.10
   7  -4  -6    1.35    0.12
   7  -4  -6    1.13    0.18
   7  -4  -6    1.34    0.12
  -7   4   6    1.27    0.10
  -7   4   6    1.48    0.13
  -7   4   6    1.46    0.13
   6  -4  -6    3.14    0.15
   6  -4  -6    3.65    0.17
   6  -4  -6    2.92    0.15
   6  -4  -6    3.22    0.27
  -6   4   6    3.01    0.11
  -6   4   6    3.09    0.15
  -6   4   6    3.22    0.15
  -6   4   6    3.24    0.17
   5  -4  -6    0.08    0.05
   5  -4  -6    0.16    0.06
   5  -4  -6    0.04    0.11
  -5   4   6    0.01    0.05
  -5   4   6    0.07    0.04
  -5   4   6    0.06    0.04
   4  -4  -6    0.14    0.19
   4  -4  -6    0.09    0.06
   4  -4  -6    0.22    0.06
  -4   4   6    0.13    0.04
  -4   4   6    0.19    0.06
  -4   4   6    0.14    0.04
   3  -4  -6    0.03    0.09
   3  -4  -6    0.03    0.05
  -3   4   6    0.01    0.03
  -3   4   6   -0.06    0.03
  -3   4   6   -0.03    0.04
   2  -4  -6    0.05    0.05
   2  -4  -6    0.11    0.18
  -2   4   6    0.04    0.04
  -2   4   6    0.00    0.04
   1  -4  -6    0.58    0.10
   1  -4  -6    0.57    0.09
  -1   4   6    0.55    0.09
  -1   4   6    0.46    0.06
   0  -4  -6    1.36    0.13
   0   4   6    1.03    0.12
   0   4   6    0.85    0.07
   1   4   6    3.96    0.12
   1   4   6    4.41    0.20
   2   4   6    0.02    0.03
   2   4   6   -0.04    0.05
   3   4   6    0.00    0.06
   4   4   6    0.44    0.11
 -13   5   6    0.56    0.13
  12  -5  -6    0.36    0.10
 -12   5   6    0.36    0.12
  11  -5  -6    0.03    0.07
 -11   5   6    0.19    0.10
 -11   5   6    0.10    0.10
  10  -5  -6    0.01    0.07
  10  -5  -6    0.02    0.07
 -10   5   6   -0.09    0.08
 -10   5   6    0.03    0.08
 -10   5   6   -0.02    0.08
   9  -5  -6    0.46    0.09
   9  -5  -6    0.12    0.08
  -9   5   6    0.40    0.10
  -9   5   6    0.10    0.07
  -9   5   6    0.16    0.08
   8  -5  -6   -0.01    0.07
   8  -5  -6    0.04    0.06
  -8   5   6   -0.04    0.05
  -8   5   6    0.00    0.06
  -8   5   6    0.03    0.06
   7  -5  -6    0.52    0.16
   7  -5  -6    0.97    0.11
  -7   5   6    1.05    0.08
  -7   5   6    1.05    0.11
  -7   5   6    1.04    0.13
   6  -5  -6    0.93    0.17
   6  -5  -6    0.94    0.11
   6  -5  -6    1.22    0.12
  -6   5   6    0.94    0.10
  -6   5   6    1.04    0.10
  -6   5   6    1.09    0.13
   5  -5  -6    1.03    0.11
   5  -5  -6    0.94    0.17
   5  -5  -6    0.91    0.10
  -5   5   6    0.86    0.11
  -5   5   6    0.75    0.08
  -5   5   6    0.94    0.10
   4  -5  -6    0.86    0.14
   4  -5  -6    1.01    0.10
   4  -5  -6    1.15    0.12
  -4   5   6    0.89    0.11
  -4   5   6    1.02    0.08
  -4   5   6    1.06    0.09
   3  -5  -6    4.01    0.25
   3  -5  -6    3.85    0.19
  -3   5   6    4.01    0.15
  -3   5   6    3.80    0.19
   2  -5  -6    3.38    0.23
  -2   5   6    3.11    0.18
  -2   5   6    3.47    0.13
   1  -5  -6    0.80    0.13
  -1   5   6    0.95    0.12
  -1   5   6    0.85    0.08
   0   5   6    0.04    0.03
   0   5   6   -0.10    0.04
   1   5   6    1.36    0.15
   1   5   6    1.27    0.08
   2   5   6    0.17    0.08
   2   5   6    0.27    0.04
   3   5   6    0.22    0.04
   3   5   6    0.12    0.08
 -13   6   6   -0.11    0.11
  12  -6  -6    0.17    0.09
 -12   6   6    0.23    0.11
  11  -6  -6    0.10    0.08
 -11   6   6    0.14    0.10
 -11   6   6   -0.05    0.08
 -11   6   6    0.04    0.09
  10  -6  -6    0.06    0.09
  10  -6  -6    0.07    0.08
 -10   6   6    0.07    0.08
 -10   6   6    0.02    0.07
 -10   6   6    0.05    0.08
   9  -6  -6    0.13    0.09
   9  -6  -6   -0.05    0.06
  -9   6   6    0.03    0.07
  -9   6   6    0.03    0.08
  -9   6   6   -0.07    0.07
   8  -6  -6    0.62    0.11
  -8   6   6    0.80    0.11
  -8   6   6    0.64    0.11
   7  -6  -6    0.61    0.10
  -7   6   6    0.63    0.11
  -7   6   6    0.61    0.10
  -7   6   6    0.59    0.09
   6  -6  -6    0.12    0.14
   6  -6  -6    0.02    0.07
  -6   6   6    0.03    0.05
  -6   6   6    0.05    0.05
  -6   6   6    0.15    0.08
   5  -6  -6    0.16    0.28
   5  -6  -6    0.24    0.08
  -5   6   6    0.17    0.05
  -5   6   6    0.22    0.08
  -5   6   6    0.26    0.07
   4  -6  -6    0.30    0.13
  -4   6   6    0.45    0.07
  -4   6   6    0.41    0.09
   3  -6  -6    0.40    0.29
  -3   6   6    0.35    0.09
  -3   6   6    0.29    0.06
   2  -6  -6    0.78    0.14
  -2   6   6    0.55    0.10
  -2   6   6    0.84    0.09
   1  -6  -6    1.34    0.17
  -1   6   6    1.43    0.10
  -1   6   6    1.15    0.14
   0   6   6    0.07    0.04
   0   6   6   -0.02    0.06
   1   6   6    0.01    0.07
   1   6   6    0.03    0.04
   2   6   6    0.10    0.08
   2   6   6    0.02    0.04
   4   6   6    0.15    0.04
 -13   7   6    0.02    0.10
 -12   7   6    0.03    0.10
 -12   7   6    0.14    0.11
  11  -7  -6    0.29    0.10
  11  -7  -6    0.22    0.09
 -11   7   6    0.41    0.12
 -11   7   6    0.23    0.10
 -11   7   6    0.10    0.09
  10  -7  -6    0.06    0.09
  10  -7  -6   -0.02    0.07
 -10   7   6    0.04    0.09
 -10   7   6    0.09    0.08
   9  -7  -6    1.04    0.14
  -9   7   6    1.06    0.15
  -9   7   6    1.19    0.14
   8  -7  -6    2.16    0.17
  -8   7   6    2.43    0.17
  -8   7   6    2.76    0.20
   7  -7  -6    0.08    0.09
  -7   7   6    0.05    0.06
  -7   7   6    0.05    0.08
  -7   7   6   -0.01    0.06
   6  -7  -6    0.27    0.09
  -6   7   6    0.30    0.07
  -6   7   6    0.37    0.10
  -6   7   6    0.33    0.08
   5  -7  -6    0.74    0.11
  -5   7   6    0.79    0.08
  -5   7   6    0.87    0.11
  -5   7   6    0.79    0.13
  -4   7   6    0.40    0.10
  -4   7   6    0.37    0.08
  -3   7   6    0.30    0.07
  -3   7   6    0.36    0.10
  -2   7   6    2.32    0.13
  -2   7   6    2.40    0.18
  -1   7   6    0.02    0.04
  -1   7   6   -0.04    0.07
   0   7   6    0.66    0.08
   0   7   6    0.41    0.11
   1   7   6    2.60    0.21
   1   7   6    2.39    0.12
   2   7   6    0.69    0.14
   2   7   6    0.58    0.07
   3   7   6    0.03    0.04
   4   7   6    0.08    0.05
 -12   8   6    0.48    0.13
  11  -8  -6    0.33    0.11
  11  -8  -6    0.52    0.12
 -11   8   6    0.49    0.13
 -11   8   6    0.60    0.13
  10  -8  -6    0.34    0.12
 -10   8   6    0.18    0.09
 -10   8   6    0.29    0.11
   9  -8  -6    0.18    0.11
  -9   8   6    0.50    0.12
  -9   8   6    0.47    0.11
   8  -8  -6   -0.03    0.09
  -8   8   6   -0.01    0.08
  -8   8   6   -0.03    0.06
   7  -8  -6    0.17    0.10
  -7   8   6   -0.01    0.07
  -7   8   6    0.03    0.06
  -7   8   6    0.01    0.06
   6  -8  -6    1.88    0.17
  -6   8   6    2.33    0.17
  -6   8   6    1.82    0.19
  -6   8   6    2.24    0.13
   5  -8  -6    0.70    0.11
  -5   8   6    0.89    0.14
  -5   8   6    0.88    0.11
  -4   8   6   -0.01    0.06
  -4   8   6   -0.04    0.07
  -3   8   6    1.20    0.21
  -3   8   6    1.30    0.12
  -2   8   6    0.07    0.08
  -2   8   6    0.09    0.06
  -1   8   6    0.19    0.10
  -1   8   6    0.36    0.08
   0   8   6    0.05    0.09
   0   8   6   -0.05    0.04
   1   8   6    0.39    0.07
   1   8   6    0.34    0.12
   2   8   6    0.14    0.05
   3   8   6    0.29    0.07
  11  -9  -6    0.75    0.13
 -11   9   6    0.32    0.13
  10  -9  -6    0.14    0.11
 -10   9   6    0.16    0.11
   9  -9  -6   -0.06    0.10
  -9   9   6   -0.06    0.09
  -9   9   6    0.02    0.07
   8  -9  -6    0.34    0.12
  -8   9   6    0.10    0.10
  -8   9   6    0.11    0.07
   7  -9  -6    0.42    0.12
  -7   9   6    0.39    0.12
  -7   9   6    0.40    0.10
  -7   9   6    0.38    0.08
   6  -9  -6    0.65    0.13
  -6   9   6    0.57    0.13
  -6   9   6    0.56    0.11
  -5   9   6    0.03    0.08
  -5   9   6    0.01    0.07
  -4   9   6    0.06    0.08
  -4   9   6    0.00    0.07
  -3   9   6    0.04    0.06
  -3   9   6    0.06    0.09
  -2   9   6    0.11    0.06
  -2   9   6    0.01    0.09
  -1   9   6   -0.04    0.09
  -1   9   6    0.08    0.06
   0   9   6    0.24    0.07
   0   9   6    0.30    0.12
   1   9   6   -0.07    0.04
   2   9   6    0.22    0.08
  10 -10  -6    0.25    0.13
 -10  10   6    0.56    0.15
   9 -10  -6    0.08    0.12
  -9  10   6   -0.02    0.09
   8 -10  -6    0.24    0.13
  -8  10   6    0.23    0.11
   7 -10  -6    0.25    0.12
  -7  10   6    0.25    0.12
  -7  10   6    0.32    0.11
   6 -10  -6    2.04    0.19
  -6  10   6    2.52    0.19
  -6  10   6    2.33    0.23
  -5  10   6    0.62    0.12
  -5  10   6    0.50    0.13
  -4  10   6    0.43    0.16
  -4  10   6    0.73    0.12
  -3  10   6    1.69    0.16
  -3  10   6    1.41    0.19
  -2  10   6    0.00    0.10
  -2  10   6   -0.09    0.06
  -1  10   6    0.20    0.13
  -1  10   6    0.25    0.08
   0  10   6    0.13    0.10
   0  10   6    0.00    0.06
   9 -11  -6    0.63    0.15
  -9  11   6    0.45    0.14
   8 -11  -6    0.15    0.13
  -8  11   6    0.17    0.11
   7 -11  -6   -0.13    0.11
  -7  11   6   -0.08    0.09
   6 -11  -6   -0.08    0.11
  -6  11   6    0.08    0.09
  -6  11   6    0.00    0.09
  -5  11   6   -0.06    0.15
  -5  11   6    0.16    0.10
  -4  11   6    0.30    0.12
  -4  11   6    0.44    0.11
  -3  11   6    0.12    0.09
  -3  11   6    0.00    0.11
  -2  11   6    0.02    0.08
  -2  11   6   -0.03    0.10
   3 -16   7    0.02    0.12
   4 -16   7    0.14    0.12
   5 -16   7    0.38    0.12
   1  15  -7    0.11    0.12
  -1 -15   7    0.21    0.13
   0 -15   7   -0.06    0.11
   1 -15   7    0.05    0.12
   2 -15   7   -0.02    0.11
   3 -15   7    0.30    0.12
   4 -15   7    1.93    0.18
   5 -15   7    0.69    0.14
  -6  15  -7   -0.12    0.15
   6 -15   7    0.04    0.10
  -7  15  -7    0.06    0.17
  -8  15  -7   -0.47    0.15
   3  14  -7    0.02    0.10
   2  14  -7    0.22    0.11
  -2 -14   7    0.25    0.13
   1  14  -7    0.19    0.11
  -1 -14   7    0.33    0.13
   0 -14   7   -0.12    0.10
  -1  14  -7    1.00    0.12
   1 -14   7    1.16    0.15
  -2  14  -7   -0.03    0.07
   2 -14   7   -0.09    0.10
  -3  14  -7    0.19    0.08
   3 -14   7    0.03    0.10
  -4  14  -7   -0.10    0.07
   4 -14   7    0.07    0.10
  -5  14  -7    0.21    0.10
  -5  14  -7    0.11    0.15
   5 -14   7    0.14    0.10
  -6  14  -7    0.50    0.12
  -6  14  -7    0.34    0.17
   6 -14   7    0.35    0.10
   6 -14   7    0.46    0.12
  -7  14  -7   -0.18    0.15
  -7  14  -7    0.15    0.09
  -7  14  -7    0.15    0.10
   7 -14   7    0.18    0.10
  -8  14  -7    0.29    0.20
  -8  14  -7    0.50    0.13
  -9  14  -7    0.18    0.12
  -9  14  -7   -0.53    0.15
   4  13  -7    0.18    0.11
   3  13  -7    0.24    0.11
   2  13  -7    1.53    0.17
  -2 -13   7    1.48    0.16
   1  13  -7    0.51    0.11
  -1 -13   7    0.40    0.12
   0  13  -7    0.15    0.10
   0  13  -7    0.19    0.09
   0 -13   7    0.06    0.10
  -1  13  -7    1.72    0.15
   1 -13   7    1.89    0.18
  -2  13  -7    0.59    0.14
  -2  13  -7    0.73    0.11
   2 -13   7    0.68    0.12
  -3  13  -7    0.15    0.08
   3 -13   7    0.18    0.09
  -4  13  -7    0.01    0.13
  -4  13  -7    0.19    0.09
   4 -13   7    0.17    0.09
  -5  13  -7    0.23    0.09
  -5  13  -7    0.05    0.14
  -5  13  -7    0.20    0.09
   5 -13   7    0.11    0.08
   5 -13   7    0.31    0.09
  -6  13  -7    0.11    0.08
  -6  13  -7    0.10    0.09
  -6  13  -7    0.05    0.15
   6 -13   7    0.05    0.08
   6 -13   7    0.23    0.09
  -7  13  -7   -0.11    0.15
  -7  13  -7   -0.16    0.09
   7 -13   7    0.05    0.09
  -8  13  -7   -0.05    0.16
  -8  13  -7    0.16    0.11
   8 -13   7    0.05    0.09
  -9  13  -7    0.14    0.11
  -9  13  -7    0.08    0.18
 -10  13  -7    0.64    0.14
 -10  13  -7    0.35    0.20
   6  12  -7    0.12    0.10
   5  12  -7    0.06    0.10
   4  12  -7    0.60    0.13
   3  12  -7    0.47    0.12
  -3 -12   7    0.47    0.12
   2  12  -7    0.88    0.13
  -2 -12   7    0.84    0.13
   1  12  -7    0.12    0.08
   1  12  -7    0.00    0.05
  -1 -12   7   -0.14    0.09
   0  12  -7    1.15    0.17
   0  12  -7    1.30    0.12
   0  12  -7    1.14    0.13
   0 -12   7    1.61    0.15
  -1  12  -7    2.50    0.16
  -1  12  -7    3.30    0.24
  -1  12  -7    2.82    0.21
   1 -12   7    2.57    0.18
  -2  12  -7    0.14    0.09
  -2  12  -7   -0.01    0.07
   2 -12   7    0.05    0.08
  -3  12  -7    0.36    0.07
  -3  12  -7    0.59    0.11
  -3  12  -7    0.32    0.12
  -3  12  -7    0.46    0.26
   3 -12   7    0.51    0.10
  -4  12  -7    0.51    0.23
  -4  12  -7    0.33    0.14
  -4  12  -7    0.35    0.08
  -4  12  -7    0.46    0.10
   4 -12   7    0.41    0.09
   4 -12   7    0.38    0.09
  -5  12  -7    0.46    0.09
  -5  12  -7    0.63    0.16
  -5  12  -7    0.49    0.16
  -5  12  -7    0.59    0.10
   5 -12   7    0.66    0.11
   5 -12   7    0.47    0.09
  -6  12  -7    0.56    0.11
  -6  12  -7    0.72    0.17
   6 -12   7    0.74    0.12
  -7  12  -7    3.38    0.30
  -7  12  -7    3.15    0.19
   7 -12   7    3.63    0.21
  -8  12  -7    0.21    0.11
  -8  12  -7    0.15    0.15
   8 -12   7    0.28    0.09
  -9  12  -7    0.19    0.11
  -9  12  -7    0.17    0.16
   9 -12   7    0.13    0.10
 -10  12  -7    0.45    0.13
 -10  12  -7    0.29    0.18
 -11  12  -7    0.04    0.13
 -11  12  -7    0.08    0.17
   7  11  -7   -0.05    0.09
   6  11  -7    0.15    0.10
   5  11  -7    0.58    0.13
   4  11  -7    0.37    0.10
   3  11  -7    0.27    0.09
  -3 -11   7    0.06    0.09
   2  11  -7    0.48    0.08
   2  11  -7    0.54    0.11
   2  11  -7    0.31    0.09
  -2 -11   7    0.46    0.10
   1  11  -7    0.46    0.09
   1  11  -7    0.53    0.12
   1  11  -7    0.53    0.08
  -1 -11   7    0.29    0.09
   0  11  -7    0.19    0.09
   0  11  -7   -0.04    0.05
   0  11  -7    0.04    0.06
   0 -11   7    0.08    0.08
  -1  11  -7    0.02    0.06
  -1  11  -7    0.10    0.09
   1 -11   7    0.03    0.07
  -2  11  -7    0.72    0.10
  -2  11  -7    0.74    0.13
  -2  11  -7    0.89    0.16
  -2  11  -7    0.72    0.08
   2 -11   7    0.86    0.11
   2 -11   7    0.87    0.11
  -3  11  -7    0.85    0.14
  -3  11  -7    1.10    0.10
  -3  11  -7    0.85    0.17
  -3  11  -7    1.19    0.12
   3 -11   7    1.08    0.12
   3 -11   7    0.81    0.10
  -4  11  -7    0.53    0.15
  -4  11  -7    0.68    0.15
  -4  11  -7    0.55    0.08
  -4  11  -7    0.46    0.09
   4 -11   7    0.56    0.09
   4 -11   7    0.66    0.10
  -5  11  -7    1.17    0.17
  -5  11  -7    1.39    0.21
  -5  11  -7    1.13    0.11
  -5  11  -7    1.39    0.14
   5 -11   7    1.40    0.14
   5 -11   7    1.40    0.12
  -6  11  -7   -0.06    0.12
  -6  11  -7    0.06    0.12
  -6  11  -7    0.01    0.07
   6 -11   7    0.11    0.07
  -7  11  -7   -0.20    0.12
  -7  11  -7   -0.02    0.07
  -7  11  -7   -0.02    0.13
   7 -11   7   -0.01    0.06
  -8  11  -7    0.06    0.09
  -8  11  -7    0.27    0.15
   8 -11   7    0.18    0.07
  -9  11  -7   -0.04    0.14
  -9  11  -7    0.15    0.11
   9 -11   7    0.20    0.07
 -10  11  -7   -0.07    0.14
 -10  11  -7    0.05    0.11
  10 -11   7    0.05    0.06
 -11  11  -7    0.07    0.16
 -11  11  -7    0.11    0.12
   8  10  -7    0.04    0.09
   7  10  -7   -0.05    0.08
   6  10  -7    0.90    0.13
   5  10  -7    0.05    0.08
   4  10  -7    0.75    0.12
   4  10  -7    0.88    0.16
  -4 -10   7    0.80    0.12
   3  10  -7    0.85    0.08
   3  10  -7    0.61    0.10
   3  10  -7    1.37    0.16
  -3 -10   7    0.61    0.10
   2  10  -7    0.87    0.09
   2  10  -7    0.74    0.12
   2  10  -7    0.65    0.10
  -2 -10   7    0.78    0.10
   1  10  -7   -0.02    0.05
   1  10  -7    0.05    0.06
   1  10  -7    0.19    0.21
  -1 -10   7    0.05    0.07
   0  10  -7    0.08    0.09
   0  10  -7    0.09    0.08
   0  10  -7    0.03    0.05
   0  10  -7    0.00    0.05
   0 -10   7   -0.01    0.06
  -1  10  -7    0.23    0.11
  -1  10  -7    0.08    0.06
  -1  10  -7    0.15    0.05
   1 -10   7    0.05    0.05
   1 -10   7    0.10    0.07
  -2  10  -7    0.29    0.08
  -2  10  -7    0.15    0.05
  -2  10  -7    0.31    0.10
  -2  10  -7    0.11    0.18
   2 -10   7    0.14    0.06
   2 -10   7    0.22    0.07
  -3  10  -7    0.05    0.06
  -3  10  -7    0.17    0.07
  -3  10  -7    0.03    0.11
  -3  10  -7    0.11    0.06
  -3  10  -7    0.05    0.09
   3 -10   7    0.15    0.06
   3 -10   7    0.04    0.06
  -4  10  -7    3.68    0.16
  -4  10  -7    3.77    0.18
  -4  10  -7    3.61    0.19
  -4  10  -7    3.62    0.27
  -4  10  -7    3.94    0.24
   4 -10   7    4.28    0.19
   4 -10   7    3.83    0.15
  -5  10  -7    1.49    0.13
  -5  10  -7    1.40    0.17
  -5  10  -7    1.64    0.21
   5 -10   7    1.46    0.13
   5 -10   7    1.42    0.10
  -6  10  -7    0.65    0.10
  -6  10  -7    0.56    0.14
  -6  10  -7    0.61    0.37
   6 -10   7    0.67    0.09
   6 -10   7    0.78    0.12
   6 -10   7    0.72    0.13
  -7  10  -7    1.66    0.15
  -7  10  -7    1.66    0.20
  -7  10  -7    1.43    0.21
   7 -10   7    1.81    0.16
   7 -10   7    1.63    0.15
  -8  10  -7   -0.11    0.08
  -8  10  -7    0.00    0.12
   8 -10   7   -0.08    0.07
   8 -10   7   -0.06    0.05
  -9  10  -7    0.16    0.10
  -9  10  -7   -0.02    0.13
   9 -10   7    0.06    0.08
   9 -10   7    0.03    0.05
 -10  10  -7    0.00    0.10
 -10  10  -7    0.00    0.14
  10 -10   7    0.03    0.09
 -11  10  -7   -0.04    0.11
 -11  10  -7    0.16    0.16
  11 -10   7    0.12    0.10
   9   9  -7    0.12    0.11
   8   9  -7   -0.02    0.09
   7   9  -7    0.39    0.11
   6   9  -7    0.04    0.08
   5   9  -7    0.22    0.09
   5   9  -7    0.11    0.08
   4   9  -7   -0.01    0.04
   4   9  -7    0.13    0.07
   4   9  -7    0.02    0.06
  -4  -9   7    0.08    0.07
   3   9  -7    2.32    0.24
   3   9  -7    2.34    0.12
   3   9  -7    2.43    0.15
  -3  -9   7    2.39    0.15
   2   9  -7    1.83    0.13
   2   9  -7    1.82    0.19
   2   9  -7    1.78    0.13
  -2  -9   7    1.80    0.13
   1   9  -7    0.00    0.04
   1   9  -7    0.07    0.05
   1   9  -7    0.03    0.07
  -1  -9   7    0.06    0.06
   0   9  -7    1.95    0.18
   0   9  -7    2.00    0.12
   0   9  -7    2.00    0.09
   0   9  -7    2.20    0.13
   0  -9   7    2.01    0.13
   0  -9   7    2.06    0.13
  -1   9  -7    3.10    0.27
  -1   9  -7    2.60    0.21
  -1   9  -7    2.71    0.17
  -1   9  -7    2.59    0.14
  -1   9  -7    2.62    0.12
   1  -9   7    2.70    0.14
   1  -9   7    2.54    0.14
  -2   9  -7    1.93    0.13
  -2   9  -7    2.01    0.17
  -2   9  -7    2.06    0.21
  -2   9  -7    2.05    0.12
  -2   9  -7    2.09    0.16
   2  -9   7    1.99    0.12
   2  -9   7    2.24    0.13
  -3   9  -7    2.30    0.14
  -3   9  -7    2.23    0.17
  -3   9  -7    1.99    0.12
  -3   9  -7    2.04    0.22
  -3   9  -7    2.18    0.17
   3  -9   7    2.23    0.12
   3  -9   7    2.34    0.13
  -4   9  -7    0.58    0.12
  -4   9  -7    0.57    0.21
  -4   9  -7    0.58    0.08
  -4   9  -7    0.59    0.15
  -4   9  -7    0.58    0.09
   4  -9   7    0.52    0.06
   4  -9   7    0.55    0.09
   4  -9   7    0.50    0.08
  -5   9  -7    1.10    0.11
  -5   9  -7    1.04    0.18
  -5   9  -7    0.88    0.14
   5  -9   7    0.84    0.09
   5  -9   7    1.16    0.14
   5  -9   7    0.88    0.10
  -6   9  -7    0.29    0.08
  -6   9  -7    0.13    0.10
  -6   9  -7    0.26    0.13
   6  -9   7    0.28    0.08
   6  -9   7    0.21    0.09
   6  -9   7    0.29    0.09
  -7   9  -7    0.53    0.16
  -7   9  -7    0.70    0.10
  -7   9  -7    0.52    0.14
   7  -9   7    0.57    0.10
   7  -9   7    0.57    0.08
  -8   9  -7    2.28    0.16
  -8   9  -7    1.86    0.24
  -8   9  -7    2.23    0.22
   8  -9   7    2.23    0.12
   8  -9   7    2.28    0.17
  -9   9  -7    0.61    0.12
  -9   9  -7    0.46    0.15
   9  -9   7    0.54    0.11
 -10   9  -7    1.02    0.19
  10  -9   7    1.15    0.15
 -11   9  -7    0.27    0.16
  11  -9   7    0.38    0.11
 -12   9  -7   -0.08    0.15
  12  -9   7    0.02    0.10
   9   8  -7    0.10    0.10
   8   8  -7    0.89    0.14
   7   8  -7    0.08    0.08
   6   8  -7    4.37    0.26
   6   8  -7    4.34    0.20
   5   8  -7    0.45    0.18
   5   8  -7    0.51    0.09
  -5  -8   7    0.36    0.09
   4   8  -7    1.87    0.13
   4   8  -7    2.06    0.17
   4   8  -7    2.08    0.12
  -4  -8   7    2.07    0.14
   3   8  -7    1.20    0.11
   3   8  -7    1.17    0.11
   3   8  -7    1.74    0.15
  -3  -8   7    1.37    0.12
   2   8  -7    0.09    0.05
   2   8  -7    0.01    0.04
   2   8  -7    0.05    0.08
  -2  -8   7    0.10    0.06
   1   8  -7   16.43    0.44
   1   8  -7   17.13    0.36
   1   8  -7   16.28    0.47
   1   8  -7   16.10    0.30
   1   8  -7   16.43    0.36
  -1  -8   7   16.62    0.35
  -1  -8   7   16.87    0.37
   0   8  -7   11.60    0.28
   0   8  -7   11.48    0.78
   0   8  -7   11.36    0.25
   0   8  -7   11.58    0.28
   0   8  -7   11.84    0.35
   0   8  -7   11.55    0.30
   0  -8   7   11.77    0.36
   0  -8   7   11.52    0.27
  -1   8  -7   17.82    0.86
  -1   8  -7   17.59    0.52
  -1   8  -7   17.63    0.34
  -1   8  -7   17.47    0.40
  -1   8  -7   17.91    0.38
   1  -8   7   17.73    0.35
   1  -8   7   17.76    0.40
  -2   8  -7   16.43    0.36
  -2   8  -7   15.81    0.39
  -2   8  -7   16.21    0.69
  -2   8  -7   15.75    0.51
  -2   8  -7   16.08    0.33
   2  -8   7   16.20    0.36
   2  -8   7   15.99    0.32
   2  -8   7   16.83    0.35
  -3   8  -7    4.67    0.21
  -3   8  -7    4.76    0.18
  -3   8  -7    4.42    0.35
  -3   8  -7    4.81    0.17
  -3   8  -7    4.57    0.26
   3  -8   7    4.78    0.18
   3  -8   7    4.91    0.14
   3  -8   7    4.90    0.18
  -4   8  -7    0.70    0.10
  -4   8  -7    0.74    0.08
  -4   8  -7    0.60    0.14
  -4   8  -7    0.59    0.11
   4  -8   7    0.50    0.08
   4  -8   7    0.70    0.16
   4  -8   7    0.78    0.11
  -5   8  -7    0.00    0.10
  -5   8  -7   -0.02    0.05
  -5   8  -7   -0.02    0.08
   5  -8   7    0.03    0.05
   5  -8   7    0.01    0.04
   5  -8   7   -0.04    0.07
  -6   8  -7    0.14    0.07
  -6   8  -7   -0.01    0.13
  -6   8  -7    0.05    0.09
   6  -8   7    0.03    0.06
   6  -8   7   -0.02    0.04
   6  -8   7    0.14    0.07
  -7   8  -7    1.74    0.19
  -7   8  -7    2.25    0.24
  -7   8  -7    2.13    0.14
   7  -8   7    2.10    0.15
   7  -8   7    2.14    0.11
  -8   8  -7    0.89    0.16
  -8   8  -7    0.93    0.19
   8  -8   7    0.94    0.11
  -9   8  -7    0.33    0.14
   9  -8   7    0.20    0.09
 -10   8  -7    0.38    0.15
  10  -8   7    0.20    0.10
 -11   8  -7    0.25    0.16
  11  -8   7   -0.01    0.08
 -12   8  -7    0.02    0.15
  12  -8   7   -0.08    0.08
  10   7  -7   -0.06    0.09
   9   7  -7   -0.06    0.09
   8   7  -7    0.17    0.09
   7   7  -7    0.10    0.08
   7   7  -7    0.04    0.07
   6   7  -7    0.79    0.14
   6   7  -7    0.76    0.07
   6   7  -7    0.71    0.10
  -6  -7   7    0.59    0.10
   5   7  -7    2.52    0.15
   5   7  -7    2.39    0.37
   5   7  -7    2.47    0.12
  -5  -7   7    2.33    0.15
   4   7  -7    2.38    0.12
   4   7  -7    2.36    0.17
   4   7  -7    2.42    0.14
  -4  -7   7    2.24    0.14
   3   7  -7    0.14    0.07
   3   7  -7   -0.10    0.04
   3   7  -7    0.05    0.06
   3   7  -7   -0.07    0.04
  -3  -7   7   -0.03    0.06
   2   7  -7    2.80    0.13
   2   7  -7    2.71    0.23
   2   7  -7    2.53    0.18
   2   7  -7    2.61    0.13
   2   7  -7    2.66    0.10
  -2  -7   7    2.58    0.13
  -2  -7   7    2.70    0.13
   1   7  -7   17.67    0.44
   1   7  -7   17.75    0.36
   1   7  -7   18.01    0.33
   1   7  -7   17.61    0.37
   1   7  -7   17.25    0.47
   1   7  -7   17.84    0.41
  -1  -7   7   17.85    0.35
  -1  -7   7   17.69    0.37
   0   7  -7   18.95    0.35
   0   7  -7   18.56    0.38
   0   7  -7   18.47    0.71
   0   7  -7   18.95    0.37
   0   7  -7   19.22    0.46
   0   7  -7   18.81    0.39
   0  -7   7   18.70    0.39
   0  -7   7   18.44    0.38
   0  -7   7   18.97    0.36
  -1   7  -7    2.31    0.19
  -1   7  -7    2.22    0.11
  -1   7  -7    2.43    0.13
  -1   7  -7    2.26    0.15
  -1   7  -7    2.15    0.12
   1  -7   7    2.26    0.11
   1  -7   7    2.21    0.11
   1  -7   7    2.20    0.12
  -2   7  -7    0.42    0.08
  -2   7  -7    0.50    0.08
  -2   7  -7    0.55    0.07
  -2   7  -7    0.52    0.07
  -2   7  -7    0.59    0.12
   2  -7   7    0.55    0.07
   2  -7   7    0.58    0.07
   2  -7   7    0.57    0.06
  -3   7  -7    4.47    0.16
  -3   7  -7    4.51    0.16
  -3   7  -7    4.14    0.19
  -3   7  -7    4.39    0.19
  -3   7  -7    4.50    0.46
   3  -7   7    4.36    0.16
   3  -7   7    4.47    0.10
   3  -7   7    4.64    0.19
   3  -7   7    4.55    0.16
  -4   7  -7    2.63    0.21
  -4   7  -7    2.82    0.17
  -4   7  -7    2.51    0.15
  -4   7  -7    2.67    0.13
   4  -7   7    2.55    0.13
   4  -7   7    2.79    0.15
   4  -7   7    2.48    0.12
  -5   7  -7    3.84    0.21
  -5   7  -7    3.55    0.15
  -5   7  -7    3.69    0.24
   5  -7   7    3.78    0.14
   5  -7   7    3.68    0.17
   5  -7   7    3.90    0.16
  -6   7  -7    3.76    0.21
  -6   7  -7    3.54    0.25
  -6   7  -7    3.58    0.16
   6  -7   7    4.04    0.17
   6  -7   7    3.78    0.17
   6  -7   7    3.94    0.13
  -7   7  -7    1.30    0.19
  -7   7  -7    1.58    0.18
   7  -7   7    1.54    0.13
  -8   7  -7    0.21    0.13
  -8   7  -7    0.34    0.12
   8  -7   7    0.38    0.09
  -9   7  -7    1.05    0.17
   9  -7   7    1.15    0.13
 -10   7  -7    1.01    0.19
  10  -7   7    0.83    0.12
 -11   7  -7    0.04    0.14
  11  -7   7   -0.05    0.08
 -12   7  -7    0.05    0.15
  12  -7   7    0.05    0.09
  11   6  -7   -0.15    0.09
  10   6  -7    0.24    0.10
   9   6  -7    0.65    0.12
   8   6  -7    0.37    0.09
   7   6  -7    0.94    0.15
   7   6  -7    0.65    0.10
  -7  -6   7    0.61    0.10
   6   6  -7    0.49    0.11
   6   6  -7    0.55    0.16
   6   6  -7    0.39    0.06
   6   6  -7    0.52    0.09
  -6  -6   7    0.56    0.09
   5   6  -7    0.06    0.05
   5   6  -7    0.06    0.04
   5   6  -7    0.19    0.12
   5   6  -7    0.10    0.07
   5   6  -7    0.10    0.07
  -5  -6   7    0.08    0.06
   4   6  -7   21.52    0.57
   4   6  -7   22.37    0.42
   4   6  -7   22.10    0.56
   4   6  -7   21.92    0.70
   4   6  -7   23.05    0.44
  -4  -6   7   22.36    0.43
   3   6  -7   13.05    0.30
   3   6  -7   13.25    0.24
   3   6  -7   13.22    0.37
   3   6  -7   12.83    0.29
   3   6  -7   13.17    0.58
   3   6  -7   13.04    0.38
  -3  -6   7   13.24    0.29
  -3  -6   7   13.22    0.31
   2   6  -7    1.51    0.14
   2   6  -7    1.62    0.10
   2   6  -7    1.69    0.10
   2   6  -7    1.81    0.15
   2   6  -7    1.53    0.09
   2   6  -7    1.86    0.12
  -2  -6   7    1.64    0.10
  -2  -6   7    1.50    0.11
   1   6  -7    0.73    0.11
   1   6  -7    0.59    0.07
   1   6  -7    0.60    0.07
   1   6  -7    0.48    0.09
   1   6  -7    0.66    0.07
   1   6  -7    0.59    0.08
   1   6  -7    0.70    0.08
  -1  -6   7    0.43    0.06
  -1  -6   7    0.53    0.06
  -1  -6   7    0.48    0.06
   0   6  -7    1.27    0.09
   0   6  -7    1.31    0.09
   0   6  -7    1.37    0.13
   0   6  -7    1.21    0.36
   0   6  -7    1.16    0.09
   0   6  -7    1.33    0.09
   0  -6   7    1.25    0.09
   0  -6   7    1.33    0.09
   0  -6   7    1.25    0.09
  -1   6  -7   18.41    0.40
  -1   6  -7   18.51    0.37
  -1   6  -7   18.54    0.48
  -1   6  -7   19.09    0.44
  -1   6  -7   18.73    0.35
   1  -6   7   19.14    0.36
   1  -6   7   18.76    0.33
   1  -6   7   18.45    0.37
   1  -6   7   18.85    0.41
  -2   6  -7    0.26    0.08
  -2   6  -7    0.45    0.10
  -2   6  -7    0.31    0.05
  -2   6  -7    0.47    0.08
  -2   6  -7    0.43    0.06
   2  -6   7    0.44    0.04
   2  -6   7    0.40    0.06
   2  -6   7    0.47    0.08
   2  -6   7    0.34    0.05
  -3   6  -7   18.54    0.35
  -3   6  -7   18.34    0.43
  -3   6  -7   18.09    0.42
  -3   6  -7   19.08    0.49
   3  -6   7   18.68    0.40
   3  -6   7   18.47    0.35
   3  -6   7   18.38    0.36
  -4   6  -7    0.34    0.08
  -4   6  -7    0.53    0.09
  -4   6  -7    0.41    0.06
  -4   6  -7    0.46    0.12
   4  -6   7    0.45    0.08
   4  -6   7    0.53    0.07
   4  -6   7    0.39    0.05
  -5   6  -7   24.35    0.62
  -5   6  -7   23.76    0.55
   5  -6   7   24.41    0.40
   5  -6   7   24.35    0.49
   5  -6   7   24.83    0.46
  -6   6  -7    0.22    0.09
  -6   6  -7    0.18    0.10
   6  -6   7    0.23    0.07
   6  -6   7    0.27    0.07
  -7   6  -7    0.20    0.09
  -7   6  -7    0.08    0.11
   7  -6   7    0.10    0.06
  -8   6  -7    0.69    0.13
  -8   6  -7    0.18    0.14
   8  -6   7    0.52    0.09
  -9   6  -7    0.83    0.15
   9  -6   7    0.85    0.11
 -10   6  -7    0.90    0.17
  10  -6   7    0.82    0.11
 -11   6  -7    0.21    0.14
  11  -6   7    0.27    0.10
 -12   6  -7    0.13    0.15
  12  -6   7    0.21    0.09
  11   5  -7    0.07    0.09
  10   5  -7    0.64    0.12
   9   5  -7    0.40    0.10
   8   5  -7    0.08    0.08
   8   5  -7    0.10    0.07
  -8  -5   7    0.08    0.08
   7   5  -7    2.14    0.11
   7   5  -7    2.28    0.18
   7   5  -7    1.97    0.14
   7   5  -7    2.10    0.20
  -7  -5   7    2.01    0.14
   6   5  -7    3.85    0.17
   6   5  -7    3.76    0.30
   6   5  -7    3.53    0.22
   6   5  -7    3.49    0.14
   6   5  -7    3.44    0.19
  -6  -5   7    3.41    0.17
  -6  -5   7    3.53    0.16
   5   5  -7    4.59    0.21
   5   5  -7    4.88    0.35
   5   5  -7    4.89    0.16
   5   5  -7    4.85    0.24
   5   5  -7    4.93    0.18
  -5  -5   7    4.33    0.18
  -5  -5   7    4.61    0.17
   4   5  -7    5.95    0.18
   4   5  -7    6.10    0.14
   4   5  -7    6.43    0.25
   4   5  -7    6.47    0.19
   4   5  -7    6.69    0.29
   4   5  -7    6.53    0.26
  -4  -5   7    6.32    0.19
  -4  -5   7    6.49    0.20
  -4  -5   7    6.40    0.21
   3   5  -7   51.63    0.81
   3   5  -7   49.62    1.02
   3   5  -7   50.43    0.96
   3   5  -7   51.94    1.02
   3   5  -7   50.90    0.77
   3   5  -7   50.67    0.82
  -3  -5   7   51.50    0.80
  -3  -5   7   49.93    0.86
  -3  -5   7   50.57    0.84
   2   5  -7   22.66    0.40
   2   5  -7   23.15    0.43
   2   5  -7   22.61    0.51
   2   5  -7   23.45    0.42
   2   5  -7   22.80    0.53
   2   5  -7   23.12    0.52
  -2  -5   7   22.48    0.45
  -2  -5   7   22.27    0.41
  -2  -5   7   22.90    0.41
  -2  -5   7   22.47    0.43
   1   5  -7    0.72    0.10
   1   5  -7    0.67    0.06
   1   5  -7    0.66    0.07
   1   5  -7    0.81    0.08
   1   5  -7    0.56    0.23
   1   5  -7    0.57    0.06
  -1  -5   7    0.74    0.07
  -1  -5   7    0.65    0.06
  -1  -5   7    0.63    0.06
  -1  -5   7    0.85    0.10
  -1  -5   7    0.69    0.06
   0   5  -7    0.65    0.10
   0   5  -7    0.65    0.06
   0   5  -7    0.67    0.07
   0   5  -7    0.62    0.10
   0   5  -7    0.73    0.07
   0  -5   7    0.61    0.06
   0  -5   7    0.70    0.11
   0  -5   7    0.66    0.09
   0  -5   7    0.72    0.07
   0  -5   7    0.67    0.06
   0  -5   7    0.70    0.07
  -1   5  -7    0.05    0.07
  -1   5  -7    0.02    0.03
  -1   5  -7    0.02    0.04
  -1   5  -7    0.08    0.05
  -1   5  -7    0.05    0.08
   1  -5   7   -0.03    0.05
   1  -5   7   -0.01    0.03
   1  -5   7    0.03    0.03
   1  -5   7    0.03    0.03
   1  -5   7   -0.02    0.03
  -2   5  -7    9.63    0.21
  -2   5  -7    9.39    0.31
  -2   5  -7    9.43    0.29
  -2   5  -7    9.45    0.22
   2  -5   7    8.92    0.25
   2  -5   7    9.35    0.21
   2  -5   7    8.98    0.20
   2  -5   7    9.25    0.25
  -3   5  -7    2.54    0.11
  -3   5  -7    2.92    0.19
  -3   5  -7    2.50    0.16
   3  -5   7    2.66    0.11
   3  -5   7    2.79    0.13
   3  -5   7    2.47    0.09
  -4   5  -7    8.66    0.31
  -4   5  -7    8.61    0.26
  -4   5  -7    8.11    0.27
   4  -5   7    8.60    0.21
   4  -5   7    8.46    0.24
  -5   5  -7    0.64    0.13
  -5   5  -7    0.42    0.09
   5  -5   7    0.68    0.08
   5  -5   7    0.57    0.08
  -6   5  -7    1.03    0.13
  -6   5  -7    1.16    0.16
   6  -5   7    1.27    0.10
  -7   5  -7    0.40    0.11
  -7   5  -7    0.38    0.13
   7  -5   7    0.51    0.08
  -8   5  -7    1.32    0.19
  -8   5  -7    1.43    0.17
   8  -5   7    1.39    0.12
  -9   5  -7    0.18    0.12
   9  -5   7    0.15    0.07
 -10   5  -7    0.07    0.12
  10  -5   7    0.15    0.08
 -11   5  -7    0.36    0.15
  11  -5   7    0.04    0.08
  12   4  -7   -0.04    0.10
  11   4  -7   -0.01    0.09
  10   4  -7    0.19    0.09
   9   4  -7    0.09    0.09
   9   4  -7   -0.01    0.07
  -9  -4   7    0.04    0.09
   8   4  -7    1.12    0.10
   8   4  -7    0.98    0.15
   8   4  -7    0.99    0.11
  -8  -4   7    1.08    0.12
   7   4  -7    3.88    0.25
   7   4  -7    4.09    0.18
   7   4  -7    3.91    0.22
   7   4  -7    4.11    0.15
   7   4  -7    3.57    0.22
  -7  -4   7    3.85    0.18
   6   4  -7    0.32    0.07
   6   4  -7    0.20    0.08
   6   4  -7    0.24    0.05
   6   4  -7    0.21    0.08
   6   4  -7    0.19    0.08
  -6  -4   7    0.27    0.07
  -6  -4   7    0.31    0.07
   5   4  -7    0.00    0.07
   5   4  -7    0.01    0.04
   5   4  -7    0.05    0.03
   5   4  -7    0.09    0.16
   5   4  -7    0.18    0.05
   5   4  -7    0.02    0.06
  -5  -4   7    0.09    0.05
  -5  -4   7    0.04    0.04
  -5  -4   7    0.06    0.06
   4   4  -7    5.36    0.17
   4   4  -7    5.48    0.23
   4   4  -7    5.84    0.24
   4   4  -7    5.72    0.17
   4   4  -7    5.60    0.21
   4   4  -7    5.50    0.15
  -4  -4   7    5.76    0.18
  -4  -4   7    5.68    0.19
  -4  -4   7    5.74    0.18
   3   4  -7    0.37    0.07
   3   4  -7    0.40    0.09
   3   4  -7    0.48    0.07
   3   4  -7    0.40    0.08
   3   4  -7    0.44    0.06
   3   4  -7    0.55    0.07
  -3  -4   7    0.47    0.18
  -3  -4   7    0.46    0.07
  -3  -4   7    0.46    0.06
  -3  -4   7    0.53    0.06
   2   4  -7    0.41    0.08
   2   4  -7    0.51    0.06
   2   4  -7    0.51    0.06
   2   4  -7    0.42    0.09
   2   4  -7    0.47    0.06
   2   4  -7    0.49    0.06
  -2  -4   7    0.42    0.05
  -2  -4   7    0.53    0.06
  -2  -4   7    0.53    0.05
  -2  -4   7    0.53    0.08
  -2  -4   7    0.54    0.08
   1   4  -7    9.20    0.21
   1   4  -7    8.91    0.23
   1   4  -7    9.06    0.21
   1   4  -7    8.69    0.43
   1   4  -7    9.40    0.29
  -1  -4   7    8.98    0.19
  -1  -4   7    9.10    0.21
  -1  -4   7    8.70    0.21
  -1  -4   7    8.54    0.24
  -1  -4   7    9.23    0.24
  -1  -4   7    8.79    0.21
   0   4  -7    2.55    0.16
   0   4  -7    2.44    0.10
   0   4  -7    2.53    0.16
   0   4  -7    2.54    0.11
   0   4  -7    2.49    0.09
   0  -4   7    2.54    0.11
   0  -4   7    2.53    0.07
   0  -4   7    2.32    0.10
   0  -4   7    2.40    0.10
   0  -4   7    2.41    0.19
   0  -4   7    2.61    0.12
  -1   4  -7    3.29    0.12
  -1   4  -7    3.14    0.24
  -1   4  -7    3.19    0.11
  -1   4  -7    3.25    0.36
   1  -4   7    3.15    0.13
   1  -4   7    3.18    0.11
   1  -4   7    3.19    0.11
   1  -4   7    3.15    0.14
  -2   4  -7   32.76    0.64
  -2   4  -7   32.38    0.78
  -2   4  -7   31.98    0.51
   2  -4   7   31.19    0.55
   2  -4   7   31.98    0.52
   2  -4   7   30.37    0.50
   2  -4   7   31.96    0.61
   2  -4   7   32.39    0.58
  -3   4  -7    8.24    0.25
  -3   4  -7    8.20    0.28
   3  -4   7    8.17    0.24
   3  -4   7    8.01    0.22
   3  -4   7    8.28    0.19
  -4   4  -7    0.12    0.09
  -4   4  -7    0.25    0.07
   4  -4   7    0.19    0.04
   4  -4   7    0.11    0.06
   4  -4   7    0.24    0.06
  -5   4  -7    8.38    0.32
   5  -4   7    8.25    0.20
   5  -4   7    8.29    0.24
  -6   4  -7    2.36    0.20
  -6   4  -7    2.44    0.17
   6  -4   7    2.46    0.12
  -7   4  -7    0.93    0.13
  -7   4  -7    0.78    0.15
   7  -4   7    0.93    0.09
  -8   4  -7    0.06    0.11
  -8   4  -7    0.23    0.10
   8  -4   7    0.20    0.06
  -9   4  -7    0.00    0.10
   9  -4   7    0.12    0.06
 -10   4  -7    0.40    0.14
  10  -4   7    0.51    0.09
  11  -4   7    0.31    0.09
  12   3  -7    0.17    0.10
  11   3  -7    0.37    0.11
 -11  -3   7    0.57    0.13
  10   3  -7    0.30    0.10
 -10  -3   7    0.36    0.11
   9   3  -7    0.06    0.05
   9   3  -7    0.19    0.08
   9   3  -7    0.21    0.09
  -9  -3   7    0.10    0.08
   8   3  -7    3.10    0.21
   8   3  -7    3.17    0.14
   8   3  -7    3.09    0.17
   8   3  -7    3.28    0.24
  -8  -3   7    3.26    0.18
   7   3  -7    1.94    0.16
   7   3  -7    1.70    0.16
   7   3  -7    2.10    0.19
   7   3  -7    2.27    0.14
   7   3  -7    1.93    0.12
  -7  -3   7    1.85    0.14
   6   3  -7    3.41    0.33
   6   3  -7    3.30    0.14
   6   3  -7    3.27    0.21
   6   3  -7    3.77    0.15
   6   3  -7    3.13    0.19
  -6  -3   7    3.18    0.15
  -6  -3   7    3.25    0.13
   5   3  -7    4.27    0.15
   5   3  -7    4.35    0.13
   5   3  -7    4.35    0.16
   5   3  -7    4.15    0.21
   5   3  -7    4.29    0.21
   5   3  -7    4.43    0.36
  -5  -3   7    4.02    0.15
  -5  -3   7    4.30    0.16
  -5  -3   7    4.63    0.20
   4   3  -7    0.16    0.05
   4   3  -7    0.18    0.05
   4   3  -7   -0.01    0.08
   4   3  -7    0.14    0.04
   4   3  -7    0.07    0.05
   4   3  -7    0.10    0.05
   4   3  -7    0.18    0.06
  -4  -3   7    0.14    0.05
  -4  -3   7    0.16    0.05
  -4  -3   7    0.11    0.05
   3   3  -7    0.03    0.03
   3   3  -7    0.02    0.04
   3   3  -7    0.03    0.05
   3   3  -7    0.07    0.04
   3   3  -7    0.08    0.08
   3   3  -7    0.00    0.03
  -3  -3   7    0.07    0.04
  -3  -3   7    0.12    0.04
  -3  -3   7    0.10    0.03
  -3  -3   7    0.05    0.04
  -3  -3   7    0.04    0.03
   2   3  -7    5.89    0.19
   2   3  -7    5.63    0.16
   2   3  -7    5.46    0.20
   2   3  -7    5.93    0.16
   2   3  -7    5.54    0.22
  -2  -3   7    5.48    0.14
  -2  -3   7    5.36    0.17
  -2  -3   7    5.47    0.16
  -2  -3   7    5.44    0.15
  -2  -3   7    5.66    0.16
   1   3  -7   68.36    1.60
   1   3  -7   68.88    1.01
   1   3  -7   67.29    1.04
   1   3  -7   67.80    1.22
   1   3  -7   69.06    1.20
  -1  -3   7   67.37    1.24
  -1  -3   7   64.93    1.00
  -1  -3   7   65.46    1.03
  -1  -3   7   68.77    1.10
  -1  -3   7   67.78    0.96
  -1  -3   7   68.64    1.08
   0   3  -7    5.63    0.20
   0   3  -7    5.59    0.21
   0   3  -7    5.53    0.15
   0   3  -7    5.47    0.14
   0   3  -7    5.58    0.14
   0  -3   7    5.43    0.16
   0  -3   7    5.23    0.14
   0  -3   7    5.58    0.17
   0  -3   7    5.63    0.17
   0  -3   7    5.48    0.15
  -1   3  -7    2.41    0.15
  -1   3  -7    2.49    0.15
  -1   3  -7    2.42    0.09
   1  -3   7    2.19    0.08
   1  -3   7    2.46    0.12
   1  -3   7    2.14    0.09
   1  -3   7    2.43    0.12
   1  -3   7    2.14    0.07
  -2   3  -7    1.46    0.14
  -2   3  -7    1.47    0.14
   2  -3   7    1.33    0.09
   2  -3   7    1.52    0.08
   2  -3   7    1.43    0.10
  -3   3  -7    4.40    0.20
  -3   3  -7    4.38    0.34
   3  -3   7    4.35    0.18
   3  -3   7    4.32    0.16
   3  -3   7    4.18    0.13
  -4   3  -7   -0.01    0.12
  -4   3  -7   -0.03    0.07
   4  -3   7   -0.02    0.05
   4  -3   7   -0.01    0.03
   4  -3   7   -0.01    0.04
  -5   3  -7    0.00    0.07
   5  -3   7    0.04    0.06
   5  -3   7   -0.03    0.03
   5  -3   7   -0.11    0.04
  -6   3  -7   -0.13    0.12
   6  -3   7    0.02    0.04
  -7   3  -7    0.39    0.13
  -7   3  -7    0.70    0.12
   7  -3   7    0.47    0.07
  -8   3  -7    0.26    0.10
  -8   3  -7    0.26    0.13
   8  -3   7    0.33    0.07
  -9   3  -7    0.11    0.10
   9  -3   7    0.00    0.06
 -10   3  -7    0.75    0.15
  10  -3   7    0.58    0.09
  11  -3   7    0.05    0.07
  13   2  -7    0.08    0.11
 -13  -2   7    0.10    0.13
  12   2  -7    0.07    0.10
 -12  -2   7    0.00    0.12
  11   2  -7    0.12    0.09
 -11  -2   7    0.06    0.11
  10   2  -7    0.02    0.09
  10   2  -7    0.05    0.08
  10   2  -7    0.09    0.06
 -10  -2   7    0.25    0.10
   9   2  -7    0.38    0.07
   9   2  -7    0.27    0.08
   9   2  -7    0.25    0.10
  -9  -2   7    0.14    0.09
   8   2  -7    0.50    0.11
   8   2  -7    0.70    0.12
   8   2  -7    0.67    0.09
   8   2  -7    0.71    0.08
  -8  -2   7    0.65    0.10
   7   2  -7    0.13    0.06
   7   2  -7    0.06    0.05
   7   2  -7    0.06    0.06
   7   2  -7    0.01    0.07
   7   2  -7   -0.03    0.08
  -7  -2   7    0.10    0.07
   6   2  -7    0.12    0.06
   6   2  -7    0.07    0.04
   6   2  -7    0.05    0.05
   6   2  -7   -0.03    0.08
   6   2  -7    0.07    0.05
   6   2  -7    0.06    0.06
  -6  -2   7    0.11    0.05
  -6  -2   7    0.13    0.04
  -6  -2   7    0.08    0.06
   5   2  -7    0.20    0.05
   5   2  -7    0.28    0.10
   5   2  -7    0.07    0.04
   5   2  -7    0.24    0.15
   5   2  -7    0.21    0.06
   5   2  -7    0.13    0.05
  -5  -2   7    0.16    0.05
  -5  -2   7    0.16    0.05
  -5  -2   7    0.21    0.06
   4   2  -7    0.27    0.05
   4   2  -7    0.24    0.09
   4   2  -7    0.16    0.05
   4   2  -7    0.25    0.06
   4   2  -7    0.24    0.06
   4   2  -7    0.20    0.05
  -4  -2   7    0.52    0.06
  -4  -2   7    0.22    0.04
  -4  -2   7    0.24    0.06
  -4  -2   7    0.26    0.05
  -4  -2   7    0.21    0.05
   3   2  -7    2.37    0.21
   3   2  -7    2.39    0.17
   3   2  -7    2.44    0.11
   3   2  -7    2.34    0.14
   3   2  -7    2.40    0.14
  -3  -2   7    2.26    0.10
  -3  -2   7    2.44    0.11
  -3  -2   7    2.50    0.10
  -3  -2   7    2.37    0.10
  -3  -2   7    2.33    0.12
   2   2  -7    8.88    0.27
   2   2  -7    9.15    0.26
   2   2  -7    8.53    0.21
   2   2  -7    8.79    0.20
   2   2  -7    8.54    0.24
  -2  -2   7    8.94    0.17
  -2  -2   7    8.49    0.20
  -2  -2   7    8.55    0.20
  -2  -2   7    8.80    0.22
  -2  -2   7    8.63    0.22
   1   2  -7    0.04    0.04
   1   2  -7    0.06    0.03
   1   2  -7   -0.03    0.11
   1   2  -7    0.03    0.04
   1   2  -7    0.03    0.05
  -1  -2   7    0.03    0.03
  -1  -2   7    0.07    0.04
  -1  -2   7    0.02    0.04
  -1  -2   7    0.03    0.02
  -1  -2   7    0.03    0.05
   0   2  -7    9.27    0.27
   0   2  -7    9.13    0.22
   0   2  -7    8.97    0.20
   0   2  -7    9.31    0.31
   0  -2   7    8.59    0.17
   0  -2   7    8.88    0.18
   0  -2   7    9.13    0.23
   0  -2   7    9.48    0.25
   0  -2   7    8.88    0.19
   0  -2   7    9.27    0.23
  -1   2  -7   12.98    0.65
  -1   2  -7   12.85    0.33
  -1   2  -7   12.74    0.27
   1  -2   7   12.63    0.24
   1  -2   7   12.60    0.31
   1  -2   7   12.96    0.29
  -2   2  -7    4.64    0.20
  -2   2  -7    4.53    0.21
  -2   2  -7    4.71    0.19
   2  -2   7    4.62    0.18
   2  -2   7    4.49    0.12
   2  -2   7    4.45    0.16
  -3   2  -7    1.88    0.15
  -3   2  -7    1.92    0.32
   3  -2   7    1.75    0.11
   3  -2   7    1.79    0.08
   3  -2   7    1.88    0.12
  -4   2  -7    4.61    0.30
  -4   2  -7    4.49    0.21
   4  -2   7    4.32    0.12
   4  -2   7    4.06    0.18
   4  -2   7    4.23    0.16
  -5   2  -7    1.43    0.16
   5  -2   7    1.34    0.08
   5  -2   7    1.20    0.12
   5  -2   7    1.46    0.11
  -6   2  -7    1.80    0.18
   6  -2   7    1.89    0.09
   6  -2   7    1.93    0.16
  -7   2  -7    0.45    0.13
  -7   2  -7    0.72    0.12
   7  -2   7    0.58    0.07
  -8   2  -7    0.12    0.09
  -8   2  -7   -0.16    0.10
   8  -2   7    0.02    0.05
  -9   2  -7    0.86    0.15
   9  -2   7    0.83    0.09
  10  -2   7    0.27    0.08
  11  -2   7    0.01    0.07
  13   1  -7   -0.07    0.10
 -13  -1   7   -0.03    0.13
  12   1  -7    0.04    0.09
 -12  -1   7   -0.16    0.11
  11   1  -7    0.08    0.06
  11   1  -7    0.17    0.10
 -11  -1   7   -0.06    0.10
  10   1  -7    0.13    0.09
  10   1  -7    0.06    0.06
  10   1  -7    0.05    0.07
 -10  -1   7    0.11    0.09
   9   1  -7   -0.02    0.06
   9   1  -7    0.18    0.06
   9   1  -7   -0.06    0.06
  -9  -1   7   -0.01    0.08
   8   1  -7    2.23    0.20
   8   1  -7    2.57    0.14
   8   1  -7    2.60    0.17
   8   1  -7    2.49    0.16
  -8  -1   7    2.42    0.15
   7   1  -7    3.87    0.13
   7   1  -7    3.94    0.13
   7   1  -7    3.56    0.21
   7   1  -7    4.14    0.19
   7   1  -7    3.97    0.16
   7   1  -7    4.18    0.17
   7   1  -7    3.91    0.24
  -7  -1   7    3.81    0.17
  -7  -1   7    3.90    0.17
   6   1  -7    4.48    0.23
   6   1  -7    4.53    0.15
   6   1  -7    4.58    0.17
   6   1  -7    4.62    0.19
   6   1  -7    4.51    0.16
   6   1  -7    4.37    0.22
  -6  -1   7    4.25    0.14
  -6  -1   7    4.55    0.17
  -6  -1   7    4.71    0.17
   5   1  -7    0.08    0.04
   5   1  -7    0.08    0.04
   5   1  -7    0.03    0.05
   5   1  -7    0.10    0.06
   5   1  -7    0.06    0.07
   5   1  -7   -0.03    0.15
  -5  -1   7    0.04    0.03
  -5  -1   7    0.05    0.04
  -5  -1   7    0.10    0.04
  -5  -1   7   -0.04    0.04
  -5  -1   7    0.04    0.04
   4   1  -7   10.49    0.24
   4   1  -7   10.70    0.32
   4   1  -7   10.19    0.24
   4   1  -7   10.53    0.31
   4   1  -7   10.25    0.43
  -4  -1   7   10.34    0.25
  -4  -1   7   10.40    0.22
  -4  -1   7   10.55    0.24
  -4  -1   7   10.28    0.24
  -4  -1   7   10.23    0.24
   3   1  -7    8.70    0.21
   3   1  -7    8.58    0.32
   3   1  -7    9.07    0.28
   3   1  -7    8.78    0.21
   3   1  -7    8.47    0.22
  -3  -1   7    8.93    0.18
  -3  -1   7    8.64    0.21
  -3  -1   7    8.72    0.21
  -3  -1   7    8.58    0.23
  -3  -1   7    8.67    0.22
   2   1  -7    2.84    0.22
   2   1  -7    2.53    0.10
   2   1  -7    2.64    0.15
   2   1  -7    2.66    0.10
   2   1  -7    2.49    0.11
  -2  -1   7    2.80    0.12
  -2  -1   7    2.68    0.10
  -2  -1   7    2.18    0.11
  -2  -1   7    3.02    0.10
   1   1  -7    6.33    0.24
   1   1  -7    6.01    0.31
   1   1  -7    6.13    0.20
   1   1  -7    6.15    0.15
   1   1  -7    6.44    0.21
  -1  -1   7    6.25    0.14
  -1  -1   7    6.50    0.20
  -1  -1   7    6.40    0.16
  -1  -1   7    5.85    0.14
  -1  -1   7    6.32    0.18
   0   1  -7    0.10    0.06
   0   1  -7    0.14    0.06
   0   1  -7    0.01    0.08
   0  -1   7    0.00    0.03
   0  -1   7    0.06    0.03
   0  -1   7    0.07    0.04
  -1   1  -7    0.89    0.09
  -1   1  -7    0.97    0.17
  -1   1  -7    0.91    0.11
   1  -1   7    0.89    0.09
   1  -1   7    0.85    0.08
   1  -1   7    0.96    0.06
  -2   1  -7    2.78    0.15
  -2   1  -7    2.73    0.14
   2  -1   7    2.67    0.09
   2  -1   7    2.65    0.14
   2  -1   7    2.72    0.13
  -3   1  -7    3.25    0.16
  -3   1  -7    3.14    0.19
   3  -1   7    3.40    0.17
   3  -1   7    3.21    0.09
   3  -1   7    3.30    0.15
  -4   1  -7    0.06    0.07
  -4   1  -7    0.27    0.06
   4  -1   7    0.15    0.06
   4  -1   7    0.20    0.04
   4  -1   7    0.14    0.06
  -5   1  -7    1.54    0.17
   5  -1   7    1.65    0.08
   5  -1   7    1.54    0.12
   5  -1   7    1.89    0.15
  -6   1  -7    0.26    0.11
   6  -1   7    0.36    0.05
   6  -1   7    0.37    0.09
  -7   1  -7    0.31    0.11
   7  -1   7    0.28    0.10
   7  -1   7    0.27    0.05
  -8   1  -7    0.12    0.09
   8  -1   7    0.03    0.05
   9  -1   7   -0.05    0.05
  10  -1   7   -0.07    0.05
 -13   0   7    0.14    0.14
  12   0  -7    0.11    0.06
  12   0  -7    0.02    0.10
 -12   0   7    0.02    0.12
  11   0  -7    0.87    0.10
  11   0  -7    0.86    0.13
 -11   0   7    0.71    0.14
  10   0  -7   -0.05    0.13
  10   0  -7    0.06    0.07
  10   0  -7   -0.05    0.05
 -10   0   7    0.12    0.09
   9   0  -7    0.28    0.09
   9   0  -7    0.17    0.08
   9   0  -7    0.17    0.07
  -9   0   7    0.15    0.08
   8   0  -7   -0.07    0.08
   8   0  -7    0.02    0.05
   8   0  -7    0.06    0.06
   8   0  -7    0.08    0.07
   8   0  -7   -0.01    0.05
   8   0  -7    0.02    0.05
  -8   0   7   -0.01    0.07
   7   0  -7   -0.05    0.07
   7   0  -7    0.04    0.05
   7   0  -7    0.00    0.04
   7   0  -7    0.03    0.05
   7   0  -7   -0.05    0.05
   7   0  -7   -0.18    0.08
  -7   0   7    0.02    0.06
  -7   0   7   -0.03    0.09
   6   0  -7    0.29    0.06
   6   0  -7    0.27    0.06
   6   0  -7    0.16    0.09
   6   0  -7    0.20    0.05
   6   0  -7    0.14    0.22
  -6   0   7    0.20    0.06
  -6   0   7    0.23    0.05
  -6   0   7    0.29    0.12
  -6   0   7    0.32    0.06
   5   0  -7    0.04    0.17
   5   0  -7   -0.05    0.07
   5   0  -7   -0.03    0.03
   5   0  -7    0.00    0.03
   5   0  -7    0.05    0.05
  -5   0   7   -0.03    0.03
  -5   0   7    0.02    0.03
  -5   0   7   -0.04    0.03
  -5   0   7   -0.02    0.07
  -5   0   7   -0.04    0.04
   4   0  -7    0.09    0.05
   4   0  -7    0.19    0.05
   4   0  -7    0.21    0.07
   4   0  -7    0.19    0.08
   4   0  -7    0.19    0.08
  -4   0   7    0.24    0.06
  -4   0   7    0.24    0.05
  -4   0   7    0.19    0.05
  -4   0   7    0.23    0.05
  -4   0   7    0.13    0.04
  -4   0   7    0.24    0.05
   3   0  -7   -0.02    0.10
   3   0  -7    0.05    0.07
   3   0  -7   -0.01    0.03
   3   0  -7    0.00    0.04
   3   0  -7    0.02    0.02
  -3   0   7    0.01    0.03
  -3   0   7    0.06    0.04
  -3   0   7    0.03    0.03
  -3   0   7    0.01    0.03
  -3   0   7   -0.01    0.03
   2   0  -7    0.11    0.05
   2   0  -7    0.13    0.04
   2   0  -7    0.16    0.09
   2   0  -7    0.13    0.07
   2   0  -7    0.17    0.05
  -2   0   7    0.13    0.04
  -2   0   7    0.09    0.05
  -2   0   7    0.15    0.04
  -2   0   7    0.14    0.05
   1   0  -7    4.12    0.33
   1   0  -7    3.99    0.16
   1   0  -7    4.16    0.17
  -1   0   7    3.92    0.15
  -1   0   7    3.93    0.16
  -1   0   7    4.19    0.12
   0   0  -7    0.31    0.07
   0   0  -7    0.29    0.07
   0   0  -7    0.34    0.07
   0   0   7    0.33    0.06
   0   0   7    0.35    0.04
   0   0   7    0.33    0.06
  -1   0  -7    1.14    0.11
  -1   0  -7    1.39    0.11
  -1   0  -7    1.29    0.10
   1   0   7    1.22    0.06
   1   0   7    1.28    0.10
   1   0   7    1.24    0.09
  -2   0  -7   -0.03    0.05
  -2   0  -7    0.03    0.05
   2   0   7   -0.01    0.04
   2   0   7    0.02    0.05
   2   0   7    0.06    0.03
  -3   0  -7    5.00    0.21
  -3   0  -7    5.28    0.20
   3   0   7    5.35    0.19
   3   0   7    4.89    0.21
   3   0   7    5.13    0.11
  -4   0  -7    0.09    0.05
  -4   0  -7   -0.07    0.06
   4   0   7    0.03    0.06
   4   0   7    0.04    0.06
   4   0   7    0.03    0.03
  -5   0  -7    0.93    0.14
   5   0   7    0.85    0.12
  -6   0  -7    1.77    0.19
   6   0   7    1.83    0.17
  -7   0  -7    0.22    0.12
   7   0   7    0.17    0.10
   7   0   7    0.39    0.05
   8   0   7    0.06    0.05
   9   0   7    0.08    0.05
  10   0   7    0.06    0.06
 -13   1   7   -0.06    0.12
  12  -1  -7    0.02    0.07
 -12   1   7    0.11    0.12
  11  -1  -7   -0.10    0.06
 -11   1   7   -0.07    0.10
  10  -1  -7    1.19    0.12
 -10   1   7    1.13    0.13
   9  -1  -7    1.23    0.12
  -9   1   7    1.34    0.13
  -9   1   7    1.32    0.12
   8  -1  -7    1.01    0.11
   8  -1  -7    0.82    0.09
   8  -1  -7    0.73    0.14
  -8   1   7    0.92    0.11
  -8   1   7    0.96    0.11
  -8   1   7    0.79    0.10
  -8   1   7    0.82    0.10
   7  -1  -7    6.03    0.19
   7  -1  -7    6.21    0.21
   7  -1  -7    5.49    0.24
   7  -1  -7    5.88    0.30
  -7   1   7    6.06    0.21
  -7   1   7    6.01    0.19
  -7   1   7    6.55    0.22
  -7   1   7    6.19    0.21
  -7   1   7    5.94    0.21
   6  -1  -7    1.85    0.20
   6  -1  -7    2.00    0.16
   6  -1  -7    2.06    0.12
   6  -1  -7    2.00    0.12
   6  -1  -7    1.59    0.12
  -6   1   7    1.91    0.12
  -6   1   7    2.04    0.12
  -6   1   7    1.93    0.12
  -6   1   7    1.80    0.11
  -6   1   7    1.77    0.10
  -6   1   7    2.09    0.12
   5  -1  -7   12.98    0.29
   5  -1  -7   12.82    0.58
   5  -1  -7   12.32    0.28
   5  -1  -7   12.74    0.29
   5  -1  -7   13.10    0.41
  -5   1   7   12.65    0.28
  -5   1   7   12.70    0.29
  -5   1   7   12.97    0.29
  -5   1   7   12.85    0.32
  -5   1   7   12.81    0.29
  -5   1   7   12.51    0.25
   4  -1  -7    0.02    0.17
   4  -1  -7   -0.01    0.03
   4  -1  -7    0.02    0.05
   4  -1  -7    0.00    0.07
  -4   1   7    0.01    0.03
  -4   1   7    0.05    0.04
  -4   1   7    0.14    0.12
  -4   1   7    0.01    0.03
  -4   1   7    0.03    0.04
   3  -1  -7    0.51    0.08
   3  -1  -7    0.64    0.07
   3  -1  -7    0.63    0.07
   3  -1  -7    0.44    0.10
  -3   1   7    0.43    0.07
  -3   1   7    0.58    0.07
  -3   1   7    0.65    0.14
  -3   1   7    0.46    0.06
   2  -1  -7    0.73    0.18
   2  -1  -7    0.76    0.07
   2  -1  -7    0.90    0.10
  -2   1   7    0.98    0.07
  -2   1   7    0.88    0.10
  -2   1   7    0.93    0.06
  -2   1   7    1.11    0.06
  -2   1   7    0.92    0.08
   1  -1  -7    1.93    0.13
   1  -1  -7    1.91    0.15
  -1   1   7    1.91    0.12
  -1   1   7    1.82    0.08
  -1   1   7    1.94    0.11
   0  -1  -7    0.81    0.09
   0  -1  -7    1.07    0.11
   0  -1  -7    1.05    0.12
   0   1   7    1.03    0.06
   0   1   7    1.01    0.10
   0   1   7    1.00    0.11
  -1  -1  -7    2.11    0.13
  -1  -1  -7    1.92    0.12
   1   1   7    2.15    0.08
   1   1   7    1.87    0.12
   1   1   7    1.98    0.13
  -2  -1  -7    0.49    0.08
  -2  -1  -7    0.52    0.08
   2   1   7    0.57    0.09
   2   1   7    0.60    0.09
   2   1   7    0.57    0.05
  -3  -1  -7    0.68    0.10
  -3  -1  -7    0.76    0.09
   3   1   7    0.94    0.11
   3   1   7    0.75    0.11
  -4  -1  -7    1.10    0.14
   4   1   7    1.13    0.13
  -5  -1  -7    0.47    0.11
   5   1   7    0.57    0.11
  -6  -1  -7   -0.06    0.08
   6   1   7    0.07    0.08
 -13   2   7    0.00    0.12
  12  -2  -7    0.33    0.09
 -12   2   7    0.59    0.14
  11  -2  -7    0.63    0.10
 -11   2   7    0.76    0.13
  10  -2  -7    2.05    0.16
 -10   2   7    1.57    0.15
   9  -2  -7   -0.05    0.05
   9  -2  -7    0.01    0.06
  -9   2   7    0.13    0.11
  -9   2   7   -0.08    0.06
   8  -2  -7    0.20    0.12
   8  -2  -7    0.54    0.08
   8  -2  -7    0.47    0.09
  -8   2   7    0.51    0.09
  -8   2   7    0.56    0.09
  -8   2   7    0.70    0.10
   7  -2  -7    1.07    0.11
   7  -2  -7    1.09    0.12
   7  -2  -7    0.97    0.16
   7  -2  -7    1.34    0.12
  -7   2   7    1.16    0.11
  -7   2   7    1.10    0.11
  -7   2   7    1.17    0.11
   6  -2  -7    0.11    0.06
   6  -2  -7    0.02    0.05
   6  -2  -7   -0.05    0.10
   6  -2  -7    0.01    0.07
  -6   2   7    0.05    0.04
  -6   2   7    0.10    0.05
  -6   2   7    0.05    0.05
  -6   2   7    0.08    0.04
  -6   2   7    0.05    0.05
   5  -2  -7    5.24    0.18
   5  -2  -7    5.41    0.26
   5  -2  -7    5.60    0.59
   5  -2  -7    5.40    0.18
  -5   2   7    5.53    0.18
  -5   2   7    5.53    0.18
  -5   2   7    5.30    0.20
  -5   2   7    5.59    0.13
  -5   2   7    5.51    0.36
   4  -2  -7   40.39    0.77
   4  -2  -7   39.47    0.88
   4  -2  -7   38.78    0.65
  -4   2   7   39.41    0.65
  -4   2   7   38.94    0.75
  -4   2   7   39.99    0.99
  -4   2   7   39.18    0.70
   3  -2  -7    8.40    0.32
   3  -2  -7    7.95    0.20
   3  -2  -7    7.86    0.26
  -3   2   7    7.78    0.20
  -3   2   7    7.89    0.23
  -3   2   7    8.11    0.26
  -3   2   7    7.90    0.18
   2  -2  -7    4.12    0.19
   2  -2  -7    4.26    0.22
  -2   2   7    4.17    0.18
  -2   2   7    4.42    0.17
  -2   2   7    4.00    0.13
   1  -2  -7    7.85    0.26
   1  -2  -7    7.93    0.31
  -1   2   7    8.50    0.27
  -1   2   7    8.03    0.25
  -1   2   7    8.11    0.19
   0  -2  -7    0.56    0.10
   0  -2  -7    0.46    0.08
   0   2   7    0.55    0.05
   0   2   7    0.51    0.09
   0   2   7    0.59    0.09
  -1  -2  -7    1.08    0.11
   1   2   7    1.00    0.11
   1   2   7    1.01    0.11
   1   2   7    1.00    0.06
  -2  -2  -7    0.11    0.05
   2   2   7   -0.02    0.02
   2   2   7    0.06    0.06
   3   2   7    0.38    0.09
   4   2   7   -0.04    0.06
   5   2   7    1.90    0.18
   6   2   7    0.15    0.09
 -13   3   7    0.06    0.11
  12  -3  -7   -0.01    0.08
 -12   3   7    0.02    0.11
  11  -3  -7   -0.08    0.07
 -11   3   7    0.04    0.10
  10  -3  -7    0.29    0.09
 -10   3   7    0.39    0.10
   9  -3  -7    0.47    0.09
   9  -3  -7    0.36    0.08
  -9   3   7    0.39    0.09
  -9   3   7    0.33    0.09
  -9   3   7    0.28    0.24
   8  -3  -7    0.57    0.15
   8  -3  -7    0.96    0.11
   8  -3  -7    0.84    0.10
  -8   3   7    1.00    0.15
  -8   3   7    1.00    0.10
  -8   3   7    0.88    0.12
   7  -3  -7    1.31    0.19
   7  -3  -7    1.49    0.12
   7  -3  -7    1.52    0.13
  -7   3   7    1.63    0.11
  -7   3   7    1.57    0.13
  -7   3   7    1.45    0.13
   6  -3  -7    0.22    0.08
   6  -3  -7    0.24    0.06
   6  -3  -7    0.35    0.08
   6  -3  -7    0.13    0.14
  -6   3   7    0.20    0.07
  -6   3   7    0.19    0.06
  -6   3   7    0.34    0.05
  -6   3   7    0.21    0.19
   5  -3  -7    0.44    0.08
   5  -3  -7    0.33    0.13
  -5   3   7    0.56    0.09
  -5   3   7    0.49    0.07
  -5   3   7    0.63    0.08
   4  -3  -7    0.11    0.06
   4  -3  -7   -0.03    0.10
   4  -3  -7    0.05    0.05
  -4   3   7    0.01    0.04
  -4   3   7   -0.05    0.04
  -4   3   7    0.03    0.04
  -4   3   7   -0.09    0.04
   3  -3  -7    2.91    0.16
   3  -3  -7    2.85    0.13
   3  -3  -7    3.05    0.22
  -3   3   7    2.88    0.12
  -3   3   7    2.79    0.15
  -3   3   7    2.96    0.10
  -3   3   7    2.90    0.16
   2  -3  -7    5.66    0.22
   2  -3  -7    6.04    0.27
  -2   3   7    5.80    0.17
  -2   3   7    6.04    0.22
  -2   3   7    5.72    0.22
   1  -3  -7    0.46    0.10
   1  -3  -7    0.49    0.08
  -1   3   7    0.39    0.08
  -1   3   7    0.38    0.05
   0  -3  -7    0.75    0.12
   0  -3  -7    0.70    0.10
   0   3   7    0.78    0.07
   0   3   7    0.71    0.10
   1   3   7    0.71    0.11
   1   3   7    0.65    0.06
   2   3   7    0.42    0.04
   2   3   7    0.32    0.09
   3   3   7   -0.04    0.07
   4   3   7    0.34    0.10
   5   3   7   -0.02    0.07
 -13   4   7    0.08    0.11
  12  -4  -7    0.10    0.08
 -12   4   7   -0.02    0.10
  11  -4  -7    0.89    0.13
 -11   4   7    0.70    0.12
  10  -4  -7    2.94    0.19
  10  -4  -7    2.35    0.15
 -10   4   7    2.39    0.27
 -10   4   7    2.44    0.18
 -10   4   7    2.10    0.17
   9  -4  -7   -0.06    0.06
   9  -4  -7   -0.09    0.07
  -9   4   7    0.12    0.08
  -9   4   7   -0.02    0.07
  -9   4   7   -0.09    0.81
   8  -4  -7    3.93    0.19
   8  -4  -7    3.18    0.17
  -8   4   7    3.45    0.20
  -8   4   7    3.64    0.15
  -8   4   7    3.69    0.19
   7  -4  -7    0.81    0.17
   7  -4  -7    0.80    0.10
  -7   4   7    0.97    0.08
  -7   4   7    0.86    0.12
  -7   4   7    0.97    0.11
   6  -4  -7    1.22    0.13
   6  -4  -7    0.69    0.16
   6  -4  -7    0.83    0.10
  -6   4   7    0.66    0.10
  -6   4   7    0.73    0.09
  -6   4   7    0.75    0.09
   5  -4  -7    1.09    0.11
   5  -4  -7    1.01    0.17
   5  -4  -7    1.24    0.13
  -5   4   7    1.03    0.12
  -5   4   7    0.98    0.09
  -5   4   7    1.22    0.10
   4  -4  -7    1.81    0.12
   4  -4  -7    1.90    0.14
   4  -4  -7    2.08    0.50
  -4   4   7    1.86    0.11
  -4   4   7    1.84    0.10
  -4   4   7    1.62    0.14
   3  -4  -7    2.34    0.17
   3  -4  -7    2.25    0.21
  -3   4   7    2.22    0.15
  -3   4   7    2.40    0.12
   2  -4  -7    1.26    0.39
  -2   4   7    1.25    0.12
  -2   4   7    1.42    0.10
   1  -4  -7    0.67    0.11
  -1   4   7    0.63    0.07
  -1   4   7    0.60    0.10
   0  -4  -7    0.53    0.22
   0   4   7    0.27    0.08
   0   4   7    0.36    0.05
   1   4   7    0.05    0.07
   1   4   7    0.00    0.03
   2   4   7    0.05    0.07
   2   4   7   -0.01    0.03
   3   4   7    0.68    0.13
   4   4   7    0.72    0.13
 -13   5   7   -0.08    0.11
  12  -5  -7    0.02    0.08
 -12   5   7    0.18    0.11
  11  -5  -7    0.00    0.07
 -11   5   7   -0.02    0.09
 -11   5   7    0.06    0.09
 -11   5   7   -0.01    0.08
  10  -5  -7   -0.03    0.08
  10  -5  -7    0.07    0.08
 -10   5   7    0.21    0.09
 -10   5   7    0.10    0.08
 -10   5   7   -0.02    0.07
   9  -5  -7    2.30    0.17
   9  -5  -7    2.39    0.18
  -9   5   7    2.48    0.19
  -9   5   7    2.03    0.14
  -9   5   7    2.59    0.18
   8  -5  -7    1.00    0.12
  -8   5   7    1.04    0.14
  -8   5   7    1.16    0.12
   7  -5  -7    0.01    0.08
  -7   5   7    0.01    0.06
  -7   5   7    0.00    0.05
  -7   5   7    0.02    0.07
   6  -5  -7    1.15    0.12
   6  -5  -7    0.99    0.18
  -6   5   7    0.89    0.10
  -6   5   7    1.12    0.11
  -6   5   7    1.11    0.13
   5  -5  -7    3.64    0.17
   5  -5  -7    3.45    0.29
  -5   5   7    3.60    0.14
  -5   5   7    3.68    0.20
  -5   5   7    3.44    0.16
   4  -5  -7    0.50    0.14
  -4   5   7    0.68    0.11
  -4   5   7    0.78    0.09
   3  -5  -7    0.06    0.10
  -3   5   7    0.14    0.05
  -3   5   7    0.11    0.07
   2  -5  -7    1.57    0.19
  -2   5   7    1.24    0.10
  -2   5   7    1.35    0.15
   1  -5  -7    0.04    0.08
  -1   5   7   -0.03    0.06
  -1   5   7   -0.08    0.04
   0  -5  -7    0.97    0.26
   0   5   7    0.86    0.08
   0   5   7    0.80    0.12
   1   5   7    1.86    0.10
   1   5   7    1.69    0.17
   2   5   7    0.83    0.13
   2   5   7    0.87    0.08
   3   5   7    0.68    0.06
   3   5   7    0.56    0.12
 -13   6   7   -0.03    0.10
 -12   6   7    0.04    0.10
  11  -6  -7    0.08    0.09
  11  -6  -7    0.08    0.09
 -11   6   7    0.18    0.10
 -11   6   7    0.13    0.09
 -11   6   7    0.03    0.08
  10  -6  -7    0.73    0.12
  10  -6  -7    0.72    0.13
 -10   6   7    0.67    0.13
 -10   6   7    0.70    0.12
   9  -6  -7    0.67    0.12
  -9   6   7    0.57    0.11
  -9   6   7    0.51    0.12
   8  -6  -7    0.65    0.12
  -8   6   7    0.99    0.12
  -8   6   7    0.93    0.14
   7  -6  -7    1.71    0.16
  -7   6   7    1.94    0.14
  -7   6   7    1.66    0.17
  -7   6   7    1.68    0.14
   6  -6  -7    2.86    0.18
  -6   6   7    2.47    0.19
  -6   6   7    3.07    0.15
  -6   6   7    2.87    0.16
   5  -6  -7    0.48    0.09
  -5   6   7    0.38    0.10
  -5   6   7    0.56    0.07
  -5   6   7    0.69    0.10
  -4   6   7    0.14    0.06
  -4   6   7    0.20    0.08
   3  -6  -7    3.36    0.29
  -3   6   7    3.50    0.16
  -3   6   7    3.30    0.20
  -2   6   7    0.00    0.07
  -2   6   7   -0.05    0.04
  -1   6   7    0.81    0.09
  -1   6   7    0.88    0.13
   0   6   7    1.66    0.11
   0   6   7    2.04    0.18
   1   6   7    0.71    0.08
   1   6   7    0.68    0.13
   2   6   7   -0.01    0.04
   2   6   7    0.14    0.09
   3   6   7    0.16    0.04
 -12   7   7   -0.06    0.11
  11  -7  -7    0.04    0.10
  11  -7  -7    0.10    0.09
 -11   7   7   -0.10    0.08
 -11   7   7    0.04    0.10
  10  -7  -7    0.04    0.10
 -10   7   7    0.19    0.09
 -10   7   7    0.01    0.10
   9  -7  -7    0.88    0.14
  -9   7   7    0.96    0.13
  -9   7   7    1.02    0.16
   8  -7  -7    0.27    0.11
  -8   7   7    0.12    0.09
  -8   7   7    0.09    0.07
   7  -7  -7    0.27    0.11
  -7   7   7    0.40    0.08
  -7   7   7    0.31    0.10
  -7   7   7    0.22    0.08
   6  -7  -7   -0.08    0.08
  -6   7   7    0.10    0.07
  -6   7   7    0.18    0.06
   5  -7  -7    1.22    0.13
  -5   7   7    1.38    0.13
  -5   7   7    1.04    0.15
  -4   7   7    0.04    0.06
  -4   7   7    0.14    0.10
  -3   7   7    1.08    0.15
  -3   7   7    1.01    0.11
  -2   7   7    1.12    0.16
  -2   7   7    1.21    0.11
  -1   7   7    0.24    0.10
  -1   7   7    0.22    0.06
   0   7   7    0.04    0.05
   0   7   7    0.05    0.08
   1   7   7    0.74    0.15
   1   7   7    0.65    0.09
   2   7   7    0.05    0.11
   2   7   7   -0.03    0.04
   3   7   7    0.05    0.04
   4   7   7    0.19    0.06
 -12   8   7    0.07    0.12
  11  -8  -7    0.26    0.11
 -11   8   7    0.07    0.12
  10  -8  -7    0.49    0.13
 -10   8   7    0.51    0.14
   9  -8  -7    0.72    0.14
  -9   8   7    1.07    0.14
  -9   8   7    0.74    0.15
   8  -8  -7    0.26    0.12
  -8   8   7    0.19    0.07
  -8   8   7    0.15    0.09
   7  -8  -7    0.41    0.12
  -7   8   7    0.44    0.08
  -7   8   7    0.34    0.12
  -7   8   7    0.34    0.10
   6  -8  -7   -0.05    0.09
  -6   8   7    0.14    0.09
  -6   8   7    0.07    0.07
  -5   8   7    0.50    0.12
  -5   8   7    0.73    0.11
  -4   8   7    0.69    0.14
  -4   8   7    0.72    0.11
  -3   8   7    0.51    0.09
  -3   8   7    0.58    0.13
  -2   8   7   -0.01    0.05
  -2   8   7    0.00    0.08
  -1   8   7    1.19    0.18
  -1   8   7    1.00    0.11
   0   8   7   -0.05    0.08
   0   8   7    0.03    0.05
   1   8   7    0.41    0.07
   1   8   7    0.39    0.13
   2   8   7    0.00    0.05
  11  -9  -7   -0.03    0.11
 -11   9   7    0.03    0.10
  10  -9  -7    0.08    0.12
 -10   9   7    0.12    0.11
   9  -9  -7    0.08    0.11
  -9   9   7    0.06    0.10
   8  -9  -7    0.13    0.12
  -8   9   7    0.21    0.11
   7  -9  -7    0.64    0.13
  -7   9   7    0.78    0.13
  -7   9   7    0.81    0.15
   6  -9  -7    0.17    0.12
  -6   9   7    0.34    0.12
  -6   9   7    0.52    0.11
  -5   9   7    0.27    0.10
  -5   9   7    0.17    0.12
  -4   9   7    2.79    0.24
  -4   9   7    2.51    0.18
  -3   9   7    0.02    0.10
  -3   9   7    0.10    0.08
  -2   9   7    0.14    0.11
  -2   9   7    0.14    0.07
  -1   9   7   -0.05    0.10
  -1   9   7   -0.08    0.05
   0   9   7    0.04    0.06
   0   9   7    0.08    0.12
   1   9   7   -0.03    0.06
   9 -10  -7   -0.05    0.11
  -9  10   7    0.12    0.11
   8 -10  -7    0.16    0.12
  -8  10   7    0.18    0.11
   7 -10  -7    0.54    0.14
  -7  10   7    0.83    0.14
  -7  10   7    0.64    0.15
   6 -10  -7    0.57    0.14
  -6  10   7    0.40    0.11
  -6  10   7    0.45    0.13
  -5  10   7   -0.02    0.08
  -5  10   7   -0.07    0.09
  -4  10   7    0.14    0.09
  -4  10   7    0.04    0.10
  -3  10   7    0.47    0.15
  -3  10   7    0.36    0.09
  -2  10   7   -0.07    0.10
  -2  10   7    0.01    0.07
  -1  10   7   -0.08    0.06
  -1  10   7   -0.07    0.11
   3 -16   8    0.35    0.13
   4 -16   8    0.46    0.13
  -1 -15   8   -0.15    0.11
   0 -15   8    0.22    0.12
   1 -15   8    1.47    0.17
   2 -15   8    0.00    0.10
   3 -15   8    0.03    0.11
   4 -15   8    0.27    0.11
   5 -15   8    0.09    0.10
  -6  15  -8   -0.02    0.16
  -7  15  -8   -0.42    0.15
  -8  15  -8   -0.11    0.19
   3  14  -8    0.02    0.10
  -3 -14   8    0.16    0.13
   2  14  -8    0.00    0.09
  -2 -14   8    0.01    0.12
  -1 -14   8    0.29    0.13
   0  14  -8    0.01    0.06
   0 -14   8    0.12    0.12
  -1  14  -8    0.27    0.16
   1 -14   8    0.23    0.11
  -2  14  -8    0.22    0.09
   2 -14   8    0.41    0.12
  -3  14  -8    1.38    0.15
   3 -14   8    1.24    0.15
  -4  14  -8   -0.01    0.08
   4 -14   8    0.00    0.09
  -5  14  -8    0.06    0.08
  -5  14  -8   -0.21    0.14
   5 -14   8    0.12    0.08
   5 -14   8    0.15    0.09
  -6  14  -8    0.08    0.10
  -6  14  -8    0.03    0.15
  -6  14  -8    0.18    0.10
   6 -14   8    0.10    0.08
  -7  14  -8    0.12    0.18
  -7  14  -8    0.25    0.11
  -8  14  -8    0.17    0.12
  -8  14  -8   -0.21    0.17
  -9  14  -8   -0.31    0.17
  -9  14  -8   -0.15    0.10
   4  13  -8    0.31    0.12
  -4 -13   8    0.48    0.14
   3  13  -8   -0.12    0.09
  -3 -13   8    0.13    0.12
   2  13  -8    0.96    0.14
  -2 -13   8    1.05    0.15
   1  13  -8    2.17    0.19
  -1 -13   8    2.24    0.21
   0  13  -8    0.32    0.09
   0 -13   8    0.22    0.11
  -1  13  -8    3.55    0.20
   1 -13   8    3.09    0.20
  -2  13  -8    0.28    0.09
   2 -13   8    0.29    0.10
  -3  13  -8    0.48    0.11
   3 -13   8    0.50    0.11
  -4  13  -8    0.17    0.08
  -4  13  -8    0.21    0.15
  -4  13  -8    0.29    0.09
   4 -13   8    0.15    0.09
   4 -13   8    0.27    0.09
  -5  13  -8    0.09    0.09
  -5  13  -8   -0.12    0.13
  -5  13  -8    0.15    0.09
   5 -13   8    0.10    0.08
   5 -13   8    0.13    0.08
  -6  13  -8    3.02    0.30
  -6  13  -8    3.48    0.20
   6 -13   8    3.79    0.22
  -7  13  -8   -0.02    0.09
  -7  13  -8   -0.24    0.15
   7 -13   8   -0.01    0.08
  -8  13  -8    0.45    0.20
  -8  13  -8    0.81    0.14
  -9  13  -8    0.54    0.20
  -9  13  -8    0.73    0.14
 -10  13  -8    0.44    0.13
 -10  13  -8    0.46    0.21
   6  12  -8   -0.07    0.10
   5  12  -8    0.54    0.12
   4  12  -8    0.77    0.14
  -4 -12   8    0.55    0.13
   3  12  -8    0.40    0.11
  -3 -12   8    0.42    0.12
   2  12  -8    1.13    0.14
   2  12  -8    1.34    0.12
  -2 -12   8    1.39    0.16
   1  12  -8    2.36    0.18
   1  12  -8    2.32    0.21
  -1 -12   8    2.38    0.19
   0  12  -8   -0.02    0.07
   0  12  -8    0.25    0.10
   0 -12   8    0.31    0.10
  -1  12  -8    0.22    0.11
  -1  12  -8    0.06    0.07
  -1  12  -8   -0.08    0.08
   1 -12   8   -0.07    0.08
  -2  12  -8    0.84    0.16
  -2  12  -8    0.76    0.11
   2 -12   8    0.82    0.11
  -3  12  -8    3.50    0.25
  -3  12  -8    3.87    0.47
  -3  12  -8    3.83    0.17
  -3  12  -8    3.94    0.20
   3 -12   8    3.54    0.20
   3 -12   8    3.10    0.18
  -4  12  -8    3.72    0.17
  -4  12  -8    4.01    0.33
  -4  12  -8    3.48    0.26
  -4  12  -8    3.86    0.21
   4 -12   8    3.58    0.17
   4 -12   8    3.79    0.20
  -5  12  -8    1.63    0.21
  -5  12  -8    1.62    0.14
  -5  12  -8    1.56    0.16
   5 -12   8    1.52    0.12
   5 -12   8    1.85    0.16
  -6  12  -8    0.28    0.09
  -6  12  -8    0.47    0.17
   6 -12   8    0.44    0.14
   6 -12   8    0.35    0.09
  -7  12  -8    1.97    0.25
  -7  12  -8    2.27    0.18
   7 -12   8    2.00    0.24
  -8  12  -8   -0.06    0.15
  -8  12  -8    0.03    0.10
   8 -12   8    0.05    0.07
  -9  12  -8   -0.14    0.15
  -9  12  -8   -0.01    0.10
 -10  12  -8   -0.06    0.11
 -10  12  -8    0.21    0.18
   7  11  -8    0.26    0.11
   6  11  -8    0.68    0.14
   5  11  -8    0.52    0.11
  -5 -11   8    0.70    0.14
   4  11  -8    0.11    0.09
  -4 -11   8    0.12    0.11
   3  11  -8    0.22    0.09
   3  11  -8    0.04    0.05
  -3 -11   8    0.05    0.10
   2  11  -8   -0.01    0.06
   2  11  -8    0.00    0.06
   2  11  -8    0.21    0.08
  -2 -11   8    0.05    0.09
   1  11  -8    0.11    0.06
   1  11  -8    0.19    0.08
   1  11  -8    0.25    0.10
  -1 -11   8    0.07    0.08
   0  11  -8    0.83    0.14
   0  11  -8    0.87    0.10
   0 -11   8    0.82    0.11
  -1  11  -8    1.38    0.13
  -1  11  -8    1.05    0.10
  -1  11  -8    1.67    0.19
   1 -11   8    1.46    0.13
  -2  11  -8    0.02    0.05
  -2  11  -8    0.09    0.07
  -2  11  -8   -0.04    0.09
  -2  11  -8    0.15    0.26
   2 -11   8    0.02    0.07
   2 -11   8    0.02    0.05
  -3  11  -8    0.08    0.07
  -3  11  -8   -0.12    0.09
  -3  11  -8    0.05    0.06
  -3  11  -8    0.12    0.16
   3 -11   8    0.05    0.07
   3 -11   8    0.05    0.06
  -4  11  -8   -0.04    0.06
  -4  11  -8    0.12    0.13
  -4  11  -8    0.06    0.11
  -4  11  -8    0.11    0.07
   4 -11   8    0.10    0.06
   4 -11   8    0.15    0.07
  -5  11  -8    0.12    0.07
  -5  11  -8    0.09    0.13
  -5  11  -8    0.18    0.12
   5 -11   8    0.19    0.07
  -6  11  -8    0.65    0.16
  -6  11  -8    0.65    0.17
  -6  11  -8    0.44    0.09
   6 -11   8    0.63    0.14
   6 -11   8    0.63    0.21
  -7  11  -8   -0.06    0.07
  -7  11  -8   -0.07    0.13
   7 -11   8    0.05    0.07
  -8  11  -8    1.26    0.15
  -8  11  -8    0.73    0.18
   8 -11   8    1.00    0.12
  -9  11  -8    0.34    0.12
  -9  11  -8    0.16    0.15
   9 -11   8    0.41    0.12
   9 -11   8    0.54    0.08
 -10  11  -8    0.00    0.15
 -10  11  -8    0.08    0.11
  10 -11   8    0.09    0.09
 -11  11  -8    0.21    0.17
 -11  11  -8    0.17    0.13
  11 -11   8    0.06    0.10
   8  10  -8   -0.04    0.09
   7  10  -8    0.26    0.10
   6  10  -8   -0.04    0.09
   5  10  -8   -0.07    0.07
  -5 -10   8    0.02    0.10
   4  10  -8    0.11    0.08
   4  10  -8    0.00    0.05
  -4 -10   8    0.09    0.09
   3  10  -8    0.17    0.12
   3  10  -8   -0.01    0.06
   3  10  -8   -0.02    0.05
  -3 -10   8   -0.04    0.08
   2  10  -8    0.46    0.09
   2  10  -8    0.36    0.08
   2  10  -8    0.55    0.31
  -2 -10   8    0.31    0.09
   1  10  -8    0.24    0.13
   1  10  -8    0.32    0.10
   1  10  -8    0.08    0.06
  -1 -10   8    0.23    0.08
   0  10  -8    6.64    0.23
   0  10  -8    6.48    0.30
   0  10  -8    6.21    0.27
   0  10  -8    6.31    0.17
   0 -10   8    6.57    0.22
  -1  10  -8    2.89    0.29
  -1  10  -8    2.79    0.16
  -1  10  -8    2.82    0.13
   1 -10   8    3.00    0.50
   1 -10   8    2.89    0.15
  -2  10  -8    2.45    0.15
  -2  10  -8    2.17    0.13
  -2  10  -8    2.33    0.18
  -2  10  -8    2.66    0.25
   2 -10   8    2.36    0.18
   2 -10   8    2.46    0.14
  -3  10  -8    0.28    0.11
  -3  10  -8    0.25    0.07
  -3  10  -8    0.52    0.14
  -3  10  -8    0.24    0.07
   3 -10   8    0.29    0.07
   3 -10   8    0.41    0.07
  -4  10  -8    1.55    0.20
  -4  10  -8    1.70    0.13
  -4  10  -8    1.64    0.18
   4 -10   8    1.56    0.10
   4 -10   8    1.70    0.19
  -5  10  -8    2.74    0.16
  -5  10  -8    2.45    0.26
  -5  10  -8    2.78    0.23
   5 -10   8    2.55    0.19
   5 -10   8    3.25    0.21
  -6  10  -8    1.63    0.35
  -6  10  -8    1.84    0.20
  -6  10  -8    1.90    0.15
   6 -10   8    1.95    0.16
   6 -10   8    1.85    0.17
   6 -10   8    1.94    0.14
  -7  10  -8    0.89    0.16
  -7  10  -8    0.76    0.11
  -7  10  -8    0.48    0.18
   7 -10   8    0.89    0.10
   7 -10   8    0.93    0.13
  -8  10  -8    0.09    0.09
  -8  10  -8   -0.04    0.12
   8 -10   8   -0.03    0.05
   8 -10   8    0.07    0.08
  -9  10  -8    0.00    0.13
  -9  10  -8   -0.02    0.09
   9 -10   8   -0.09    0.07
 -10  10  -8    0.01    0.14
 -10  10  -8    0.06    0.11
  10 -10   8    0.00    0.09
 -11  10  -8    0.16    0.16
  11 -10   8    0.31    0.12
   9   9  -8    0.03    0.10
   8   9  -8    0.02    0.09
   7   9  -8    0.38    0.10
   6   9  -8    1.89    0.17
  -6  -9   8    1.41    0.15
   5   9  -8    0.33    0.06
   5   9  -8    0.33    0.10
   5   9  -8    0.41    0.22
  -5  -9   8    0.07    0.09
   4   9  -8    0.16    0.06
   4   9  -8    0.40    0.10
   4   9  -8    0.15    0.07
  -4  -9   8    0.13    0.08
   3   9  -8    5.04    0.21
   3   9  -8    5.13    0.21
   3   9  -8    5.24    0.26
  -3  -9   8    5.00    0.20
   2   9  -8    0.58    0.12
   2   9  -8    0.42    0.08
   2   9  -8    0.56    0.09
  -2  -9   8    0.51    0.09
   1   9  -8   11.68    0.24
   1   9  -8   12.55    0.31
   1   9  -8   12.00    0.31
   1   9  -8   12.30    0.41
  -1  -9   8   12.51    0.33
  -1  -9   8   12.37    0.30
   0   9  -8    0.06    0.05
   0   9  -8    0.01    0.05
   0   9  -8    0.11    0.09
   0  -9   8    0.05    0.06
   0  -9   8   -0.03    0.05
  -1   9  -8    0.64    0.26
  -1   9  -8    0.77    0.11
  -1   9  -8    0.74    0.11
  -1   9  -8    0.51    0.07
  -1   9  -8    0.62    0.09
   1  -9   8    0.74    0.09
   1  -9   8    0.73    0.09
  -2   9  -8    1.34    0.11
  -2   9  -8    1.45    0.14
  -2   9  -8    1.24    0.13
  -2   9  -8    1.56    0.19
  -2   9  -8    1.58    0.12
   2  -9   8    1.25    0.12
   2  -9   8    1.27    0.11
  -3   9  -8    7.41    0.22
  -3   9  -8    7.20    0.34
  -3   9  -8    7.22    0.26
  -3   9  -8    7.52    0.24
  -3   9  -8    7.52    0.28
   3  -9   8    7.14    0.23
   3  -9   8    7.33    0.19
   3  -9   8    7.43    0.24
  -4   9  -8    3.30    0.16
  -4   9  -8    3.10    0.26
  -4   9  -8    3.01    0.21
  -4   9  -8    3.28    0.18
   4  -9   8    3.14    0.19
   4  -9   8    3.39    0.17
   4  -9   8    3.47    0.16
  -5   9  -8    1.30    0.20
  -5   9  -8    1.54    0.13
  -5   9  -8    1.29    0.16
   5  -9   8    1.35    0.13
   5  -9   8    1.30    0.14
   5  -9   8    1.54    0.12
  -6   9  -8    0.33    0.08
  -6   9  -8    0.18    0.13
  -6   9  -8    0.38    0.12
   6  -9   8    0.36    0.10
   6  -9   8    0.31    0.08
   6  -9   8    0.28    0.07
  -7   9  -8    0.15    0.08
  -7   9  -8   -0.05    0.10
  -7   9  -8   -0.06    0.13
   7  -9   8   -0.03    0.06
   7  -9   8    0.14    0.05
  -8   9  -8    0.48    0.10
  -8   9  -8    0.55    0.15
   8  -9   8    0.35    0.09
  -9   9  -8    1.05    0.18
   9  -9   8    1.07    0.14
 -10   9  -8    0.45    0.17
  10  -9   8    0.31    0.11
 -11   9  -8    0.42    0.17
  11  -9   8    0.16    0.10
   9   8  -8    0.38    0.12
   8   8  -8   -0.06    0.09
   7   8  -8    0.09    0.08
  -7  -8   8    0.10    0.10
   6   8  -8    0.34    0.06
   6   8  -8    0.32    0.14
   6   8  -8    0.20    0.08
  -6  -8   8    0.22    0.09
   5   8  -8    0.17    0.08
   5   8  -8   -0.02    0.05
   5   8  -8    0.00    0.06
  -5  -8   8    0.10    0.07
   4   8  -8    1.40    0.11
   4   8  -8    1.48    0.16
   4   8  -8    1.43    0.13
  -4  -8   8    1.36    0.12
   3   8  -8    1.61    0.16
   3   8  -8    1.54    0.13
   3   8  -8    1.47    0.12
  -3  -8   8    1.45    0.13
   2   8  -8    2.50    0.19
   2   8  -8    2.54    0.14
   2   8  -8    2.49    0.14
   2   8  -8    2.50    0.10
  -2  -8   8    2.33    0.14
   1   8  -8    3.53    0.20
   1   8  -8    3.37    0.13
   1   8  -8    3.49    0.22
   1   8  -8    3.26    0.15
   1   8  -8    3.52    0.16
  -1  -8   8    3.65    0.16
  -1  -8   8    3.32    0.15
   0   8  -8    0.70    0.09
   0   8  -8    0.76    0.11
   0   8  -8    0.59    0.07
   0   8  -8    0.89    0.10
   0   8  -8    0.75    0.26
   0  -8   8    0.61    0.08
   0  -8   8    0.60    0.08
  -1   8  -8    4.34    0.25
  -1   8  -8    3.95    0.20
  -1   8  -8    4.20    0.16
  -1   8  -8    4.28    0.17
  -1   8  -8    3.97    0.18
   1  -8   8    4.31    0.15
   1  -8   8    3.89    0.17
  -2   8  -8    9.17    0.24
  -2   8  -8    8.88    0.28
  -2   8  -8    9.36    0.26
  -2   8  -8    8.50    0.35
  -2   8  -8    9.25    0.30
   2  -8   8    8.87    0.21
   2  -8   8    9.11    0.25
   2  -8   8    9.28    0.29
   2  -8   8    8.93    0.25
  -3   8  -8    1.41    0.15
  -3   8  -8    1.88    0.12
  -3   8  -8    1.42    0.14
  -3   8  -8    1.89    0.21
   3  -8   8    1.85    0.13
   3  -8   8    1.59    0.15
   3  -8   8    1.79    0.11
  -4   8  -8    0.04    0.11
  -4   8  -8   -0.10    0.05
  -4   8  -8    0.03    0.07
  -4   8  -8   -0.10    0.05
   4  -8   8    0.03    0.04
   4  -8   8    0.02    0.05
   4  -8   8   -0.06    0.07
  -5   8  -8    9.66    0.26
  -5   8  -8    9.63    0.34
  -5   8  -8    9.53    0.39
   5  -8   8   10.33    0.28
   5  -8   8   10.01    0.29
   5  -8   8   10.00    0.25
  -6   8  -8    0.06    0.09
  -6   8  -8    0.02    0.06
  -6   8  -8   -0.11    0.24
   6  -8   8    0.05    0.07
   6  -8   8    0.05    0.07
   6  -8   8    0.08    0.05
  -7   8  -8    1.07    0.19
  -7   8  -8    1.13    0.16
   7  -8   8    1.17    0.12
  -8   8  -8    0.83    0.16
   8  -8   8    0.96    0.12
  -9   8  -8    0.36    0.14
   9  -8   8    0.38    0.10
 -10   8  -8    0.32    0.14
  10  -8   8    0.06    0.09
 -11   8  -8   -0.05    0.13
  11  -8   8    0.09    0.09
  10   7  -8    0.13    0.10
   9   7  -8    0.12    0.10
   8   7  -8    1.49    0.16
  -8  -7   8    1.00    0.14
   7   7  -8    0.20    0.09
   7   7  -8    0.13    0.08
  -7  -7   8    0.17    0.09
   6   7  -8    0.68    0.31
   6   7  -8    0.44    0.09
   6   7  -8    0.54    0.07
  -6  -7   8    0.39    0.12
  -6  -7   8    0.46    0.10
   5   7  -8    2.82    0.16
   5   7  -8    2.98    0.60
   5   7  -8    3.10    0.21
   5   7  -8    2.98    0.14
  -5  -7   8    2.93    0.16
   4   7  -8    4.45    0.33
   4   7  -8    3.94    0.22
   4   7  -8    4.07    0.16
   4   7  -8    4.48    0.18
  -4  -7   8    3.74    0.17
   3   7  -8    2.13    0.13
   3   7  -8    2.21    0.17
   3   7  -8    2.15    0.09
   3   7  -8    2.20    0.49
   3   7  -8    2.31    0.13
  -3  -7   8    2.17    0.13
  -3  -7   8    2.18    0.14
   2   7  -8    8.49    0.23
   2   7  -8    8.00    0.19
   2   7  -8    8.16    0.29
   2   7  -8    8.21    0.23
   2   7  -8    7.84    0.31
  -2  -7   8    8.26    0.24
  -2  -7   8    8.10    0.22
   1   7  -8    0.17    0.06
   1   7  -8    0.26    0.10
   1   7  -8    0.27    0.06
   1   7  -8    0.17    0.06
   1   7  -8    0.22    0.06
   1   7  -8    0.20    0.06
   1   7  -8    0.23    0.08
  -1  -7   8    0.19    0.06
  -1  -7   8    0.30    0.07
   0   7  -8    0.62    0.08
   0   7  -8    0.64    0.32
   0   7  -8    0.69    0.08
   0   7  -8    0.58    0.10
   0   7  -8    0.63    0.09
   0  -7   8    0.63    0.08
   0  -7   8    0.54    0.07
   0  -7   8    0.62    0.07
   0  -7   8    1.02    0.12
  -1   7  -8    0.37    0.06
  -1   7  -8    0.33    0.11
  -1   7  -8    0.23    0.07
  -1   7  -8    0.35    0.09
  -1   7  -8    0.27    0.07
   1  -7   8    0.35    0.09
   1  -7   8    0.22    0.05
   1  -7   8    0.23    0.05
   1  -7   8    0.28    0.06
  -2   7  -8    0.57    0.08
  -2   7  -8    0.56    0.08
  -2   7  -8    0.48    0.10
  -2   7  -8    0.48    0.09
  -2   7  -8    0.56    0.13
   2  -7   8    0.58    0.05
   2  -7   8    0.49    0.07
   2  -7   8    0.62    0.08
   2  -7   8    0.54    0.10
  -3   7  -8    1.60    0.15
  -3   7  -8    2.00    0.12
  -3   7  -8    1.99    0.49
  -3   7  -8    1.76    0.14
   3  -7   8    1.98    0.14
   3  -7   8    1.83    0.10
   3  -7   8    1.98    0.12
  -4   7  -8   -0.08    0.06
  -4   7  -8    0.13    0.11
  -4   7  -8    0.13    0.08
  -4   7  -8   -0.03    0.05
   4  -7   8    0.09    0.05
   4  -7   8    0.05    0.04
   4  -7   8    0.11    0.07
  -5   7  -8    1.72    0.12
  -5   7  -8    1.85    0.21
  -5   7  -8    1.60    0.16
   5  -7   8    1.67    0.13
   5  -7   8    1.79    0.10
   5  -7   8    1.70    0.13
  -6   7  -8    0.09    0.11
  -6   7  -8   -0.12    0.07
   6  -7   8    0.00    0.06
   6  -7   8    0.12    0.07
  -7   7  -8    0.36    0.11
  -7   7  -8    0.04    0.12
   7  -7   8    0.23    0.07
  -8   7  -8    0.62    0.14
   8  -7   8    0.74    0.11
  -9   7  -8   -0.05    0.11
   9  -7   8    0.19    0.08
 -10   7  -8   -0.09    0.12
  10  -7   8    0.03    0.08
 -11   7  -8    0.02    0.13
  11  -7   8    0.06    0.08
  11   6  -8    0.07    0.10
  10   6  -8    0.23    0.10
   9   6  -8   -0.03    0.08
  -9  -6   8   -0.02    0.10
   8   6  -8    0.07    0.08
  -8  -6   8   -0.01    0.09
   7   6  -8    1.03    0.15
   7   6  -8    0.81    0.12
   7   6  -8    0.95    0.09
  -7  -6   8    0.74    0.11
   6   6  -8   -0.03    0.06
   6   6  -8    0.02    0.16
   6   6  -8   -0.01    0.07
   6   6  -8    0.02    0.05
  -6  -6   8   -0.02    0.07
  -6  -6   8   -0.01    0.07
   5   6  -8    0.29    0.11
   5   6  -8    0.29    0.07
   5   6  -8    0.29    0.06
   5   6  -8    0.13    0.08
  -5  -6   8    0.29    0.08
  -5  -6   8    0.19    0.08
   4   6  -8    1.38    0.15
   4   6  -8    1.49    0.11
   4   6  -8    1.50    0.15
   4   6  -8    1.45    0.12
   4   6  -8    1.28    0.07
   4   6  -8    1.83    0.21
  -4  -6   8    1.46    0.12
  -4  -6   8    1.62    0.14
   3   6  -8    0.04    0.07
   3   6  -8    0.01    0.04
   3   6  -8    0.03    0.07
   3   6  -8    0.06    0.05
   3   6  -8    0.06    0.06
   3   6  -8    0.00    0.04
  -3  -6   8    0.06    0.06
  -3  -6   8    0.07    0.08
  -3  -6   8    0.05    0.05
   2   6  -8    1.20    0.11
   2   6  -8    1.23    0.13
   2   6  -8    1.27    0.10
   2   6  -8    1.44    0.11
   2   6  -8    1.30    0.15
   2   6  -8    1.35    0.10
  -2  -6   8    1.41    0.10
  -2  -6   8    1.40    0.13
  -2  -6   8    1.37    0.11
   1   6  -8   14.77    0.32
   1   6  -8   14.10    0.39
   1   6  -8   14.10    0.32
   1   6  -8   14.22    0.30
   1   6  -8   14.23    0.81
  -1  -6   8   14.57    0.32
  -1  -6   8   14.13    0.30
  -1  -6   8   14.03    0.35
  -1  -6   8   14.31    0.29
   0   6  -8   12.30    0.30
   0   6  -8   12.40    0.27
   0   6  -8   11.86    0.36
   0   6  -8   12.45    0.28
   0   6  -8   11.88    0.39
   0  -6   8   12.26    0.32
   0  -6   8   12.63    0.28
   0  -6   8   11.93    0.24
   0  -6   8   12.00    0.27
  -1   6  -8   17.00    0.44
  -1   6  -8   17.38    0.34
  -1   6  -8   17.79    0.47
  -1   6  -8   16.79    0.38
  -1   6  -8   17.73    0.36
   1  -6   8   16.90    0.35
   1  -6   8   17.37    0.39
   1  -6   8   16.77    0.29
   1  -6   8   16.66    0.34
  -2   6  -8    6.62    0.19
  -2   6  -8    6.33    0.22
  -2   6  -8    6.83    0.29
  -2   6  -8    6.65    0.26
   2  -6   8    6.81    0.18
   2  -6   8    6.66    0.19
   2  -6   8    6.75    0.22
  -3   6  -8    2.89    0.21
  -3   6  -8    2.66    0.13
  -3   6  -8    2.70    0.18
  -3   6  -8    2.90    0.16
  -3   6  -8    2.99    0.14
   3  -6   8    3.00    0.15
   3  -6   8    2.79    0.13
   3  -6   8    2.87    0.11
  -4   6  -8    9.79    0.31
  -4   6  -8    9.74    0.24
  -4   6  -8    9.54    0.31
  -4   6  -8    9.82    0.42
   4  -6   8   10.13    0.25
   4  -6   8   10.19    0.34
   4  -6   8   10.23    0.28
  -5   6  -8    1.41    0.18
  -5   6  -8    1.53    0.16
   5  -6   8    1.61    0.13
   5  -6   8    1.56    0.12
  -6   6  -8    4.60    0.28
  -6   6  -8    4.71    0.24
   6  -6   8    4.64    0.18
   6  -6   8    4.94    0.21
  -7   6  -8    2.19    0.19
  -7   6  -8    2.52    0.24
   7  -6   8    2.30    0.14
  -8   6  -8    0.14    0.10
  -8   6  -8   -0.19    0.12
   8  -6   8   -0.01    0.06
  -9   6  -8    0.44    0.14
   9  -6   8    0.52    0.09
 -10   6  -8    0.14    0.13
  10  -6   8    0.18    0.08
 -11   6  -8    0.27    0.15
  11  -6   8    0.30    0.10
  11   5  -8   -0.02    0.08
  10   5  -8    0.08    0.09
 -10  -5   8    0.00    0.10
   9   5  -8    0.08    0.08
  -9  -5   8   -0.02    0.10
   8   5  -8    0.46    0.11
   8   5  -8    0.34    0.09
   8   5  -8    0.37    0.07
  -8  -5   8    0.27    0.09
   7   5  -8    0.71    0.12
   7   5  -8    0.44    0.11
   7   5  -8    0.58    0.10
   7   5  -8    0.67    0.08
  -7  -5   8    0.59    0.10
   6   5  -8    3.19    0.20
   6   5  -8    3.60    0.15
   6   5  -8    3.78    0.42
   6   5  -8    3.51    0.17
   6   5  -8    3.22    0.23
  -6  -5   8    3.46    0.16
  -6  -5   8    3.71    0.17
   5   5  -8    6.29    0.37
   5   5  -8    6.48    0.20
   5   5  -8    6.05    0.20
   5   5  -8    5.87    0.25
   5   5  -8    5.64    0.27
  -5  -5   8    5.77    0.20
  -5  -5   8    5.82    0.21
   4   5  -8    3.91    0.22
   4   5  -8    4.49    0.17
   4   5  -8    4.25    0.16
   4   5  -8    4.03    0.13
   4   5  -8    4.05    0.21
   4   5  -8    3.83    0.21
  -4  -5   8    4.12    0.21
  -4  -5   8    4.05    0.18
  -4  -5   8    3.84    0.16
   3   5  -8    0.04    0.05
   3   5  -8    0.09    0.05
   3   5  -8   -0.01    0.04
   3   5  -8    0.05    0.04
   3   5  -8    0.06    0.07
   3   5  -8    0.02    0.08
  -3  -5   8    0.09    0.05
  -3  -5   8    0.12    0.07
  -3  -5   8    0.08    0.07
   2   5  -8    4.72    0.21
   2   5  -8    4.87    0.23
   2   5  -8    4.67    0.18
   2   5  -8    5.02    0.16
   2   5  -8    4.66    0.16
   2   5  -8    4.75    0.16
  -2  -5   8    4.70    0.16
  -2  -5   8    4.62    0.15
  -2  -5   8    4.91    0.17
  -2  -5   8    4.78    0.15
  -2  -5   8    4.55    0.18
   1   5  -8    1.25    0.10
   1   5  -8    1.21    0.13
   1   5  -8    1.22    0.31
   1   5  -8    1.02    0.10
   1   5  -8    1.31    0.09
  -1  -5   8    1.30    0.09
  -1  -5   8    1.20    0.08
  -1  -5   8    1.18    0.08
  -1  -5   8    1.26    0.08
  -1  -5   8    1.12    0.10
   0   5  -8    0.43    0.11
   0   5  -8    0.45    0.06
   0   5  -8    0.34    0.10
   0   5  -8    0.47    0.07
   0  -5   8    0.38    0.05
   0  -5   8    0.37    0.08
   0  -5   8    0.48    0.07
   0  -5   8    0.49    0.06
   0  -5   8    0.40    0.04
  -1   5  -8    0.48    0.10
  -1   5  -8    0.55    0.07
  -1   5  -8    0.55    0.11
  -1   5  -8    0.58    0.07
   1  -5   8    0.52    0.07
   1  -5   8    0.48    0.08
   1  -5   8    0.52    0.06
   1  -5   8    0.56    0.08
  -2   5  -8    1.29    0.15
  -2   5  -8    1.36    0.10
  -2   5  -8    1.49    0.14
   2  -5   8    1.43    0.08
   2  -5   8    1.32    0.09
   2  -5   8    1.32    0.10
   2  -5   8    1.46    0.11
  -3   5  -8   -0.02    0.20
  -3   5  -8    0.01    0.08
   3  -5   8    0.06    0.04
   3  -5   8    0.04    0.03
   3  -5   8    0.04    0.05
   3  -5   8   -0.07    0.04
  -4   5  -8    0.46    0.10
  -4   5  -8    0.65    0.13
   4  -5   8    0.61    0.09
   4  -5   8    0.71    0.08
  -5   5  -8    0.18    0.08
  -5   5  -8    0.21    0.11
   5  -5   8    0.28    0.06
   5  -5   8    0.37    0.08
  -6   5  -8    0.15    0.11
  -6   5  -8    0.30    0.09
   6  -5   8    0.18    0.06
  -7   5  -8   -0.10    0.07
  -7   5  -8   -0.20    0.09
   7  -5   8    0.03    0.05
  -8   5  -8    0.52    0.13
   8  -5   8    0.50    0.08
  -9   5  -8    0.23    0.12
   9  -5   8    0.14    0.07
 -10   5  -8    0.40    0.14
  10  -5   8    0.51    0.10
 -11   5  -8    0.16    0.14
  11  -5   8   -0.07    0.07
  12   4  -8    0.43    0.13
 -12  -4   8    0.46    0.15
  11   4  -8    0.02    0.09
 -11  -4   8    0.00    0.11
  10   4  -8    0.14    0.08
 -10  -4   8    0.14    0.11
   9   4  -8    0.70    0.12
   9   4  -8    0.66    0.08
   9   4  -8    0.72    0.13
  -9  -4   8    0.39    0.11
   8   4  -8    0.11    0.08
   8   4  -8    0.15    0.06
   8   4  -8    0.02    0.07
  -8  -4   8    0.21    0.09
   7   4  -8    1.16    0.16
   7   4  -8    1.21    0.12
   7   4  -8    1.14    0.15
   7   4  -8    1.13    0.11
   7   4  -8    0.75    0.12
  -7  -4   8    1.16    0.12
   6   4  -8    0.08    0.06
   6   4  -8    0.05    0.05
   6   4  -8   -0.01    0.12
   6   4  -8   -0.11    0.07
   6   4  -8   -0.05    0.05
  -6  -4   8    0.06    0.06
  -6  -4   8   -0.01    0.05
   5   4  -8    0.18    0.06
   5   4  -8    0.23    0.06
   5   4  -8    0.23    0.08
   5   4  -8    0.20    0.17
   5   4  -8    0.19    0.09
   5   4  -8    0.20    0.05
  -5  -4   8    0.19    0.06
  -5  -4   8    0.28    0.07
  -5  -4   8    0.28    0.07
   4   4  -8    0.59    0.09
   4   4  -8    0.60    0.12
   4   4  -8    0.68    0.08
   4   4  -8    0.52    0.07
   4   4  -8    0.60    0.07
   4   4  -8    0.49    0.09
  -4  -4   8    0.70    0.18
  -4  -4   8    0.48    0.08
  -4  -4   8    0.43    0.07
   3   4  -8    0.31    0.06
   3   4  -8    0.25    0.06
   3   4  -8    0.38    0.08
   3   4  -8    0.39    0.06
   3   4  -8    0.33    0.06
   3   4  -8    0.19    0.10
  -3  -4   8    0.23    0.07
  -3  -4   8    0.42    0.05
  -3  -4   8    0.28    0.06
  -3  -4   8    0.38    0.06
  -3  -4   8    0.37    0.06
   2   4  -8    2.06    0.11
   2   4  -8    1.92    0.11
   2   4  -8    1.99    0.11
   2   4  -8    1.96    0.14
   2   4  -8    1.83    0.17
  -2  -4   8    1.97    0.10
  -2  -4   8    2.01    0.10
  -2  -4   8    1.86    0.09
  -2  -4   8    1.86    0.12
  -2  -4   8    1.96    0.10
   1   4  -8   -0.05    0.13
   1   4  -8    0.04    0.03
   1   4  -8   -0.03    0.04
   1   4  -8    0.04    0.08
   1   4  -8    0.07    0.04
  -1  -4   8    0.01    0.03
  -1  -4   8   -0.05    0.05
  -1  -4   8    0.00    0.03
  -1  -4   8   -0.04    0.04
  -1  -4   8    0.02    0.03
  -1  -4   8    0.00    0.03
   0   4  -8    3.84    0.13
   0   4  -8    4.26    0.45
   0   4  -8    4.17    0.20
   0   4  -8    4.07    0.14
   0  -4   8    3.80    0.15
   0  -4   8    4.16    0.16
   0  -4   8    4.18    0.14
   0  -4   8    3.96    0.14
  -1   4  -8    0.05    0.07
  -1   4  -8    0.10    0.04
  -1   4  -8    0.12    0.09
   1  -4   8    0.13    0.05
   1  -4   8    0.16    0.04
   1  -4   8    0.11    0.04
   1  -4   8    0.10    0.07
  -2   4  -8    4.37    0.22
  -2   4  -8    4.27    0.20
   2  -4   8    4.18    0.12
   2  -4   8    4.11    0.17
   2  -4   8    4.50    0.17
   2  -4   8    4.23    0.14
   2  -4   8    4.21    0.10
  -3   4  -8    0.68    0.12
  -3   4  -8    0.70    0.10
   3  -4   8    0.70    0.07
   3  -4   8    0.51    0.09
   3  -4   8    0.59    0.08
  -4   4  -8    0.05    0.07
  -4   4  -8    0.06    0.09
   4  -4   8    0.18    0.06
   4  -4   8    0.24    0.07
   4  -4   8    0.07    0.05
  -5   4  -8    0.19    0.10
   5  -4   8    0.37    0.06
   5  -4   8    0.42    0.08
   5  -4   8    0.43    0.09
  -6   4  -8    0.20    0.08
  -6   4  -8    0.03    0.09
   6  -4   8   -0.06    0.04
  -7   4  -8   -0.07    0.07
  -7   4  -8   -0.07    0.10
   7  -4   8   -0.07    0.05
  -8   4  -8    0.22    0.11
   8  -4   8    0.34    0.07
  -9   4  -8    0.15    0.12
   9  -4   8    0.24    0.08
 -10   4  -8    0.23    0.13
  10  -4   8    0.13    0.08
  11  -4   8    0.10    0.08
  12   3  -8    0.10    0.10
 -12  -3   8   -0.06    0.13
  11   3  -8    0.06    0.09
 -11  -3   8    0.00    0.11
  10   3  -8    0.03    0.08
  10   3  -8    0.00    0.05
 -10  -3   8   -0.01    0.10
   9   3  -8    0.78    0.11
   9   3  -8    0.60    0.09
   9   3  -8    0.74    0.13
  -9  -3   8    0.70    0.12
   8   3  -8    0.27    0.08
   8   3  -8    0.47    0.08
   8   3  -8    0.34    0.12
   8   3  -8    0.32    0.10
  -8  -3   8    0.36    0.09
   7   3  -8    0.41    0.09
   7   3  -8    0.38    0.10
   7   3  -8    0.25    0.10
   7   3  -8    0.56    0.09
   7   3  -8    0.36    0.07
  -7  -3   8    0.34    0.08
   6   3  -8    0.73    0.09
   6   3  -8    0.65    0.08
   6   3  -8    0.73    0.10
   6   3  -8    0.54    0.12
   6   3  -8    0.63    0.11
   6   3  -8    0.75    0.07
  -6  -3   8    0.71    0.08
  -6  -3   8    0.56    0.08
  -6  -3   8    0.62    0.09
   5   3  -8    0.20    0.07
   5   3  -8    0.09    0.06
   5   3  -8    0.23    0.17
   5   3  -8    0.17    0.06
   5   3  -8    0.24    0.06
   5   3  -8    0.11    0.10
   5   3  -8    0.23    0.06
  -5  -3   8    0.19    0.06
  -5  -3   8    0.21    0.06
  -5  -3   8    0.16    0.06
   4   3  -8    7.97    0.22
   4   3  -8    7.69    0.44
   4   3  -8    7.73    0.29
   4   3  -8    8.00    0.21
   4   3  -8    7.61    0.20
   4   3  -8    7.79    0.27
  -4  -3   8    7.78    0.21
  -4  -3   8    7.50    0.20
  -4  -3   8    7.46    0.22
  -4  -3   8    7.74    0.20
  -4  -3   8    7.94    0.22
   3   3  -8    9.80    0.31
   3   3  -8    9.75    0.29
   3   3  -8   10.09    0.24
   3   3  -8    9.41    0.23
   3   3  -8   10.09    0.33
  -3  -3   8   10.16    0.24
  -3  -3   8    9.76    0.24
  -3  -3   8    9.85    0.25
  -3  -3   8    9.56    0.24
  -3  -3   8    9.72    0.22
   2   3  -8    0.01    0.04
   2   3  -8    0.06    0.08
   2   3  -8   -0.05    0.05
   2   3  -8    0.02    0.03
   2   3  -8   -0.04    0.04
  -2  -3   8    0.02    0.03
  -2  -3   8    0.01    0.04
  -2  -3   8    0.02    0.03
  -2  -3   8   -0.01    0.03
  -2  -3   8   -0.03    0.03
   1   3  -8    0.00    0.03
   1   3  -8    0.04    0.04
   1   3  -8    0.08    0.12
   1   3  -8   -0.02    0.03
   1   3  -8    0.05    0.08
  -1  -3   8   -0.01    0.05
  -1  -3   8    0.00    0.05
  -1  -3   8    0.05    0.03
  -1  -3   8   -0.02    0.03
  -1  -3   8    0.07    0.04
   0   3  -8    1.58    0.09
   0   3  -8    1.45    0.14
   0   3  -8    1.55    0.15
   0   3  -8    1.51    0.08
   0  -3   8    1.42    0.08
   0  -3   8    1.44    0.10
   0  -3   8    1.51    0.15
   0  -3   8    1.44    0.10
  -1   3  -8    1.74    0.14
  -1   3  -8    1.80    0.15
   1  -3   8    1.62    0.06
   1  -3   8    1.66    0.09
   1  -3   8    1.72    0.11
   1  -3   8    1.72    0.11
  -2   3  -8    0.04    0.08
  -2   3  -8    0.01    0.16
   2  -3   8    0.03    0.03
   2  -3   8    0.03    0.05
   2  -3   8    0.00    0.04
  -3   3  -8    3.31    0.47
  -3   3  -8    2.98    0.19
   3  -3   8    3.29    0.15
   3  -3   8    3.21    0.12
   3  -3   8    3.23    0.17
  -4   3  -8    0.40    0.18
  -4   3  -8    0.31    0.10
   4  -3   8    0.49    0.08
   4  -3   8    0.46    0.09
   4  -3   8    0.45    0.06
  -5   3  -8    0.84    0.14
   5  -3   8    0.77    0.07
   5  -3   8    0.77    0.11
   5  -3   8    0.91    0.11
  -6   3  -8    0.08    0.09
   6  -3   8    0.03    0.07
   6  -3   8    0.03    0.04
  -7   3  -8    0.01    0.11
  -7   3  -8   -0.07    0.07
   7  -3   8    0.01    0.05
  -8   3  -8    0.73    0.14
   8  -3   8    0.86    0.09
  -9   3  -8    0.10    0.11
   9  -3   8    0.14    0.07
 -10   3  -8    0.22    0.13
  10  -3   8    0.22    0.07
  13   2  -8    0.29    0.13
  12   2  -8    0.01    0.10
 -12  -2   8    0.11    0.13
  11   2  -8    0.26    0.07
  11   2  -8    0.12    0.10
 -11  -2   8   -0.01    0.12
  10   2  -8    0.80    0.12
  10   2  -8    0.62    0.12
  10   2  -8    0.31    0.08
 -10  -2   8    0.35    0.12
   9   2  -8    0.15    0.08
   9   2  -8    0.02    0.06
   9   2  -8    0.20    0.08
  -9  -2   8   -0.01    0.08
   8   2  -8    4.06    0.22
   8   2  -8    4.37    0.28
   8   2  -8    4.65    0.20
   8   2  -8    4.87    0.19
  -8  -2   8    4.50    0.20
   7   2  -8   -0.08    0.09
   7   2  -8    0.09    0.06
   7   2  -8    0.05    0.06
   7   2  -8    0.09    0.05
   7   2  -8    0.09    0.16
   7   2  -8   -0.01    0.05
  -7  -2   8    0.06    0.07
  -7  -2   8    0.09    0.06
   6   2  -8    2.94    0.13
   6   2  -8    3.33    0.15
   6   2  -8    3.20    0.20
   6   2  -8    3.24    0.15
   6   2  -8    3.01    0.21
   6   2  -8    3.12    0.16
  -6  -2   8    3.11    0.13
  -6  -2   8    3.45    0.18
  -6  -2   8    2.96    0.15
   5   2  -8    4.91    0.23
   5   2  -8    4.69    0.24
   5   2  -8    4.91    0.23
   5   2  -8    5.13    0.17
   5   2  -8    5.28    0.18
  -5  -2   8    5.01    0.16
  -5  -2   8    5.25    0.17
  -5  -2   8    5.09    0.17
  -5  -2   8    4.99    0.31
   4   2  -8    2.30    0.12
   4   2  -8    2.47    0.16
   4   2  -8    2.13    0.23
   4   2  -8    2.36    0.12
   4   2  -8    2.47    0.12
  -4  -2   8    2.43    0.11
  -4  -2   8    2.38    0.11
  -4  -2   8    2.29    0.11
  -4  -2   8    2.17    0.11
  -4  -2   8    2.33    0.18
   3   2  -8    0.64    0.11
   3   2  -8    0.61    0.13
   3   2  -8    0.61    0.17
   3   2  -8    0.76    0.08
   3   2  -8    0.55    0.07
  -3  -2   8    0.60    0.07
  -3  -2   8    0.70    0.07
  -3  -2   8    0.70    0.07
  -3  -2   8    0.73    0.08
  -3  -2   8    0.59    0.05
   2   2  -8    0.18    0.06
   2   2  -8    0.18    0.05
   2   2  -8    0.19    0.06
   2   2  -8    0.21    0.05
   2   2  -8    0.20    0.08
  -2  -2   8    0.28    0.05
  -2  -2   8    0.31    0.05
  -2  -2   8    0.34    0.06
  -2  -2   8    0.20    0.05
   1   2  -8    1.11    0.12
   1   2  -8    1.09    0.31
   1   2  -8    0.97    0.10
   1   2  -8    1.15    0.08
  -1  -2   8    1.06    0.07
  -1  -2   8    1.06    0.08
  -1  -2   8    0.99    0.09
  -1  -2   8    1.21    0.09
  -1  -2   8    1.13    0.10
   0   2  -8    2.65    0.43
   0   2  -8    2.68    0.11
   0   2  -8    2.74    0.15
   0   2  -8    2.69    0.13
   0  -2   8    2.51    0.08
   0  -2   8    2.64    0.13
   0  -2   8    2.80    0.14
   0  -2   8    2.70    0.08
   0  -2   8    2.70    0.10
  -1   2  -8   11.85    0.34
  -1   2  -8   11.38    0.27
  -1   2  -8   11.99    0.68
   1  -2   8   11.88    0.24
   1  -2   8   11.67    0.29
   1  -2   8   11.54    0.31
  -2   2  -8   16.61    0.42
  -2   2  -8   16.62    0.67
   2  -2   8   16.39    0.40
   2  -2   8   16.94    0.38
   2  -2   8   16.56    0.30
  -3   2  -8   -0.02    0.07
  -3   2  -8    0.22    0.07
   3  -2   8    0.06    0.04
   3  -2   8    0.06    0.05
   3  -2   8    0.15    0.06
  -4   2  -8    3.23    0.22
  -4   2  -8    2.66    0.19
   4  -2   8    2.97    0.15
   4  -2   8    3.03    0.11
   4  -2   8    3.13    0.17
  -5   2  -8    3.87    0.24
   5  -2   8    4.24    0.19
   5  -2   8    4.77    0.23
   5  -2   8    4.54    0.13
  -6   2  -8   -0.10    0.08
   6  -2   8   -0.11    0.07
   6  -2   8    0.02    0.04
  -7   2  -8    0.27    0.33
   7  -2   8    0.30    0.06
  -8   2  -8    0.18    0.10
   8  -2   8    0.05    0.05
  -9   2  -8    0.19    0.11
   9  -2   8    0.03    0.06
  10  -2   8    0.06    0.07
 -13  -1   8   -0.13    0.13
  12   1  -8    0.05    0.06
 -12  -1   8   -0.04    0.12
  11   1  -8    0.60    0.10
 -11  -1   8    0.46    0.13
  10   1  -8    0.44    0.10
  10   1  -8    0.42    0.08
 -10  -1   8    0.38    0.11
   9   1  -8   -0.01    0.06
   9   1  -8    0.02    0.07
  -9  -1   8    0.00    0.08
   8   1  -8    0.59    0.13
   8   1  -8    0.89    0.11
   8   1  -8    0.95    0.12
  -8  -1   8    0.68    0.10
   7   1  -8    3.94    0.15
   7   1  -8    3.77    0.23
   7   1  -8    4.20    0.17
   7   1  -8    4.37    0.25
   7   1  -8    4.09    0.19
  -7  -1   8    4.26    0.19
  -7  -1   8    4.06    0.17
   6   1  -8    0.53    0.08
   6   1  -8    0.55    0.08
   6   1  -8    0.65    0.09
   6   1  -8    0.57    0.11
   6   1  -8    0.53    0.12
  -6  -1   8    0.54    0.08
  -6  -1   8    0.70    0.08
  -6  -1   8    0.71    0.09
  -6  -1   8    0.72    0.08
   5   1  -8    8.51    0.65
   5   1  -8    8.18    0.30
   5   1  -8    8.54    0.23
   5   1  -8    8.18    0.22
   5   1  -8    8.40    0.30
  -5  -1   8    8.65    0.23
  -5  -1   8    8.53    0.21
  -5  -1   8    8.21    0.23
  -5  -1   8    8.39    0.22
  -5  -1   8    8.02    0.22
   4   1  -8    0.70    0.10
   4   1  -8    0.76    0.11
   4   1  -8    0.86    0.15
   4   1  -8    0.71    0.08
   4   1  -8    0.78    0.08
  -4  -1   8    0.85    0.08
  -4  -1   8    0.81    0.08
  -4  -1   8    0.69    0.06
  -4  -1   8    0.77    0.08
  -4  -1   8    0.80    0.08
   3   1  -8    8.23    0.51
   3   1  -8    7.95    0.20
   3   1  -8    7.94    0.22
   3   1  -8    8.65    0.28
  -3  -1   8    7.76    0.22
  -3  -1   8    7.75    0.20
  -3  -1   8    8.20    0.28
  -3  -1   8    8.21    0.14
  -3  -1   8    7.87    0.23
   2   1  -8    3.19    0.17
   2   1  -8    3.13    0.13
   2   1  -8    3.24    0.20
   2   1  -8    3.17    0.12
  -2  -1   8    3.11    0.14
  -2  -1   8    3.28    0.12
  -2  -1   8    3.12    0.11
  -2  -1   8    2.89    0.13
   1   1  -8    2.25    0.13
   1   1  -8    2.41    0.10
   1   1  -8    2.49    0.15
   1   1  -8    2.44    0.19
  -1  -1   8    2.41    0.10
  -1  -1   8    2.25    0.09
  -1  -1   8    2.51    0.13
  -1  -1   8    2.58    0.13
  -1  -1   8    2.17    0.08
   0   1  -8    2.43    0.21
   0   1  -8    1.91    0.14
   0   1  -8    2.07    0.17
   0  -1   8    2.09    0.12
   0  -1   8    2.00    0.09
   0  -1   8    2.06    0.13
  -1   1  -8    4.72    0.19
  -1   1  -8    4.80    0.38
  -1   1  -8    4.35    0.17
   1  -1   8    4.56    0.13
   1  -1   8    4.33    0.19
   1  -1   8    4.42    0.17
  -2   1  -8    1.44    0.14
  -2   1  -8    1.56    0.17
   2  -1   8    1.38    0.08
   2  -1   8    1.48    0.12
   2  -1   8    1.39    0.11
  -3   1  -8    0.17    0.08
  -3   1  -8    0.25    0.07
   3  -1   8    0.20    0.07
   3  -1   8    0.18    0.04
   3  -1   8    0.25    0.07
  -4   1  -8    0.56    0.08
  -4   1  -8    0.54    0.11
   4  -1   8    0.59    0.26
   4  -1   8    0.54    0.05
   4  -1   8    0.69    0.11
  -5   1  -8   -0.06    0.13
   5  -1   8    0.06    0.07
   5  -1   8   -0.06    0.03
   5  -1   8   -0.02    0.06
  -6   1  -8   -0.19    0.08
   6  -1   8    0.11    0.04
   6  -1   8    0.14    0.09
  -7   1  -8    0.25    0.12
   7  -1   8    0.28    0.11
   7  -1   8    0.31    0.06
  -8   1  -8    1.41    0.18
   8  -1   8    1.29    0.10
   9  -1   8    0.03    0.06
 -13   0   8    0.18    0.14
  12   0  -8    0.16    0.08
 -12   0   8    0.15    0.12
  11   0  -8   -0.01    0.07
 -11   0   8    0.03    0.11
  10   0  -8    0.05    0.06
 -10   0   8   -0.01    0.09
   9   0  -8    0.25    0.08
  -9   0   8    0.05    0.08
   8   0  -8    3.05    0.25
   8   0  -8    3.65    0.18
   8   0  -8    3.28    0.15
  -8   0   8    3.93    0.19
  -8   0   8    3.28    0.17
   7   0  -8    0.04    0.05
   7   0  -8   -0.08    0.10
   7   0  -8    0.15    0.07
   7   0  -8   -0.09    0.08
  -7   0   8   -0.05    0.06
  -7   0   8    0.01    0.05
   6   0  -8    1.34    0.12
   6   0  -8    1.47    0.11
   6   0  -8    1.29    0.15
   6   0  -8    1.68    0.17
  -6   0   8    1.46    0.11
  -6   0   8    1.35    0.10
  -6   0   8    1.45    0.10
  -6   0   8    1.37    0.12
   5   0  -8    0.21    0.10
   5   0  -8    0.44    0.08
   5   0  -8    0.48    0.07
   5   0  -8    0.50    0.10
  -5   0   8    0.47    0.07
  -5   0   8    0.47    0.08
  -5   0   8    0.41    0.06
  -5   0   8    0.49    0.07
  -5   0   8    0.48    0.07
  -5   0   8    0.44    0.07
   4   0  -8    2.50    0.12
   4   0  -8    2.54    0.14
   4   0  -8    2.50    0.13
   4   0  -8    2.51    0.21
   4   0  -8    2.65    0.20
  -4   0   8    2.54    0.12
  -4   0   8    2.55    0.12
  -4   0   8    2.52    0.12
  -4   0   8    2.65    0.14
  -4   0   8    2.55    0.08
  -4   0   8    2.58    0.12
   3   0  -8    1.08    0.09
   3   0  -8    1.08    0.07
   3   0  -8    0.99    0.23
   3   0  -8    0.97    0.15
  -3   0   8    1.00    0.08
  -3   0   8    1.05    0.10
  -3   0   8    0.85    0.08
  -3   0   8    1.00    0.09
   2   0  -8    3.58    0.13
   2   0  -8    3.40    0.12
   2   0  -8    3.42    0.20
   2   0  -8    3.57    0.18
  -2   0   8    3.83    0.21
  -2   0   8    3.60    0.13
  -2   0   8    3.59    0.16
  -2   0   8    3.59    0.15
   1   0  -8    0.89    0.10
   1   0  -8    0.96    0.11
   1   0  -8    0.88    0.09
  -1   0   8    1.01    0.09
  -1   0   8    0.86    0.10
  -1   0   8    0.84    0.07
   0   0  -8    0.09    0.06
   0   0  -8    0.17    0.06
   0   0  -8    0.02    0.06
   0   0   8    0.11    0.05
   0   0   8    0.06    0.03
   0   0   8    0.02    0.04
  -1   0  -8    4.41    0.18
  -1   0  -8    4.61    0.20
  -1   0  -8    4.37    0.24
   1   0   8    4.36    0.13
   1   0   8    4.83    0.19
   1   0   8    4.52    0.19
  -2   0  -8    1.09    0.12
  -2   0  -8    1.35    0.13
   2   0   8    1.17    0.12
   2   0   8    1.15    0.07
   2   0   8    1.14    0.12
  -3   0  -8    3.37    0.17
  -3   0  -8    2.91    0.18
   3   0   8    3.27    0.17
   3   0   8    3.02    0.10
   3   0   8    2.97    0.18
  -4   0  -8    1.33    0.12
  -4   0  -8    0.83    0.13
   4   0   8    0.96    0.13
   4   0   8    1.05    0.07
   4   0   8    1.21    0.13
  -5   0  -8    0.08    0.09
   5   0   8    0.02    0.03
   5   0   8    0.02    0.07
  -6   0  -8    0.20    0.12
   6   0   8    0.70    0.13
   7   0   8    0.11    0.10
   9   0   8   -0.11    0.05
 -13   1   8    0.02    0.12
  12  -1  -8    0.06    0.07
 -12   1   8    0.15    0.12
  11  -1  -8    0.03    0.07
 -11   1   8   -0.10    0.10
  10  -1  -8    0.67    0.11
 -10   1   8    0.59    0.12
   9  -1  -8    2.33    0.16
   9  -1  -8    2.19    0.13
  -9   1   8    2.20    0.16
  -9   1   8    2.38    0.17
  -9   1   8    2.11    0.17
   8  -1  -8    0.43    0.08
   8  -1  -8    0.07    0.11
   8  -1  -8    0.34    0.08
  -8   1   8    0.42    0.08
  -8   1   8    0.34    0.08
  -8   1   8    0.45    0.09
   7  -1  -8    0.26    0.07
   7  -1  -8    0.11    0.10
   7  -1  -8    0.22    0.07
   7  -1  -8    0.31    0.10
  -7   1   8    0.28    0.07
  -7   1   8    0.21    0.07
  -7   1   8    0.29    0.07
  -7   1   8    0.17    0.07
   6  -1  -8    0.54    0.08
   6  -1  -8    0.50    0.08
   6  -1  -8    0.37    0.12
   6  -1  -8    0.58    0.10
  -6   1   8    0.58    0.08
  -6   1   8    0.60    0.08
  -6   1   8    0.46    0.07
  -6   1   8    0.54    0.07
  -6   1   8    0.41    0.07
   5  -1  -8    1.52    0.14
   5  -1  -8    1.46    0.11
   5  -1  -8    1.47    0.12
   5  -1  -8    1.43    0.16
  -5   1   8    1.40    0.10
  -5   1   8    1.54    0.08
  -5   1   8    1.44    0.12
  -5   1   8    1.54    0.14
  -5   1   8    1.69    0.11
   4  -1  -8    0.95    0.17
   4  -1  -8    0.90    0.22
   4  -1  -8    0.88    0.09
  -4   1   8    0.95    0.09
  -4   1   8    0.96    0.10
  -4   1   8    0.96    0.11
  -4   1   8    1.02    0.09
   3  -1  -8   54.28    1.55
   3  -1  -8   54.80    0.85
   3  -1  -8   54.35    1.11
  -3   1   8   56.15    1.12
  -3   1   8   54.58    0.98
  -3   1   8   53.96    0.85
  -3   1   8   53.97    0.93
   2  -1  -8   47.00    0.90
   2  -1  -8   46.19    0.97
  -2   1   8   47.04    0.83
  -2   1   8   47.23    0.74
  -2   1   8   46.93    0.87
   1  -1  -8    4.75    0.21
   1  -1  -8    4.79    0.23
  -1   1   8    4.65    0.20
  -1   1   8    4.85    0.15
  -1   1   8    4.95    0.19
   0  -1  -8    2.31    0.15
   0  -1  -8    2.38    0.21
   0   1   8    2.16    0.15
   0   1   8    2.31    0.23
   0   1   8    2.26    0.10
  -1  -1  -8    3.17    0.17
  -1  -1  -8    3.17    0.17
   1   1   8    3.19    0.11
   1   1   8    3.40    0.18
   1   1   8    3.17    0.16
  -2  -1  -8    3.23    0.18
   2   1   8    3.47    0.19
   2   1   8    3.36    0.17
   2   1   8    3.23    0.10
   3   1   8    0.32    0.09
   3   1   8    0.32    0.09
   3   1   8    0.33    0.04
   4   1   8    7.45    0.30
   5   1   8    0.46    0.11
   6   1   8    0.01    0.08
 -13   2   8    0.02    0.12
  12  -2  -8    0.18    0.08
 -12   2   8    0.17    0.11
  11  -2  -8    0.93    0.13
 -11   2   8    0.93    0.14
  10  -2  -8    2.09    0.17
 -10   2   8    1.45    0.14
   9  -2  -8    0.85    0.11
   9  -2  -8    0.72    0.10
  -9   2   8    0.75    0.11
  -9   2   8    0.86    0.11
   8  -2  -8    0.15    0.07
   8  -2  -8    0.09    0.11
   8  -2  -8    0.17    0.07
  -8   2   8    0.18    0.07
  -8   2   8    0.14    0.07
  -8   2   8    0.19    0.07
   7  -2  -8    0.00    0.05
   7  -2  -8   -0.18    0.09
   7  -2  -8    0.06    0.07
   7  -2  -8    0.04    0.07
  -7   2   8   -0.06    0.05
  -7   2   8    0.04    0.06
  -7   2   8   -0.04    0.05
   6  -2  -8    2.40    0.15
   6  -2  -8    2.12    0.24
   6  -2  -8    2.38    0.14
   6  -2  -8    2.93    0.22
  -6   2   8    2.57    0.14
  -6   2   8    2.40    0.15
  -6   2   8    2.65    0.13
  -6   2   8    2.46    0.38
  -6   2   8    2.56    0.10
   5  -2  -8    0.89    0.29
   5  -2  -8    1.31    0.12
   5  -2  -8    1.28    0.33
  -5   2   8    1.33    0.15
  -5   2   8    1.28    0.11
  -5   2   8    1.20    0.10
  -5   2   8    1.12    0.10
   4  -2  -8    0.53    0.09
   4  -2  -8    0.33    0.12
   4  -2  -8    0.50    0.08
  -4   2   8    0.62    0.09
  -4   2   8    0.51    0.07
  -4   2   8    0.43    0.08
  -4   2   8    0.44    0.06
   3  -2  -8    8.75    0.29
   3  -2  -8    8.89    0.22
   3  -2  -8    8.75    0.34
  -3   2   8    9.43    0.27
  -3   2   8    9.25    0.30
  -3   2   8    9.22    0.23
  -3   2   8    9.32    0.20
   2  -2  -8    0.04    0.05
   2  -2  -8   -0.06    0.08
  -2   2   8    0.23    0.07
  -2   2   8    0.04    0.04
  -2   2   8    0.01    0.05
   1  -2  -8   -0.03    0.05
   1  -2  -8   -0.01    0.07
  -1   2   8   -0.03    0.05
  -1   2   8   -0.05    0.05
  -1   2   8    0.05    0.04
   0  -2  -8    0.13    0.07
   0   2   8    0.13    0.06
   0   2   8    0.15    0.04
   0   2   8    0.16    0.07
  -1  -2  -8    0.17    0.09
   1   2   8    0.11    0.04
   1   2   8    0.09    0.06
   1   2   8    0.08    0.06
   2   2   8    0.30    0.09
   2   2   8    0.38    0.05
   3   2   8    5.47    0.26
   3   2   8    5.28    0.13
   4   2   8   -0.09    0.07
   5   2   8    0.79    0.14
   6   2   8   -0.02    0.09
 -13   3   8    0.20    0.12
  12  -3  -8    0.01    0.08
 -12   3   8   -0.06    0.10
  11  -3  -8    0.20    0.09
 -11   3   8    0.21    0.10
  10  -3  -8    0.08    0.08
  10  -3  -8    0.07    0.08
 -10   3   8    0.01    0.19
 -10   3   8    0.02    0.08
   9  -3  -8    0.66    0.10
   9  -3  -8    0.65    0.11
  -9   3   8    0.72    0.12
  -9   3   8    0.73    0.12
  -9   3   8    0.80    0.11
   8  -3  -8    1.42    0.14
   8  -3  -8    1.33    0.13
  -8   3   8    1.65    0.15
  -8   3   8    1.44    0.14
  -8   3   8    1.37    0.12
   7  -3  -8    2.14    0.23
   7  -3  -8    2.49    0.16
  -7   3   8    2.12    0.10
  -7   3   8    2.43    0.19
  -7   3   8    2.10    0.15
   6  -3  -8    2.30    0.44
   6  -3  -8    2.00    0.15
   6  -3  -8    2.05    0.24
  -6   3   8    2.14    0.15
  -6   3   8    2.24    0.13
  -6   3   8    2.53    0.14
   5  -3  -8    0.61    0.09
   5  -3  -8    0.72    0.15
   5  -3  -8    0.74    0.11
  -5   3   8    0.59    0.07
  -5   3   8    0.75    0.10
  -5   3   8    0.62    0.08
  -5   3   8    0.64    0.10
   4  -3  -8    0.56    0.13
   4  -3  -8    0.76    0.09
   4  -3  -8    0.77    0.11
  -4   3   8    0.72    0.09
  -4   3   8    0.79    0.10
  -4   3   8    0.77    0.07
  -4   3   8    0.79    0.11
   3  -3  -8    0.87    0.26
  -3   3   8    1.03    0.12
  -3   3   8    1.12    0.10
  -3   3   8    0.98    0.12
   2  -3  -8    2.74    0.21
  -2   3   8    2.49    0.15
  -2   3   8    2.71    0.17
  -2   3   8    2.56    0.12
   1  -3  -8    1.69    0.17
  -1   3   8    1.63    0.14
  -1   3   8    1.68    0.10
   0  -3  -8    2.28    0.19
   0   3   8    2.31    0.16
   0   3   8    2.21    0.10
  -1  -3  -8    0.40    0.17
   1   3   8    0.39    0.10
   1   3   8    0.42    0.06
   2   3   8    0.13    0.04
   2   3   8   -0.11    0.07
   3   3   8   -0.01    0.08
   3   3   8    0.09    0.04
   4   3   8    0.40    0.12
   5   3   8    0.04    0.09
 -13   4   8    0.02    0.11
 -12   4   8    0.13    0.10
  11  -4  -8    0.46    0.11
 -11   4   8    0.34    0.10
 -11   4   8    0.23    0.19
  10  -4  -8    0.09    0.08
  10  -4  -8    0.30    0.09
 -10   4   8    0.16    0.09
 -10   4   8    0.17    0.09
 -10   4   8    0.06    0.10
   9  -4  -8    0.41    0.10
   9  -4  -8    0.31    0.09
  -9   4   8    0.32    0.09
  -9   4   8    0.41    0.08
  -9   4   8    0.30    0.10
   8  -4  -8    0.76    0.11
  -8   4   8    0.79    0.12
  -8   4   8    0.61    0.10
   7  -4  -8    1.61    0.15
  -7   4   8    1.76    0.16
  -7   4   8    1.92    0.14
  -7   4   8    1.77    0.16
   6  -4  -8    1.52    0.21
   6  -4  -8    2.16    0.16
  -6   4   8    2.05    0.13
  -6   4   8    2.17    0.14
  -6   4   8    2.11    0.16
   5  -4  -8    0.00    0.12
   5  -4  -8    0.20    0.08
  -5   4   8    0.16    0.06
  -5   4   8    0.17    0.05
  -5   4   8    0.14    0.07
   4  -4  -8    0.26    0.07
   4  -4  -8    0.23    0.12
  -4   4   8    0.25    0.08
  -4   4   8    0.17    0.06
   3  -4  -8    0.10    0.11
  -3   4   8    0.06    0.06
  -3   4   8    0.01    0.04
   2  -4  -8   -0.04    0.08
  -2   4   8    0.04    0.04
  -2   4   8    0.10    0.06
   1  -4  -8    2.12    0.36
  -1   4   8    2.24    0.17
  -1   4   8    2.58    0.12
   0  -4  -8    4.80    0.26
   0   4   8    4.66    0.24
   0   4   8    4.42    0.15
  -1  -4  -8    0.70    0.15
   1   4   8    0.31    0.10
   1   4   8    0.32    0.05
   2   4   8    0.07    0.04
   2   4   8    0.14    0.09
   3   4   8    1.79    0.09
   3   4   8    1.94    0.20
   4   4   8    0.30    0.12
 -13   5   8    0.39    0.12
 -12   5   8    0.01    0.10
  11  -5  -8   -0.01    0.09
  11  -5  -8   -0.10    0.08
 -11   5   8   -0.16    0.08
 -11   5   8    0.00    0.09
 -11   5   8   -0.09    0.08
  10  -5  -8    0.10    0.08
  10  -5  -8    0.08    0.10
 -10   5   8   -0.04    0.07
 -10   5   8    0.09    0.09
   9  -5  -8    0.40    0.11
  -9   5   8    0.37    0.11
  -9   5   8    0.46    0.10
   8  -5  -8    0.94    0.12
  -8   5   8    1.18    0.15
  -8   5   8    1.25    0.13
   7  -5  -8    2.14    0.17
  -7   5   8    2.17    0.15
  -7   5   8    2.23    0.15
  -7   5   8    2.00    0.17
   6  -5  -8   -0.05    0.07
  -6   5   8   -0.04    0.05
  -6   5   8    0.06    0.07
  -6   5   8    0.04    0.06
   5  -5  -8    2.58    0.16
  -5   5   8    2.66    0.15
  -5   5   8    2.88    0.12
  -5   5   8    2.41    0.18
   4  -5  -8    0.03    0.24
  -4   5   8    0.28    0.07
  -4   5   8    0.51    0.10
   3  -5  -8    2.04    0.24
  -3   5   8    2.12    0.13
  -3   5   8    1.67    0.16
   2  -5  -8   -0.03    0.09
  -2   5   8    0.18    0.06
  -2   5   8    0.08    0.07
   1  -5  -8    0.26    0.14
  -1   5   8    0.20    0.06
  -1   5   8    0.23    0.09
   0   5   8   -0.03    0.07
   0   5   8    0.02    0.05
   1   5   8    0.86    0.08
   1   5   8    0.73    0.14
   2   5   8    0.41    0.06
   2   5   8    0.31    0.11
   3   5   8    0.33    0.06
   3   5   8    0.51    0.13
  11  -6  -8    0.26    0.11
  11  -6  -8    0.38    0.11
 -11   6   8    0.56    0.14
 -11   6   8    0.56    0.12
  10  -6  -8    0.92    0.14
 -10   6   8    0.61    0.14
 -10   6   8    0.65    0.12
   9  -6  -8    0.16    0.10
  -9   6   8   -0.06    0.08
  -9   6   8    0.09    0.08
   8  -6  -8    0.07    0.10
  -8   6   8    0.38    0.11
  -8   6   8    0.35    0.09
   7  -6  -8    0.14    0.10
  -7   6   8    0.06    0.06
  -7   6   8    0.15    0.09
  -7   6   8    0.18    0.07
   6  -6  -8   -0.19    0.08
  -6   6   8    0.08    0.07
  -6   6   8    0.08    0.05
  -6   6   8    0.04    0.07
   5  -6  -8    0.10    0.09
  -5   6   8    0.12    0.06
  -5   6   8    0.12    0.09
  -4   6   8    0.95    0.14
  -4   6   8    1.24    0.13
  -3   6   8    0.19    0.09
  -3   6   8    0.21    0.07
  -2   6   8    0.08    0.06
  -2   6   8    0.01    0.07
  -1   6   8   -0.03    0.05
  -1   6   8   -0.04    0.08
   0   6   8    0.29    0.11
   0   6   8    0.41    0.08
   1   6   8    0.12    0.10
   1   6   8    0.00    0.05
   2   6   8    0.44    0.07
   2   6   8    0.38    0.12
   3   6   8   -0.03    0.04
 -12   7   8   -0.03    0.10
  11  -7  -8    0.03    0.11
 -11   7   8    0.07    0.10
  10  -7  -8    0.13    0.11
 -10   7   8   -0.01    0.10
   9  -7  -8    0.23    0.12
  -9   7   8    0.06    0.08
  -9   7   8    0.00    0.09
   8  -7  -8   -0.10    0.10
  -8   7   8   -0.07    0.07
  -8   7   8   -0.03    0.07
   7  -7  -8    0.33    0.11
  -7   7   8    0.25    0.09
  -7   7   8    0.33    0.09
  -7   7   8    0.46    0.08
   6  -7  -8    0.11    0.09
  -6   7   8    0.10    0.09
  -6   7   8    0.08    0.07
  -5   7   8    0.02    0.16
  -5   7   8    0.04    0.07
  -4   7   8   -0.02    0.07
  -4   7   8    0.06    0.06
  -3   7   8    0.38    0.09
  -3   7   8    0.48    0.12
  -2   7   8    0.62    0.09
  -2   7   8    0.69    0.14
  -1   7   8    0.16    0.07
  -1   7   8    0.12    0.10
   0   7   8    0.01    0.05
   0   7   8   -0.07    0.08
   1   7   8   -0.06    0.10
   1   7   8    0.06    0.06
   2   7   8    0.03    0.05
   3   7   8    0.02    0.05
  11  -8  -8    0.05    0.11
 -11   8   8   -0.08    0.09
  10  -8  -8    0.01    0.11
 -10   8   8   -0.06    0.09
   9  -8  -8   -0.01    0.11
  -9   8   8    0.17    0.10
   8  -8  -8    0.16    0.12
  -8   8   8    0.21    0.11
  -8   8   8    0.13    0.08
   7  -8  -8    0.08    0.12
  -7   8   8    0.01    0.08
  -7   8   8   -0.01    0.09
   6  -8  -8   -0.21    0.10
  -6   8   8   -0.04    0.07
  -6   8   8    0.14    0.09
  -5   8   8    0.36    0.12
  -5   8   8    0.48    0.11
  -4   8   8    0.79    0.15
  -4   8   8    1.15    0.14
  -3   8   8    0.07    0.07
  -3   8   8    0.04    0.09
  -2   8   8    0.89    0.11
  -2   8   8    1.04    0.17
  -1   8   8    1.09    0.12
  -1   8   8    1.26    0.19
   0   8   8    0.14    0.07
   0   8   8    0.10    0.11
   1   8   8   -0.03    0.10
   1   8   8    0.06    0.06
  10  -9  -8   -0.11    0.11
 -10   9   8    0.12    0.10
   9  -9  -8    0.00    0.12
  -9   9   8   -0.12    0.08
   8  -9  -8    0.14    0.13
  -8   9   8    0.07    0.10
   7  -9  -8    1.09    0.16
  -7   9   8    1.06    0.15
  -7   9   8    0.82    0.17
   6  -9  -8    0.20    0.13
  -6   9   8    0.28    0.10
  -6   9   8    0.21    0.15
  -5   9   8    0.73    0.13
  -5   9   8    0.56    0.14
  -4   9   8    0.00    0.09
  -4   9   8   -0.08    0.07
  -3   9   8    0.52    0.11
  -3   9   8    0.40    0.14
  -2   9   8    0.07    0.11
  -2   9   8    0.19    0.09
  -1   9   8    0.05    0.11
  -1   9   8    0.02    0.06
   7 -10  -8   -0.17    0.12
  -7  10   8    0.03    0.27
  -7  10   8   -0.01    0.09
  -6  10   8   -0.01    0.08
  -6  10   8    0.12    0.10
  -5  10   8    0.00    0.10
  -5  10   8    0.01    0.08
  -4  10   8    0.06    0.11
  -4  10   8    0.06    0.09
  -1 -15   9    0.28    0.13
   0 -15   9    0.48    0.13
   1 -15   9   -0.02    0.11
   2 -15   9    0.24    0.11
   3 -15   9    0.85    0.14
   4 -15   9    1.93    0.18
  -6  15  -9   -0.22    0.17
  -7  15  -9    0.11    0.11
  -7  15  -9   -0.16    0.16
  -3 -14   9    0.32    0.14
  -2 -14   9    0.78    0.15
  -1 -14   9    0.53    0.13
   0 -14   9    0.38    0.12
  -1  14  -9    0.80    0.13
   1 -14   9    0.70    0.13
  -2  14  -9    0.42    0.11
   2 -14   9    0.44    0.11
  -3  14  -9    1.11    0.14
   3 -14   9    0.85    0.13
  -4  14  -9   -0.09    0.08
   4 -14   9    0.01    0.09
   4 -14   9   -0.02    0.08
  -5  14  -9   -0.04    0.15
  -5  14  -9   -0.11    0.09
  -5  14  -9   -0.03    0.08
   5 -14   9    0.08    0.14
  -6  14  -9    1.62    0.25
  -6  14  -9    1.43    0.15
   6 -14   9    1.03    0.20
   6 -14   9    1.03    0.20
  -7  14  -9    0.08    0.10
  -7  14  -9    0.22    0.19
  -8  14  -9   -0.01    0.11
  -8  14  -9   -0.34    0.16
   4  13  -9   -0.02    0.09
  -4 -13   9    0.14    0.12
   3  13  -9    0.08    0.10
  -3 -13   9    0.22    0.12
   2  13  -9    0.68    0.10
  -2 -13   9    0.63    0.14
   1  13  -9    0.25    0.08
  -1 -13   9    0.47    0.12
   0  13  -9    1.29    0.14
   0 -13   9    1.01    0.14
  -1  13  -9    0.25    0.09
   1 -13   9    0.04    0.10
  -2  13  -9    0.39    0.11
   2 -13   9    0.45    0.11
  -3  13  -9    0.20    0.09
  -3  13  -9    0.25    0.08
   3 -13   9    0.40    0.10
   3 -13   9    0.21    0.23
  -4  13  -9    0.13    0.09
  -4  13  -9    0.34    0.10
  -4  13  -9    0.15    0.14
   4 -13   9    0.14    0.08
   4 -13   9    0.15    0.21
  -5  13  -9    2.42    0.17
  -5  13  -9    2.21    0.25
   5 -13   9    2.06    0.23
  -6  13  -9    1.88    0.25
  -6  13  -9    1.67    0.16
   6 -13   9    1.37    0.20
   6 -13   9    2.27    0.18
  -7  13  -9   -0.12    0.16
  -7  13  -9    0.02    0.09
   7 -13   9    0.15    0.09
  -8  13  -9    0.02    0.17
  -8  13  -9    0.13    0.11
  -9  13  -9    0.08    0.18
  -9  13  -9    0.12    0.11
   6  12  -9   -0.04    0.09
  -6 -12   9    0.05    0.12
   5  12  -9    0.55    0.13
  -5 -12   9    0.43    0.14
   4  12  -9    0.24    0.10
  -4 -12   9   -0.07    0.11
   3  12  -9    0.33    0.08
   3  12  -9    0.43    0.11
  -3 -12   9    0.54    0.13
   2  12  -9    0.02    0.10
  -2 -12   9    0.09    0.10
   1  12  -9    2.94    0.22
  -1 -12   9    2.57    0.20
   0  12  -9    2.50    0.17
   0 -12   9    2.22    0.17
  -1  12  -9    0.00    0.07
  -1  12  -9   -0.02    0.08
   1 -12   9   -0.17    0.08
  -2  12  -9    1.31    0.12
  -2  12  -9    1.21    0.14
  -2  12  -9    1.25    0.50
   2 -12   9    1.20    0.12
   2 -12   9    1.13    0.14
  -3  12  -9    1.46    0.61
  -3  12  -9    1.73    0.16
  -3  12  -9    1.38    0.13
  -3  12  -9    1.54    0.19
   3 -12   9    1.55    0.14
   3 -12   9    1.52    0.15
  -4  12  -9    0.03    0.08
  -4  12  -9    0.19    0.13
  -4  12  -9    0.22    0.08
   4 -12   9    0.21    0.07
   4 -12   9    0.38    0.09
  -5  12  -9    0.03    0.08
  -5  12  -9    0.03    0.13
   5 -12   9    0.16    0.12
   5 -12   9    0.19    0.08
  -6  12  -9    0.25    0.10
  -6  12  -9    0.14    0.15
   6 -12   9    0.34    0.10
   6 -12   9    0.57    0.14
  -7  12  -9    0.10    0.15
  -7  12  -9    0.13    0.10
   7 -12   9    0.14    0.08
  -8  12  -9   -0.03    0.10
  -8  12  -9    0.28    0.16
   8 -12   9   -0.04    0.07
  -9  12  -9    0.09    0.12
  -9  12  -9    0.10    0.17
 -10  12  -9   -0.10    0.11
 -10  12  -9    0.09    0.16
   7  11  -9   -0.06    0.09
   6  11  -9    0.09    0.09
  -6 -11   9    0.11    0.12
   5  11  -9   -0.01    0.08
  -5 -11   9   -0.02    0.10
   4  11  -9   -0.06    0.05
   4  11  -9    0.09    0.08
  -4 -11   9    0.12    0.11
   3  11  -9    0.12    0.07
   3  11  -9    0.24    0.09
  -3 -11   9    0.03    0.10
   2  11  -9    0.18    0.07
  -2 -11   9    0.16    0.09
   1  11  -9    1.33    0.18
   1  11  -9    1.31    0.13
  -1 -11   9    1.18    0.13
   0  11  -9    0.26    0.08
   0  11  -9    0.54    0.13
   0 -11   9    0.29    0.09
  -1  11  -9    0.43    0.12
  -1  11  -9    0.22    0.06
  -1  11  -9    0.31    0.08
   1 -11   9    0.19    0.08
   1 -11   9    0.29    0.08
  -2  11  -9   -0.01    0.09
  -2  11  -9    0.12    0.24
  -2  11  -9    0.00    0.06
  -2  11  -9    0.00    0.05
   2 -11   9    0.01    0.05
   2 -11   9    0.00    0.06
  -3  11  -9    0.05    0.06
  -3  11  -9    0.49    0.13
  -3  11  -9    0.27    0.07
  -3  11  -9    0.42    0.15
   3 -11   9    0.23    0.07
   3 -11   9    0.17    0.07
  -4  11  -9   -0.08    0.10
  -4  11  -9    0.03    0.07
  -4  11  -9    0.07    0.33
   4 -11   9   -0.10    0.10
   4 -11   9   -0.01    0.06
  -5  11  -9    0.55    0.15
  -5  11  -9    0.57    0.17
  -5  11  -9    0.57    0.10
   5 -11   9    0.71    0.10
   5 -11   9    0.67    0.14
  -6  11  -9   -0.08    0.08
  -6  11  -9    0.19    0.14
   6 -11   9    0.00    0.06
   6 -11   9   -0.01    0.09
  -7  11  -9   -0.03    0.09
  -7  11  -9   -0.27    0.11
   7 -11   9    0.01    0.06
  -8  11  -9    0.32    0.12
  -8  11  -9    0.18    0.15
   8 -11   9    0.32    0.10
   8 -11   9    0.31    0.07
  -9  11  -9    0.63    0.14
  -9  11  -9    0.93    0.20
   9 -11   9    0.79    0.14
 -10  11  -9    0.42    0.19
 -10  11  -9    0.86    0.15
  10 -11   9    0.49    0.12
   8  10  -9    0.03    0.10
   7  10  -9    0.14    0.10
  -7 -10   9    0.12    0.12
   6  10  -9    0.00    0.08
  -6 -10   9    0.13    0.11
   5  10  -9    0.16    0.06
   5  10  -9    0.13    0.09
  -5 -10   9    0.29    0.11
   4  10  -9    1.33    0.13
   4  10  -9    1.57    0.15
  -4 -10   9    1.27    0.15
   3  10  -9    0.59    0.09
   3  10  -9    0.55    0.10
   3  10  -9    0.74    0.13
  -3 -10   9    0.65    0.11
   2  10  -9    0.17    0.09
   2  10  -9   -0.03    0.08
  -2 -10   9    0.00    0.08
   1  10  -9    1.91    0.19
   1  10  -9    2.06    0.20
  -1 -10   9    1.95    0.15
   0  10  -9    0.28    0.11
   0  10  -9    0.17    0.08
   0  10  -9    0.17    0.06
   0  10  -9    0.13    0.08
   0 -10   9    0.13    0.07
   0 -10   9    0.15    0.07
  -1  10  -9    1.09    0.11
  -1  10  -9    0.97    0.10
  -1  10  -9    0.89    0.36
   1 -10   9    0.96    0.10
   1 -10   9    0.97    0.11
  -2  10  -9    4.65    0.20
  -2  10  -9    4.40    0.17
  -2  10  -9    4.84    0.77
  -2  10  -9    4.37    0.23
   2 -10   9    4.48    0.17
   2 -10   9    4.20    0.19
  -3  10  -9    0.37    0.14
  -3  10  -9    0.31    0.08
  -3  10  -9    0.26    0.10
  -3  10  -9    0.40    0.08
   3 -10   9    0.39    0.07
   3 -10   9    0.44    0.12
   3 -10   9    0.45    0.09
  -4  10  -9    0.52    0.12
  -4  10  -9    0.68    0.10
  -4  10  -9    0.57    0.16
   4 -10   9    0.46    0.12
   4 -10   9    0.66    0.10
  -5  10  -9    1.53    0.18
  -5  10  -9    1.61    0.14
  -5  10  -9    1.60    0.23
   5 -10   9    1.58    0.15
   5 -10   9    1.63    0.17
   5 -10   9    1.77    0.13
  -6  10  -9    2.54    0.24
  -6  10  -9    2.61    0.73
  -6  10  -9    2.69    0.17
   6 -10   9    2.88    0.15
   6 -10   9    2.58    0.19
   6 -10   9    2.63    0.18
  -7  10  -9    1.21    0.14
  -7  10  -9    1.10    0.18
   7 -10   9    1.31    0.12
   7 -10   9    1.13    0.14
  -8  10  -9    0.38    0.11
  -8  10  -9    0.11    0.13
   8 -10   9    0.21    0.09
  -9  10  -9    0.19    0.11
  -9  10  -9    0.35    0.15
   9 -10   9    0.21    0.10
 -10  10  -9    0.11    0.16
  10 -10   9    0.06    0.09
  11 -10   9    0.06    0.09
   9   9  -9   -0.13    0.10
   8   9  -9   -0.07    0.09
  -8  -9   9   -0.08    0.11
   7   9  -9    0.21    0.10
  -7  -9   9    0.04    0.10
   6   9  -9    0.06    0.08
   6   9  -9    0.09    0.06
  -6  -9   9    0.13    0.10
   5   9  -9    0.18    0.08
   5   9  -9    0.03    0.06
  -5  -9   9    0.13    0.09
   4   9  -9    0.61    0.09
   4   9  -9    0.70    0.11
   4   9  -9    0.69    0.12
  -4  -9   9    0.49    0.10
   3   9  -9    0.02    0.06
   3   9  -9    0.34    0.08
   3   9  -9    0.02    0.06
  -3  -9   9    0.18    0.08
   2   9  -9    1.61    0.13
   2   9  -9    1.56    0.29
  -2  -9   9    1.35    0.13
   1   9  -9    0.30    0.11
   1   9  -9    0.19    0.06
   1   9  -9    0.22    0.07
  -1  -9   9    0.20    0.07
  -1  -9   9    0.23    0.07
   0   9  -9    0.12    0.06
   0   9  -9    0.05    0.06
   0   9  -9    0.15    0.11
   0  -9   9    0.19    0.07
   0  -9   9    0.15    0.07
  -1   9  -9    0.02    0.05
  -1   9  -9    0.09    0.25
  -1   9  -9    0.13    0.08
  -1   9  -9    0.04    0.05
   1  -9   9   -0.02    0.04
   1  -9   9    0.01    0.06
   1  -9   9    0.16    0.10
  -2   9  -9    0.21    0.12
  -2   9  -9    0.19    0.07
  -2   9  -9    0.15    0.07
  -2   9  -9    0.27    0.09
   2  -9   9    0.04    0.06
   2  -9   9    0.11    0.09
   2  -9   9    0.13    0.06
  -3   9  -9    0.00    0.06
  -3   9  -9    0.06    0.08
  -3   9  -9   -0.12    0.05
  -3   9  -9    0.11    0.12
   3  -9   9    0.13    0.09
   3  -9   9   -0.04    0.06
   3  -9   9    0.00    0.05
  -4   9  -9   -0.10    0.06
  -4   9  -9    0.03    0.12
  -4   9  -9    0.03    0.08
   4  -9   9   -0.09    0.06
   4  -9   9    0.11    0.05
   4  -9   9   -0.10    0.07
  -5   9  -9    0.32    0.11
  -5   9  -9    0.35    0.15
  -5   9  -9    0.29    0.08
   5  -9   9    0.23    0.09
   5  -9   9    0.33    0.07
   5  -9   9    0.31    0.09
  -6   9  -9    0.68    0.14
  -6   9  -9    0.99    0.12
  -6   9  -9    0.56    0.17
   6  -9   9    0.75    0.11
   6  -9   9    0.98    0.09
   6  -9   9    0.86    0.12
  -7   9  -9    0.32    0.12
  -7   9  -9    0.30    0.09
   7  -9   9    0.18    0.08
  -8   9  -9    0.25    0.13
   8  -9   9    0.12    0.08
  -9   9  -9    0.11    0.14
   9  -9   9    0.16    0.09
 -10   9  -9    0.04    0.13
  10  -9   9   -0.05    0.08
 -11   9  -9    0.12    0.16
  11  -9   9    0.12    0.10
   9   8  -9    0.05    0.09
  -9  -8   9   -0.04    0.11
   8   8  -9    0.02    0.08
  -8  -8   9    0.03    0.11
   7   8  -9    0.34    0.10
  -7  -8   9    0.50    0.12
   6   8  -9    0.87    0.09
   6   8  -9    0.89    0.12
  -6  -8   9    1.01    0.14
  -6  -8   9    0.88    0.14
   5   8  -9    0.33    0.10
   5   8  -9    0.20    0.08
   5   8  -9    0.12    0.06
  -5  -8   9    0.10    0.10
  -5  -8   9    0.31    0.09
   4   8  -9   -0.07    0.05
   4   8  -9    0.08    0.07
   4   8  -9    0.24    0.21
  -4  -8   9    0.02    0.07
   3   8  -9    0.37    0.08
   3   8  -9    0.51    0.29
   3   8  -9    0.25    0.07
  -3  -8   9    0.38    0.08
   2   8  -9    0.87    0.14
   2   8  -9    0.69    0.09
   2   8  -9    0.69    0.07
  -2  -8   9    0.71    0.09
  -2  -8   9    0.53    0.08
   1   8  -9    0.09    0.05
   1   8  -9    0.27    0.10
   1   8  -9    0.01    0.05
  -1  -8   9   -0.01    0.06
  -1  -8   9    0.25    0.09
  -1  -8   9    0.13    0.06
   0   8  -9    0.21    0.26
   0   8  -9    0.26    0.07
   0   8  -9    0.41    0.10
   0   8  -9    0.42    0.08
   0   8  -9    0.29    0.07
   0  -8   9    0.38    0.10
   0  -8   9    0.38    0.07
   0  -8   9    0.26    0.06
  -1   8  -9    1.17    0.11
  -1   8  -9    1.16    0.16
  -1   8  -9    1.30    0.12
  -1   8  -9    1.09    0.12
  -1   8  -9    0.92    0.12
   1  -8   9    1.38    0.12
   1  -8   9    1.39    0.11
   1  -8   9    1.37    0.10
   1  -8   9    1.35    0.15
  -2   8  -9    3.93    0.21
  -2   8  -9    4.09    0.17
  -2   8  -9    3.77    0.20
  -2   8  -9    4.03    0.27
   2  -8   9    3.86    0.11
   2  -8   9    4.07    0.17
   2  -8   9    4.06    0.20
   2  -8   9    3.99    0.16
  -3   8  -9   -0.08    0.07
  -3   8  -9    0.05    0.07
  -3   8  -9    0.03    0.06
  -3   8  -9    0.03    0.11
   3  -8   9    0.02    0.04
   3  -8   9    0.11    0.08
   3  -8   9    0.06    0.06
  -4   8  -9    2.25    0.26
  -4   8  -9    2.71    0.19
  -4   8  -9    2.43    0.15
   4  -8   9    2.73    0.15
   4  -8   9    2.77    0.13
   4  -8   9    2.47    0.16
  -5   8  -9    0.13    0.13
  -5   8  -9    0.43    0.09
  -5   8  -9    0.32    0.11
   5  -8   9    0.42    0.10
   5  -8   9    0.35    0.06
   5  -8   9    0.34    0.09
  -6   8  -9    2.11    0.15
  -6   8  -9    2.07    0.24
  -6   8  -9    2.10    0.19
   6  -8   9    2.40    0.16
   6  -8   9    2.38    0.16
  -7   8  -9    0.00    0.13
  -7   8  -9    0.25    0.11
   7  -8   9    0.06    0.07
  -8   8  -9    0.22    0.11
   8  -8   9    0.22    0.08
  -9   8  -9    0.60    0.16
   9  -8   9    0.41    0.10
 -10   8  -9    0.30    0.15
  10  -8   9    0.28    0.10
 -11   8  -9    0.01    0.13
  11  -8   9   -0.08    0.08
  10   7  -9    0.04    0.10
 -10  -7   9    0.16    0.13
   9   7  -9   -0.03    0.09
  -9  -7   9   -0.01    0.11
   8   7  -9    0.31    0.10
  -8  -7   9    0.21    0.12
   7   7  -9    3.35    0.15
   7   7  -9    2.84    0.19
  -7  -7   9    3.05    0.20
   6   7  -9   -0.12    0.05
   6   7  -9   -0.02    0.05
   6   7  -9    0.13    0.08
  -6  -7   9    0.01    0.08
  -6  -7   9   -0.03    0.08
   5   7  -9    0.68    0.12
   5   7  -9    0.63    0.12
   5   7  -9    0.73    0.09
   5   7  -9    0.73    0.10
  -5  -7   9    0.85    0.11
  -5  -7   9    0.65    0.12
   4   7  -9    0.05    0.06
   4   7  -9    0.08    0.07
   4   7  -9    0.00    0.06
   4   7  -9    0.04    0.06
  -4  -7   9    0.02    0.07
  -4  -7   9   -0.05    0.07
   3   7  -9    3.20    0.20
   3   7  -9    3.17    0.15
   3   7  -9    3.07    0.18
   3   7  -9    3.10    0.12
   3   7  -9    3.30    0.16
  -3  -7   9    3.21    0.17
  -3  -7   9    3.24    0.16
  -3  -7   9    3.43    0.19
   2   7  -9    0.03    0.08
   2   7  -9    0.25    0.06
   2   7  -9    0.22    0.07
   2   7  -9    0.06    0.09
  -2  -7   9    0.13    0.06
  -2  -7   9    0.08    0.05
  -2  -7   9    0.18    0.09
   1   7  -9   28.39    0.55
   1   7  -9   29.14    0.66
   1   7  -9   29.43    0.69
   1   7  -9   29.65    0.60
   1   7  -9   30.05    0.56
   1   7  -9   29.13    0.52
  -1  -7   9   29.86    0.56
  -1  -7   9   28.44    0.59
  -1  -7   9   29.16    0.51
   0   7  -9    4.69    0.19
   0   7  -9    4.49    0.17
   0   7  -9    5.01    0.76
   0   7  -9    4.56    0.23
   0   7  -9    4.84    0.18
   0  -7   9    5.18    0.22
   0  -7   9    4.78    0.15
   0  -7   9    5.07    0.18
   0  -7   9    4.90    0.17
  -1   7  -9    4.05    0.16
  -1   7  -9    4.18    0.17
  -1   7  -9    3.81    0.18
  -1   7  -9    4.06    0.31
  -1   7  -9    3.62    0.22
   1  -7   9    3.67    0.11
   1  -7   9    3.84    0.19
   1  -7   9    3.83    0.15
   1  -7   9    4.21    0.16
  -2   7  -9    3.23    0.15
  -2   7  -9    3.56    0.18
  -2   7  -9    3.36    0.24
  -2   7  -9    3.00    0.20
   2  -7   9    3.56    0.16
   2  -7   9    3.41    0.18
   2  -7   9    3.44    0.14
  -3   7  -9   -0.20    0.07
  -3   7  -9    0.00    0.15
  -3   7  -9    0.01    0.06
  -3   7  -9    0.00    0.06
   3  -7   9    0.02    0.04
   3  -7   9   -0.01    0.05
   3  -7   9    0.03    0.06
  -4   7  -9    2.03    0.22
  -4   7  -9    1.89    0.16
  -4   7  -9    2.27    0.14
  -4   7  -9    1.72    0.17
   4  -7   9    2.19    0.15
   4  -7   9    2.20    0.16
   4  -7   9    2.31    0.14
  -5   7  -9    0.28    0.09
  -5   7  -9    0.02    0.12
   5  -7   9    0.03    0.06
   5  -7   9    0.18    0.07
  -6   7  -9    0.92    0.18
  -6   7  -9    0.51    0.12
   6  -7   9    0.92    0.12
   6  -7   9    0.97    0.11
  -7   7  -9   -0.28    0.10
  -7   7  -9   -0.02    0.09
   7  -7   9    0.03    0.07
  -8   7  -9    0.36    0.13
   8  -7   9    0.12    0.08
  -9   7  -9    1.01    0.17
   9  -7   9    1.22    0.14
 -10   7  -9    0.06    0.12
  10  -7   9   -0.05    0.07
 -11   7  -9    0.40    0.16
  11  -7   9    0.01    0.08
  11   6  -9    0.25    0.11
 -11  -6   9   -0.05    0.13
  10   6  -9   -0.01    0.09
 -10  -6   9   -0.04    0.12
   9   6  -9    0.11    0.09
  -9  -6   9    0.01    0.11
   8   6  -9    0.09    0.06
   8   6  -9    0.25    0.09
  -8  -6   9    0.11    0.10
   7   6  -9    0.07    0.07
   7   6  -9    0.05    0.06
   7   6  -9    0.25    0.23
  -7  -6   9    0.14    0.09
   6   6  -9    0.37    0.10
   6   6  -9    0.38    0.09
   6   6  -9    0.45    0.08
   6   6  -9    0.51    0.11
  -6  -6   9    0.52    0.10
  -6  -6   9    0.61    0.10
   5   6  -9    1.60    0.13
   5   6  -9    1.57    0.13
   5   6  -9    1.57    0.16
   5   6  -9    1.85    0.16
  -5  -6   9    1.76    0.14
  -5  -6   9    1.53    0.14
   4   6  -9    1.92    0.13
   4   6  -9    2.16    0.13
   4   6  -9    2.10    0.11
   4   6  -9    2.33    0.17
   4   6  -9    2.22    0.16
  -4  -6   9    2.08    0.33
  -4  -6   9    2.34    0.15
  -4  -6   9    2.35    0.14
   3   6  -9    0.26    0.07
   3   6  -9    0.05    0.08
   3   6  -9    0.17    0.06
   3   6  -9    0.36    0.10
   3   6  -9    0.16    0.06
  -3  -6   9    0.24    0.08
  -3  -6   9    0.19    0.06
  -3  -6   9    0.31    0.07
   2   6  -9    0.69    0.08
   2   6  -9    0.62    0.08
   2   6  -9    0.75    0.12
   2   6  -9    0.65    0.12
   2   6  -9    0.74    0.09
  -2  -6   9    0.68    0.08
  -2  -6   9    0.63    0.10
  -2  -6   9    0.73    0.09
   1   6  -9    2.80    0.20
   1   6  -9    2.94    0.15
   1   6  -9    3.24    0.28
   1   6  -9    2.80    0.14
   1   6  -9    3.26    0.14
  -1  -6   9    3.11    0.14
  -1  -6   9    2.86    0.12
  -1  -6   9    3.19    0.14
  -1  -6   9    3.02    0.17
  -1  -6   9    3.17    0.14
   0   6  -9    4.89    0.17
   0   6  -9    5.31    0.26
   0   6  -9    5.09    0.18
   0   6  -9    5.05    0.25
   0   6  -9    5.21    0.18
   0  -6   9    4.98    0.18
   0  -6   9    4.86    0.17
   0  -6   9    5.01    0.13
   0  -6   9    4.81    0.20
   0  -6   9    5.23    0.17
  -1   6  -9    1.66    0.18
  -1   6  -9    2.20    0.20
  -1   6  -9    2.16    0.13
  -1   6  -9    1.99    0.12
   1  -6   9    1.83    0.11
   1  -6   9    2.08    0.13
   1  -6   9    2.16    0.12
   1  -6   9    2.08    0.14
  -2   6  -9    9.51    0.24
  -2   6  -9    9.58    0.32
  -2   6  -9    9.89    0.35
  -2   6  -9    9.70    0.24
   2  -6   9    9.63    0.28
   2  -6   9    9.72    0.25
   2  -6   9    9.47    0.36
  -3   6  -9    2.41    0.19
  -3   6  -9    2.69    0.14
  -3   6  -9    2.62    0.22
  -3   6  -9    2.90    0.17
  -3   6  -9    2.66    0.13
   3  -6   9    2.57    0.15
   3  -6   9    2.67    0.11
   3  -6   9    2.67    0.14
  -4   6  -9   -0.20    0.08
  -4   6  -9    0.03    0.11
  -4   6  -9    0.07    0.07
   4  -6   9    0.16    0.07
   4  -6   9    0.12    0.06
  -5   6  -9    1.09    0.18
  -5   6  -9    0.73    0.12
   5  -6   9    0.98    0.11
   5  -6   9    1.16    0.11
  -6   6  -9    0.55    0.12
  -6   6  -9    0.46    0.15
   6  -6   9    0.67    0.09
  -7   6  -9    0.32    0.11
  -7   6  -9    0.04    0.13
   7  -6   9    0.28    0.07
  -8   6  -9    0.62    0.14
   8  -6   9    0.63    0.10
  -9   6  -9    0.15    0.12
   9  -6   9    0.21    0.08
 -10   6  -9   -0.01    0.11
  10  -6   9   -0.04    0.08
  11  -6   9    0.09    0.09
  11   5  -9    0.18    0.11
 -11  -5   9    0.49    0.15
  10   5  -9    0.58    0.13
 -10  -5   9    0.44    0.13
   9   5  -9    1.11    0.14
   9   5  -9    1.28    0.12
  -9  -5   9    1.26    0.15
   8   5  -9    0.14    0.08
   8   5  -9    0.11    0.08
   8   5  -9    0.10    0.06
  -8  -5   9    0.08    0.09
   7   5  -9    0.11    0.09
   7   5  -9    0.00    0.05
   7   5  -9    0.03    0.07
   7   5  -9    0.15    0.09
  -7  -5   9    0.07    0.08
   6   5  -9    0.82    0.10
   6   5  -9    0.79    0.10
   6   5  -9    0.93    0.14
   6   5  -9    1.05    0.14
  -6  -5   9    1.29    0.12
  -6  -5   9    0.88    0.11
   5   5  -9    9.16    0.34
   5   5  -9    9.15    0.26
   5   5  -9    9.15    0.32
   5   5  -9    9.70    0.27
   5   5  -9    9.00    0.21
  -5  -5   9    9.53    0.33
  -5  -5   9    8.91    0.27
  -5  -5   9    9.02    0.25
   4   5  -9    7.66    0.31
   4   5  -9    7.96    0.23
   4   5  -9    7.74    0.29
   4   5  -9    7.36    0.21
   4   5  -9    8.06    0.28
  -4  -5   9    7.78    0.25
  -4  -5   9    7.70    0.22
  -4  -5   9    8.01    0.25
   3   5  -9    0.45    0.12
   3   5  -9    0.60    0.08
   3   5  -9    0.54    0.08
   3   5  -9    0.68    0.27
   3   5  -9    0.58    0.09
  -3  -5   9    0.45    0.07
  -3  -5   9    0.69    0.10
  -3  -5   9    0.63    0.08
   2   5  -9    0.10    0.05
   2   5  -9    0.11    0.06
   2   5  -9    0.12    0.06
   2   5  -9   -0.03    0.09
   2   5  -9    0.14    0.05
   2   5  -9    0.21    0.09
  -2  -5   9    0.03    0.04
  -2  -5   9    0.16    0.07
  -2  -5   9    0.10    0.04
  -2  -5   9    0.01    0.04
  -2  -5   9    0.16    0.05
   1   5  -9    3.11    0.22
   1   5  -9    2.77    0.14
   1   5  -9    2.74    0.12
   1   5  -9    2.90    0.13
   1   5  -9    2.87    0.29
  -1  -5   9    2.66    0.15
  -1  -5   9    2.90    0.13
  -1  -5   9    2.74    0.13
  -1  -5   9    2.66    0.12
  -1  -5   9    2.70    0.10
   0   5  -9    1.59    0.17
   0   5  -9    1.61    0.11
   0   5  -9    1.34    0.16
   0   5  -9    1.57    0.11
   0  -5   9    1.68    0.10
   0  -5   9    1.54    0.12
   0  -5   9    1.57    0.11
   0  -5   9    1.60    0.09
  -1   5  -9    5.76    0.18
  -1   5  -9    5.89    0.26
  -1   5  -9    5.67    0.26
   1  -5   9    5.70    0.21
   1  -5   9    5.86    0.21
   1  -5   9    5.59    0.17
   1  -5   9    6.01    0.18
  -2   5  -9    2.14    0.11
  -2   5  -9    1.88    0.18
  -2   5  -9    2.30    0.20
   2  -5   9    2.24    0.14
   2  -5   9    2.18    0.14
   2  -5   9    2.11    0.09
   2  -5   9    2.38    0.12
  -3   5  -9    0.18    0.11
  -3   5  -9   -0.01    0.09
   3  -5   9    0.09    0.06
   3  -5   9    0.20    0.07
   3  -5   9    0.22    0.06
  -4   5  -9    5.42    0.25
  -4   5  -9    5.66    0.29
   4  -5   9    6.20    0.19
   4  -5   9    5.92    0.22
   4  -5   9    6.18    0.25
  -5   5  -9    0.88    0.15
  -5   5  -9    0.93    0.13
   5  -5   9    1.22    0.12
   5  -5   9    1.23    0.11
  -6   5  -9   -0.11    0.10
  -6   5  -9    0.01    0.07
   6  -5   9   -0.04    0.05
  -7   5  -9    0.03    0.13
  -7   5  -9    0.44    0.12
   7  -5   9    0.37    0.08
  -8   5  -9    2.29    0.22
   8  -5   9    1.76    0.14
  -9   5  -9    0.13    0.12
   9  -5   9    0.16    0.08
 -10   5  -9    0.25    0.13
  10  -5   9    0.14    0.08
  12   4  -9    0.02    0.10
 -12  -4   9    0.09    0.14
  11   4  -9    0.25    0.11
 -11  -4   9    0.28    0.13
  10   4  -9   -0.01    0.09
  10   4  -9    0.02    0.06
 -10  -4   9    0.10    0.11
   9   4  -9    0.37    0.10
   9   4  -9    0.16    0.07
   9   4  -9    0.21    0.10
  -9  -4   9    0.28    0.11
   8   4  -9    1.98    0.14
   8   4  -9    2.35    0.17
   8   4  -9    2.08    0.18
  -8  -4   9    2.28    0.17
   7   4  -9   -0.02    0.06
   7   4  -9    0.16    0.08
   7   4  -9    0.08    0.06
   7   4  -9    0.09    0.07
  -7  -4   9    0.06    0.07
   6   4  -9    0.27    0.06
   6   4  -9    0.31    0.08
   6   4  -9    0.34    0.07
   6   4  -9    0.28    0.11
   6   4  -9    0.25    0.09
   6   4  -9    0.39    0.22
  -6  -4   9    0.31    0.07
  -6  -4   9    0.40    0.08
  -6  -4   9    0.35    0.07
   5   4  -9    3.24    0.20
   5   4  -9    3.47    0.16
   5   4  -9    3.54    0.20
   5   4  -9    2.58    0.21
   5   4  -9    3.17    0.14
  -5  -4   9    3.84    0.17
  -5  -4   9    2.98    0.15
  -5  -4   9    3.36    0.15
   4   4  -9    5.31    0.23
   4   4  -9    5.27    0.27
   4   4  -9    5.35    0.18
   4   4  -9    6.01    0.23
   4   4  -9    5.40    0.18
   4   4  -9    5.65    0.19
  -4  -4   9    5.53    0.20
  -4  -4   9    5.60    0.36
  -4  -4   9    5.73    0.18
   3   4  -9    0.48    0.12
   3   4  -9    0.47    0.08
   3   4  -9    0.52    0.08
   3   4  -9    0.68    0.16
   3   4  -9    0.61    0.08
  -3  -4   9    0.51    0.07
  -3  -4   9    0.55    0.09
  -3  -4   9    0.56    0.07
  -3  -4   9    0.46    0.07
  -3  -4   9    0.51    0.14
   2   4  -9    1.87    0.12
   2   4  -9    2.08    0.12
   2   4  -9    1.78    0.19
   2   4  -9    1.97    0.15
   2   4  -9    2.12    0.12
  -2  -4   9    2.10    0.11
  -2  -4   9    2.07    0.13
  -2  -4   9    2.15    0.11
  -2  -4   9    2.06    0.09
  -2  -4   9    1.89    0.31
   1   4  -9    0.01    0.03
   1   4  -9   -0.04    0.08
   1   4  -9    0.00    0.05
   1   4  -9   -0.04    0.03
   1   4  -9   -0.01    0.17
  -1  -4   9   -0.03    0.03
  -1  -4   9   -0.02    0.05
  -1  -4   9    0.03    0.04
  -1  -4   9   -0.05    0.03
   0   4  -9    0.47    0.11
   0   4  -9    0.41    0.10
   0   4  -9    0.47    0.07
   0  -4   9    0.45    0.06
   0  -4   9    0.44    0.08
   0  -4   9    0.62    0.08
   0  -4   9    0.41    0.05
  -1   4  -9    9.85    0.32
  -1   4  -9    9.60    0.22
  -1   4  -9    9.67    0.32
   1  -4   9    9.93    0.26
   1  -4   9    9.62    0.23
   1  -4   9    9.89    0.27
   1  -4   9    9.83    0.28
   1  -4   9    9.36    0.32
  -2   4  -9    5.84    0.26
  -2   4  -9    5.68    0.24
   2  -4   9    6.01    0.22
   2  -4   9    5.80    0.21
   2  -4   9    6.01    0.17
  -3   4  -9   -0.02    0.08
  -3   4  -9    0.08    0.08
   3  -4   9    0.05    0.06
   3  -4   9   -0.02    0.05
   3  -4   9    0.03    0.04
  -4   4  -9    3.50    0.23
  -4   4  -9    3.91    0.20
   4  -4   9    3.86    0.18
   4  -4   9    3.82    0.20
   4  -4   9    3.71    0.14
  -5   4  -9    7.23    0.33
   5  -4   9    7.58    0.29
   5  -4   9    8.15    0.26
   5  -4   9    7.71    0.21
  -6   4  -9   -0.24    0.09
   6  -4   9    0.00    0.05
  -7   4  -9    0.20    0.10
  -7   4  -9    0.09    0.12
   7  -4   9    0.12    0.07
  -8   4  -9   -0.01    0.09
   8  -4   9   -0.02    0.06
  -9   4  -9    0.19    0.12
   9  -4   9    0.05    0.07
 -10   4  -9    0.35    0.14
  10  -4   9    0.11    0.08
 -12  -3   9    0.12    0.13
  11   3  -9    0.22    0.07
 -11  -3   9    0.10    0.12
  10   3  -9    0.18    0.07
 -10  -3   9   -0.14    0.10
   9   3  -9    0.03    0.07
   9   3  -9    0.03    0.06
  -9  -3   9    0.10    0.10
   8   3  -9    2.94    0.17
   8   3  -9    2.82    0.20
  -8  -3   9    2.96    0.18
   7   3  -9    1.88    0.14
   7   3  -9    1.71    0.19
   7   3  -9    1.89    0.15
   7   3  -9    1.82    0.10
   7   3  -9    1.55    0.17
  -7  -3   9    1.93    0.14
   6   3  -9    2.80    0.20
   6   3  -9    2.62    0.13
   6   3  -9    2.22    0.21
   6   3  -9    2.69    0.15
   6   3  -9    2.94    0.14
   6   3  -9    2.53    0.25
  -6  -3   9    2.91    0.14
  -6  -3   9    2.67    0.15
  -6  -3   9    2.75    0.17
   5   3  -9    1.74    0.19
   5   3  -9    1.52    0.12
   5   3  -9    1.69    0.12
   5   3  -9    1.49    0.17
   5   3  -9    2.05    0.21
  -5  -3   9    1.74    0.11
  -5  -3   9    1.73    0.12
  -5  -3   9    1.75    0.13
   4   3  -9    6.31    0.24
   4   3  -9    5.92    0.28
   4   3  -9    6.21    0.20
   4   3  -9    5.97    0.19
   4   3  -9    6.66    0.25
  -4  -3   9    6.13    0.18
  -4  -3   9    6.29    0.20
  -4  -3   9    6.29    0.20
  -4  -3   9    6.04    0.19
  -4  -3   9    6.20    0.19
   3   3  -9   21.00    0.81
   3   3  -9   20.69    0.40
   3   3  -9   21.75    0.51
   3   3  -9   20.79    1.00
   3   3  -9   21.56    0.42
  -3  -3   9   21.11    0.36
  -3  -3   9   21.19    0.44
  -3  -3   9   21.27    0.41
  -3  -3   9   21.10    0.44
  -3  -3   9   21.00    0.42
   2   3  -9    3.26    0.14
   2   3  -9    3.09    0.21
   2   3  -9    3.40    0.17
   2   3  -9    3.40    0.14
   2   3  -9    3.38    0.15
  -2  -3   9    3.28    0.27
  -2  -3   9    3.35    0.13
  -2  -3   9    3.10    0.14
  -2  -3   9    3.23    0.08
  -2  -3   9    3.18    0.15
   1   3  -9    0.91    0.08
   1   3  -9    0.93    0.08
   1   3  -9    0.88    0.12
   1   3  -9    1.11    0.29
  -1  -3   9    0.90    0.07
  -1  -3   9    1.02    0.09
  -1  -3   9    0.96    0.09
  -1  -3   9    0.89    0.09
   0   3  -9    2.40    0.17
   0   3  -9    2.44    0.11
   0   3  -9    2.42    0.18
   0  -3   9    2.51    0.13
   0  -3   9    2.35    0.09
   0  -3   9    2.16    0.13
   0  -3   9    2.65    0.14
   0  -3   9    2.31    0.11
  -1   3  -9    1.38    0.15
  -1   3  -9    1.49    0.15
   1  -3   9    1.34    0.12
   1  -3   9    1.44    0.11
   1  -3   9    1.47    0.09
  -2   3  -9    0.88    0.24
  -2   3  -9    1.11    0.34
   2  -3   9    0.89    0.08
   2  -3   9    1.21    0.11
   2  -3   9    0.98    0.12
  -3   3  -9    2.25    0.19
  -3   3  -9    2.32    0.44
   3  -3   9    2.19    0.16
   3  -3   9    2.28    0.14
   3  -3   9    2.18    0.11
  -4   3  -9    5.74    0.51
  -4   3  -9    5.60    0.27
   4  -3   9    5.69    0.17
   4  -3   9    5.98    0.22
   4  -3   9    5.52    0.24
  -5   3  -9    0.14    0.11
   5  -3   9    0.29    0.06
   5  -3   9    0.24    0.09
   5  -3   9    0.23    0.08
  -6   3  -9    0.13    0.11
   6  -3   9    0.05    0.09
   6  -3   9    0.13    0.05
  -7   3  -9   -0.15    0.10
  -7   3  -9   -0.02    0.08
   7  -3   9    0.06    0.06
  -8   3  -9    0.25    0.11
   8  -3   9    0.25    0.07
  -9   3  -9    0.08    0.11
   9  -3   9   -0.09    0.06
  10  -3   9    0.00    0.07
 -12  -2   9   -0.01    0.12
  11   2  -9   -0.06    0.06
 -11  -2   9   -0.02    0.11
  10   2  -9    0.93    0.11
 -10  -2   9    0.66    0.13
   9   2  -9    2.95    0.20
   9   2  -9    3.22    0.17
  -9  -2   9    2.94    0.19
   8   2  -9    1.03    0.13
   8   2  -9    1.05    0.12
   8   2  -9    0.79    0.15
  -8  -2   9    0.88    0.11
   7   2  -9    0.80    0.09
   7   2  -9    0.77    0.13
   7   2  -9    0.37    0.13
   7   2  -9    0.77    0.09
   7   2  -9    0.75    0.11
   7   2  -9    0.74    0.10
  -7  -2   9    0.82    0.10
  -7  -2   9    0.94    0.12
   6   2  -9    0.02    0.06
   6   2  -9    0.03    0.05
   6   2  -9   -0.01    0.07
   6   2  -9   -0.21    0.10
   6   2  -9    0.00    0.05
  -6  -2   9    0.11    0.05
  -6  -2   9   -0.01    0.06
  -6  -2   9    0.03    0.05
   5   2  -9    0.07    0.11
   5   2  -9    0.06    0.07
   5   2  -9    0.00    0.10
   5   2  -9    0.11    0.06
   5   2  -9    0.03    0.05
  -5  -2   9    0.06    0.06
  -5  -2   9    0.06    0.05
  -5  -2   9    0.10    0.05
  -5  -2   9    0.08    0.05
   4   2  -9    3.66    0.15
   4   2  -9    3.46    0.22
   4   2  -9    3.65    0.20
   4   2  -9    3.39    0.15
   4   2  -9    3.69    0.15
  -4  -2   9    3.39    0.12
  -4  -2   9    3.54    0.15
  -4  -2   9    3.32    0.15
  -4  -2   9    3.49    0.15
  -4  -2   9    3.82    0.15
   3   2  -9    0.28    0.10
   3   2  -9    0.24    0.13
   3   2  -9    0.46    0.17
   3   2  -9    0.33    0.07
   3   2  -9    0.49    0.07
  -3  -2   9    0.28    0.06
  -3  -2   9    0.42    0.08
  -3  -2   9    0.30    0.06
  -3  -2   9    0.41    0.07
  -3  -2   9    0.36    0.04
   2   2  -9   16.87    0.39
   2   2  -9   17.01    0.34
   2   2  -9   17.33    0.44
   2   2  -9   16.98    0.65
  -2  -2   9   16.44    0.38
  -2  -2   9   16.46    0.39
  -2  -2   9   17.09    0.33
  -2  -2   9   17.05    0.34
  -2  -2   9   16.82    0.38
   1   2  -9    0.75    0.17
   1   2  -9    0.49    0.08
   1   2  -9    0.47    0.06
   1   2  -9    0.50    0.09
  -1  -2   9    0.52    0.08
  -1  -2   9    0.55    0.05
  -1  -2   9    0.57    0.09
  -1  -2   9    0.49    0.07
   0   2  -9    0.04    0.07
   0   2  -9    0.00    0.14
   0  -2   9   -0.01    0.04
   0  -2   9   -0.02    0.04
   0  -2   9    0.05    0.04
  -1   2  -9    2.49    0.24
  -1   2  -9    2.12    0.16
   1  -2   9    2.17    0.13
   1  -2   9    2.26    0.10
   1  -2   9    2.43    0.15
  -2   2  -9   10.62    0.41
  -2   2  -9   10.60    0.33
   2  -2   9   10.83    0.30
   2  -2   9   10.99    0.24
   2  -2   9   10.63    0.33
  -3   2  -9    1.23    0.14
  -3   2  -9    1.37    0.33
   3  -2   9    1.17    0.13
   3  -2   9    1.10    0.08
   3  -2   9    1.37    0.12
  -4   2  -9   -0.19    0.07
  -4   2  -9    0.17    0.12
   4  -2   9    0.04    0.07
   4  -2   9   -0.03    0.04
   4  -2   9   -0.10    0.06
  -5   2  -9   -0.08    0.09
   5  -2   9    0.03    0.07
   5  -2   9    0.07    0.13
   5  -2   9    0.08    0.04
  -6   2  -9    0.08    0.11
   6  -2   9    0.23    0.05
   6  -2   9    0.14    0.09
   7  -2   9    0.00    0.05
  -8   2  -9    0.63    0.14
   8  -2   9    0.58    0.08
  -9   2  -9    0.70    0.15
   9  -2   9    0.28    0.08
 -12  -1   9    0.47    0.14
  11   1  -9    0.34    0.09
 -11  -1   9    0.38    0.13
  10   1  -9    0.12    0.07
 -10  -1   9    0.07    0.10
   9   1  -9    0.44    0.09
  -9  -1   9    0.47    0.10
   8   1  -9    0.26    0.07
   8   1  -9    0.16    0.07
   8   1  -9    0.19    0.07
   8   1  -9    0.03    0.08
  -8  -1   9    0.15    0.08
  -8  -1   9    0.23    0.08
   7   1  -9    0.19    0.07
   7   1  -9    0.17    0.07
   7   1  -9    0.13    0.09
   7   1  -9   -0.06    0.11
  -7  -1   9    0.24    0.08
  -7  -1   9    0.29    0.08
   6   1  -9    3.02    0.21
   6   1  -9    2.87    0.24
   6   1  -9    2.74    0.15
   6   1  -9    3.08    0.16
  -6  -1   9    2.85    0.16
  -6  -1   9    2.83    0.14
  -6  -1   9    3.06    0.14
  -6  -1   9    2.73    0.14
   5   1  -9    9.75    0.26
   5   1  -9    9.50    0.33
   5   1  -9    9.47    0.60
   5   1  -9   10.16    0.27
  -5  -1   9    9.68    0.26
  -5  -1   9    9.81    0.38
  -5  -1   9    9.64    0.27
  -5  -1   9    9.75    0.26
  -5  -1   9   10.07    0.22
   4   1  -9    0.61    0.08
   4   1  -9    0.55    0.18
   4   1  -9    0.61    0.11
   4   1  -9    0.53    0.08
  -4  -1   9    0.60    0.09
  -4  -1   9    0.65    0.10
  -4  -1   9    0.50    0.07
  -4  -1   9    0.48    0.08
  -4  -1   9    0.56    0.05
  -4  -1   9    0.58    0.07
   3   1  -9    7.39    0.55
   3   1  -9    7.10    0.22
   3   1  -9    7.32    0.20
   3   1  -9    7.10    0.27
  -3  -1   9    7.12    0.23
  -3  -1   9    7.37    0.24
  -3  -1   9    7.34    0.21
  -3  -1   9    6.86    0.19
   2   1  -9    2.86    0.21
   2   1  -9    3.13    0.13
   2   1  -9    2.81    0.18
   2   1  -9    2.57    0.13
  -2  -1   9    2.81    0.13
  -2  -1   9    2.73    0.15
  -2  -1   9    2.79    0.14
  -2  -1   9    2.72    0.11
   1   1  -9    3.27    0.45
   1   1  -9    3.22    0.15
   1   1  -9    3.20    0.18
  -1  -1   9    3.46    0.15
  -1  -1   9    3.47    0.17
  -1  -1   9    3.29    0.13
   0   1  -9    0.33    0.08
   0   1  -9    0.23    0.08
   0   1  -9    0.23    0.08
   0  -1   9    0.26    0.07
   0  -1   9    0.24    0.05
   0  -1   9    0.26    0.07
  -1   1  -9    1.05    0.12
  -1   1  -9    1.06    0.12
   1  -1   9    0.99    0.12
   1  -1   9    1.04    0.10
   1  -1   9    0.99    0.08
  -2   1  -9    2.28    0.17
  -2   1  -9    2.35    0.29
   2  -1   9    2.52    0.16
   2  -1   9    2.59    0.11
   2  -1   9    2.43    0.15
  -3   1  -9    0.63    0.26
  -3   1  -9    0.53    0.11
   3  -1   9    0.54    0.06
   3  -1   9    0.69    0.11
   3  -1   9    0.46    0.10
  -4   1  -9    0.38    0.11
   4  -1   9    0.57    0.06
   4  -1   9    0.52    0.10
   4  -1   9    0.42    0.10
  -5   1  -9   -0.08    0.09
   5  -1   9   -0.01    0.06
   5  -1   9    0.02    0.08
   5  -1   9    0.06    0.04
   6  -1   9   -0.03    0.09
   6  -1   9    0.07    0.04
   7  -1   9    0.08    0.11
   7  -1   9    0.19    0.05
  -8   1  -9    0.69    0.14
   8  -1   9    0.32    0.07
   9  -1   9   -0.01    0.05
 -13   0   9    0.06    0.12
 -12   0   9   -0.02    0.11
  11   0  -9    0.50    0.10
 -11   0   9    0.53    0.12
  10   0  -9   -0.10    0.06
 -10   0   9    0.07    0.09
   9   0  -9    0.08    0.07
   9   0  -9    0.05    0.06
   9   0  -9    0.19    0.08
  -9   0   9    0.12    0.08
  -9   0   9    0.19    0.08
   8   0  -9    0.13    0.07
   8   0  -9    0.04    0.10
   8   0  -9    0.03    0.06
  -8   0   9    0.05    0.07
  -8   0   9    0.21    0.07
  -8   0   9    0.07    0.07
  -8   0   9    0.12    0.07
   7   0  -9    0.41    0.12
   7   0  -9    0.54    0.09
   7   0  -9    0.59    0.09
   7   0  -9    0.26    0.21
  -7   0   9    0.43    0.09
  -7   0   9    0.51    0.08
  -7   0   9    0.48    0.08
  -7   0   9    0.37    0.09
  -7   0   9    0.55    0.09
   6   0  -9    0.16    0.06
   6   0  -9    0.20    0.10
   6   0  -9    0.10    0.09
   6   0  -9    0.18    0.07
  -6   0   9    0.13    0.06
  -6   0   9    0.12    0.05
  -6   0   9    0.11    0.06
  -6   0   9    0.11    0.05
  -6   0   9    0.11    0.06
   5   0  -9    0.86    0.09
   5   0  -9    0.90    0.10
   5   0  -9    0.64    0.11
   5   0  -9    0.79    0.14
  -5   0   9    0.83    0.10
  -5   0   9    0.98    0.10
  -5   0   9    0.90    0.07
  -5   0   9    0.87    0.09
  -5   0   9    0.77    0.09
  -5   0   9    0.91    0.10
   4   0  -9    3.05    0.25
   4   0  -9    2.83    0.14
   4   0  -9    2.62    0.21
  -4   0   9    2.70    0.14
  -4   0   9    2.98    0.14
  -4   0   9    2.91    0.16
  -4   0   9    2.60    0.13
   3   0  -9    9.86    0.24
   3   0  -9   10.14    0.41
   3   0  -9   10.14    0.55
  -3   0   9    9.73    0.23
  -3   0   9    9.82    0.29
  -3   0   9    9.81    0.28
  -3   0   9   10.33    0.25
   2   0  -9    0.05    0.17
   2   0  -9    0.02    0.08
  -2   0   9   -0.03    0.04
  -2   0   9   -0.02    0.04
  -2   0   9    0.07    0.05
  -2   0   9    0.17    0.06
   1   0  -9    7.85    0.48
   1   0  -9    7.44    0.28
  -1   0   9    7.73    0.25
  -1   0   9    7.70    0.26
  -1   0   9    7.70    0.20
   0   0  -9    9.86    0.31
   0   0  -9   10.19    0.32
   0   0   9    9.92    0.29
   0   0   9    9.64    0.31
   0   0   9    9.90    0.23
  -1   0  -9    1.82    0.15
   1   0   9    1.82    0.09
   1   0   9    1.93    0.14
   1   0   9    2.00    0.15
   2   0   9    2.42    0.17
   2   0   9    2.24    0.22
   2   0   9    2.33    0.10
   3   0   9   -0.04    0.06
   3   0   9    0.02    0.07
   3   0   9    0.00    0.04
   4   0   9    3.96    0.12
   4   0   9    4.10    0.20
   4   0   9    3.89    0.22
   5   0   9    0.66    0.06
   5   0   9    0.60    0.12
   6   0   9   -0.08    0.08
   7   0   9    0.20    0.11
 -13   1   9   -0.02    0.11
 -12   1   9    0.01    0.10
  11  -1  -9    0.15    0.09
 -11   1   9    0.16    0.10
  10  -1  -9    0.02    0.07
 -10   1   9    0.01    0.09
   9  -1  -9    1.09    0.11
   9  -1  -9    1.26    0.14
  -9   1   9    1.19    0.14
  -9   1   9    1.07    0.12
   8  -1  -9    1.10    0.12
   8  -1  -9    1.21    0.13
  -8   1   9    1.33    0.13
  -8   1   9    1.39    0.14
   7  -1  -9    0.70    0.15
   7  -1  -9    0.86    0.13
   7  -1  -9    0.88    0.10
   7  -1  -9    0.80    0.10
  -7   1   9    0.86    0.11
  -7   1   9    1.00    0.15
  -7   1   9    1.01    0.09
   6  -1  -9    0.99    0.16
   6  -1  -9    1.19    0.18
   6  -1  -9    1.21    0.11
  -6   1   9    1.39    0.11
  -6   1   9    1.14    0.12
  -6   1   9    1.13    0.08
  -6   1   9    1.19    0.12
  -6   1   9    1.20    0.12
   5  -1  -9    0.31    0.08
   5  -1  -9    0.12    0.11
   5  -1  -9    0.61    0.12
  -5   1   9    0.37    0.07
  -5   1   9    0.44    0.08
  -5   1   9    0.33    0.06
  -5   1   9    0.26    0.07
   4  -1  -9    8.78    0.24
   4  -1  -9    8.34    0.74
   4  -1  -9    8.65    0.42
  -4   1   9    8.79    0.23
  -4   1   9    8.69    0.26
  -4   1   9    8.95    0.29
  -4   1   9    9.29    0.24
   3  -1  -9   12.37    0.56
   3  -1  -9   11.61    0.40
   3  -1  -9   12.06    0.28
  -3   1   9   12.23    0.33
  -3   1   9   11.68    0.34
  -3   1   9   12.41    0.25
  -3   1   9   12.51    0.29
   2  -1  -9    2.74    0.21
   2  -1  -9    2.86    0.18
  -2   1   9    2.79    0.16
  -2   1   9    2.76    0.17
  -2   1   9    2.92    0.13
   1  -1  -9    0.63    0.11
  -1   1   9    0.69    0.11
  -1   1   9    0.76    0.23
   0  -1  -9    0.01    0.07
   0   1   9    0.03    0.04
   0   1   9   -0.01    0.05
   0   1   9   -0.04    0.05
   1   1   9    0.07    0.04
   1   1   9    0.02    0.06
   1   1   9   -0.06    0.05
   2   1   9    1.69    0.15
   2   1   9    1.54    0.17
   2   1   9    1.77    0.09
   3   1   9    0.55    0.06
   3   1   9    0.56    0.12
   3   1   9    0.56    0.11
   4   1   9    2.02    0.09
   4   1   9    2.35    0.19
   5   1   9    0.72    0.14
   6   1   9    0.09    0.10
 -13   2   9    0.09    0.11
 -12   2   9    0.05    0.10
  11  -2  -9    0.08    0.08
 -11   2   9    0.04    0.10
  10  -2  -9   -0.06    0.07
  10  -2  -9    0.07    0.07
 -10   2   9    0.03    0.09
 -10   2   9    0.01    0.08
   9  -2  -9    5.22    0.23
   9  -2  -9    4.66    0.21
  -9   2   9    4.90    0.20
  -9   2   9    5.63    0.26
   8  -2  -9    1.20    0.13
   8  -2  -9    1.08    0.12
  -8   2   9    1.10    0.10
  -8   2   9    1.03    0.23
  -8   2   9    1.25    0.14
   7  -2  -9   -0.22    0.11
   7  -2  -9   -0.07    0.07
  -7   2   9    0.00    0.04
  -7   2   9    0.02    0.07
  -7   2   9    0.05    0.10
   6  -2  -9    0.55    0.09
   6  -2  -9    0.51    0.15
  -6   2   9    0.55    0.10
  -6   2   9    0.65    0.10
  -6   2   9    0.47    0.08
  -6   2   9    0.56    0.08
   5  -2  -9    0.02    0.07
   5  -2  -9   -0.06    0.26
  -5   2   9    0.03    0.05
  -5   2   9    0.01    0.05
  -5   2   9   -0.01    0.05
  -5   2   9   -0.01    0.04
   4  -2  -9    0.10    0.11
   4  -2  -9    0.32    0.07
  -4   2   9    0.31    0.08
  -4   2   9    0.29    0.07
  -4   2   9    0.28    0.08
  -4   2   9    0.18    0.05
   3  -2  -9    4.38    0.27
  -3   2   9    4.77    0.17
  -3   2   9    4.23    0.21
  -3   2   9    4.71    0.20
   2  -2  -9    0.58    0.24
  -2   2   9    0.70    0.11
  -2   2   9    0.78    0.11
  -2   2   9    0.77    0.08
   1  -2  -9    0.53    0.11
  -1   2   9    0.54    0.10
  -1   2   9    0.61    0.10
  -1   2   9    0.65    0.08
   0  -2  -9    0.29    0.17
   0   2   9    0.34    0.09
   0   2   9    0.18    0.05
   0   2   9    0.19    0.07
   1   2   9    0.19    0.08
   1   2   9    0.10    0.04
   1   2   9    0.15    0.08
   2   2   9    0.06    0.04
   2   2   9    0.06    0.08
   3   2   9   -0.02    0.07
   3   2   9    0.06    0.04
   4   2   9   -0.07    0.08
   5   2   9   -0.02    0.09
 -13   3   9   -0.06    0.10
 -12   3   9    0.12    0.10
  11  -3  -9    0.20    0.09
 -11   3   9    0.28    0.10
  10  -3  -9    0.14    0.08
  10  -3  -9    0.08    0.09
 -10   3   9    0.07    0.08
 -10   3   9    0.07    0.08
   9  -3  -9    0.12    0.09
   9  -3  -9    0.03    0.07
  -9   3   9   -0.03    0.07
  -9   3   9   -0.01    0.07
  -9   3   9    0.03    0.07
   8  -3  -9   -0.09    0.08
  -8   3   9   -0.04    0.59
  -8   3   9    0.05    0.07
   7  -3  -9    0.07    0.08
  -7   3   9    0.11    0.07
  -7   3   9    0.13    0.07
   6  -3  -9    0.55    0.10
   6  -3  -9    0.13    0.14
  -6   3   9    0.65    0.09
  -6   3   9    0.52    0.09
  -6   3   9    0.44    0.12
   5  -3  -9    0.40    0.09
   5  -3  -9    0.37    0.15
  -5   3   9    0.50    0.09
  -5   3   9    0.78    0.11
  -5   3   9    0.50    0.07
  -5   3   9    0.60    0.11
   4  -3  -9    0.04    0.07
   4  -3  -9   -0.10    0.11
  -4   3   9    0.15    0.06
  -4   3   9    0.17    0.08
  -4   3   9    0.07    0.04
  -4   3   9    0.12    0.07
   3  -3  -9    0.35    0.13
  -3   3   9    0.49    0.10
  -3   3   9    0.50    0.08
  -3   3   9    0.38    0.09
   2  -3  -9    0.04    0.09
  -2   3   9    0.07    0.07
  -2   3   9    0.08    0.07
  -2   3   9    0.05    0.05
   1  -3  -9    0.01    0.09
  -1   3   9    0.17    0.08
  -1   3   9    0.14    0.05
   0  -3  -9    0.13    0.14
   0   3   9   -0.02    0.04
   0   3   9    0.10    0.07
   1   3   9    0.20    0.05
   1   3   9    0.25    0.09
   2   3   9    0.26    0.10
   2   3   9    0.25    0.05
   3   3   9    0.60    0.13
   3   3   9    0.44    0.06
   4   3   9   -0.08    0.09
   5   3   9    0.05    0.10
 -12   4   9    0.06    0.10
  11  -4  -9    0.03    0.09
 -11   4   9    0.08    0.09
 -11   4   9   -0.06    0.08
  10  -4  -9    0.34    0.11
  10  -4  -9    0.13    0.08
 -10   4   9    0.39    0.11
 -10   4   9    0.23    0.09
   9  -4  -9    0.09    0.10
  -9   4   9    0.05    0.08
  -9   4   9   -0.07    0.06
   8  -4  -9    0.09    0.09
  -8   4   9    0.10    0.08
  -8   4   9   -0.03    0.07
   7  -4  -9    0.33    0.10
  -7   4   9    0.36    0.09
  -7   4   9    0.31    0.09
  -7   4   9    0.30    0.08
   6  -4  -9    1.04    0.12
  -6   4   9    1.15    0.11
  -6   4   9    1.22    0.13
  -6   4   9    0.96    0.36
   5  -4  -9    0.66    0.10
   5  -4  -9    0.38    0.15
  -5   4   9    0.67    0.08
  -5   4   9    0.73    0.10
  -5   4   9    0.60    0.12
   4  -4  -9    2.33    0.26
  -4   4   9    2.99    0.15
  -4   4   9    2.73    0.19
   3  -4  -9   -0.05    0.11
  -3   4   9    0.00    0.06
  -3   4   9   -0.04    0.05
   2  -4  -9    0.27    0.12
  -2   4   9    0.16    0.06
  -2   4   9    0.03    0.07
   1  -4  -9    0.37    0.12
  -1   4   9    0.32    0.10
  -1   4   9    0.39    0.07
   0   4   9    1.82    0.11
   0   4   9    1.88    0.18
   1   4   9   -0.06    0.08
   1   4   9   -0.02    0.04
   2   4   9    0.05    0.04
   2   4   9    0.01    0.09
   3   4   9   -0.03    0.09
   3   4   9   -0.02    0.04
   4   4   9    0.02    0.10
  11  -5  -9    0.29    0.11
  11  -5  -9    0.24    0.11
 -11   5   9    0.06    0.09
  10  -5  -9    0.02    0.10
 -10   5   9   -0.13    0.07
 -10   5   9    0.19    0.09
   9  -5  -9    0.20    0.10
  -9   5   9   -0.04    0.07
  -9   5   9    0.10    0.09
   8  -5  -9    0.51    0.12
  -8   5   9    0.38    0.11
  -8   5   9    0.41    0.09
   7  -5  -9    0.41    0.11
  -7   5   9    0.67    0.10
  -7   5   9    0.25    0.10
  -7   5   9    0.52    0.10
   6  -5  -9   -0.08    0.09
  -6   5   9    0.02    0.06
  -6   5   9    0.02    0.05
  -6   5   9    0.00    0.17
   5  -5  -9    0.28    0.09
  -5   5   9    0.13    0.08
  -5   5   9    0.41    0.08
  -4   5   9   -0.03    0.06
  -4   5   9   -0.02    0.05
  -3   5   9    0.00    0.05
  -3   5   9    0.07    0.08
  -2   5   9    0.07    0.05
  -2   5   9    0.05    0.08
  -1   5   9    0.06    0.08
  -1   5   9    0.12    0.06
   0   5   9    0.12    0.10
   0   5   9    0.28    0.07
   1   5   9   -0.07    0.05
   1   5   9   -0.06    0.08
   2   5   9    0.05    0.05
   2   5   9    0.24    0.11
   3   5   9    0.18    0.11
   3   5   9    0.06    0.05
  11  -6  -9   -0.17    0.10
 -11   6   9    0.11    0.11
  10  -6  -9    0.05    0.11
 -10   6   9    0.26    0.11
   9  -6  -9    0.06    0.11
  -9   6   9    0.00    0.07
  -9   6   9    0.07    0.08
   8  -6  -9    0.53    0.13
  -8   6   9    0.81    0.15
  -8   6   9    0.78    0.11
   7  -6  -9    0.98    0.14
  -7   6   9    0.54    0.12
  -7   6   9    0.78    0.12
  -7   6   9    0.89    0.10
   6  -6  -9    0.21    0.10
  -6   6   9    0.31    0.09
  -6   6   9    0.29    0.11
  -5   6   9   -0.01    0.06
  -5   6   9   -0.04    0.07
  -4   6   9    0.06    0.07
  -4   6   9    0.03    0.08
  -3   6   9    0.00    0.06
  -3   6   9    0.18    0.09
  -2   6   9    0.86    0.16
  -2   6   9    0.95    0.11
  -1   6   9    0.02    0.06
  -1   6   9   -0.06    0.08
   0   6   9    0.03    0.09
   0   6   9   -0.01    0.05
   1   6   9    0.33    0.07
   1   6   9    0.16    0.10
   2   6   9    0.01    0.05
   2   6   9    0.14    0.11
   3   6   9    0.07    0.05
  11  -7  -9   -0.12    0.10
 -11   7   9    0.29    0.12
  10  -7  -9    0.09    0.11
 -10   7   9    0.07    0.09
   9  -7  -9    0.52    0.13
  -9   7   9    0.55    0.14
   8  -7  -9    0.02    0.11
  -8   7   9    0.05    0.07
  -8   7   9    0.00    0.08
   7  -7  -9   -0.13    0.10
  -7   7   9   -0.04    0.07
  -7   7   9    0.02    0.12
   6  -7  -9   -0.02    0.10
  -6   7   9   -0.09    0.07
  -6   7   9    0.03    0.07
  -5   7   9    0.01    0.07
  -5   7   9    0.06    0.08
  -4   7   9    0.67    0.14
  -4   7   9    0.90    0.12
  -3   7   9    0.62    0.14
  -3   7   9    0.73    0.11
  -2   7   9    1.52    0.21
  -2   7   9    1.37    0.13
  -1   7   9   -0.01    0.10
  -1   7   9    0.00    0.06
   0   7   9    0.19    0.07
   0   7   9    0.17    0.12
   1   7   9    0.75    0.16
  10  -8  -9    0.34    0.13
 -10   8   9    0.13    0.12
   9  -8  -9   -0.25    0.11
  -9   8   9    0.02    0.09
   8  -8  -9   -0.06    0.11
  -8   8   9    0.00    0.09
   7  -8  -9    0.42    0.13
  -7   8   9    0.25    0.13
  -7   8   9    0.34    0.12
   6  -8  -9    1.03    0.16
  -6   8   9    0.83    0.16
  -6   8   9    1.17    0.16
  -5   8   9    0.25    0.12
  -5   8   9    0.45    0.11
  -4   8   9   -0.12    0.07
  -4   8   9   -0.06    0.07
  -3   8   9    0.09    0.10
  -3   8   9    0.02    0.07
  -2   8   9    0.18    0.08
  -2   8   9   -0.09    0.10
  -1   8   9    0.00    0.06
  -1   8   9   -0.09    0.10
   0   8   9    0.14    0.13
   0   8   9    0.19    0.07
   8  -9  -9    0.13    0.12
  -8   9   9    0.11    0.22
   7  -9  -9    0.13    0.12
  -7   9   9    0.05    0.10
  -7   9   9    0.08    0.09
  -6   9   9   -0.10    0.08
  -6   9   9    0.04    0.09
  -5   9   9    0.23    0.10
  -5   9   9    0.07    0.10
  -4   9   9    0.21    0.10
  -4   9   9    0.12    0.11
  -3   9   9   -0.01    0.11
  -3   9   9   -0.09    0.07
  -1 -15  10   -0.08    0.11
   0 -15  10    0.31    0.13
   1 -15  10    0.42    0.13
   2 -15  10   -0.05    0.10
   3 -15  10    0.94    0.14
   4 -15  10    0.95    0.13
   5 -15  10    0.55    0.19
  -6  15 -10   -0.31    0.16
  -6  15 -10   -0.13    0.10
   6 -15  10   -0.11    0.13
  -3 -14  10    0.65    0.15
  -2 -14  10    0.18    0.13
  -1 -14  10   -0.08    0.11
   0 -14  10    0.10    0.10
  -1  14 -10    0.01    0.08
   1 -14  10   -0.04    0.10
  -2  14 -10   -0.04    0.08
   2 -14  10    0.00    0.10
  -3  14 -10    0.16    0.10
   3 -14  10   -0.06    0.09
   3 -14  10    0.08    0.09
  -4  14 -10    0.20    0.09
  -4  14 -10    0.30    0.11
   4 -14  10    0.17    0.09
  -5  14 -10    0.12    0.10
  -5  14 -10    0.07    0.16
   5 -14  10    0.07    0.09
   5 -14  10   -0.04    0.14
  -6  14 -10    0.21    0.11
  -6  14 -10   -0.16    0.15
   6 -14  10   -0.23    0.11
  -7  14 -10    0.14    0.19
  -7  14 -10    0.11    0.11
  -8  14 -10   -0.12    0.17
  -8  14 -10   -0.18    0.10
  -4 -13  10    0.16    0.13
  -3 -13  10   -0.02    0.11
   2  13 -10    0.02    0.07
  -2 -13  10    0.03    0.11
   1  13 -10   -0.02    0.07
  -1 -13  10   -0.04    0.11
   0  13 -10    0.70    0.13
   0 -13  10    0.49    0.12
  -1  13 -10    0.21    0.10
   1 -13  10    0.10    0.10
  -2  13 -10    0.45    0.11
   2 -13  10    0.49    0.11
   2 -13  10    0.45    0.10
  -3  13 -10    0.07    0.08
  -3  13 -10    0.13    0.08
   3 -13  10    0.13    0.08
   3 -13  10    0.20    0.09
  -4  13 -10    0.40    0.11
  -4  13 -10    0.05    0.14
  -4  13 -10    0.27    0.09
   4 -13  10    0.08    0.13
   4 -13  10    0.24    0.09
  -5  13 -10    0.07    0.15
  -5  13 -10   -0.06    0.08
   5 -13  10   -0.07    0.12
   5 -13  10    0.23    0.09
  -6  13 -10    0.14    0.10
  -6  13 -10   -0.11    0.15
   6 -13  10   -0.01    0.11
   6 -13  10    0.13    0.08
  -7  13 -10    0.17    0.17
  -7  13 -10    0.18    0.11
  -8  13 -10    0.20    0.19
  -8  13 -10    0.19    0.11
  -9  13 -10    0.22    0.12
  -9  13 -10    0.26    0.19
   6  12 -10   -0.17    0.09
  -6 -12  10    0.11    0.13
  -5 -12  10   -0.02    0.11
   4  12 -10    0.06    0.06
  -4 -12  10    0.09    0.11
   3  12 -10    0.83    0.11
  -3 -12  10    0.81    0.14
   2  12 -10    0.82    0.11
  -2 -12  10    0.79    0.13
   1  12 -10    0.34    0.09
  -1 -12  10    0.35    0.11
   0  12 -10    3.68    0.21
   0 -12  10    3.49    0.20
  -1  12 -10    0.21    0.11
  -1  12 -10    0.21    0.07
  -1  12 -10    0.43    0.11
   1 -12  10    0.35    0.10
   1 -12  10    0.56    0.10
  -2  12 -10    1.07    0.11
  -2  12 -10    1.07    0.13
   2 -12  10    1.19    0.14
   2 -12  10    0.96    0.11
  -3  12 -10    0.15    0.07
  -3  12 -10    0.17    0.08
  -3  12 -10    0.06    0.12
   3 -12  10    0.19    0.07
   3 -12  10   -0.11    0.11
   3 -12  10    0.11    0.08
  -4  12 -10    0.50    0.09
  -4  12 -10    0.39    0.15
   4 -12  10    0.52    0.10
   4 -12  10    0.19    0.12
  -5  12 -10   -0.06    0.14
  -5  12 -10    0.04    0.08
   5 -12  10   -0.08    0.10
   5 -12  10    0.04    0.07
  -6  12 -10    1.07    0.14
  -6  12 -10    1.55    0.23
   6 -12  10    1.17    0.16
   6 -12  10    1.36    0.15
  -7  12 -10    0.77    0.20
  -7  12 -10    0.67    0.13
   7 -12  10    0.93    0.11
  -8  12 -10   -0.06    0.16
  -8  12 -10    0.06    0.11
  -9  12 -10    0.02    0.11
  -9  12 -10   -0.12    0.16
   7  11 -10   -0.06    0.09
  -7 -11  10   -0.10    0.11
   6  11 -10    0.27    0.12
  -6 -11  10    0.56    0.14
   5  11 -10    0.93    0.09
   5  11 -10    0.89    0.15
  -5 -11  10    1.05    0.16
   4  11 -10    0.64    0.10
  -4 -11  10    0.47    0.13
   3  11 -10    0.04    0.06
  -3 -11  10    0.06    0.10
   2  11 -10    0.35    0.09
  -2 -11  10    0.37    0.10
   1  11 -10    1.00    0.16
   1  11 -10    0.80    0.12
  -1 -11  10    0.77    0.11
   0  11 -10    0.17    0.11
   0  11 -10    0.08    0.07
   0  11 -10    0.02    0.06
   0 -11  10    0.06    0.06
   0 -11  10    0.12    0.08
  -1  11 -10   -0.01    0.06
  -1  11 -10    0.20    0.13
  -1  11 -10   -0.01    0.06
   1 -11  10    0.09    0.07
   1 -11  10    0.04    0.07
  -2  11 -10    0.11    0.07
  -2  11 -10    0.07    0.11
  -2  11 -10    0.15    0.07
  -2  11 -10    0.15    0.24
   2 -11  10   -0.01    0.10
   2 -11  10    0.20    0.07
   2 -11  10    0.13    0.07
  -3  11 -10    0.68    0.17
  -3  11 -10    0.77    0.10
  -3  11 -10    0.52    0.13
   3 -11  10    0.52    0.13
   3 -11  10    0.72    0.10
  -4  11 -10   -0.03    0.27
  -4  11 -10    0.15    0.08
  -4  11 -10    0.06    0.11
   4 -11  10    0.04    0.06
   4 -11  10    0.01    0.10
  -5  11 -10    0.41    0.14
  -5  11 -10    0.46    0.11
   5 -11  10    0.49    0.13
   5 -11  10    0.58    0.10
  -6  11 -10    1.87    0.17
  -6  11 -10    1.58    0.21
   6 -11  10    1.83    0.18
   6 -11  10    2.00    0.15
  -7  11 -10    0.00    0.09
  -7  11 -10    0.31    0.16
   7 -11  10   -0.03    0.09
   7 -11  10    0.12    0.07
  -8  11 -10    0.14    0.11
  -8  11 -10   -0.01    0.14
   8 -11  10   -0.03    0.09
  -9  11 -10    0.05    0.16
  -9  11 -10    0.03    0.11
   9 -11  10    0.18    0.11
 -10  11 -10    0.17    0.15
 -10  11 -10    0.05    0.12
  10 -11  10    0.11    0.10
   8  10 -10    0.18    0.11
  -8 -10  10   -0.03    0.12
   7  10 -10    0.60    0.13
  -7 -10  10    0.72    0.15
   6  10 -10    0.09    0.06
   6  10 -10   -0.03    0.08
  -6 -10  10    0.01    0.11
   5  10 -10    0.63    0.10
   5  10 -10    0.48    0.11
  -5 -10  10    0.31    0.14
  -5 -10  10    0.65    0.14
   4  10 -10   -0.05    0.06
  -4 -10  10    0.03    0.10
   3  10 -10   -0.14    0.13
   3  10 -10    0.09    0.07
  -3 -10  10    0.08    0.09
   2  10 -10    1.00    0.16
   2  10 -10    0.64    0.18
  -2 -10  10    0.87    0.11
   1  10 -10    0.35    0.11
   1  10 -10    0.47    0.10
   1  10 -10    0.23    0.06
  -1 -10  10    0.49    0.09
  -1 -10  10    0.20    0.07
   0  10 -10    1.23    0.17
   0  10 -10    0.87    0.13
   0  10 -10    0.97    0.10
   0  10 -10    1.16    0.13
   0 -10  10    0.97    0.16
   0 -10  10    1.01    0.10
   0 -10  10    1.22    0.13
  -1  10 -10    0.25    0.07
  -1  10 -10    0.11    0.06
  -1  10 -10    0.32    0.31
   1 -10  10    0.14    0.06
   1 -10  10    0.18    0.07
   1 -10  10    0.10    0.10
  -2  10 -10    0.08    0.07
  -2  10 -10    0.20    0.14
  -2  10 -10    0.21    0.10
  -2  10 -10    0.07    0.06
   2 -10  10    0.04    0.10
   2 -10  10    0.12    0.06
   2 -10  10    0.12    0.06
  -3  10 -10    3.36    0.22
  -3  10 -10    3.38    0.17
  -3  10 -10    3.13    0.32
   3 -10  10    3.04    0.21
   3 -10  10    3.38    0.17
  -4  10 -10    1.19    0.16
  -4  10 -10    1.34    0.21
  -4  10 -10    0.95    0.11
   4 -10  10    1.07    0.15
   4 -10  10    1.22    0.12
   4 -10  10    0.97    0.12
  -5  10 -10    0.12    0.11
  -5  10 -10   -0.03    0.13
  -5  10 -10    0.23    0.09
   5 -10  10    0.03    0.08
   5 -10  10    0.01    0.06
   5 -10  10    0.13    0.09
  -6  10 -10    0.35    0.13
  -6  10 -10    0.41    0.10
   6 -10  10    0.27    0.07
   6 -10  10    0.35    0.10
   6 -10  10    0.45    0.11
  -7  10 -10    0.32    0.11
  -7  10 -10    0.18    0.13
   7 -10  10    0.38    0.10
  -8  10 -10    0.14    0.13
  -8  10 -10    0.14    0.10
   8 -10  10    0.04    0.09
  -9  10 -10   -0.09    0.12
   9 -10  10    0.17    0.09
 -10  10 -10    0.18    0.15
  10 -10  10    0.06    0.10
   9   9 -10   -0.09    0.09
  -9  -9  10    0.00    0.13
   8   9 -10   -0.06    0.09
  -8  -9  10    0.06    0.12
   7   9 -10    0.03    0.09
  -7  -9  10    0.44    0.13
   6   9 -10    0.00    0.06
   6   9 -10    0.14    0.09
  -6  -9  10    0.02    0.11
  -6  -9  10   -0.16    0.10
   5   9 -10   -0.03    0.06
   5   9 -10   -0.01    0.08
  -5  -9  10    0.14    0.10
  -5  -9  10   -0.14    0.09
   4   9 -10    1.88    0.15
   4   9 -10    1.71    0.44
  -4  -9  10    1.19    0.16
  -4  -9  10    1.73    0.16
   3   9 -10    1.80    0.15
   3   9 -10    1.71    0.21
  -3  -9  10    1.75    0.19
  -3  -9  10    1.90    0.15
   2   9 -10    0.84    0.11
   2   9 -10    0.73    0.08
   2   9 -10    0.90    0.14
  -2  -9  10    0.74    0.10
  -2  -9  10    0.84    0.14
  -2  -9  10    0.80    0.10
   1   9 -10    1.42    0.17
   1   9 -10    1.39    0.11
   1   9 -10    1.23    0.13
  -1  -9  10    1.42    0.16
  -1  -9  10    1.43    0.13
  -1  -9  10    1.47    0.13
   0   9 -10    0.72    0.10
   0   9 -10    0.84    0.36
   0   9 -10    0.78    0.09
   0  -9  10    0.80    0.09
   0  -9  10    0.79    0.11
   0  -9  10    0.80    0.13
  -1   9 -10   -0.03    0.05
  -1   9 -10    0.14    0.07
  -1   9 -10    0.11    0.18
  -1   9 -10    0.07    0.07
   1  -9  10    0.00    0.08
   1  -9  10   -0.06    0.05
   1  -9  10    0.01    0.05
  -2   9 -10    0.63    0.11
  -2   9 -10    0.66    0.15
  -2   9 -10    0.45    0.09
   2  -9  10    0.58    0.12
   2  -9  10    0.48    0.10
   2  -9  10    0.53    0.09
  -3   9 -10    0.89    0.11
  -3   9 -10    0.81    0.13
  -3   9 -10    0.77    0.17
   3  -9  10    1.10    0.12
   3  -9  10    0.94    0.10
   3  -9  10    0.85    0.13
  -4   9 -10    2.89    0.17
  -4   9 -10    3.00    0.21
  -4   9 -10    3.03    0.28
   4  -9  10    2.88    0.19
   4  -9  10    3.10    0.15
   4  -9  10    3.23    0.18
  -5   9 -10    0.95    0.15
  -5   9 -10    1.13    0.12
  -5   9 -10    1.03    0.50
   5  -9  10    1.04    0.13
   5  -9  10    1.33    0.15
   5  -9  10    1.22    0.11
  -6   9 -10    0.03    0.10
  -6   9 -10    0.19    0.08
   6  -9  10    0.15    0.08
   6  -9  10    0.14    0.09
  -7   9 -10    0.61    0.15
   7  -9  10    0.82    0.12
  -8   9 -10    0.17    0.12
   8  -9  10    0.23    0.09
  -9   9 -10    0.45    0.16
   9  -9  10    0.66    0.12
 -10   9 -10    0.14    0.15
  10  -9  10    0.04    0.09
   9   8 -10    0.18    0.11
  -9  -8  10    0.09    0.13
   8   8 -10    0.37    0.11
  -8  -8  10    0.34    0.13
   7   8 -10    0.15    0.09
   7   8 -10    0.09    0.07
  -7  -8  10    0.04    0.11
   6   8 -10    0.02    0.06
   6   8 -10   -0.03    0.07
  -6  -8  10    0.07    0.10
  -6  -8  10   -0.01    0.09
   5   8 -10    0.78    0.13
   5   8 -10    0.56    0.10
  -5  -8  10    0.63    0.11
  -5  -8  10    0.55    0.13
   4   8 -10    2.71    0.16
   4   8 -10    3.27    0.21
  -4  -8  10    2.51    0.17
  -4  -8  10    2.66    0.19
   3   8 -10    0.11    0.06
   3   8 -10    0.17    0.05
   3   8 -10    0.19    0.08
  -3  -8  10    0.22    0.08
  -3  -8  10    0.16    0.07
  -3  -8  10    0.10    0.09
   2   8 -10   15.81    0.48
   2   8 -10   16.05    0.38
   2   8 -10   14.44    0.32
  -2  -8  10   15.75    0.38
  -2  -8  10   15.14    0.41
  -2  -8  10   14.98    0.34
   1   8 -10    0.36    0.08
   1   8 -10    0.56    0.09
   1   8 -10    0.39    0.11
  -1  -8  10    0.26    0.10
  -1  -8  10    0.26    0.07
  -1  -8  10    0.51    0.08
   0   8 -10   16.35    0.36
   0   8 -10   16.36    0.38
   0   8 -10   16.16    0.70
   0   8 -10   16.64    0.40
   0  -8  10   15.73    0.42
   0  -8  10   16.45    0.33
   0  -8  10   16.71    0.38
  -1   8 -10   20.52    0.58
  -1   8 -10   20.98    0.43
  -1   8 -10   21.35    0.49
   1  -8  10   20.59    0.36
   1  -8  10   21.45    0.44
   1  -8  10   22.05    0.45
   1  -8  10   20.59    0.50
  -2   8 -10    8.75    0.26
  -2   8 -10    8.59    0.37
  -2   8 -10    8.30    0.29
   2  -8  10    9.10    0.25
   2  -8  10    8.16    0.25
   2  -8  10    8.98    0.30
  -3   8 -10   -0.24    0.07
  -3   8 -10   -0.08    0.11
  -3   8 -10    0.01    0.07
  -3   8 -10    0.04    0.07
   3  -8  10    0.00    0.07
   3  -8  10    0.00    0.04
   3  -8  10   -0.03    0.05
  -4   8 -10    0.69    0.12
  -4   8 -10    0.77    0.10
  -4   8 -10    0.80    0.28
   4  -8  10    0.58    0.09
   4  -8  10    0.88    0.13
   4  -8  10    0.83    0.13
  -5   8 -10   -0.25    0.11
  -5   8 -10    0.01    0.08
  -5   8 -10    0.03    0.07
   5  -8  10    0.00    0.07
   5  -8  10    0.05    0.07
  -6   8 -10    1.03    0.16
  -6   8 -10    0.72    0.19
   6  -8  10    1.08    0.12
   6  -8  10    1.41    0.14
  -7   8 -10    0.78    0.15
   7  -8  10    0.90    0.12
  -8   8 -10    0.79    0.16
   8  -8  10    0.74    0.12
  -9   8 -10    0.00    0.11
   9  -8  10    0.13    0.09
 -10   8 -10   -0.11    0.12
  10  -8  10    0.10    0.09
  10   7 -10    0.01    0.10
 -10  -7  10    0.14    0.13
   9   7 -10    0.06    0.10
  -9  -7  10    0.07    0.11
   8   7 -10   -0.02    0.06
   8   7 -10    0.03    0.08
  -8  -7  10    0.01    0.11
   7   7 -10    0.94    0.11
   7   7 -10    0.98    0.14
  -7  -7  10    1.05    0.14
   6   7 -10    0.40    0.09
   6   7 -10    0.71    0.20
  -6  -7  10    0.57    0.11
  -6  -7  10    0.50    0.10
   5   7 -10    3.04    0.20
   5   7 -10    2.73    0.21
   5   7 -10    2.59    0.16
  -5  -7  10    2.74    0.18
  -5  -7  10    2.61    0.17
   4   7 -10    0.39    0.10
   4   7 -10    0.25    0.08
   4   7 -10    0.30    0.06
   4   7 -10    0.30    0.08
  -4  -7  10    0.27    0.08
  -4  -7  10    0.35    0.10
  -4  -7  10    0.34    0.14
   3   7 -10    0.15    0.07
   3   7 -10    0.20    0.06
   3   7 -10    0.16    0.08
  -3  -7  10    0.25    0.09
  -3  -7  10    0.18    0.07
  -3  -7  10    0.13    0.10
   2   7 -10    0.60    0.09
   2   7 -10    0.62    0.12
   2   7 -10    0.58    0.09
  -2  -7  10    0.54    0.08
  -2  -7  10    0.71    0.12
  -2  -7  10    0.63    0.09
   1   7 -10    2.31    0.15
   1   7 -10    2.46    0.24
   1   7 -10    2.49    0.14
   1   7 -10    2.39    0.14
   1   7 -10    2.61    0.15
  -1  -7  10    2.51    0.12
  -1  -7  10    2.89    0.18
  -1  -7  10    2.81    0.15
   0   7 -10    0.34    0.07
   0   7 -10    0.41    0.08
   0   7 -10    0.32    0.08
   0   7 -10    0.45    0.24
   0   7 -10    0.30    0.12
   0  -7  10    0.30    0.10
   0  -7  10    0.30    0.07
   0  -7  10    0.36    0.05
   0  -7  10    0.26    0.07
  -1   7 -10    0.48    0.12
  -1   7 -10    0.85    0.15
  -1   7 -10    0.77    0.11
  -1   7 -10    0.77    0.10
   1  -7  10    0.71    0.09
   1  -7  10    0.79    0.09
   1  -7  10    0.79    0.12
  -2   7 -10   -0.01    0.09
  -2   7 -10    0.07    0.11
  -2   7 -10    0.18    0.07
  -2   7 -10    0.20    0.08
   2  -7  10    0.13    0.12
   2  -7  10    0.19    0.08
   2  -7  10    0.17    0.06
  -3   7 -10    0.49    0.12
  -3   7 -10    0.68    0.10
  -3   7 -10    0.79    0.12
  -3   7 -10    0.40    0.14
   3  -7  10    0.69    0.11
   3  -7  10    0.74    0.07
   3  -7  10    0.81    0.10
  -4   7 -10    8.56    0.32
  -4   7 -10    8.27    0.37
   4  -7  10    8.90    0.29
   4  -7  10    8.57    0.25
  -5   7 -10    1.07    0.19
  -5   7 -10    1.02    0.14
   5  -7  10    1.15    0.12
   5  -7  10    1.04    0.13
  -6   7 -10    2.24    0.20
  -6   7 -10    2.24    0.25
   6  -7  10    2.50    0.18
   6  -7  10    2.43    0.16
  -7   7 -10    0.45    0.13
   7  -7  10    0.43    0.09
  -8   7 -10    0.01    0.10
   8  -7  10    0.08    0.08
  -9   7 -10    0.47    0.15
   9  -7  10    0.61    0.11
 -10   7 -10   -0.03    0.12
  10  -7  10    0.12    0.08
 -11  -6  10    0.10    0.14
  10   6 -10    0.14    0.10
 -10  -6  10    0.15    0.13
   9   6 -10   -0.03    0.09
   9   6 -10   -0.02    0.06
  -9  -6  10   -0.12    0.11
   8   6 -10    0.12    0.09
   8   6 -10    0.05    0.06
  -8  -6  10    0.07    0.10
   7   6 -10    1.47    0.14
   7   6 -10    2.29    0.22
  -7  -6  10    1.55    0.15
   6   6 -10    0.35    0.16
   6   6 -10    0.31    0.10
   6   6 -10    0.37    0.08
  -6  -6  10    0.48    0.10
  -6  -6  10    0.23    0.09
   5   6 -10    0.80    0.07
   5   6 -10    0.78    0.12
   5   6 -10    0.90    0.11
   5   6 -10    1.24    0.14
  -5  -6  10    0.82    0.10
  -5  -6  10    1.05    0.13
   4   6 -10    2.91    0.16
   4   6 -10    2.97    0.19
   4   6 -10    3.43    0.20
   4   6 -10    2.66    0.14
  -4  -6  10    3.07    0.16
  -4  -6  10    2.88    0.17
  -4  -6  10    2.99    0.17
   3   6 -10    0.32    0.08
   3   6 -10    0.24    0.08
   3   6 -10    0.42    0.26
   3   6 -10    0.33    0.07
  -3  -6  10    0.35    0.07
  -3  -6  10    0.43    0.09
  -3  -6  10    0.28    0.07
   2   6 -10    2.70    0.15
   2   6 -10    2.62    0.15
   2   6 -10    2.79    0.20
  -2  -6  10    2.56    0.13
  -2  -6  10    2.80    0.15
  -2  -6  10    2.52    0.16
  -2  -6  10    2.88    0.13
   1   6 -10    2.16    0.14
   1   6 -10    1.86    0.12
   1   6 -10    1.95    0.22
   1   6 -10    1.89    0.14
   1   6 -10    1.67    0.19
   1   6 -10    2.07    0.13
  -1  -6  10    2.09    0.10
  -1  -6  10    1.92    0.15
  -1  -6  10    2.06    0.12
  -1  -6  10    2.14    0.13
  -1  -6  10    2.28    0.13
   0   6 -10    1.05    0.15
   0   6 -10    1.22    0.11
   0   6 -10    1.37    0.12
   0   6 -10    1.42    0.17
   0  -6  10    1.16    0.10
   0  -6  10    1.27    0.11
   0  -6  10    1.36    0.14
   0  -6  10    1.19    0.11
  -1   6 -10   -0.03    0.06
  -1   6 -10    0.09    0.11
  -1   6 -10   -0.10    0.09
   1  -6  10    0.08    0.07
   1  -6  10   -0.04    0.05
   1  -6  10    0.02    0.05
   1  -6  10    0.08    0.05
  -2   6 -10   13.09    0.30
  -2   6 -10   13.05    0.42
  -2   6 -10   12.51    0.40
   2  -6  10   13.05    0.36
   2  -6  10   12.75    0.28
   2  -6  10   12.59    0.34
   2  -6  10   13.60    0.31
  -3   6 -10    1.89    0.20
  -3   6 -10    2.29    0.23
   3  -6  10    2.39    0.14
   3  -6  10    2.32    0.15
  -4   6 -10    2.88    0.25
  -4   6 -10    3.39    0.20
   4  -6  10    3.50    0.19
   4  -6  10    3.55    0.16
  -5   6 -10    0.15    0.08
  -5   6 -10   -0.01    0.11
   5  -6  10    0.03    0.06
   5  -6  10    0.13    0.08
  -6   6 -10   -0.18    0.12
  -6   6 -10    0.10    0.09
   6  -6  10   -0.04    0.06
  -7   6 -10    0.53    0.12
   7  -6  10    0.38    0.09
  -8   6 -10    0.28    0.12
   8  -6  10    0.14    0.08
  -9   6 -10    0.55    0.15
   9  -6  10    0.52    0.10
 -10   6 -10    0.10    0.13
  10  -6  10    0.10    0.08
 -11  -5  10    0.55    0.15
  10   5 -10    0.33    0.07
 -10  -5  10    0.13    0.12
   9   5 -10    0.09    0.07
  -9  -5  10    0.09    0.10
   8   5 -10    1.99    0.18
   8   5 -10    1.63    0.15
  -8  -5  10    1.25    0.15
   7   5 -10    0.32    0.17
   7   5 -10    0.10    0.07
  -7  -5  10    0.12    0.09
   6   5 -10    0.25    0.07
   6   5 -10    0.26    0.22
   6   5 -10    0.13    0.08
   6   5 -10    0.21    0.05
  -6  -5  10    0.19    0.08
  -6  -5  10    0.18    0.07
   5   5 -10    0.91    0.11
   5   5 -10    0.97    0.13
   5   5 -10    0.98    0.13
   5   5 -10    0.98    0.09
  -5  -5  10    0.88    0.11
  -5  -5  10    0.82    0.10
  -5  -5  10    0.94    0.32
   4   5 -10    8.47    0.30
   4   5 -10    8.41    0.24
   4   5 -10    7.84    0.30
   4   5 -10    8.61    0.25
  -4  -5  10    8.59    0.27
  -4  -5  10    8.40    0.27
  -4  -5  10    8.46    0.23
   3   5 -10    1.29    0.12
   3   5 -10    1.34    0.12
   3   5 -10    0.97    0.10
   3   5 -10    1.35    0.12
   3   5 -10    1.15    0.17
   3   5 -10    1.56    0.15
  -3  -5  10    1.30    0.12
  -3  -5  10    1.50    0.12
  -3  -5  10    1.42    0.10
   2   5 -10    4.18    0.25
   2   5 -10    4.24    0.17
   2   5 -10    4.54    0.22
   2   5 -10    4.11    0.17
  -2  -5  10    4.31    0.17
  -2  -5  10    4.32    0.13
  -2  -5  10    4.32    0.17
  -2  -5  10    4.37    0.19
  -2  -5  10    4.20    0.17
   1   5 -10    0.43    0.07
   1   5 -10    0.35    0.07
   1   5 -10    0.49    0.14
   1   5 -10    0.27    0.11
  -1  -5  10    0.36    0.06
  -1  -5  10    0.39    0.07
  -1  -5  10    0.41    0.09
  -1  -5  10    0.34    0.07
   0   5 -10    3.51    0.24
   0   5 -10    3.27    0.21
   0   5 -10    3.62    0.15
   0  -5  10    3.29    0.16
   0  -5  10    3.39    0.17
   0  -5  10    3.55    0.15
   0  -5  10    3.55    0.14
  -1   5 -10    0.50    0.12
  -1   5 -10    0.54    0.07
  -1   5 -10    0.42    0.12
   1  -5  10    0.41    0.13
   1  -5  10    0.42    0.07
   1  -5  10    0.60    0.09
   1  -5  10    0.48    0.10
  -2   5 -10    2.15    0.19
  -2   5 -10    2.90    0.56
   2  -5  10    2.57    0.13
   2  -5  10    2.65    0.16
   2  -5  10    2.54    0.15
  -3   5 -10    5.29    0.28
  -3   5 -10    5.13    0.52
   3  -5  10    5.51    0.19
   3  -5  10    5.59    0.22
   3  -5  10    5.71    0.24
  -4   5 -10    5.16    0.33
   4  -5  10    5.49    0.25
   4  -5  10    5.51    0.23
   4  -5  10    5.59    0.19
  -5   5 -10    0.30    0.14
   5  -5  10    0.17    0.08
   5  -5  10    0.25    0.07
  -6   5 -10    0.10    0.08
  -6   5 -10   -0.17    0.11
   6  -5  10    0.04    0.06
  -7   5 -10    0.30    0.11
   7  -5  10    0.31    0.08
  -8   5 -10    0.73    0.15
   8  -5  10    0.69    0.10
  -9   5 -10    0.10    0.11
   9  -5  10   -0.05    0.07
 -10   5 -10    0.25    0.14
  10  -5  10    0.22    0.09
 -11  -4  10    0.41    0.14
  10   4 -10    0.14    0.07
 -10  -4  10    0.21    0.12
   9   4 -10    0.54    0.09
  -9  -4  10    0.80    0.13
   8   4 -10    0.14    0.07
   8   4 -10    0.31    0.09
  -8  -4  10   -0.10    0.08
   7   4 -10    0.53    0.09
   7   4 -10    0.46    0.12
   7   4 -10    0.78    0.12
  -7  -4  10    0.68    0.10
   6   4 -10    1.19    0.15
   6   4 -10    1.21    0.12
   6   4 -10    1.52    0.16
   6   4 -10    1.17    0.11
  -6  -4  10    1.28    0.14
  -6  -4  10    1.09    0.11
  -6  -4  10    1.17    0.12
   5   4 -10    3.74    0.16
   5   4 -10    3.68    0.21
   5   4 -10    3.63    0.16
   5   4 -10    3.93    0.18
   5   4 -10    3.99    0.19
  -5  -4  10    3.65    0.16
  -5  -4  10    3.86    0.37
  -5  -4  10    3.59    0.17
   4   4 -10    2.89    0.15
   4   4 -10    2.56    0.17
   4   4 -10    2.68    0.15
   4   4 -10    2.83    0.16
  -4  -4  10    2.86    0.15
  -4  -4  10    2.73    0.13
  -4  -4  10    2.88    0.20
   3   4 -10    2.09    0.14
   3   4 -10    2.33    0.18
   3   4 -10    1.99    0.13
   3   4 -10    1.73    0.13
   3   4 -10    1.68    0.18
  -3  -4  10    1.89    0.19
  -3  -4  10    1.80    0.10
  -3  -4  10    1.68    0.12
  -3  -4  10    1.86    0.11
  -3  -4  10    1.95    0.13
   2   4 -10   -0.04    0.09
   2   4 -10   -0.04    0.07
   2   4 -10    0.00    0.06
  -2  -4  10   -0.01    0.04
  -2  -4  10    0.05    0.06
  -2  -4  10    0.03    0.04
  -2  -4  10    0.00    0.04
   1   4 -10    1.74    0.12
   1   4 -10    1.73    0.26
   1   4 -10    1.44    0.16
  -1  -4  10    1.64    0.11
  -1  -4  10    1.82    0.12
  -1  -4  10    1.85    0.12
   0   4 -10    1.35    0.21
   0   4 -10    1.12    0.10
   0   4 -10    1.00    0.14
   0  -4  10    1.10    0.11
   0  -4  10    1.04    0.08
   0  -4  10    0.97    0.09
   0  -4  10    1.14    0.11
  -1   4 -10    4.12    0.23
  -1   4 -10    3.80    0.22
   1  -4  10    3.82    0.18
   1  -4  10    4.14    0.15
   1  -4  10    3.80    0.18
  -2   4 -10    2.34    0.20
  -2   4 -10    2.24    0.19
   2  -4  10    2.50    0.13
   2  -4  10    2.34    0.15
   2  -4  10    2.34    0.16
  -3   4 -10   -0.10    0.15
  -3   4 -10   -0.07    0.08
   3  -4  10    0.00    0.05
   3  -4  10   -0.03    0.06
   3  -4  10   -0.03    0.06
  -4   4 -10    1.47    0.19
   4  -4  10    1.52    0.15
   4  -4  10    1.31    0.10
   4  -4  10    1.16    0.15
  -5   4 -10    1.57    0.19
   5  -4  10    2.06    0.15
   5  -4  10    2.11    0.18
   5  -4  10    2.01    0.12
  -6   4 -10    0.41    0.15
   6  -4  10    0.49    0.08
  -7   4 -10    0.02    0.08
   7  -4  10   -0.01    0.06
  -8   4 -10    0.09    0.10
   8  -4  10    0.04    0.07
  -9   4 -10    0.21    0.12
   9  -4  10    0.13    0.08
 -12  -3  10   -0.20    0.12
 -11  -3  10    0.29    0.12
  10   3 -10    0.06    0.07
 -10  -3  10    0.03    0.11
   9   3 -10    0.16    0.07
  -9  -3  10    0.27    0.10
   8   3 -10    2.37    0.16
   8   3 -10    2.12    0.17
  -8  -3  10    2.00    0.17
   7   3 -10    1.39    0.18
   7   3 -10    1.38    0.12
   7   3 -10    1.54    0.14
   7   3 -10    1.57    0.14
  -7  -3  10    1.28    0.12
  -7  -3  10    1.39    0.14
   6   3 -10    0.80    0.10
   6   3 -10    0.52    0.22
   6   3 -10    0.58    0.15
   6   3 -10    0.72    0.09
  -6  -3  10    0.72    0.09
  -6  -3  10    0.59    0.09
  -6  -3  10    0.76    0.11
   5   3 -10    0.08    0.13
   5   3 -10    0.12    0.07
   5   3 -10    0.03    0.06
   5   3 -10    0.03    0.06
  -5  -3  10    0.03    0.06
  -5  -3  10    0.08    0.06
  -5  -3  10    0.07    0.06
   4   3 -10    0.89    0.11
   4   3 -10    0.83    0.09
   4   3 -10    0.95    0.10
   4   3 -10    0.91    0.15
   4   3 -10    1.15    0.12
  -4  -3  10    0.95    0.11
  -4  -3  10    0.98    0.09
  -4  -3  10    1.07    0.11
  -4  -3  10    0.75    0.07
  -4  -3  10    0.81    0.09
   3   3 -10    0.53    0.09
   3   3 -10    0.82    0.20
   3   3 -10    0.68    0.09
   3   3 -10    0.56    0.12
  -3  -3  10    0.80    0.10
  -3  -3  10    0.78    0.09
  -3  -3  10    0.75    0.08
  -3  -3  10    0.69    0.06
  -3  -3  10    0.73    0.09
   2   3 -10    7.79    0.22
   2   3 -10    7.65    0.25
   2   3 -10    8.25    0.31
   2   3 -10    8.04    0.26
  -2  -3  10    7.94    0.25
  -2  -3  10    7.72    0.25
  -2  -3  10    7.62    0.22
  -2  -3  10    7.83    0.21
   1   3 -10    1.28    0.14
   1   3 -10    1.05    0.09
   1   3 -10    0.96    0.13
  -1  -3  10    0.95    0.12
  -1  -3  10    0.93    0.11
  -1  -3  10    0.93    0.08
  -1  -3  10    1.05    0.10
   0   3 -10    0.11    0.09
   0   3 -10    0.08    0.08
   0  -3  10   -0.08    0.04
   0  -3  10    0.01    0.04
   0  -3  10    0.02    0.05
  -1   3 -10    1.78    0.17
  -1   3 -10    1.66    0.16
   1  -3  10    1.56    0.12
   1  -3  10    1.59    0.13
   1  -3  10    1.63    0.11
  -2   3 -10    0.10    0.10
  -2   3 -10    0.42    0.26
   2  -3  10    0.26    0.06
   2  -3  10    0.23    0.07
   2  -3  10    0.22    0.08
  -3   3 -10    0.26    0.15
  -3   3 -10    0.22    0.11
   3  -3  10    0.28    0.08
   3  -3  10    0.13    0.08
   3  -3  10    0.16    0.05
  -4   3 -10    0.01    0.10
   4  -3  10    0.08    0.08
   4  -3  10    0.07    0.05
   4  -3  10   -0.11    0.06
  -5   3 -10   -0.27    0.09
   5  -3  10    0.08    0.07
   5  -3  10   -0.08    0.05
   5  -3  10    0.04    0.08
  -6   3 -10   -0.26    0.11
   6  -3  10   -0.04    0.09
   6  -3  10    0.08    0.06
   7  -3  10    0.70    0.09
  -8   3 -10    0.11    0.11
   8  -3  10    0.09    0.07
  -9   3 -10    0.17    0.12
   9  -3  10    0.09    0.07
 -12  -2  10   -0.11    0.11
  11   2 -10    0.08    0.08
 -11  -2  10    0.15    0.11
  10   2 -10    0.22    0.08
 -10  -2  10    0.16    0.10
   9   2 -10    0.35    0.09
  -9  -2  10    0.53    0.11
   8   2 -10    0.05    0.07
   8   2 -10    0.09    0.07
  -8  -2  10   -0.05    0.07
  -8  -2  10   -0.07    0.07
   7   2 -10    0.02    0.07
   7   2 -10    0.04    0.06
   7   2 -10    0.10    0.09
  -7  -2  10   -0.02    0.06
  -7  -2  10    0.05    0.06
   6   2 -10    2.67    0.15
   6   2 -10    2.74    0.16
   6   2 -10    2.66    0.20
  -6  -2  10    2.73    0.15
  -6  -2  10    2.84    0.16
  -6  -2  10    2.46    0.14
   5   2 -10    1.36    0.13
   5   2 -10    1.30    0.16
   5   2 -10    1.60    0.12
  -5  -2  10    1.42    0.12
  -5  -2  10    1.50    0.11
  -5  -2  10    1.35    0.12
  -5  -2  10    1.49    0.10
   4   2 -10    0.09    0.10
   4   2 -10    0.13    0.07
   4   2 -10    0.03    0.07
  -4  -2  10    0.12    0.05
  -4  -2  10    0.18    0.06
  -4  -2  10    0.27    0.08
  -4  -2  10    0.19    0.04
  -4  -2  10    0.17    0.06
   3   2 -10    4.24    0.23
   3   2 -10    4.50    0.17
   3   2 -10    4.49    0.24
  -3  -2  10    4.22    0.18
  -3  -2  10    4.37    0.17
  -3  -2  10    4.07    0.27
  -3  -2  10    4.43    0.18
  -3  -2  10    4.50    0.20
   2   2 -10    1.26    0.27
   2   2 -10    1.63    0.12
   2   2 -10    1.43    0.11
   2   2 -10    1.58    0.17
  -2  -2  10    1.47    0.11
  -2  -2  10    1.68    0.13
  -2  -2  10    1.59    0.12
  -2  -2  10    1.49    0.09
   1   2 -10    1.65    0.31
   1   2 -10    1.72    0.12
   1   2 -10    1.67    0.28
  -1  -2  10    1.76    0.13
  -1  -2  10    1.62    0.12
  -1  -2  10    1.61    0.13
  -1  -2  10    1.76    0.11
   0   2 -10    0.68    0.11
   0   2 -10    0.57    0.10
   0  -2  10    0.73    0.10
   0  -2  10    0.77    0.08
   0  -2  10    0.74    0.10
  -1   2 -10    2.44    0.18
  -1   2 -10    2.85    0.22
   1  -2  10    2.61    0.12
   1  -2  10    2.88    0.17
   1  -2  10    2.91    0.16
  -2   2 -10    0.13    0.21
   2  -2  10    0.15    0.05
   2  -2  10    0.16    0.08
   2  -2  10    0.22    0.08
  -3   2 -10   -0.16    0.09
   3  -2  10    0.05    0.05
   3  -2  10    0.12    0.07
   3  -2  10   -0.09    0.06
  -4   2 -10    0.28    0.12
   4  -2  10    0.49    0.11
   4  -2  10    0.57    0.07
   4  -2  10    0.58    0.12
  -5   2 -10    0.16    0.13
   5  -2  10    0.32    0.09
   5  -2  10    0.33    0.11
   5  -2  10    0.35    0.06
   6  -2  10    0.07    0.05
   6  -2  10    0.07    0.10
   7  -2  10    0.09    0.06
   7  -2  10    0.00    0.10
  -8   2 -10    0.44    0.13
   8  -2  10    0.18    0.07
  -9   2 -10    0.40    0.13
   9  -2  10    0.11    0.07
 -12  -1  10    0.23    0.12
  11   1 -10    0.12    0.08
 -11  -1  10    0.21    0.11
  10   1 -10    0.09    0.08
 -10  -1  10    0.21    0.10
   9   1 -10    0.09    0.08
  -9  -1  10    0.08    0.09
   8   1 -10    0.57    0.09
   8   1 -10    0.76    0.11
  -8  -1  10    0.68    0.10
  -8  -1  10    0.71    0.11
   7   1 -10    1.03    0.15
   7   1 -10    1.70    0.14
   7   1 -10    1.42    0.13
  -7  -1  10    1.53    0.12
  -7  -1  10    1.72    0.15
   6   1 -10    0.15    0.10
   6   1 -10    0.11    0.07
   6   1 -10    0.33    0.08
  -6  -1  10    0.27    0.07
  -6  -1  10    0.31    0.08
  -6  -1  10    0.30    0.07
  -6  -1  10    0.19    0.06
  -6  -1  10    0.27    0.07
   5   1 -10    0.35    0.11
   5   1 -10    0.51    0.09
  -5  -1  10    0.43    0.08
  -5  -1  10    0.45    0.08
  -5  -1  10    0.52    0.10
  -5  -1  10    0.49    0.05
  -5  -1  10    0.45    0.08
  -5  -1  10    0.51    0.08
   4   1 -10    0.43    0.23
   4   1 -10    0.71    0.09
  -4  -1  10    0.54    0.07
  -4  -1  10    0.61    0.08
  -4  -1  10    0.52    0.09
  -4  -1  10    0.61    0.08
  -4  -1  10    0.54    0.09
   3   1 -10    0.03    0.06
   3   1 -10    0.01    0.08
   3   1 -10   -0.01    0.16
  -3  -1  10    0.00    0.05
  -3  -1  10    0.06    0.04
  -3  -1  10    0.00    0.05
  -3  -1  10   -0.01    0.05
   2   1 -10    0.21    0.09
   2   1 -10    0.30    0.07
   2   1 -10    0.39    0.20
  -2  -1  10    0.27    0.06
  -2  -1  10    0.41    0.08
  -2  -1  10    0.33    0.07
  -2  -1  10    0.30    0.11
  -1  -1  10    9.82    0.29
  -1  -1  10   10.14    0.25
  -1  -1  10    9.78    0.31
   0  -1  10    5.63    0.22
   0  -1  10    5.43    0.24
   0  -1  10    5.59    0.17
   1  -1  10    0.43    0.06
   1  -1  10    0.55    0.10
   1  -1  10    0.50    0.10
   2  -1  10    2.16    0.15
   2  -1  10    2.32    0.11
   2  -1  10    2.52    0.18
   3  -1  10    2.94    0.27
   3  -1  10    2.63    0.19
   3  -1  10    2.85    0.12
   4  -1  10   -0.07    0.04
   4  -1  10    0.06    0.08
   4  -1  10   -0.06    0.07
   5  -1  10   -0.02    0.05
   5  -1  10    0.08    0.08
   5  -1  10   -0.04    0.08
   6  -1  10    0.27    0.06
   6  -1  10    0.32    0.12
   7  -1  10    0.02    0.05
   7  -1  10   -0.12    0.10
  -8   1 -10    0.26    0.11
   8  -1  10   -0.04    0.05
 -12   0  10    0.30    0.12
  11   0 -10    0.05    0.08
 -11   0  10    0.14    0.11
  10   0 -10   -0.02    0.07
 -10   0  10    0.11    0.09
   9   0 -10    0.26    0.09
   9   0 -10    0.35    0.09
  -9   0  10    0.23    0.10
  -9   0  10    0.33    0.09
  -9   0  10    0.13    0.09
   8   0 -10    0.44    0.09
   8   0 -10    0.48    0.09
  -8   0  10    0.35    0.08
  -8   0  10    0.37    0.09
  -8   0  10    0.45    0.10
   7   0 -10    0.00    0.06
   7   0 -10   -0.18    0.17
   7   0 -10    0.17    0.08
  -7   0  10    0.00    0.06
  -7   0  10    0.06    0.06
  -7   0  10   -0.01    0.06
  -7   0  10    0.02    0.06
   6   0 -10    0.50    0.12
   6   0 -10    0.43    0.09
  -6   0  10    0.51    0.09
  -6   0  10    0.61    0.09
  -6   0  10    0.58    0.09
  -6   0  10    0.53    0.09
  -6   0  10    0.53    0.06
   5   0 -10    1.13    0.11
   5   0 -10    0.89    0.14
  -5   0  10    1.21    0.13
  -5   0  10    1.25    0.12
  -5   0  10    1.25    0.11
  -5   0  10    1.17    0.11
   4   0 -10    2.48    0.15
   4   0 -10    2.13    0.21
  -4   0  10    2.72    0.16
  -4   0  10    2.57    0.13
  -4   0  10    2.68    0.14
  -4   0  10    2.82    0.15
   3   0 -10    0.06    0.10
   3   0 -10    0.15    0.07
  -3   0  10    0.22    0.07
  -3   0  10    0.17    0.05
  -3   0  10    0.20    0.07
  -3   0  10    0.21    0.06
   2   0 -10    2.12    0.20
  -2   0  10    2.43    0.16
  -2   0  10    2.51    0.13
  -2   0  10    2.56    0.15
  -1   0  10    0.42    0.07
  -1   0  10    0.45    0.09
  -1   0  10    0.35    0.09
   0   0  10    1.64    0.15
   0   0  10    1.73    0.10
   0   0  10    1.83    0.15
   1   0  10    0.37    0.06
   1   0  10    0.34    0.11
   1   0  10    0.30    0.10
   2   0  10    0.64    0.12
   2   0  10    0.62    0.12
   2   0  10    0.67    0.07
   3   0  10    0.13    0.08
   3   0  10    0.22    0.09
   3   0  10    0.19    0.05
   4   0  10    0.02    0.09
   4   0  10    0.13    0.05
   4   0  10    0.32    0.11
   5   0  10    0.16    0.05
   5   0  10    0.31    0.11
   6   0  10    0.06    0.05
   6   0  10   -0.02    0.10
   7   0  10    0.14    0.12
 -12   1  10    0.09    0.11
  11  -1 -10    0.16    0.09
 -11   1  10    0.19    0.10
  10  -1 -10    0.82    0.12
 -10   1  10    0.81    0.13
 -10   1  10    0.85    0.12
   9  -1 -10    0.06    0.09
   9  -1 -10    0.09    0.08
  -9   1  10    0.19    0.08
  -9   1  10    0.30    0.10
   8  -1 -10    0.56    0.10
   8  -1 -10    0.50    0.09
  -8   1  10    0.77    0.09
  -8   1  10    0.81    0.12
   7  -1 -10    0.21    0.16
  -7   1  10    0.44    0.10
  -7   1  10    0.46    0.09
   6  -1 -10    2.20    0.15
   6  -1 -10    1.57    0.20
  -6   1  10    1.88    0.16
  -6   1  10    1.91    0.14
  -6   1  10    1.90    0.24
  -6   1  10    1.85    0.15
   5  -1 -10    0.08    0.07
   5  -1 -10   -0.20    0.10
  -5   1  10   -0.03    0.05
  -5   1  10    0.02    0.07
  -5   1  10    0.08    0.05
  -5   1  10    0.00    0.05
   4  -1 -10    0.23    0.08
   4  -1 -10   -0.09    0.11
  -4   1  10    0.22    0.05
  -4   1  10    0.24    0.07
  -4   1  10    0.15    0.07
  -4   1  10    0.18    0.07
   3  -1 -10    0.08    0.11
  -3   1  10    0.40    0.09
  -3   1  10    0.39    0.09
  -3   1  10    0.40    0.07
   2  -1 -10    1.05    0.15
  -2   1  10    1.26    0.11
  -2   1  10    1.35    0.15
  -2   1  10    1.26    0.37
  -1   1  10    1.15    0.10
  -1   1  10    1.24    0.14
  -1   1  10    0.98    0.13
   0   1  10    0.03    0.06
   0   1  10    0.06    0.07
   0   1  10    0.08    0.05
   1   1  10    1.82    0.15
   1   1  10    1.66    0.10
   1   1  10    1.74    0.16
   2   1  10    0.87    0.13
   2   1  10    1.19    0.15
   2   1  10    1.00    0.09
   3   1  10    0.03    0.09
   3   1  10   -0.03    0.05
   4   1  10    0.17    0.10
   5   1  10    0.19    0.11
   5   1  10    0.09    0.04
   6   1  10    0.06    0.10
 -12   2  10    0.07    0.10
  11  -2 -10    0.33    0.10
 -11   2  10    0.53    0.12
  10  -2 -10    0.04    0.08
  10  -2 -10    0.00    0.09
 -10   2  10    0.01    0.19
 -10   2  10    0.06    0.08
   9  -2 -10    0.36    0.10
   9  -2 -10    0.23    0.09
  -9   2  10    0.32    0.11
  -9   2  10    0.41    0.08
   8  -2 -10   -0.03    0.08
  -8   2  10   -0.03    0.09
  -8   2  10    0.06    0.07
   7  -2 -10   -0.03    0.08
  -7   2  10    0.03    0.06
  -7   2  10   -0.02    0.06
  -7   2  10   -0.09    0.05
   6  -2 -10    0.39    0.09
   6  -2 -10    0.20    0.14
  -6   2  10    0.37    0.09
  -6   2  10    0.42    0.10
  -6   2  10    0.47    0.09
  -6   2  10    0.38    0.08
   5  -2 -10    4.76    0.20
   5  -2 -10    4.21    0.38
  -5   2  10    4.97    0.22
  -5   2  10    5.22    0.18
  -5   2  10    4.92    0.20
  -5   2  10    4.36    0.22
   4  -2 -10    8.45    0.38
   4  -2 -10    8.91    0.26
  -4   2  10    9.04    0.30
  -4   2  10    8.77    0.32
  -4   2  10    9.19    0.21
  -4   2  10    9.40    0.27
   3  -2 -10    0.45    0.14
  -3   2  10    0.74    0.12
  -3   2  10    0.72    0.12
  -3   2  10    0.72    0.09
   2  -2 -10    3.98    0.27
  -2   2  10    4.66    0.22
  -2   2  10    4.70    0.17
  -2   2  10    4.69    0.24
  -1   2  10    0.35    0.10
  -1   2  10    0.31    0.06
  -1   2  10    0.33    0.09
   0   2  10    0.66    0.12
   0   2  10    0.71    0.12
   0   2  10    0.44    0.07
   1   2  10    0.26    0.06
   1   2  10    0.32    0.10
   2   2  10    0.93    0.09
   2   2  10    0.55    0.13
   3   2  10    0.48    0.13
   3   2  10    0.61    0.07
   4   2  10    0.39    0.06
   4   2  10    0.51    0.13
   5   2  10   -0.01    0.10
 -12   3  10    0.32    0.11
  11  -3 -10    0.52    0.12
 -11   3  10    0.20    0.30
 -11   3  10    0.59    0.11
  10  -3 -10   -0.02    0.10
  10  -3 -10    0.05    0.08
 -10   3  10    0.09    1.02
   9  -3 -10    0.03    0.09
  -9   3  10    0.15    0.14
  -9   3  10    0.02    0.15
   8  -3 -10    0.19    0.10
  -8   3  10    0.28    0.08
  -8   3  10    0.26    0.09
   7  -3 -10    0.26    0.09
  -7   3  10    0.21    0.08
  -7   3  10    0.26    0.09
   6  -3 -10   -0.07    0.08
  -6   3  10   -0.02    0.07
  -6   3  10    0.04    0.06
  -6   3  10    0.13    0.06
   5  -3 -10    0.35    0.15
   5  -3 -10    0.74    0.11
  -5   3  10    0.68    0.10
  -5   3  10    0.74    0.08
  -5   3  10    0.54    0.11
   4  -3 -10   -0.09    0.12
  -4   3  10    0.09    0.06
  -4   3  10    0.03    0.08
  -4   3  10    0.02    0.07
   3  -3 -10    2.10    0.22
  -3   3  10    2.34    0.19
  -3   3  10    2.37    0.14
   2  -3 -10    0.08    0.12
  -2   3  10    0.33    0.10
  -2   3  10    0.26    0.07
  -1   3  10    0.06    0.07
  -1   3  10    0.11    0.05
   0   3  10    0.44    0.11
   0   3  10    0.41    0.07
   1   3  10    0.16    0.10
   1   3  10    0.10    0.05
   2   3  10    0.21    0.06
   2   3  10    0.11    0.10
   3   3  10   -0.03    0.05
   3   3  10    0.05    0.10
   4   3  10    0.24    0.12
   5   3  10   -0.04    0.09
  11  -4 -10    0.25    0.11
  11  -4 -10    0.07    0.10
  10  -4 -10   -0.08    0.10
 -10   4  10   -0.01    0.10
 -10   4  10   -0.01    0.08
   9  -4 -10    0.82    0.13
  -9   4  10    0.92    0.27
  -9   4  10    1.06    0.14
   8  -4 -10    0.62    0.12
  -8   4  10    0.65    0.11
  -8   4  10    0.68    0.14
   7  -4 -10    0.08    0.10
  -7   4  10    0.02    0.08
  -7   4  10    0.03    0.06
  -7   4  10    0.08    0.07
   6  -4 -10    0.76    0.12
  -6   4  10    0.46    0.11
  -6   4  10    0.62    0.08
  -6   4  10    0.72    0.11
   5  -4 -10    0.31    0.10
  -5   4  10    0.46    0.11
  -5   4  10    0.41    0.09
  -4   4  10    0.10    0.06
  -4   4  10    0.20    0.09
  -3   4  10    0.34    0.08
  -3   4  10    0.28    0.10
  -2   4  10    0.76    0.10
  -2   4  10    0.89    0.15
  -1   4  10    0.13    0.09
  -1   4  10    0.01    0.05
   0   4  10   -0.01    0.05
   0   4  10    0.14    0.10
   1   4  10   -0.05    0.05
   1   4  10   -0.11    0.08
   2   4  10   -0.01    0.10
   2   4  10   -0.03    0.05
   3   4  10    0.21    0.06
   3   4  10    0.20    0.12
   4   4  10    0.22    0.12
  11  -5 -10   -0.07    0.10
  10  -5 -10    0.04    0.11
 -10   5  10   -0.04    0.09
   9  -5 -10    0.64    0.14
  -9   5  10    0.79    0.19
  -9   5  10    0.71    0.12
   8  -5 -10    0.50    0.12
  -8   5  10    0.44    0.09
  -8   5  10    0.32    0.13
   7  -5 -10   -0.05    0.10
  -7   5  10    0.00    0.06
  -7   5  10   -0.07    0.06
  -7   5  10   -0.01    0.08
   6  -5 -10    1.04    0.14
  -6   5  10    0.88    0.15
  -6   5  10    1.66    0.16
  -5   5  10    1.33    0.17
  -5   5  10    1.96    0.16
  -4   5  10   -0.02    0.06
  -4   5  10    0.00    0.07
  -3   5  10    0.12    0.07
  -3   5  10    0.10    0.09
  -2   5  10    0.05    0.06
  -2   5  10    0.10    0.09
  -1   5  10    0.01    0.05
  -1   5  10    0.07    0.09
   0   5  10    0.27    0.07
   0   5  10    0.21    0.11
   1   5  10    0.05    0.06
   1   5  10    0.02    0.10
   2   5  10    0.27    0.12
   2   5  10    0.29    0.07
   3   5  10    0.07    0.06
   3   5  10    0.13    0.11
  11  -6 -10    0.00    0.11
 -11   6  10   -0.03    0.11
  10  -6 -10    0.37    0.13
 -10   6  10    0.22    0.11
   9  -6 -10    0.17    0.12
  -9   6  10    0.07    0.23
   8  -6 -10   -0.11    0.11
  -8   6  10    0.03    0.09
  -8   6  10    0.05    0.07
   7  -6 -10    0.32    0.13
  -7   6  10    0.19    0.10
  -7   6  10    0.14    0.09
   6  -6 -10    0.50    0.13
  -6   6  10    0.27    0.11
  -6   6  10    0.41    0.10
  -5   6  10    0.01    0.08
  -5   6  10    0.08    0.08
  -4   6  10    0.39    0.12
  -4   6  10    0.38    0.10
  -3   6  10    0.19    0.11
  -3   6  10    0.36    0.09
  -2   6  10    0.13    0.11
  -2   6  10    0.05    0.07
  -1   6  10    0.78    0.11
  -1   6  10    0.32    0.13
   0   6  10    1.16    0.19
   0   6  10    1.55    0.14
   1   6  10    0.16    0.07
   1   6  10    0.24    0.12
   2   6  10   -0.03    0.06
  10  -7 -10    0.13    0.12
 -10   7  10    0.21    0.18
   9  -7 -10    0.21    0.12
  -9   7  10    0.17    0.17
   8  -7 -10    0.25    0.13
  -8   7  10   -0.02    0.08
   7  -7 -10   -0.08    0.11
  -7   7  10    0.16    0.10
  -7   7  10    0.14    0.10
   6  -7 -10    0.13    0.12
  -6   7  10    0.02    0.08
  -6   7  10   -0.01    0.08
  -5   7  10    0.05    0.09
  -5   7  10    0.04    0.08
  -4   7  10    0.40    0.10
  -4   7  10    0.24    0.11
  -3   7  10    0.52    0.14
  -3   7  10    0.70    0.11
  -2   7  10   -0.03    0.10
  -2   7  10    0.04    0.07
  -1   7  10    0.20    0.13
  -1   7  10    0.19    0.08
   0   7  10    0.07    0.11
   0   7  10    0.15    0.08
   8  -8 -10    0.33    0.13
  -8   8  10    0.14    0.11
   7  -8 -10    0.22    0.12
  -7   8  10    0.03    0.10
  -7   8  10    0.00    0.09
  -6   8  10    0.15    0.10
  -6   8  10   -0.06    0.08
  -5   8  10   -0.08    0.09
  -5   8  10    0.02    0.08
  -4   8  10    0.29    0.10
  -4   8  10    0.28    0.12
  -3   8  10    0.44    0.15
  -3   8  10    0.51    0.11
   0 -15  11    0.26    0.12
   1 -15  11   -0.16    0.10
   2 -15  11    0.05    0.10
   3 -15  11   -0.09    0.15
   3 -15  11    0.25    0.10
   4 -15  11   -0.13    0.14
  -5  15 -11    0.00    0.10
   5 -15  11    0.06    0.14
  -6  15 -11    0.11    0.11
  -6  15 -11   -0.32    0.17
   6 -15  11    0.11    0.13
  -3 -14  11    0.17    0.12
  -2 -14  11    0.01    0.11
  -1 -14  11    0.16    0.11
   0 -14  11    0.77    0.14
   1 -14  11    0.04    0.10
  -2  14 -11    0.92    0.14
   2 -14  11    0.87    0.13
   2 -14  11    0.64    0.19
  -3  14 -11    0.16    0.10
  -3  14 -11   -0.02    0.09
   3 -14  11    0.21    0.10
   3 -14  11    0.33    0.15
  -4  14 -11    0.37    0.11
   4 -14  11    0.05    0.13
   4 -14  11    0.14    0.09
  -5  14 -11    0.02    0.09
  -5  14 -11    0.01    0.16
   5 -14  11    0.09    0.13
  -6  14 -11    0.03    0.18
  -6  14 -11    0.08    0.10
   6 -14  11   -0.03    0.10
  -7  14 -11   -0.06    0.10
  -7  14 -11    0.02    0.18
  -4 -13  11    0.21    0.12
  -3 -13  11    0.05    0.11
  -2 -13  11   -0.01    0.11
   1  13 -11    0.16    0.18
  -1 -13  11    0.29    0.11
   0  13 -11    0.04    0.11
   0 -13  11    0.12    0.10
  -1  13 -11   -0.07    0.08
   1 -13  11    0.05    0.09
   1 -13  11   -0.15    0.12
  -2  13 -11    0.14    0.09
  -2  13 -11    0.21    0.08
   2 -13  11    0.14    0.09
   2 -13  11    0.01    0.13
   2 -13  11    0.30    0.09
  -3  13 -11   -0.02    0.08
  -3  13 -11    0.06    0.08
   3 -13  11   -0.03    0.07
   3 -13  11   -0.20    0.11
  -4  13 -11    0.13    0.14
  -4  13 -11    0.17    0.09
   4 -13  11    0.08    0.12
   4 -13  11    0.17    0.08
  -5  13 -11    2.51    0.27
  -5  13 -11    2.31    0.18
   5 -13  11    3.14    0.20
   5 -13  11    2.59    0.23
  -6  13 -11   -0.02    0.16
  -6  13 -11    0.17    0.10
   6 -13  11    0.38    0.13
  -7  13 -11    0.38    0.19
  -7  13 -11    0.41    0.13
  -8  13 -11    0.17    0.12
  -8  13 -11    0.55    0.21
  -5 -12  11   -0.16    0.13
  -5 -12  11   -0.01    0.11
  -4 -12  11    0.08    0.11
  -4 -12  11    0.04    0.15
   3  12 -11    1.68    0.16
  -3 -12  11    1.63    0.17
  -3 -12  11    1.72    0.23
   2  12 -11    3.15    0.20
  -2 -12  11    3.35    0.21
   1  12 -11    0.24    0.09
  -1 -12  11    0.00    0.13
  -1 -12  11    0.22    0.10
   0  12 -11    1.80    0.18
   0 -12  11    1.76    0.17
   0 -12  11    1.55    0.21
  -1  12 -11    1.71    0.14
  -1  12 -11    1.83    0.20
  -1  12 -11    2.07    0.18
   1 -12  11    2.04    0.17
   1 -12  11    1.79    0.21
   1 -12  11    1.81    0.15
  -2  12 -11    1.49    0.15
  -2  12 -11    1.16    0.12
   2 -12  11    1.49    0.16
   2 -12  11    1.53    0.20
   2 -12  11    1.22    0.11
  -3  12 -11    1.13    0.13
  -3  12 -11    1.50    0.19
   3 -12  11    1.16    0.18
   3 -12  11    1.60    0.16
  -4  12 -11    0.87    0.12
  -4  12 -11    0.75    0.17
   4 -12  11    1.19    0.18
   4 -12  11    1.01    0.13
  -5  12 -11    0.45    0.11
  -5  12 -11    0.48    0.17
   5 -12  11    0.52    0.10
   5 -12  11    0.46    0.14
  -6  12 -11    0.84    0.19
  -6  12 -11    0.78    0.14
   6 -12  11    0.81    0.11
   6 -12  11    0.87    0.15
  -7  12 -11    0.23    0.12
  -7  12 -11   -0.10    0.15
  -8  12 -11   -0.15    0.10
  -8  12 -11   -0.03    0.15
  -9  12 -11    0.15    0.17
  -9  12 -11   -0.09    0.11
  -7 -11  11    0.20    0.14
  -6 -11  11    0.93    0.16
   5  11 -11    0.36    0.09
  -5 -11  11    0.17    0.12
  -5 -11  11   -0.05    0.12
   4  11 -11   -0.03    0.07
  -4 -11  11   -0.09    0.10
  -4 -11  11   -0.22    0.11
   3  11 -11    0.02    0.07
  -3 -11  11    0.01    0.09
  -3 -11  11    0.00    0.12
   2  11 -11    0.32    0.10
  -2 -11  11    0.37    0.11
  -2 -11  11    0.37    0.14
   1  11 -11    1.07    0.13
  -1 -11  11    0.93    0.17
  -1 -11  11    0.98    0.12
   0  11 -11    0.26    0.07
   0  11 -11    0.20    0.09
   0 -11  11    0.36    0.09
   0 -11  11    0.20    0.12
   0 -11  11    0.18    0.08
  -1  11 -11    0.67    0.43
  -1  11 -11    0.48    0.09
  -1  11 -11    0.50    0.10
   1 -11  11    0.50    0.10
   1 -11  11    0.45    0.09
   1 -11  11    0.28    0.12
  -2  11 -11    0.47    0.13
  -2  11 -11    0.52    0.09
   2 -11  11    0.32    0.12
   2 -11  11    0.58    0.10
  -3  11 -11    0.24    0.12
  -3  11 -11    0.30    0.09
   3 -11  11    0.45    0.09
   3 -11  11    0.23    0.11
  -4  11 -11    0.20    0.09
  -4  11 -11    0.29    0.14
   4 -11  11    0.31    0.11
   4 -11  11    0.15    0.07
  -5  11 -11    0.15    0.09
  -5  11 -11    0.11    0.14
   5 -11  11    0.18    0.10
   5 -11  11    0.20    0.08
  -6  11 -11    0.09    0.10
  -6  11 -11    0.33    0.15
   6 -11  11   -0.06    0.09
   6 -11  11    0.09    0.10
   6 -11  11    0.06    0.06
  -7  11 -11    0.19    0.15
  -7  11 -11    0.15    0.11
   7 -11  11    0.32    0.11
  -8  11 -11    0.42    0.17
  -8  11 -11    0.35    0.12
   8 -11  11    0.12    0.11
  -9  11 -11    0.16    0.12
  -9  11 -11   -0.08    0.14
   9 -11  11    0.23    0.12
  -8 -10  11    0.38    0.14
  -7 -10  11    0.12    0.12
   6  10 -11    0.06    0.07
  -6 -10  11    0.05    0.11
   5  10 -11    0.21    0.08
  -5 -10  11    0.05    0.11
  -5 -10  11    0.31    0.11
   4  10 -11    0.18    0.08
  -4 -10  11    0.19    0.10
  -4 -10  11    0.29    0.12
   3  10 -11    0.39    0.09
  -3 -10  11    0.36    0.13
  -3 -10  11    0.48    0.11
   2  10 -11    0.08    0.06
   2  10 -11    0.24    0.21
   2  10 -11   -0.08    0.07
  -2 -10  11   -0.12    0.10
  -2 -10  11   -0.16    0.07
   1  10 -11    4.66    0.18
   1  10 -11    5.17    0.29
   1  10 -11    5.43    0.34
  -1 -10  11    4.54    0.26
  -1 -10  11    5.13    0.23
  -1 -10  11    4.86    0.20
   0  10 -11    1.79    0.16
   0  10 -11    1.44    0.12
   0  10 -11    1.28    0.15
   0  10 -11    1.97    0.22
   0 -10  11    1.51    0.14
   0 -10  11    1.38    0.13
   0 -10  11    1.58    0.18
  -1  10 -11    0.08    0.07
  -1  10 -11    0.17    0.16
  -1  10 -11    0.07    0.07
   1 -10  11    0.15    0.10
   1 -10  11    0.10    0.06
   1 -10  11    0.15    0.06
  -2  10 -11   -0.03    0.08
  -2  10 -11    0.11    0.13
  -2  10 -11    0.03    0.07
   2 -10  11    0.25    0.10
   2 -10  11    0.12    0.07
  -3  10 -11    0.55    0.13
  -3  10 -11    0.53    0.10
  -3  10 -11    0.45    0.18
   3 -10  11    0.59    0.09
   3 -10  11    0.65    0.13
  -4  10 -11   -0.06    0.08
  -4  10 -11   -0.13    0.12
  -4  10 -11    0.00    0.10
   4 -10  11   -0.03    0.07
   4 -10  11    0.11    0.09
   4 -10  11    0.01    0.06
  -5  10 -11    0.40    0.11
  -5  10 -11    0.40    0.13
   5 -10  11    0.38    0.12
   5 -10  11    0.38    0.10
   5 -10  11    0.41    0.08
  -6  10 -11    0.62    0.12
  -6  10 -11    0.56    0.15
   6 -10  11    0.49    0.11
   6 -10  11    0.78    0.13
  -7  10 -11    0.10    0.13
  -7  10 -11    0.24    0.11
   7 -10  11    0.33    0.11
  -8  10 -11    0.08    0.13
   8 -10  11    0.14    0.10
  -9  10 -11    0.08    0.14
   9 -10  11   -0.07    0.08
  -8  -9  11    0.08    0.12
   7   9 -11    0.56    0.09
  -7  -9  11    0.66    0.14
   6   9 -11    0.16    0.08
  -6  -9  11    0.25    0.11
  -6  -9  11    0.19    0.11
   5   9 -11    0.15    0.08
  -5  -9  11    0.17    0.10
  -5  -9  11    0.17    0.10
   4   9 -11    0.54    0.11
   4   9 -11    0.07    0.07
  -4  -9  11    0.19    0.10
  -4  -9  11    0.32    0.10
   3   9 -11    0.39    0.14
   3   9 -11    0.13    0.08
   3   9 -11    0.14    0.06
  -3  -9  11    0.26    0.11
  -3  -9  11    0.24    0.09
   2   9 -11    2.07    0.13
   2   9 -11    2.39    0.17
   2   9 -11    2.56    0.21
  -2  -9  11    2.14    0.18
  -2  -9  11    2.24    0.15
  -2  -9  11    2.23    0.16
   1   9 -11    0.20    0.10
   1   9 -11    0.06    0.06
   1   9 -11   -0.02    0.06
  -1  -9  11    0.09    0.07
  -1  -9  11    0.03    0.06
  -1  -9  11    0.05    0.09
   0   9 -11    1.83    0.14
   0   9 -11    2.02    0.15
   0   9 -11    1.88    0.23
   0  -9  11    2.18    0.15
   0  -9  11    1.81    0.17
   0  -9  11    1.91    0.12
  -1   9 -11    3.56    0.39
  -1   9 -11    3.57    0.18
  -1   9 -11    3.66    0.20
   1  -9  11    3.56    0.22
   1  -9  11    3.77    0.18
  -2   9 -11    0.88    0.13
  -2   9 -11    0.82    0.17
  -2   9 -11    0.88    0.11
   2  -9  11    0.85    0.14
   2  -9  11    0.73    0.11
   2  -9  11    0.97    0.11
  -3   9 -11    4.95    0.32
  -3   9 -11    5.46    0.26
  -3   9 -11    4.79    0.21
   3  -9  11    5.21    0.19
   3  -9  11    5.17    0.22
   3  -9  11    4.90    0.24
  -4   9 -11    1.84    0.24
  -4   9 -11    1.98    0.16
  -4   9 -11    1.53    0.18
   4  -9  11    1.75    0.16
   4  -9  11    1.94    0.17
   4  -9  11    2.15    0.27
  -5   9 -11    1.25    0.24
  -5   9 -11    1.67    0.15
  -5   9 -11    1.34    0.18
   5  -9  11    1.79    0.16
   5  -9  11    1.75    0.17
   5  -9  11    1.51    0.15
  -6   9 -11    0.03    0.10
   6  -9  11    0.09    0.08
   6  -9  11   -0.05    0.07
  -7   9 -11    0.33    0.14
   7  -9  11    0.27    0.09
  -8   9 -11    0.29    0.13
   8  -9  11    0.28    0.10
  -9   9 -11    0.44    0.16
   9  -9  11    0.33    0.10
  -9  -8  11    0.04    0.12
   8   8 -11    0.13    0.07
  -8  -8  11   -0.09    0.11
   7   8 -11   -0.02    0.07
  -7  -8  11    0.00    0.10
   6   8 -11   -0.19    0.06
  -6  -8  11   -0.10    0.09
  -6  -8  11    0.03    0.08
   5   8 -11    0.08    0.07
  -5  -8  11    0.16    0.09
  -5  -8  11    0.08    0.09
   4   8 -11    1.08    0.12
   4   8 -11    1.55    0.16
  -4  -8  11    1.19    0.15
  -4  -8  11    1.04    0.12
   3   8 -11    4.15    0.24
   3   8 -11    3.45    0.18
   3   8 -11    3.38    0.15
  -3  -8  11    3.24    0.17
  -3  -8  11    3.24    0.20
  -3  -8  11    3.29    0.37
   2   8 -11    2.20    0.16
   2   8 -11    2.01    0.14
   2   8 -11    2.46    0.21
  -2  -8  11    1.87    0.13
  -2  -8  11    1.90    0.19
  -2  -8  11    1.83    0.16
   1   8 -11    0.21    0.10
   1   8 -11    0.11    0.07
   1   8 -11    0.26    0.08
  -1  -8  11    0.07    0.09
  -1  -8  11    0.25    0.07
  -1  -8  11    0.20    0.06
   0   8 -11    3.90    0.20
   0   8 -11    3.94    0.41
   0   8 -11    3.63    0.18
   0  -8  11    3.83    0.21
   0  -8  11    4.22    0.19
   0  -8  11    3.63    0.13
  -1   8 -11    1.99    0.22
  -1   8 -11    2.13    0.16
  -1   8 -11    1.88    0.15
   1  -8  11    2.00    0.16
   1  -8  11    1.96    0.15
   1  -8  11    1.85    0.15
  -2   8 -11    0.78    0.11
  -2   8 -11    0.82    0.17
  -2   8 -11    0.64    0.12
   2  -8  11    0.50    0.12
   2  -8  11    0.73    0.12
   2  -8  11    0.65    0.09
  -3   8 -11    0.02    0.08
  -3   8 -11    0.00    0.08
  -3   8 -11    0.15    0.14
   3  -8  11    0.10    0.08
   3  -8  11    0.02    0.05
   3  -8  11    0.01    0.06
  -4   8 -11    4.05    0.19
  -4   8 -11    3.46    0.22
  -4   8 -11    3.77    0.30
   4  -8  11    3.93    0.20
   4  -8  11    3.77    0.21
   4  -8  11    4.02    0.16
  -5   8 -11   -0.01    0.09
  -5   8 -11   -0.02    0.14
   5  -8  11    0.12    0.07
   5  -8  11    0.04    0.09
  -6   8 -11    0.07    0.10
   6  -8  11    0.09    0.08
   6  -8  11   -0.11    0.06
  -7   8 -11    0.28    0.13
   7  -8  11    0.06    0.08
  -8   8 -11    0.30    0.14
   8  -8  11    0.43    0.10
  -9   8 -11    0.04    0.12
   9  -8  11   -0.07    0.08
 -10  -7  11    0.18    0.14
  -9  -7  11    0.06    0.12
   8   7 -11    0.80    0.11
  -8  -7  11    0.79    0.14
   7   7 -11    0.05    0.06
  -7  -7  11   -0.06    0.09
   6   7 -11    1.55    0.15
   6   7 -11    1.93    0.30
  -6  -7  11    1.70    0.16
  -6  -7  11    1.44    0.15
   5   7 -11    1.60    0.15
  -5  -7  11    1.80    0.15
  -5  -7  11    1.59    0.15
   4   7 -11    0.32    0.09
   4   7 -11    0.00    0.05
   4   7 -11    0.07    0.07
  -4  -7  11    0.02    0.07
  -4  -7  11    0.02    0.06
  -4  -7  11    0.06    0.08
   3   7 -11    1.46    0.18
   3   7 -11    1.22    0.13
   3   7 -11    1.33    0.11
  -3  -7  11    1.46    0.16
  -3  -7  11    1.18    0.11
  -3  -7  11    1.44    0.14
   2   7 -11    1.46    0.17
   2   7 -11    0.95    0.11
   2   7 -11    1.08    0.11
  -2  -7  11    1.15    0.11
  -2  -7  11    0.99    0.11
  -2  -7  11    1.12    0.14
   1   7 -11    0.53    0.09
   1   7 -11    0.55    0.13
   1   7 -11    0.60    0.10
  -1  -7  11    0.59    0.11
  -1  -7  11    0.47    0.06
  -1  -7  11    0.67    0.10
  -1  -7  11    0.63    0.09
   0   7 -11    0.03    0.23
   0   7 -11   -0.13    0.07
   0  -7  11    0.07    0.05
   0  -7  11   -0.14    0.06
   0  -7  11    0.02    0.06
  -1   7 -11    0.09    0.11
  -1   7 -11    0.15    0.08
   1  -7  11    0.06    0.08
   1  -7  11    0.05    0.06
   1  -7  11    0.17    0.06
  -2   7 -11    0.00    0.06
  -2   7 -11    0.06    0.08
  -2   7 -11   -0.02    0.12
  -2   7 -11    0.12    0.07
   2  -7  11    0.01    0.04
   2  -7  11    0.07    0.06
   2  -7  11    0.00    0.07
  -3   7 -11    0.96    0.13
  -3   7 -11    0.98    0.12
  -3   7 -11    1.20    0.18
  -3   7 -11    0.99    0.11
   3  -7  11    0.92    0.11
   3  -7  11    0.93    0.09
   3  -7  11    0.98    0.13
  -4   7 -11    0.09    0.08
  -4   7 -11    0.01    0.13
   4  -7  11   -0.02    0.06
   4  -7  11    0.10    0.08
  -5   7 -11    0.09    0.14
  -5   7 -11   -0.01    0.08
   5  -7  11    0.21    0.07
   5  -7  11    0.18    0.09
  -6   7 -11    0.05    0.09
   6  -7  11    0.03    0.07
  -7   7 -11    0.25    0.12
   7  -7  11    0.22    0.08
  -8   7 -11    0.13    0.12
   8  -7  11   -0.02    0.07
  -9   7 -11   -0.02    0.12
   9  -7  11    0.00    0.08
 -10  -6  11    0.03    0.12
   9   6 -11    0.11    0.07
  -9  -6  11   -0.01    0.11
   8   6 -11   -0.02    0.07
  -8  -6  11    0.03    0.10
   7   6 -11   -0.01    0.07
   7   6 -11    0.27    0.08
  -7  -6  11    0.08    0.09
   6   6 -11    0.37    0.09
   6   6 -11    0.44    0.12
   6   6 -11    0.83    0.24
  -6  -6  11    0.54    0.10
  -6  -6  11    0.49    0.10
   5   6 -11    0.51    0.10
   5   6 -11    0.45    0.12
   5   6 -11    0.91    0.13
   5   6 -11    0.48    0.08
  -5  -6  11    0.72    0.11
  -5  -6  11    0.66    0.10
  -5  -6  11    0.60    0.10
   4   6 -11    1.22    0.11
   4   6 -11    1.45    0.15
   4   6 -11    1.06    0.12
  -4  -6  11    1.27    0.14
  -4  -6  11    1.37    0.13
  -4  -6  11    1.05    0.11
   3   6 -11    0.94    0.21
   3   6 -11    0.75    0.10
   3   6 -11    0.85    0.10
  -3  -6  11    0.64    0.08
  -3  -6  11    0.76    0.11
  -3  -6  11    0.89    0.12
   2   6 -11    0.16    0.08
   2   6 -11    0.28    0.07
   2   6 -11    0.39    0.10
   2   6 -11    0.20    0.08
  -2  -6  11    0.23    0.05
  -2  -6  11    0.20    0.06
  -2  -6  11    0.32    0.08
  -2  -6  11    0.26    0.09
  -2  -6  11    0.26    0.07
   1   6 -11    1.13    0.11
   1   6 -11    1.34    0.18
   1   6 -11    1.24    0.12
  -1  -6  11    1.10    0.11
  -1  -6  11    1.21    0.12
  -1  -6  11    1.09    0.13
  -1  -6  11    1.11    0.11
   0   6 -11    5.75    0.33
   0   6 -11    5.98    0.21
   0  -6  11    6.01    0.23
   0  -6  11    5.95    0.34
   0  -6  11    5.97    0.24
   0  -6  11    6.26    0.21
  -1   6 -11    2.02    0.22
  -1   6 -11    2.28    0.14
   1  -6  11    2.17    0.15
   1  -6  11    2.33    0.14
   1  -6  11    2.28    0.11
   1  -6  11    2.13    0.15
  -2   6 -11    0.82    0.15
  -2   6 -11    0.59    0.09
   2  -6  11    0.60    0.11
   2  -6  11    0.68    0.12
   2  -6  11    0.68    0.09
   2  -6  11    0.68    0.11
   2  -6  11    0.56    0.10
  -3   6 -11    2.49    0.25
   3  -6  11    2.51    0.18
   3  -6  11    2.47    0.17
   3  -6  11    2.55    0.15
  -4   6 -11   -0.03    0.12
   4  -6  11    0.17    0.06
   4  -6  11    0.17    0.09
  -5   6 -11    0.47    0.17
  -5   6 -11    0.52    0.11
   5  -6  11    0.60    0.12
   5  -6  11    0.64    0.09
  -6   6 -11    0.95    0.15
   6  -6  11    1.16    0.12
  -7   6 -11    0.22    0.11
   7  -6  11    0.22    0.08
  -8   6 -11   -0.04    0.10
   8  -6  11   -0.03    0.07
  -9   6 -11   -0.06    0.10
   9  -6  11   -0.06    0.08
 -11  -5  11    0.08    0.12
 -10  -5  11    0.07    0.11
   9   5 -11    0.10    0.07
  -9  -5  11    0.05    0.10
   8   5 -11    0.83    0.11
  -8  -5  11    0.53    0.11
   7   5 -11    0.91    0.13
   7   5 -11    0.47    0.10
  -7  -5  11    0.66    0.11
   6   5 -11    2.36    0.31
   6   5 -11    2.39    0.17
   6   5 -11    2.18    0.20
   6   5 -11    2.07    0.13
  -6  -5  11    2.35    0.15
  -6  -5  11    2.20    0.16
  -6  -5  11    2.15    0.25
   5   5 -11    0.05    0.06
   5   5 -11   -0.02    0.07
   5   5 -11    0.13    0.06
   5   5 -11    0.07    0.06
  -5  -5  11    0.01    0.07
  -5  -5  11    0.02    0.06
  -5  -5  11    0.04    0.06
   4   5 -11    0.15    0.08
   4   5 -11    0.06    0.07
   4   5 -11   -0.01    0.05
   4   5 -11    0.12    0.06
  -4  -5  11    0.01    0.06
  -4  -5  11    0.01    0.05
  -4  -5  11   -0.01    0.06
   3   5 -11   -0.01    0.05
   3   5 -11    0.09    0.07
   3   5 -11    0.25    0.08
  -3  -5  11    0.14    0.07
  -3  -5  11    0.13    0.05
  -3  -5  11    0.17    0.07
   2   5 -11    2.76    0.19
   2   5 -11    3.11    0.16
  -2  -5  11    2.62    0.16
  -2  -5  11    2.68    0.15
  -2  -5  11    2.60    0.15
  -2  -5  11    2.56    0.14
   1   5 -11    4.28    0.18
   1   5 -11    4.38    0.45
  -1  -5  11    4.12    0.25
  -1  -5  11    4.36    0.18
  -1  -5  11    4.47    0.19
  -1  -5  11    4.29    0.20
   0   5 -11    1.20    0.11
   0   5 -11    1.31    0.16
   0  -5  11    1.10    0.13
   0  -5  11    1.25    0.12
   0  -5  11    1.14    0.12
   0  -5  11    0.98    0.18
  -1   5 -11    2.22    0.21
  -1   5 -11    2.36    0.14
   1  -5  11    2.72    0.14
   1  -5  11    2.42    0.10
   1  -5  11    2.24    0.15
   1  -5  11    2.53    0.16
   1  -5  11    2.24    0.15
  -2   5 -11    0.20    0.12
   2  -5  11    0.28    0.09
   2  -5  11    0.40    0.07
   2  -5  11    0.32    0.09
  -3   5 -11   -0.07    0.11
   3  -5  11    0.08    0.08
   3  -5  11    0.12    0.06
   3  -5  11   -0.02    0.07
  -4   5 -11   -0.14    0.11
   4  -5  11    0.04    0.06
   4  -5  11    0.01    0.08
   4  -5  11    0.02    0.08
  -5   5 -11    0.05    0.13
   5  -5  11    0.14    0.09
   5  -5  11    0.20    0.10
   5  -5  11    0.33    0.07
  -6   5 -11   -0.02    0.13
  -6   5 -11    0.21    0.10
   6  -5  11    0.12    0.07
  -7   5 -11    0.46    0.13
   7  -5  11    0.30    0.08
  -8   5 -11    0.17    0.11
   8  -5  11    0.05    0.07
  -9   5 -11    0.47    0.14
   9  -5  11    0.14    0.08
 -11  -4  11   -0.07    0.11
  10   4 -11   -0.07    0.07
 -10  -4  11    0.03    0.11
   9   4 -11    0.20    0.08
  -9  -4  11    0.20    0.10
   8   4 -11    0.11    0.08
  -8  -4  11    0.08    0.09
   7   4 -11    0.37    0.10
   7   4 -11    0.52    0.08
   7   4 -11    0.45    0.10
  -7  -4  11    0.39    0.09
  -7  -4  11    0.45    0.10
   6   4 -11    1.59    0.15
   6   4 -11    1.17    0.15
   6   4 -11    1.50    0.13
   6   4 -11    1.76    0.20
  -6  -4  11    1.80    0.13
  -6  -4  11    1.62    0.42
  -6  -4  11    1.38    0.13
   5   4 -11    0.02    0.07
   5   4 -11    0.23    0.07
   5   4 -11    0.11    0.07
   5   4 -11    0.00    0.06
  -5  -4  11    0.06    0.06
  -5  -4  11    0.03    0.14
  -5  -4  11    0.00    0.06
   4   4 -11    0.06    0.07
   4   4 -11    0.06    0.06
   4   4 -11    0.06    0.07
   4   4 -11    0.17    0.06
  -4  -4  11    0.11    0.06
  -4  -4  11    0.09    0.05
  -4  -4  11    0.05    0.11
   3   4 -11    0.14    0.07
   3   4 -11    0.38    0.09
  -3  -4  11    0.16    0.13
  -3  -4  11    0.24    0.06
  -3  -4  11    0.13    0.06
  -3  -4  11    0.38    0.08
   2   4 -11    0.18    0.07
   2   4 -11   -0.04    0.06
  -2  -4  11    0.02    0.06
  -2  -4  11    0.04    0.04
  -2  -4  11   -0.02    0.05
  -2  -4  11   -0.01    0.05
   1   4 -11    0.16    0.18
   1   4 -11    0.27    0.07
  -1  -4  11    0.26    0.07
  -1  -4  11    0.17    0.05
  -1  -4  11    0.34    0.08
  -1  -4  11    0.13    0.07
   0   4 -11    1.82    0.17
   0   4 -11    1.84    0.13
   0  -4  11    1.76    0.13
   0  -4  11    1.52    0.13
   0  -4  11    1.89    0.12
   0  -4  11    1.77    0.14
  -1   4 -11    0.79    0.13
   1  -4  11    0.71    0.11
   1  -4  11    0.89    0.12
   1  -4  11    0.82    0.09
  -2   4 -11   -0.08    0.10
   2  -4  11    0.00    0.06
   2  -4  11   -0.02    0.05
   2  -4  11    0.06    0.07
  -3   4 -11   -0.18    0.10
   3  -4  11    0.02    0.07
   3  -4  11   -0.01    0.05
   3  -4  11    0.03    0.07
  -4   4 -11   -0.21    0.10
   4  -4  11    0.00    0.05
   4  -4  11    0.01    0.07
   4  -4  11   -0.06    0.08
  -5   4 -11   -0.29    0.11
   5  -4  11   -0.07    0.05
   5  -4  11    0.03    0.07
   5  -4  11    0.04    0.09
  -6   4 -11   -0.29    0.12
   6  -4  11   -0.03    0.06
  -7   4 -11    0.37    0.11
   7  -4  11    0.24    0.08
  -8   4 -11    0.13    0.11
   8  -4  11   -0.09    0.07
  -9   4 -11    0.30    0.13
   9  -4  11   -0.02    0.07
 -11  -3  11    0.06    0.11
  10   3 -11    0.67    0.11
 -10  -3  11    0.69    0.14
   9   3 -11    0.18    0.08
  -9  -3  11    0.32    0.11
   8   3 -11    0.08    0.08
  -8  -3  11    0.04    0.08
   7   3 -11    0.34    0.11
   7   3 -11    0.33    0.08
   7   3 -11    0.18    0.08
   7   3 -11    0.32    0.09
  -7  -3  11    0.33    0.09
  -7  -3  11    0.30    0.09
   6   3 -11    0.56    0.10
   6   3 -11    0.37    0.09
   6   3 -11    0.22    0.12
  -6  -3  11    0.49    0.10
  -6  -3  11    0.50    0.09
  -6  -3  11    0.38    0.08
   5   3 -11    0.48    0.09
   5   3 -11    0.56    0.09
   5   3 -11    0.57    0.11
  -5  -3  11    0.62    0.09
  -5  -3  11    0.68    0.11
  -5  -3  11    0.55    0.07
   4   3 -11    5.32    0.24
   4   3 -11    5.07    0.20
  -4  -3  11    5.58    0.21
  -4  -3  11    5.14    0.20
  -4  -3  11    5.53    0.20
  -4  -3  11    5.05    0.21
   3   3 -11    1.43    0.13
  -3  -3  11    1.31    0.12
  -3  -3  11    1.24    0.11
  -3  -3  11    1.31    0.14
  -3  -3  11    1.30    0.11
   2   3 -11    0.83    0.09
  -2  -3  11    0.69    0.11
  -2  -3  11    0.77    0.10
  -2  -3  11    0.81    0.11
  -2  -3  11    0.81    0.09
  -2  -3  11    0.66    0.09
   1   3 -11    0.01    0.06
  -1  -3  11    0.01    0.05
  -1  -3  11   -0.05    0.05
  -1  -3  11   -0.03    0.03
  -1  -3  11   -0.03    0.04
   0   3 -11   -0.07    0.11
   0  -3  11    0.01    0.06
   0  -3  11    0.04    0.05
   0  -3  11    0.03    0.06
  -1   3 -11   -0.04    0.09
   1  -3  11   -0.01    0.05
   1  -3  11   -0.02    0.06
   1  -3  11   -0.02    0.06
  -2   3 -11    0.08    0.11
   2  -3  11    0.26    0.08
   2  -3  11    0.24    0.06
   2  -3  11    0.37    0.10
  -3   3 -11    0.62    0.17
   3  -3  11    0.84    0.09
   3  -3  11    1.01    0.13
   3  -3  11    0.96    0.14
   4  -3  11    2.11    0.18
   4  -3  11    2.08    0.19
   4  -3  11    1.99    0.13
   5  -3  11   -0.06    0.07
   5  -3  11   -0.05    0.05
   5  -3  11   -0.05    0.08
   6  -3  11   -0.04    0.09
   6  -3  11   -0.07    0.05
   7  -3  11    0.53    0.09
  -8   3 -11    0.08    0.10
   8  -3  11    0.01    0.07
 -12  -2  11    0.03    0.11
 -11  -2  11    0.02    0.11
  10   2 -11    0.10    0.08
 -10  -2  11    0.12    0.10
   9   2 -11    1.89    0.18
  -9  -2  11    1.78    0.17
   8   2 -11    1.29    0.12
   8   2 -11    1.30    0.12
   8   2 -11    1.24    0.14
  -8  -2  11    1.28    0.13
  -8  -2  11    1.45    0.21
   7   2 -11    0.22    0.09
   7   2 -11   -0.04    0.08
   7   2 -11    0.11    0.07
  -7  -2  11    0.10    0.07
  -7  -2  11    0.15    0.08
   6   2 -11    0.09    0.09
   6   2 -11    0.29    0.08
   6   2 -11    0.28    0.08
  -6  -2  11    0.21    0.08
  -6  -2  11    0.35    0.07
  -6  -2  11    0.30    0.08
   5   2 -11    1.93    0.15
   5   2 -11    1.84    0.18
  -5  -2  11    2.12    0.14
  -5  -2  11    1.93    0.14
  -5  -2  11    2.10    0.27
   4   2 -11    4.18    0.23
   4   2 -11    4.53    0.19
  -4  -2  11    4.78    0.18
  -4  -2  11    4.56    0.21
  -4  -2  11    5.12    0.21
  -4  -2  11    4.87    0.21
  -4  -2  11    4.74    0.19
   3   2 -11   -0.03    0.06
  -3  -2  11    0.02    0.04
  -3  -2  11    0.10    0.05
  -3  -2  11    0.03    0.04
  -3  -2  11    0.02    0.06
  -3  -2  11    0.02    0.05
   2   2 -11    1.46    0.12
  -2  -2  11    1.59    0.13
  -2  -2  11    1.69    0.11
  -2  -2  11    1.56    0.13
  -2  -2  11    1.65    0.12
  -1  -2  11    0.96    0.12
  -1  -2  11    0.95    0.12
  -1  -2  11    1.02    0.10
   0  -2  11    1.12    0.11
   0  -2  11    1.05    0.13
   0  -2  11    1.00    0.13
   1  -2  11    9.39    0.24
   1  -2  11    8.68    0.30
   1  -2  11    9.18    0.33
   2  -2  11    3.84    0.20
   2  -2  11    3.11    0.20
   2  -2  11    3.78    0.15
   3  -2  11    0.36    0.07
   3  -2  11    0.52    0.12
   3  -2  11    0.31    0.10
   4  -2  11    1.66    0.12
   4  -2  11    1.78    0.20
   4  -2  11    1.32    0.16
   5  -2  11    0.05    0.06
   5  -2  11   -0.04    0.09
   5  -2  11    0.07    0.09
   6  -2  11   -0.06    0.09
   6  -2  11    0.06    0.06
   7  -2  11   -0.15    0.10
   7  -2  11    0.05    0.06
  -8   2 -11    0.22    0.10
   8  -2  11   -0.03    0.06
 -12  -1  11    0.55    0.13
 -11  -1  11    0.25    0.12
  10   1 -11    0.07    0.08
 -10  -1  11   -0.02    0.08
 -10  -1  11    0.12    0.10
   9   1 -11    0.02    0.07
   9   1 -11    0.07    0.08
   9   1 -11   -0.03    0.08
  -9  -1  11    0.03    0.09
  -9  -1  11    0.02    0.07
  -9  -1  11    0.07    0.08
  -9  -1  11    0.01    0.07
   8   1 -11    2.00    0.17
   8   1 -11    1.76    0.16
  -8  -1  11    1.68    0.16
  -8  -1  11    2.11    0.17
  -8  -1  11    2.04    0.15
  -8  -1  11    2.23    0.18
   7   1 -11    0.51    0.09
   7   1 -11    0.43    0.13
   7   1 -11    0.54    0.10
  -7  -1  11    0.63    0.11
  -7  -1  11    0.56    0.08
  -7  -1  11    0.47    0.09
  -7  -1  11    0.55    0.10
   6   1 -11    0.79    0.15
   6   1 -11    1.08    0.12
  -6  -1  11    1.23    0.13
  -6  -1  11    1.22    0.12
  -6  -1  11    1.16    0.12
  -6  -1  11    1.11    0.12
   5   1 -11    0.37    0.09
   5   1 -11    0.26    0.11
  -5  -1  11    0.35    0.08
  -5  -1  11    0.29    0.08
  -5  -1  11    0.31    0.08
  -5  -1  11    0.39    0.07
  -5  -1  11    0.40    0.09
   4   1 -11    1.74    0.14
   4   1 -11    1.05    0.26
  -4  -1  11    1.45    0.12
  -4  -1  11    1.47    0.12
  -4  -1  11    1.17    0.13
  -4  -1  11    1.39    0.13
   3   1 -11    0.17    0.07
  -3  -1  11    0.20    0.07
  -3  -1  11    0.12    0.07
  -3  -1  11    0.28    0.06
  -3  -1  11    0.21    0.07
  -2  -1  11    1.83    0.15
  -2  -1  11    1.77    0.12
  -2  -1  11    1.75    0.14
  -1  -1  11    0.44    0.09
  -1  -1  11    0.31    0.07
  -1  -1  11    0.32    0.09
   0  -1  11   -0.03    0.06
   0  -1  11    0.01    0.05
   0  -1  11    0.01    0.08
   1  -1  11    1.26    0.15
   1  -1  11    1.38    0.11
   1  -1  11    1.36    0.16
   2  -1  11    0.57    0.08
   2  -1  11    0.60    0.13
   2  -1  11    0.52    0.12
   3  -1  11    0.10    0.08
   3  -1  11    0.06    0.05
   3  -1  11    0.11    0.09
   4  -1  11    0.08    0.09
   4  -1  11   -0.04    0.05
   4  -1  11   -0.01    0.08
   5  -1  11    0.03    0.09
   5  -1  11    0.00    0.05
   5  -1  11    0.03    0.09
   6  -1  11    0.17    0.07
   6  -1  11    0.00    0.11
   7  -1  11    0.47    0.08
   7  -1  11    0.24    0.14
 -12   0  11    0.00    0.11
 -11   0  11    0.02    0.10
  10   0 -11   -0.02    0.07
 -10   0  11    0.08    0.10
 -10   0  11    0.10    0.09
   9   0 -11    0.13    0.09
   9   0 -11    0.31    0.10
  -9   0  11    0.25    0.09
  -9   0  11    0.23    0.09
   8   0 -11    0.27    0.09
   8   0 -11    0.39    0.10
  -8   0  11    0.39    0.09
  -8   0  11    0.35    0.08
   7   0 -11    2.01    0.16
  -7   0  11    1.90    0.16
  -7   0  11    1.70    0.15
   6   0 -11    1.57    0.18
   6   0 -11    2.02    0.16
  -6   0  11    1.84    0.15
  -6   0  11    1.94    0.16
  -6   0  11    1.99    0.14
   5   0 -11    0.00    0.08
   5   0 -11   -0.18    0.09
  -5   0  11    0.00    0.05
  -5   0  11   -0.05    0.05
  -5   0  11    0.04    0.06
  -5   0  11    0.01    0.05
   4   0 -11    0.25    0.08
   4   0 -11    0.19    0.11
  -4   0  11    0.42    0.09
  -4   0  11    0.49    0.07
  -4   0  11    0.32    0.09
  -4   0  11    0.44    0.08
   3   0 -11    0.00    0.07
  -3   0  11    0.00    0.06
  -3   0  11    0.06    0.06
  -3   0  11    0.06    0.07
  -3   0  11   -0.03    0.04
  -2   0  11    2.89    0.15
  -2   0  11    2.86    0.19
  -2   0  11    2.93    0.18
  -1   0  11    0.53    0.08
  -1   0  11    0.40    0.10
  -1   0  11    0.59    0.11
   0   0  11    1.11    0.15
   0   0  11    0.98    0.13
   0   0  11    1.22    0.10
   1   0  11    0.02    0.05
   1   0  11    0.00    0.07
   1   0  11   -0.03    0.07
   2   0  11    0.95    0.09
   2   0  11    1.19    0.16
   2   0  11    0.81    0.14
   3   0  11    0.04    0.08
   3   0  11    0.01    0.05
   3   0  11    0.09    0.09
   4   0  11   -0.03    0.05
   4   0  11    0.12    0.10
   4   0  11    0.18    0.10
   5   0  11    0.22    0.06
   5   0  11    0.32    0.12
   6   0  11    0.12    0.11
   6   0  11    0.04    0.05
 -12   1  11    0.08    0.10
  11  -1 -11    0.15    0.09
 -11   1  11   -0.07    0.09
  10  -1 -11    0.41    0.11
  10  -1 -11    0.42    0.11
 -10   1  11    0.47    0.12
 -10   1  11    0.41    0.10
   9  -1 -11    0.09    0.08
   9  -1 -11    0.09    0.09
  -9   1  11    0.22    0.08
  -9   1  11    0.10    0.09
   8  -1 -11    0.44    0.11
  -8   1  11    0.57    0.11
   7  -1 -11   -0.04    0.08
  -7   1  11    0.02    0.15
  -7   1  11   -0.01    0.06
  -7   1  11    0.01    0.07
   6  -1 -11    0.14    0.14
   6  -1 -11    0.31    0.10
  -6   1  11    0.48    0.10
  -6   1  11    0.41    0.09
  -6   1  11    0.31    0.07
  -6   1  11    0.38    0.10
   5  -1 -11   -0.04    0.07
   5  -1 -11   -0.22    0.10
  -5   1  11    0.00    0.06
  -5   1  11   -0.08    0.06
  -5   1  11    0.01    0.08
  -5   1  11    0.01    0.07
   4  -1 -11    0.84    0.11
   4  -1 -11    0.48    0.14
  -4   1  11    0.86    0.14
  -4   1  11    0.69    0.10
  -4   1  11    0.78    0.08
  -4   1  11    0.86    0.13
  -3   1  11    6.16    0.27
  -3   1  11    6.33    0.22
  -3   1  11    6.28    0.25
  -2   1  11    0.01    0.05
  -2   1  11    0.00    0.06
  -2   1  11   -0.03    0.07
  -1   1  11    0.04    0.05
  -1   1  11    0.08    0.08
  -1   1  11    0.11    0.07
   0   1  11    0.09    0.05
   0   1  11   -0.02    0.07
   0   1  11    0.10    0.08
   1   1  11    0.93    0.15
   1   1  11    1.12    0.15
   1   1  11    1.15    0.10
   2   1  11   -0.02    0.08
   2   1  11   -0.05    0.05
   2   1  11   -0.05    0.08
   3   1  11    2.48    0.22
   3   1  11    2.44    0.12
   4   1  11    0.73    0.15
   4   1  11    0.78    0.08
   5   1  11   -0.04    0.04
   5   1  11    0.04    0.10
   6   1  11    0.10    0.11
 -12   2  11   -0.01    0.09
  11  -2 -11    0.58    0.13
 -11   2  11    0.38    0.11
  10  -2 -11    0.37    0.10
  10  -2 -11    0.68    0.12
 -10   2  11    0.66    0.13
   9  -2 -11    0.49    0.12
  -9   2  11    0.63    0.11
   8  -2 -11    0.23    0.10
  -8   2  11   -0.03    0.07
  -8   2  11   -0.13    0.11
   7  -2 -11    0.02    0.09
  -7   2  11   -0.03    0.07
  -7   2  11    0.11    0.07
  -7   2  11    0.08    0.07
   6  -2 -11    0.44    0.11
  -6   2  11    0.45    0.10
  -6   2  11    0.45    0.08
  -6   2  11    0.48    0.11
  -6   2  11    0.43    0.09
   5  -2 -11    2.02    0.17
   5  -2 -11    1.43    0.21
  -5   2  11    2.36    0.16
  -5   2  11    2.34    0.19
  -5   2  11    2.34    0.13
  -5   2  11    2.35    0.17
   4  -2 -11    4.96    0.33
  -4   2  11    6.49    0.26
  -4   2  11    5.52    0.27
  -4   2  11    5.94    0.22
  -3   2  11    1.62    0.16
  -3   2  11    1.67    0.18
  -3   2  11    1.58    0.13
  -2   2  11    0.23    0.07
  -2   2  11    0.26    0.10
  -2   2  11    0.38    0.10
  -1   2  11    0.38    0.11
  -1   2  11    0.41    0.11
  -1   2  11    0.38    0.08
   0   2  11    0.68    0.13
   0   2  11    0.49    0.12
   0   2  11    0.37    0.07
   1   2  11    0.08    0.09
   1   2  11    0.04    0.05
   2   2  11    0.29    0.07
   2   2  11    0.15    0.11
   3   2  11    0.43    0.07
   3   2  11    0.48    0.13
   4   2  11    0.07    0.10
   4   2  11   -0.05    0.05
   5   2  11   -0.10    0.10
  11  -3 -11    0.06    0.10
  10  -3 -11    0.98    0.14
 -10   3  11    0.61    0.12
   9  -3 -11   -0.06    0.10
  -9   3  11   -0.07    0.08
  -9   3  11    0.05    0.08
   8  -3 -11    0.29    0.11
  -8   3  11    0.32    0.11
  -8   3  11    0.36    0.09
   7  -3 -11    0.33    0.11
  -7   3  11    0.39    0.09
  -7   3  11    0.36    0.11
   6  -3 -11    0.28    0.11
  -6   3  11    0.16    0.08
  -6   3  11    0.19    0.07
  -6   3  11    0.11    0.09
   5  -3 -11    0.54    0.11
  -5   3  11    0.49    0.10
  -5   3  11    0.29    0.10
  -4   3  11    0.13    0.07
  -4   3  11    0.02    0.09
  -3   3  11    0.10    0.07
  -3   3  11    0.17    0.09
  -2   3  11    0.00    0.05
  -2   3  11    0.11    0.09
  -1   3  11    0.03    0.08
  -1   3  11    0.02    0.05
   0   3  11    0.02    0.09
   0   3  11    0.03    0.05
   1   3  11   -0.11    0.08
   1   3  11   -0.01    0.05
   2   3  11    0.14    0.06
   2   3  11    0.14    0.11
   3   3  11    0.06    0.05
   3   3  11   -0.14    0.10
   4   3  11    0.16    0.11
   4   3  11    0.03    0.05
  11  -4 -11   -0.08    0.10
  10  -4 -11    0.08    0.12
 -10   4  11    0.08    0.10
   9  -4 -11    0.07    0.11
  -9   4  11    0.23    0.09
  -9   4  11    0.07    0.10
   8  -4 -11    0.25    0.12
  -8   4  11   -0.01    0.07
  -8   4  11    0.07    0.08
   7  -4 -11    0.49    0.13
  -7   4  11    0.37    0.12
  -7   4  11    0.59    0.09
  -7   4  11    0.45    0.10
   6  -4 -11    0.21    0.11
  -6   4  11    0.51    0.11
  -6   4  11    0.15    0.10
  -5   4  11    0.00    0.08
  -5   4  11    0.04    0.06
  -4   4  11    0.07    0.09
  -4   4  11    0.04    0.06
  -3   4  11    1.01    0.12
  -3   4  11    0.99    0.16
  -2   4  11    0.43    0.09
  -2   4  11    0.41    0.12
  -1   4  11    0.86    0.15
  -1   4  11    0.68    0.10
   0   4  11    0.08    0.09
   0   4  11    0.21    0.07
   1   4  11    0.13    0.10
   1   4  11   -0.05    0.05
   2   4  11    0.06    0.10
   2   4  11    0.10    0.06
   3   4  11    0.06    0.06
   3   4  11   -0.02    0.11
  11  -5 -11    0.04    0.11
  10  -5 -11    0.07    0.11
 -10   5  11    0.05    0.10
   9  -5 -11    0.05    0.11
  -9   5  11    0.25    0.11
   8  -5 -11    0.49    0.14
  -8   5  11    0.46    0.10
  -8   5  11    0.44    0.13
   7  -5 -11    0.06    0.12
  -7   5  11    0.00    0.05
  -7   5  11    0.10    0.09
  -7   5  11    0.04    0.08
   6  -5 -11    0.37    0.12
  -6   5  11    0.14    0.08
  -6   5  11    0.11    0.09
  -5   5  11    0.08    0.09
  -5   5  11    0.07    0.08
  -4   5  11    0.06    0.10
  -4   5  11   -0.08    0.07
  -3   5  11    0.03    0.09
  -3   5  11    0.00    0.06
  -2   5  11    0.04    0.10
  -2   5  11    0.09    0.06
  -1   5  11    0.47    0.09
  -1   5  11    0.59    0.15
   0   5  11   -0.17    0.05
   0   5  11   -0.05    0.10
   1   5  11   -0.14    0.10
   1   5  11    0.07    0.07
   2   5  11    0.39    0.08
  10  -6 -11    0.25    0.12
 -10   6  11    0.05    0.10
   9  -6 -11    0.01    0.12
  -9   6  11    0.02    0.10
   8  -6 -11    0.17    0.13
  -8   6  11    0.01    0.09
   7  -6 -11    0.10    0.12
  -7   6  11    0.12    0.10
  -7   6  11   -0.02    0.08
   6  -6 -11    0.00    0.12
  -6   6  11    0.02    0.08
  -6   6  11   -0.12    0.08
  -5   6  11    0.18    0.10
  -5   6  11    0.08    0.10
  -4   6  11    0.53    0.14
  -4   6  11    0.48    0.11
  -3   6  11    0.13    0.11
  -3   6  11   -0.06    0.07
  -2   6  11    0.29    0.13
  -2   6  11    0.14    0.08
  -1   6  11    0.83    0.17
  -1   6  11    0.70    0.11
   0   6  11    0.00    0.07
   0   6  11    0.24    0.13
   8  -7 -11    0.16    0.13
  -8   7  11   -0.12    0.08
   7  -7 -11   -0.09    0.11
  -7   7  11   -0.02    0.09
  -7   7  11    0.12    0.10
  -6   7  11    0.03    0.09
  -6   7  11    0.01    0.09
  -5   7  11   -0.03    0.08
  -5   7  11   -0.03    0.08
  -4   7  11   -0.06    0.08
  -4   7  11    0.01    0.10
  -3   7  11    0.16    0.12
  -3   7  11    0.16    0.09
  -2   7  11    0.01    0.07
   0 -15  12   -0.38    0.13
   0 -15  12   -0.09    0.10
   1 -15  12   -0.27    0.14
   1 -15  12   -0.05    0.10
   2 -15  12    0.29    0.11
   2 -15  12    0.06    0.15
   3 -15  12    0.70    0.18
   4 -15  12   -0.08    0.13
   5 -15  12    0.14    0.13
  -2 -14  12   -0.07    0.11
  -2 -14  12   -0.35    0.11
  -1 -14  12   -0.17    0.13
  -1 -14  12    0.31    0.12
   0 -14  12    0.14    0.15
   0 -14  12    0.04    0.11
   1 -14  12    0.20    0.14
   1 -14  12    0.17    0.10
  -2  14 -12    0.82    0.15
   2 -14  12    1.33    0.17
   2 -14  12    0.65    0.17
  -3  14 -12    0.29    0.09
  -3  14 -12    0.58    0.14
   3 -14  12    0.48    0.16
  -4  14 -12    0.20    0.10
   4 -14  12    0.14    0.13
  -5  14 -12    0.25    0.10
  -5  14 -12    0.07    0.18
   5 -14  12    0.19    0.12
  -6  14 -12    0.14    0.19
  -6  14 -12    0.23    0.11
   6 -14  12    0.20    0.11
  -4 -13  12    0.19    0.12
  -4 -13  12   -0.32    0.12
  -3 -13  12    0.10    0.11
  -3 -13  12   -0.20    0.13
  -2 -13  12   -0.27    0.11
  -2 -13  12   -0.04    0.10
   1  13 -12    0.46    0.23
  -1 -13  12    0.43    0.15
  -1 -13  12    0.39    0.12
   0  13 -12    0.26    0.12
   0 -13  12   -0.13    0.12
   0 -13  12    0.06    0.10
  -1  13 -12   -0.04    0.07
  -1  13 -12   -0.03    0.09
   1 -13  12   -0.09    0.11
   1 -13  12    0.04    0.08
   1 -13  12    0.09    0.09
  -2  13 -12   -0.08    0.07
  -2  13 -12    0.05    0.08
   2 -13  12   -0.02    0.11
   2 -13  12   -0.04    0.07
  -3  13 -12    0.09    0.08
   3 -13  12    0.12    0.08
   3 -13  12    0.13    0.12
  -4  13 -12    0.48    0.18
  -4  13 -12    0.43    0.10
   4 -13  12    0.49    0.14
   4 -13  12    0.70    0.12
  -5  13 -12    0.68    0.19
  -5  13 -12    0.88    0.14
   5 -13  12    1.07    0.17
  -6  13 -12    0.24    0.18
  -6  13 -12    0.20    0.11
   6 -13  12    0.27    0.12
  -7  13 -12   -0.09    0.11
  -7  13 -12    0.08    0.17
  -5 -12  12   -0.06    0.11
  -5 -12  12   -0.24    0.10
  -4 -12  12    0.34    0.15
  -4 -12  12    0.61    0.13
   3  12 -12    0.07    0.08
  -3 -12  12    0.24    0.11
  -3 -12  12   -0.06    0.12
   2  12 -12    0.34    0.10
  -2 -12  12    0.16    0.13
  -2 -12  12    0.33    0.11
   1  12 -12    1.37    0.16
  -1 -12  12    1.14    0.19
  -1 -12  12    1.10    0.13
   0  12 -12    0.08    0.07
   0  12 -12    0.08    0.09
   0 -12  12    0.00    0.07
   0 -12  12    0.09    0.09
   0 -12  12    0.25    0.13
  -1  12 -12    0.16    0.09
  -1  12 -12    0.11    0.08
  -1  12 -12    0.19    0.11
   1 -12  12    0.32    0.09
   1 -12  12    0.19    0.09
   1 -12  12    0.24    0.13
  -2  12 -12    0.36    0.09
   2 -12  12    0.41    0.10
   2 -12  12    0.54    0.15
  -3  12 -12    0.50    0.10
  -3  12 -12    0.69    0.16
   3 -12  12    0.67    0.11
   3 -12  12    0.83    0.15
  -4  12 -12    0.08    0.10
  -4  12 -12    0.07    0.13
   4 -12  12    0.16    0.08
   4 -12  12   -0.03    0.10
  -5  12 -12    0.45    0.16
  -5  12 -12    0.28    0.11
   5 -12  12    0.37    0.09
   5 -12  12    0.28    0.13
  -6  12 -12    0.23    0.16
  -6  12 -12    0.20    0.11
   6 -12  12    0.20    0.11
  -7  12 -12    0.12    0.11
  -7  12 -12    0.20    0.17
  -8  12 -12    0.11    0.17
  -8  12 -12   -0.07    0.11
  -6 -11  12    0.09    0.12
  -5 -11  12    0.19    0.12
  -5 -11  12    0.12    0.11
   4  11 -12    0.24    0.10
  -4 -11  12    0.27    0.11
  -4 -11  12    0.33    0.14
   3  11 -12    0.00    0.10
  -3 -11  12   -0.06    0.10
  -3 -11  12    0.12    0.10
   2  11 -12    2.98    0.26
  -2 -11  12    2.31    0.23
  -2 -11  12    2.61    0.18
   1  11 -12    0.09    0.07
   1  11 -12    0.10    0.09
  -1 -11  12    0.04    0.08
  -1 -11  12    0.11    0.08
  -1 -11  12    0.08    0.11
   0  11 -12   -0.12    0.06
   0  11 -12    0.09    0.07
   0 -11  12    0.18    0.12
   0 -11  12    0.03    0.07
   0 -11  12    0.07    0.08
  -1  11 -12    0.15    0.07
   1 -11  12    0.02    0.07
   1 -11  12    0.12    0.11
  -2  11 -12    0.25    0.12
  -2  11 -12    0.19    0.08
   2 -11  12    0.14    0.11
   2 -11  12    0.11    0.08
  -3  11 -12    0.51    0.14
  -3  11 -12    0.42    0.10
   3 -11  12    0.41    0.12
   3 -11  12    0.50    0.10
  -4  11 -12    0.16    0.09
  -4  11 -12    0.11    0.12
   4 -11  12    0.15    0.07
   4 -11  12    0.09    0.10
  -5  11 -12    0.64    0.17
  -5  11 -12    0.78    0.13
   5 -11  12    0.77    0.24
   5 -11  12    0.69    0.14
  -6  11 -12    0.40    0.17
  -6  11 -12    0.18    0.11
   6 -11  12    0.13    0.10
   6 -11  12    0.42    0.12
  -7  11 -12    0.13    0.15
  -7  11 -12    0.23    0.11
   7 -11  12    0.06    0.10
  -8  11 -12    0.60    0.14
  -8  11 -12    0.59    0.20
   8 -11  12    0.37    0.12
  -7 -10  12    0.51    0.13
  -6 -10  12   -0.06    0.10
   5  10 -12    0.24    0.09
  -5 -10  12    0.36    0.11
  -5 -10  12    0.23    0.11
   4  10 -12    0.13    0.09
  -4 -10  12    0.07    0.10
  -4 -10  12    0.30    0.11
   3  10 -12    0.49    0.11
  -3 -10  12    0.47    0.14
  -3 -10  12    0.28    0.10
   2  10 -12    0.07    0.06
   2  10 -12   -0.11    0.08
  -2 -10  12    0.04    0.07
  -2 -10  12   -0.11    0.08
  -2 -10  12    0.04    0.08
   1  10 -12    0.22    0.22
   1  10 -12    0.32    0.08
   1  10 -12    0.32    0.12
  -1 -10  12    0.14    0.10
  -1 -10  12    0.19    0.08
  -1 -10  12    0.12    0.08
   0  10 -12   -0.01    0.07
   0  10 -12   -0.07    0.06
   0  10 -12   -0.01    0.07
   0  10 -12    0.13    0.10
   0 -10  12    0.03    0.09
   0 -10  12    0.00    0.06
   0 -10  12    0.03    0.06
  -1  10 -12    0.39    0.09
  -1  10 -12    0.76    0.19
   1 -10  12    0.70    0.14
   1 -10  12    0.58    0.11
  -2  10 -12    0.81    0.14
  -2  10 -12    0.72    0.18
  -2  10 -12    0.68    0.11
   2 -10  12    0.86    0.11
   2 -10  12    0.92    0.15
  -3  10 -12    1.77    0.16
  -3  10 -12    1.45    0.18
   3 -10  12    1.63    0.18
   3 -10  12    1.63    0.14
  -4  10 -12    0.01    0.09
  -4  10 -12    0.03    0.11
   4 -10  12    0.03    0.06
   4 -10  12    0.09    0.09
   4 -10  12   -0.18    0.07
  -5  10 -12    1.09    0.19
  -5  10 -12    1.45    0.16
   5 -10  12    1.15    0.14
   5 -10  12    1.27    0.16
   5 -10  12    1.33    0.21
  -6  10 -12    0.75    0.17
  -6  10 -12    0.69    0.13
   6 -10  12    1.05    0.14
   6 -10  12    0.87    0.15
  -7  10 -12   -0.06    0.12
   7 -10  12    0.02    0.09
  -8  10 -12    0.09    0.15
   8 -10  12    0.10    0.10
  -9  10 -12   -0.09    0.13
   9 -10  12   -0.17    0.09
  -8  -9  12   -0.02    0.11
  -7  -9  12    0.01    0.11
   6   9 -12    0.41    0.10
  -6  -9  12    0.54    0.13
  -6  -9  12    0.55    0.12
   5   9 -12    0.18    0.09
  -5  -9  12    0.03    0.09
  -5  -9  12    0.20    0.11
   4   9 -12    0.01    0.07
  -4  -9  12    0.10    0.09
  -4  -9  12    0.07    0.09
   3   9 -12    0.08    0.06
   3   9 -12    0.22    0.09
   3   9 -12    0.01    0.07
  -3  -9  12    0.07    0.09
  -3  -9  12    0.13    0.08
  -3  -9  12    0.05    0.09
   2   9 -12    0.00    0.07
   2   9 -12    0.06    0.07
   2   9 -12    0.35    0.10
  -2  -9  12    0.17    0.08
  -2  -9  12    0.02    0.13
  -2  -9  12    0.13    0.10
   1   9 -12    0.11    0.07
   1   9 -12    0.06    0.07
   1   9 -12    0.22    0.10
  -1  -9  12    0.09    0.16
  -1  -9  12    0.10    0.07
  -1  -9  12   -0.02    0.09
   0   9 -12    0.09    0.08
   0   9 -12    0.13    0.12
   0  -9  12    0.17    0.16
   0  -9  12    0.05    0.10
  -1   9 -12    0.07    0.09
  -1   9 -12    0.14    0.08
  -1   9 -12    0.25    0.26
   1  -9  12    0.17    0.15
   1  -9  12    0.28    0.10
  -2   9 -12   -0.11    0.12
  -2   9 -12   -0.08    0.08
  -2   9 -12    0.04    0.09
   2  -9  12    0.07    0.08
   2  -9  12    0.07    0.06
   2  -9  12    0.05    0.08
  -3   9 -12    0.98    0.15
  -3   9 -12    0.66    0.18
  -3   9 -12    1.15    0.14
   3  -9  12    1.03    0.15
   3  -9  12    1.30    0.14
   3  -9  12    0.91    0.10
  -4   9 -12    0.15    0.11
  -4   9 -12    0.08    0.10
   4  -9  12    0.06    0.08
   4  -9  12    0.11    0.09
   4  -9  12    0.09    0.05
  -5   9 -12    0.17    0.13
  -5   9 -12    0.13    0.10
   5  -9  12    0.23    0.10
   5  -9  12    0.27    0.09
  -6   9 -12    0.11    0.11
   6  -9  12    0.24    0.10
   6  -9  12    0.02    0.08
  -7   9 -12    0.02    0.12
   7  -9  12    0.00    0.08
  -8   9 -12    0.16    0.14
   8  -9  12    0.13    0.09
  -9   9 -12    0.04    0.13
   9  -9  12    0.07    0.09
  -9  -8  12    0.13    0.12
  -8  -8  12    0.13    0.12
   7   8 -12    0.48    0.10
  -7  -8  12    0.63    0.13
   6   8 -12   -0.03    0.07
  -6  -8  12    0.07    0.10
  -6  -8  12    0.21    0.09
   5   8 -12    1.09    0.14
  -5  -8  12    0.83    0.12
  -5  -8  12    0.86    0.14
   4   8 -12   -0.02    0.05
   4   8 -12    0.15    0.07
  -4  -8  12    0.12    0.08
  -4  -8  12    0.17    0.08
  -4  -8  12    0.06    0.08
   3   8 -12    1.14    0.11
   3   8 -12    1.96    0.18
   3   8 -12    1.15    0.13
  -3  -8  12    1.44    0.14
  -3  -8  12    0.97    0.11
  -3  -8  12    1.32    0.16
   2   8 -12    0.29    0.10
   2   8 -12    0.09    0.07
   2   8 -12   -0.06    0.06
  -2  -8  12    0.06    0.07
  -2  -8  12    0.00    0.08
  -2  -8  12   -0.01    0.06
   1   8 -12    0.67    0.13
  -1  -8  12    0.47    0.07
  -1  -8  12    0.44    0.09
  -1  -8  12    0.57    0.12
   0   8 -12    1.14    0.13
   0   8 -12    1.00    0.13
   0   8 -12    1.15    0.27
   0  -8  12    1.38    0.13
   0  -8  12    1.32    0.15
  -1   8 -12    0.27    0.09
  -1   8 -12    0.30    0.09
  -1   8 -12    0.28    0.13
   1  -8  12    0.36    0.10
   1  -8  12    0.32    0.09
   1  -8  12    0.23    0.07
  -2   8 -12    0.09    0.08
  -2   8 -12   -0.01    0.08
  -2   8 -12   -0.05    0.22
   2  -8  12   -0.03    0.06
   2  -8  12   -0.03    0.05
   2  -8  12    0.06    0.08
  -3   8 -12    0.17    0.15
  -3   8 -12    0.36    0.11
  -3   8 -12    0.53    0.11
   3  -8  12    0.52    0.10
   3  -8  12    0.48    0.07
   3  -8  12    0.92    0.14
  -4   8 -12    0.12    0.10
  -4   8 -12   -0.05    0.13
   4  -8  12    0.34    0.10
   4  -8  12    0.18    0.09
  -5   8 -12    0.50    0.13
   5  -8  12    0.88    0.12
   5  -8  12    0.76    0.14
  -6   8 -12    0.24    0.12
   6  -8  12    0.08    0.08
  -7   8 -12    0.02    0.11
   7  -8  12    0.00    0.07
  -8   8 -12    0.58    0.16
   8  -8  12    0.51    0.11
  -9   8 -12    0.14    0.13
   9  -8  12   -0.06    0.09
  -9  -7  12    0.16    0.11
   8   7 -12    0.64    0.11
  -8  -7  12    0.83    0.14
   7   7 -12   -0.08    0.07
  -7  -7  12    0.07    0.10
   6   7 -12    0.43    0.20
   6   7 -12   -0.05    0.07
  -6  -7  12    0.04    0.09
  -6  -7  12    0.11    0.08
   5   7 -12    0.28    0.07
   5   7 -12    0.24    0.09
  -5  -7  12    0.24    0.09
  -5  -7  12    0.33    0.10
  -5  -7  12    0.21    0.09
   4   7 -12    0.83    0.10
   4   7 -12    0.80    0.11
  -4  -7  12    0.68    0.10
  -4  -7  12    0.83    0.13
  -4  -7  12    1.06    0.13
   3   7 -12    1.49    0.25
   3   7 -12    1.31    0.14
   3   7 -12    1.04    0.11
  -3  -7  12    1.01    0.14
  -3  -7  12    1.11    0.12
  -3  -7  12    1.10    0.10
   2   7 -12    2.78    0.21
   2   7 -12    2.48    0.16
  -2  -7  12    2.87    0.16
  -2  -7  12    2.45    0.18
  -2  -7  12    2.33    0.12
   1   7 -12    9.38    0.28
   1   7 -12    9.50    0.41
  -1  -7  12    9.61    0.30
  -1  -7  12    9.64    0.29
  -1  -7  12    9.06    0.32
  -1  -7  12    9.95    0.28
   0   7 -12    1.13    0.13
   0   7 -12    1.11    0.12
   0   7 -12    1.30    0.28
   0  -7  12    1.13    0.13
   0  -7  12    1.19    0.11
   0  -7  12    1.35    0.15
   0  -7  12    1.29    0.13
  -1   7 -12    0.22    0.09
  -1   7 -12    0.32    0.09
  -1   7 -12    0.33    0.13
   1  -7  12    0.24    0.09
   1  -7  12    0.30    0.08
   1  -7  12    0.30    0.09
   1  -7  12    0.24    0.06
  -2   7 -12   -0.16    0.11
  -2   7 -12   -0.12    0.07
  -2   7 -12    0.14    0.08
   2  -7  12   -0.01    0.06
   2  -7  12    0.00    0.07
   2  -7  12    0.01    0.06
   2  -7  12   -0.02    0.04
  -3   7 -12   -0.08    0.12
  -3   7 -12   -0.07    0.07
   3  -7  12   -0.01    0.07
   3  -7  12   -0.03    0.06
  -4   7 -12    0.05    0.09
  -4   7 -12   -0.06    0.30
   4  -7  12    0.04    0.07
   4  -7  12   -0.03    0.08
  -5   7 -12    2.38    0.22
   5  -7  12    2.26    0.18
   5  -7  12    2.02    0.16
  -6   7 -12    0.41    0.13
   6  -7  12    0.33    0.09
  -7   7 -12    0.13    0.11
   7  -7  12   -0.01    0.07
  -8   7 -12    0.29    0.13
   8  -7  12    0.29    0.10
  -9   7 -12    0.08    0.12
   9  -7  12   -0.03    0.09
 -10  -6  12   -0.02    0.11
  -9  -6  12    0.35    0.12
   8   6 -12    0.15    0.09
  -8  -6  12    0.27    0.11
   7   6 -12    0.64    0.13
   7   6 -12    0.23    0.09
  -7  -6  12    0.24    0.10
   6   6 -12    0.36    0.20
   6   6 -12   -0.05    0.07
   6   6 -12    0.00    0.06
  -6  -6  12    0.14    0.08
  -6  -6  12   -0.09    0.07
  -6  -6  12   -0.02    0.08
   5   6 -12    0.33    0.09
   5   6 -12    0.30    0.09
  -5  -6  12    0.35    0.10
  -5  -6  12    0.34    0.09
  -5  -6  12    0.52    0.11
   4   6 -12    0.01    0.08
   4   6 -12    0.21    0.07
   4   6 -12    0.17    0.08
  -4  -6  12    0.14    0.08
  -4  -6  12    0.12    0.07
  -4  -6  12    0.00    0.06
   3   6 -12    0.48    0.10
   3   6 -12    0.65    0.11
   3   6 -12    0.60    0.10
   3   6 -12    0.63    0.19
  -3  -6  12    0.48    0.10
  -3  -6  12    0.58    0.10
  -3  -6  12    0.66    0.08
   2   6 -12    4.04    0.19
   2   6 -12    4.83    0.25
   2   6 -12    4.35    0.20
  -2  -6  12    4.49    0.21
  -2  -6  12    4.00    0.19
  -2  -6  12    4.29    0.19
  -2  -6  12    4.35    0.19
   1   6 -12    1.63    0.19
   1   6 -12    1.39    0.13
  -1  -6  12    1.42    0.13
  -1  -6  12    1.64    0.14
  -1  -6  12    1.50    0.14
  -1  -6  12    1.49    0.16
   0   6 -12    1.73    0.43
   0   6 -12    1.60    0.15
   0  -6  12    1.63    0.15
   0  -6  12    1.63    0.12
   0  -6  12    1.48    0.16
   0  -6  12    1.71    0.14
  -1   6 -12    4.45    0.20
  -1   6 -12    4.39    0.75
   1  -6  12    4.43    0.21
   1  -6  12    4.66    0.19
   1  -6  12    4.43    0.15
   1  -6  12    4.29    0.21
   1  -6  12    4.44    0.22
  -2   6 -12    0.77    0.16
   2  -6  12    0.81    0.12
   2  -6  12    0.81    0.11
   2  -6  12    0.78    0.13
  -3   6 -12    2.45    0.25
   3  -6  12    2.66    0.16
   3  -6  12    2.98    0.21
   3  -6  12    2.98    0.20
  -4   6 -12   -0.19    0.12
   4  -6  12    0.11    0.09
   4  -6  12    0.04    0.06
  -5   6 -12    0.02    0.08
  -5   6 -12   -0.09    0.14
   5  -6  12    0.08    0.07
   5  -6  12    0.09    0.09
  -6   6 -12    0.04    0.09
   6  -6  12    0.02    0.07
  -7   6 -12    0.12    0.11
   7  -6  12    0.21    0.08
  -8   6 -12    0.51    0.14
   8  -6  12    0.56    0.10
 -10  -5  12   -0.02    0.10
   9   5 -12   -0.01    0.07
  -9  -5  12    0.11    0.11
   8   5 -12   -0.02    0.07
  -8  -5  12   -0.02    0.09
   7   5 -12    0.10    0.08
  -7  -5  12    0.18    0.09
   6   5 -12    2.68    0.43
   6   5 -12    2.63    0.16
   6   5 -12    3.02    0.19
  -6  -5  12    2.65    0.17
  -6  -5  12    2.69    0.17
  -6  -5  12    2.70    0.26
   5   5 -12    2.47    0.16
   5   5 -12    2.91    0.18
  -5  -5  12    2.81    0.18
  -5  -5  12    2.75    0.15
  -5  -5  12    3.17    0.21
   4   5 -12   -0.02    0.08
   4   5 -12    0.23    0.06
   4   5 -12   -0.11    0.05
   4   5 -12   -0.01    0.08
  -4  -5  12    0.01    0.05
  -4  -5  12    0.02    0.06
  -4  -5  12    0.02    0.06
   3   5 -12    0.17    0.09
   3   5 -12    0.06    0.08
  -3  -5  12    0.09    0.06
  -3  -5  12   -0.05    0.05
   2   5 -12    0.03    0.07
   2   5 -12    0.14    0.08
  -2  -5  12    0.05    0.13
  -2  -5  12   -0.02    0.05
  -2  -5  12   -0.09    0.05
  -2  -5  12   -0.08    0.05
   1   5 -12    1.00    0.31
   1   5 -12    0.87    0.11
  -1  -5  12    0.94    0.13
  -1  -5  12    1.01    0.12
  -1  -5  12    0.85    0.09
  -1  -5  12    1.00    0.11
   0   5 -12    0.31    0.11
   0   5 -12    0.29    0.08
   0  -5  12    0.33    0.08
   0  -5  12    0.23    0.08
   0  -5  12    0.30    0.08
   0  -5  12    0.19    0.05
   0  -5  12    0.19    0.08
  -1   5 -12    4.40    0.26
   1  -5  12    4.93    0.19
   1  -5  12    4.56    0.23
   1  -5  12    5.19    0.24
  -2   5 -12    1.51    0.19
   2  -5  12    1.72    0.17
   2  -5  12    1.78    0.16
   2  -5  12    1.67    0.14
  -3   5 -12    1.79    0.22
   3  -5  12    1.85    0.16
   3  -5  12    2.26    0.19
   3  -5  12    1.87    0.14
  -4   5 -12    0.82    0.17
   4  -5  12    0.91    0.14
   4  -5  12    0.97    0.14
   4  -5  12    0.94    0.11
  -5   5 -12   -0.18    0.14
   5  -5  12    0.03    0.09
   5  -5  12    0.15    0.07
   5  -5  12    0.09    0.09
  -6   5 -12    0.11    0.09
   6  -5  12    0.10    0.07
  -7   5 -12    0.62    0.15
   7  -5  12    0.60    0.10
  -8   5 -12    0.18    0.11
   8  -5  12    0.24    0.08
 -11  -4  12    0.12    0.12
 -10  -4  12   -0.03    0.10
   9   4 -12    0.40    0.10
  -9  -4  12    0.43    0.12
   8   4 -12   -0.01    0.07
  -8  -4  12    0.05    0.09
   7   4 -12   -0.09    0.07
   7   4 -12    0.06    0.08
  -7  -4  12    0.25    0.09
  -7  -4  12    0.14    0.08
   6   4 -12    1.23    0.13
   6   4 -12    1.23    0.13
   6   4 -12    1.27    0.14
  -6  -4  12    1.11    0.11
  -6  -4  12    1.45    0.16
  -6  -4  12    1.22    0.14
   5   4 -12    4.09    0.20
   5   4 -12    4.52    0.20
  -5  -4  12    4.66    0.21
  -5  -4  12    4.17    0.16
  -5  -4  12    4.64    0.22
   4   4 -12    2.60    0.17
  -4  -4  12    2.51    0.16
  -4  -4  12    2.33    0.16
   3   4 -12    0.12    0.08
  -3  -4  12    0.14    0.07
  -3  -4  12    0.22    0.08
  -3  -4  12    0.08    0.06
  -3  -4  12    0.21    0.07
   2   4 -12    1.44    0.13
  -2  -4  12    1.48    0.14
  -2  -4  12    1.44    0.14
  -2  -4  12    1.47    0.11
  -2  -4  12    1.49    0.13
   1   4 -12    0.04    0.07
  -1  -4  12    0.03    0.06
  -1  -4  12    0.06    0.07
  -1  -4  12    0.03    0.05
  -1  -4  12    0.06    0.07
   0  -4  12    0.54    0.09
   0  -4  12    0.53    0.10
   0  -4  12    0.44    0.10
   1  -4  12    1.30    0.12
   1  -4  12    1.22    0.15
   1  -4  12    1.22    0.15
   2  -4  12   -0.06    0.07
   2  -4  12   -0.05    0.07
   2  -4  12   -0.10    0.05
   3  -4  12    0.09    0.09
   3  -4  12    0.07    0.06
   3  -4  12   -0.06    0.07
   4  -4  12    0.50    0.13
   4  -4  12    0.76    0.14
   4  -4  12    0.61    0.09
   5  -4  12   -0.05    0.06
   5  -4  12   -0.12    0.07
   5  -4  12   -0.16    0.08
   6  -4  12    0.18    0.07
  -7   4 -12    0.29    0.12
   7  -4  12    0.23    0.08
  -8   4 -12    0.07    0.10
   8  -4  12   -0.07    0.07
 -11  -3  12    0.00    0.11
 -10  -3  12    0.11    0.11
   9   3 -12    0.12    0.08
  -9  -3  12    0.15    0.10
   8   3 -12   -0.02    0.07
   8   3 -12    0.10    0.08
  -8  -3  12   -0.05    0.08
  -8  -3  12    0.08    0.09
   7   3 -12    0.58    0.11
   7   3 -12    0.45    0.10
   7   3 -12    0.36    0.10
  -7  -3  12    0.41    0.10
  -7  -3  12    0.44    0.09
   6   3 -12    1.28    0.13
   6   3 -12    1.29    0.14
  -6  -3  12    1.46    0.15
  -6  -3  12    1.26    0.14
  -6  -3  12    1.20    0.11
   5   3 -12    0.09    0.08
  -5  -3  12    0.00    0.06
  -5  -3  12   -0.04    0.06
   4   3 -12    2.11    0.16
  -4  -3  12    2.12    0.18
  -4  -3  12    2.04    0.15
  -4  -3  12    2.47    0.16
  -4  -3  12    2.11    0.15
   3   3 -12   -0.03    0.07
  -3  -3  12   -0.07    0.06
  -3  -3  12    0.03    0.06
  -3  -3  12   -0.06    0.06
  -3  -3  12    0.07    0.06
  -3  -3  12    0.05    0.05
   2   3 -12    0.78    0.10
  -2  -3  12    0.60    0.11
  -2  -3  12    0.68    0.08
  -2  -3  12    0.73    0.10
  -2  -3  12    0.63    0.11
  -2  -3  12    0.68    0.08
  -1  -3  12    0.57    0.11
  -1  -3  12    0.63    0.09
  -1  -3  12    0.59    0.11
   0  -3  12    3.89    0.17
   0  -3  12    3.54    0.19
   0  -3  12    3.55    0.21
   1  -3  12    2.07    0.14
   1  -3  12    2.15    0.17
   1  -3  12    2.45    0.19
   2  -3  12    0.53    0.12
   2  -3  12    0.37    0.11
   2  -3  12    0.27    0.07
   3  -3  12    5.85    0.20
   3  -3  12    5.57    0.29
   3  -3  12    6.04    0.27
   4  -3  12    2.60    0.22
   4  -3  12    2.50    0.20
   4  -3  12    2.60    0.15
   5  -3  12    0.03    0.22
   5  -3  12   -0.01    0.10
   5  -3  12    0.03    0.06
   6  -3  12   -0.06    0.06
   6  -3  12   -0.04    0.11
   7  -3  12   -0.03    0.06
 -11  -2  12    0.13    0.11
  10   2 -12    1.93    0.19
 -10  -2  12    1.91    0.18
 -10  -2  12    1.34    0.18
   9   2 -12    1.15    0.14
  -9  -2  12    1.35    0.17
  -9  -2  12    1.42    0.14
   8   2 -12   -0.06    0.07
   8   2 -12   -0.02    0.08
  -8  -2  12   -0.02    0.08
  -8  -2  12    0.09    0.08
  -8  -2  12   -0.08    0.07
   7   2 -12    0.03    0.09
   7   2 -12   -0.04    0.07
  -7  -2  12   -0.06    0.06
  -7  -2  12    0.01    0.06
  -7  -2  12    0.01    0.07
   6   2 -12   -0.16    0.08
   6   2 -12    0.11    0.08
  -6  -2  12   -0.01    0.06
  -6  -2  12    0.01    0.06
  -6  -2  12   -0.07    0.06
   5   2 -12    1.87    0.16
  -5  -2  12    2.41    0.17
  -5  -2  12    2.37    0.15
  -5  -2  12    2.35    0.16
   4   2 -12    0.04    0.08
  -4  -2  12    0.03    0.05
  -4  -2  12    0.02    0.05
  -4  -2  12   -0.05    0.06
  -4  -2  12    0.02    0.06
  -4  -2  12    0.07    0.06
   3   2 -12    4.59    0.20
  -3  -2  12    4.86    0.23
  -3  -2  12    5.10    0.22
  -3  -2  12    5.17    0.20
  -3  -2  12    4.77    0.22
   2   2 -12    0.80    0.10
  -2  -2  12    0.71    0.13
  -2  -2  12    0.67    0.10
  -2  -2  12    0.59    0.11
  -2  -2  12    0.70    0.11
  -1  -2  12    0.27    0.07
  -1  -2  12    0.31    0.09
  -1  -2  12    0.26    0.09
   0  -2  12    1.69    0.13
   0  -2  12    1.57    0.15
   0  -2  12    1.51    0.17
   1  -2  12    1.36    0.16
   1  -2  12    1.26    0.16
   1  -2  12    1.39    0.12
   2  -2  12    0.26    0.10
   2  -2  12    0.04    0.08
   2  -2  12    0.11    0.06
   3  -2  12    0.12    0.10
   3  -2  12    0.08    0.10
   3  -2  12    0.15    0.06
   4  -2  12   -0.03    0.06
   4  -2  12    0.01    0.08
   4  -2  12    0.10    0.10
   5  -2  12    0.08    0.06
   5  -2  12    0.17    0.11
   5  -2  12    0.29    0.12
   6  -2  12    0.09    0.06
   6  -2  12    0.30    0.13
   7  -2  12    0.01    0.07
 -11  -1  12    0.12    0.10
  10   1 -12    0.21    0.09
 -10  -1  12    0.05    0.10
   9   1 -12   -0.02    0.08
   9   1 -12    0.06    0.08
  -9  -1  12    0.21    0.10
  -9  -1  12    0.27    0.09
  -9  -1  12    0.13    0.09
   8   1 -12    0.03    0.09
   8   1 -12    0.00    0.07
  -8  -1  12   -0.01    0.07
  -8  -1  12    0.13    0.08
  -8  -1  12   -0.05    0.08
   7   1 -12    0.07    0.09
  -7  -1  12   -0.10    0.07
  -7  -1  12    0.10    0.07
   6   1 -12    0.43    0.10
   6   1 -12    0.23    0.12
  -6  -1  12    0.43    0.09
  -6  -1  12    0.50    0.11
  -6  -1  12    0.56    0.11
   5   1 -12    0.80    0.11
  -5  -1  12    1.02    0.13
  -5  -1  12    1.11    0.14
  -5  -1  12    0.89    0.11
  -5  -1  12    1.15    0.23
   4   1 -12    1.27    0.12
  -4  -1  12    1.18    0.12
  -4  -1  12    1.29    0.11
  -4  -1  12    1.42    0.15
  -4  -1  12    1.21    0.14
   3   1 -12    0.02    0.08
  -3  -1  12    0.07    0.18
  -3  -1  12    0.12    0.07
  -3  -1  12    0.07    0.07
  -3  -1  12    0.12    0.06
  -2  -1  12   -0.02    0.06
  -2  -1  12    0.08    0.06
  -2  -1  12    0.09    0.07
  -1  -1  12    0.36    0.10
  -1  -1  12    0.33    0.08
  -1  -1  12    0.37    0.10
   0  -1  12    1.40    0.12
   0  -1  12    1.53    0.18
   0  -1  12    1.46    0.17
   1  -1  12    3.70    0.24
   1  -1  12    3.37    0.21
   1  -1  12    3.34    0.16
   2  -1  12    0.28    0.07
   2  -1  12    0.52    0.17
   2  -1  12    0.46    0.12
   3  -1  12    0.54    0.13
   3  -1  12    0.33    0.12
   3  -1  12    0.54    0.08
   4  -1  12    0.06    0.09
   4  -1  12   -0.08    0.08
   4  -1  12   -0.10    0.05
   5  -1  12   -0.01    0.10
   5  -1  12   -0.10    0.05
   6  -1  12   -0.01    0.06
   6  -1  12   -0.03    0.11
 -11   0  12    0.13    0.10
  10   0 -12    0.12    0.09
 -10   0  12   -0.01    0.08
 -10   0  12    0.01    0.09
   9   0 -12   -0.05    0.09
   9   0 -12    0.00    0.08
  -9   0  12   -0.04    0.08
   8   0 -12    0.10    0.10
  -8   0  12    0.10    0.08
   7   0 -12    0.14    0.10
  -7   0  12   -0.10    0.06
  -7   0  12   -0.02    0.08
   6   0 -12    0.28    0.10
  -6   0  12    0.18    0.08
  -6   0  12    0.15    0.14
  -6   0  12    0.24    0.09
   5   0 -12    0.55    0.11
  -5   0  12    0.49    0.11
  -5   0  12    0.63    0.12
  -5   0  12    0.71    0.09
  -5   0  12    0.76    0.11
   4   0 -12    1.42    0.13
  -4   0  12    1.52    0.14
  -4   0  12    1.49    0.15
  -4   0  12    1.54    0.11
  -4   0  12    1.53    0.16
  -3   0  12   -0.02    0.06
  -3   0  12    0.09    0.08
  -3   0  12    0.02    0.07
  -2   0  12    0.06    0.07
  -2   0  12    0.02    0.06
  -2   0  12   -0.01    0.07
  -1   0  12    0.15    0.06
  -1   0  12    0.15    0.10
  -1   0  12    0.12    0.09
   0   0  12    0.75    0.14
   0   0  12    0.86    0.10
   0   0  12    0.72    0.13
   1   0  12    0.03    0.09
   1   0  12    0.00    0.08
   1   0  12    0.06    0.05
   2   0  12    0.15    0.06
   2   0  12    0.13    0.10
   2   0  12    0.17    0.11
   3   0  12    0.04    0.10
   3   0  12    0.16    0.11
   3   0  12    0.03    0.06
   4   0  12    0.01    0.06
   4   0  12   -0.03    0.09
   5   0  12   -0.04    0.06
   5   0  12    0.03    0.10
  10  -1 -12    0.10    0.10
  10  -1 -12    0.07    0.10
 -10   1  12    0.11    0.25
   9  -1 -12    0.03    0.10
  -9   1  12    0.25    0.13
   8  -1 -12    0.44    0.12
  -8   1  12    0.37    0.14
   7  -1 -12    0.09    0.10
  -7   1  12    0.27    0.09
  -7   1  12    0.15    0.09
  -7   1  12    0.04    0.07
   6  -1 -12    0.26    0.10
  -6   1  12    0.37    0.10
  -6   1  12    0.14    0.09
  -6   1  12    0.24    0.10
  -6   1  12    0.26    0.08
   5  -1 -12    0.64    0.11
  -5   1  12    0.42    0.09
  -5   1  12    0.52    0.12
  -5   1  12    0.49    0.11
  -5   1  12    0.52    0.08
   4  -1 -12    0.56    0.11
  -4   1  12    0.75    0.11
  -4   1  12    0.87    0.13
  -4   1  12    0.60    0.12
  -3   1  12    1.30    0.13
  -3   1  12    1.67    0.18
  -3   1  12    1.35    0.17
  -2   1  12   -0.01    0.08
  -2   1  12    0.16    0.07
  -2   1  12    0.06    0.08
  -1   1  12   -0.05    0.05
  -1   1  12   -0.01    0.08
   0   1  12    0.11    0.09
   0   1  12   -0.03    0.09
   0   1  12   -0.02    0.05
   1   1  12    0.10    0.06
   1   1  12   -0.08    0.08
   1   1  12    0.00    0.09
   2   1  12    0.43    0.08
   2   1  12    0.15    0.10
   3   1  12    0.77    0.09
   3   1  12    0.89    0.16
   4   1  12    0.25    0.07
   4   1  12    0.29    0.13
   5   1  12   -0.08    0.10
   5   1  12    0.04    0.05
  10  -2 -12    0.41    0.12
   9  -2 -12    0.47    0.12
  -9   2  12    0.43    0.22
   8  -2 -12    0.10    0.10
  -8   2  12    0.04    0.07
  -8   2  12   -0.04    0.09
   7  -2 -12    0.47    0.12
  -7   2  12    0.45    0.09
  -7   2  12    0.37    0.11
  -7   2  12    0.63    0.12
   6  -2 -12    0.06    0.10
  -6   2  12    0.02    0.08
  -6   2  12    0.07    0.06
  -6   2  12    0.10    0.08
  -6   2  12    0.07    0.09
   5  -2 -12    0.03    0.10
  -5   2  12    0.11    0.08
  -5   2  12    0.18    0.09
  -5   2  12   -0.01    0.08
  -4   2  12    0.83    0.14
  -4   2  12    0.89    0.12
  -4   2  12    0.89    0.15
  -3   2  12    0.25    0.10
  -3   2  12    0.38    0.11
  -3   2  12    0.57    0.10
  -2   2  12    0.02    0.06
  -2   2  12    0.00    0.08
  -2   2  12    0.03    0.08
  -1   2  12    0.10    0.09
  -1   2  12    0.06    0.06
  -1   2  12    0.12    0.09
   0   2  12    0.37    0.12
   0   2  12    0.39    0.08
   1   2  12    0.19    0.07
   1   2  12    0.19    0.11
   2   2  12   -0.06    0.05
   2   2  12   -0.01    0.10
   3   2  12    0.01    0.06
   3   2  12   -0.04    0.11
   4   2  12   -0.03    0.06
   4   2  12    0.05    0.11
  11  -3 -12    0.07    0.10
  10  -3 -12    0.24    0.12
   9  -3 -12    0.03    0.11
  -9   3  12   -0.06    0.09
   8  -3 -12    0.01    0.11
  -8   3  12    0.07    0.09
  -8   3  12    0.02    0.07
   7  -3 -12   -0.11    0.10
  -7   3  12   -0.03    0.06
  -7   3  12    0.00    0.09
   6  -3 -12    0.74    0.14
  -6   3  12    0.68    0.12
  -6   3  12    0.65    0.14
   5  -3 -12    0.49    0.12
  -5   3  12    0.72    0.14
  -5   3  12    0.56    0.10
  -4   3  12    1.15    0.13
  -4   3  12    0.91    0.16
  -3   3  12    0.72    0.15
  -3   3  12    0.82    0.11
  -2   3  12   -0.04    0.06
  -2   3  12   -0.07    0.08
  -1   3  12   -0.01    0.08
  -1   3  12   -0.01    0.06
   0   3  12    0.00    0.09
   0   3  12    0.07    0.06
   1   3  12    0.01    0.11
   1   3  12   -0.07    0.06
   2   3  12   -0.04    0.05
   2   3  12    0.03    0.11
   3   3  12    0.02    0.11
   3   3  12   -0.03    0.05
  10  -4 -12    0.01    0.12
   9  -4 -12    0.03    0.11
  -9   4  12    0.08    0.10
   8  -4 -12    0.00    0.11
  -8   4  12   -0.02    0.10
   7  -4 -12    0.25    0.12
  -7   4  12    0.12    0.11
  -7   4  12    0.25    0.07
   6  -4 -12   -0.03    0.11
  -6   4  12   -0.04    0.08
  -6   4  12   -0.07    0.07
  -5   4  12    0.24    0.12
  -5   4  12    0.34    0.09
  -4   4  12    0.00    0.09
  -4   4  12    0.03    0.07
  -3   4  12   -0.09    0.09
  -3   4  12    0.04    0.07
  -2   4  12    0.07    0.07
  -2   4  12    0.02    0.10
  -1   4  12    0.19    0.11
  -1   4  12    0.20    0.08
   0   4  12   -0.07    0.09
   0   4  12   -0.04    0.06
   1   4  12    0.06    0.12
   1   4  12    0.04    0.07
   9  -5 -12   -0.02    0.12
  -9   5  12    0.02    0.10
   8  -5 -12    0.11    0.12
  -8   5  12    0.13    0.11
   7  -5 -12    0.15    0.12
  -7   5  12    0.05    0.09
  -7   5  12   -0.02    0.09
   6  -5 -12    0.18    0.12
  -6   5  12    0.15    0.10
  -6   5  12    0.01    0.08
  -5   5  12   -0.07    0.09
  -5   5  12    0.01    0.08
  -4   5  12   -0.09    0.06
  -4   5  12    0.04    0.10
  -3   5  12   -0.03    0.09
  -3   5  12    0.04    0.07
  -2   5  12    0.29    0.09
  -2   5  12    0.17    0.12
  -1   5  12   -0.03    0.10
  -1   5  12    0.01    0.07
   0   5  12    0.25    0.08
   0   5  12    0.13    0.11
   8  -6 -12    0.30    0.13
  -8   6  12    0.01    0.10
   7  -6 -12    0.08    0.13
  -7   6  12    0.10    0.11
  -7   6  12    0.21    0.11
  -6   6  12    0.05    0.09
  -6   6  12    0.08    0.11
  -5   6  12    0.04    0.10
  -5   6  12    0.02    0.09
  -4   6  12   -0.03    0.08
  -4   6  12    0.06    0.11
  -3   6  12   -0.04    0.09
  -3   6  12   -0.03    0.08
  -2 -14  13   -0.01    0.12
  -2 -14  13    0.14    0.11
  -1 -14  13    0.14    0.14
  -1 -14  13    0.37    0.12
   0 -14  13    0.07    0.10
   0 -14  13    0.01    0.13
   1 -14  13    0.00    0.12
  -2  14 -13    0.11    0.08
   2 -14  13    0.28    0.14
  -3  14 -13    0.19    0.10
   3 -14  13    0.47    0.15
  -4  14 -13   -0.10    0.09
   4 -14  13    0.06    0.12
  -5  14 -13    0.19    0.18
  -5  14 -13    0.06    0.10
   5 -14  13    0.05    0.11
  -3 -13  13    0.01    0.12
  -3 -13  13   -0.10    0.10
  -2 -13  13    0.23    0.11
  -2 -13  13   -0.03    0.13
  -1 -13  13    0.14    0.10
  -1 -13  13    0.00    0.12
   0  13 -13   -0.04    0.09
   0 -13  13    0.05    0.09
   0 -13  13   -0.05    0.11
   0 -13  13   -0.10    0.09
  -1  13 -13    0.73    0.10
  -1  13 -13    1.00    0.15
   1 -13  13    1.04    0.15
   1 -13  13    1.43    0.20
  -2  13 -13    0.05    0.08
   2 -13  13    0.05    0.12
   2 -13  13    0.05    0.09
  -3  13 -13    0.02    0.08
   3 -13  13    0.06    0.11
  -4  13 -13   -0.20    0.14
  -4  13 -13   -0.03    0.09
   4 -13  13    0.05    0.11
  -5  13 -13   -0.12    0.10
  -5  13 -13    0.13    0.17
   5 -13  13    0.21    0.11
  -6  13 -13    0.20    0.12
  -6  13 -13    0.14    0.16
   6 -13  13    0.37    0.12
  -5 -12  13   -0.11    0.10
  -5 -12  13    0.30    0.12
  -4 -12  13    0.04    0.11
  -4 -12  13   -0.08    0.09
  -3 -12  13    0.36    0.14
  -3 -12  13    0.50    0.12
   2  12 -13    0.02    0.08
  -2 -12  13   -0.03    0.09
  -2 -12  13   -0.10    0.10
   1  12 -13    3.08    0.22
  -1 -12  13    2.44    0.18
  -1 -12  13    2.71    0.24
  -1 -12  13    3.07    0.22
   0  12 -13    0.57    0.10
   0  12 -13    0.75    0.14
   0 -12  13    0.45    0.11
   0 -12  13    0.79    0.15
   0 -12  13    0.62    0.10
  -1  12 -13    0.05    0.08
  -1  12 -13    0.07    0.09
   1 -12  13    0.28    0.09
   1 -12  13    0.15    0.12
  -2  12 -13   -0.13    0.07
   2 -12  13    0.11    0.08
   2 -12  13    0.09    0.11
  -3  12 -13    0.02    0.09
  -3  12 -13    0.12    0.13
   3 -12  13    0.11    0.08
   3 -12  13    0.17    0.11
  -4  12 -13    0.19    0.10
  -4  12 -13    0.34    0.16
   4 -12  13    0.21    0.09
   4 -12  13    0.25    0.12
  -5  12 -13   -0.03    0.10
  -5  12 -13    0.11    0.15
   5 -12  13    0.02    0.10
  -6  12 -13    0.47    0.13
  -6  12 -13    0.71    0.19
   6 -12  13    0.90    0.18
  -7  12 -13    0.25    0.13
  -7  12 -13    0.13    0.16
  -6 -11  13    0.42    0.13
  -5 -11  13    0.75    0.14
  -5 -11  13    0.75    0.15
   4  11 -13    0.29    0.10
  -4 -11  13    0.19    0.12
  -4 -11  13    0.42    0.11
   3  11 -13    0.12    0.23
  -3 -11  13    0.10    0.10
  -3 -11  13    0.39    0.13
   2  11 -13    0.12    0.09
  -2 -11  13    0.25    0.10
  -2 -11  13    0.22    0.10
  -2 -11  13    0.08    0.11
   1  11 -13    0.35    0.11
   1  11 -13    0.33    0.08
  -1 -11  13    0.39    0.09
  -1 -11  13    0.20    0.12
  -1 -11  13    0.44    0.11
   0  11 -13    0.34    0.08
   0 -11  13    0.50    0.14
   0 -11  13    0.66    0.11
  -1  11 -13    0.64    0.10
   1 -11  13    0.85    0.15
   1 -11  13    0.80    0.13
  -2  11 -13    1.81    0.21
  -2  11 -13    1.97    0.17
   2 -11  13    1.73    0.20
   2 -11  13    2.18    0.19
  -3  11 -13    0.35    0.11
  -3  11 -13    0.38    0.14
   3 -11  13    0.24    0.11
   3 -11  13    0.36    0.23
  -4  11 -13    0.43    0.15
  -4  11 -13    0.50    0.12
   4 -11  13    0.49    0.13
   4 -11  13    0.41    0.09
  -5  11 -13    3.06    0.29
  -5  11 -13    2.96    0.21
   5 -11  13    3.73    0.18
   5 -11  13    3.11    0.23
  -6  11 -13    0.02    0.11
  -6  11 -13    0.04    0.14
   6 -11  13   -0.02    0.09
  -7  11 -13    0.29    0.16
  -7  11 -13   -0.03    0.10
   7 -11  13    0.13    0.10
  -7 -10  13   -0.01    0.11
  -6 -10  13    0.23    0.11
   5  10 -13   -0.03    0.08
  -5 -10  13    0.12    0.09
  -5 -10  13   -0.10    0.09
   4  10 -13   -0.19    0.07
  -4 -10  13    0.03    0.09
  -4 -10  13   -0.03    0.09
   3  10 -13    0.31    0.10
  -3 -10  13    0.18    0.10
  -3 -10  13    0.33    0.10
  -3 -10  13    0.33    0.12
   2  10 -13    0.10    0.17
   2  10 -13   -0.01    0.06
  -2 -10  13   -0.04    0.09
  -2 -10  13    0.20    0.08
  -2 -10  13    0.07    0.07
   1  10 -13    0.49    0.11
   1  10 -13    0.43    0.09
  -1 -10  13    0.36    0.08
  -1 -10  13    0.34    0.14
  -1 -10  13    0.40    0.12
   0  10 -13    0.05    0.08
   0 -10  13    0.23    0.11
   0 -10  13   -0.02    0.10
  -1  10 -13    0.36    0.10
   1 -10  13    0.36    0.09
   1 -10  13    0.40    0.12
  -2  10 -13    0.46    0.13
  -2  10 -13    0.51    0.11
   2 -10  13    0.49    0.09
   2 -10  13    0.75    0.14
  -3  10 -13    0.19    0.12
  -3  10 -13    0.04    0.10
   3 -10  13    0.18    0.09
   3 -10  13    0.02    0.08
   3 -10  13    0.18    0.10
  -4  10 -13    0.00    0.11
  -4  10 -13    0.05    0.12
   4 -10  13   -0.03    0.07
   4 -10  13   -0.02    0.11
   4 -10  13    0.00    0.08
  -5  10 -13   -0.13    0.12
  -5  10 -13    0.07    0.10
   5 -10  13   -0.10    0.08
   5 -10  13    0.20    0.11
  -6  10 -13    0.29    0.15
  -6  10 -13    0.59    0.13
   6 -10  13    0.34    0.11
  -7  10 -13    0.16    0.14
   7 -10  13    0.32    0.11
  -8  10 -13   -0.08    0.14
   8 -10  13   -0.05    0.09
  -8  -9  13    0.15    0.11
  -7  -9  13    0.07    0.11
   6   9 -13   -0.07    0.08
  -6  -9  13   -0.06    0.10
  -6  -9  13    0.07    0.08
   5   9 -13   -0.09    0.08
  -5  -9  13    0.06    0.09
  -5  -9  13   -0.07    0.09
   4   9 -13    1.49    0.15
  -4  -9  13    1.46    0.17
  -4  -9  13    1.21    0.26
  -4  -9  13    1.72    0.16
   3   9 -13   -0.14    0.06
   3   9 -13   -0.07    0.07
  -3  -9  13   -0.03    0.08
  -3  -9  13    0.01    0.07
  -3  -9  13    0.03    0.08
   2   9 -13    1.25    0.15
   2   9 -13    1.79    0.20
   2   9 -13    1.13    0.12
  -2  -9  13    1.07    0.16
  -2  -9  13    1.13    0.11
  -2  -9  13    0.88    0.13
   1   9 -13    0.42    0.12
   1   9 -13    0.06    0.08
  -1  -9  13    0.21    0.08
  -1  -9  13    0.31    0.10
   0   9 -13    0.45    0.28
   0   9 -13    0.01    0.09
   0  -9  13    0.26    0.10
   0  -9  13    0.22    0.08
  -1   9 -13    0.06    0.09
  -1   9 -13    0.10    0.26
  -1   9 -13   -0.02    0.09
   1  -9  13   -0.12    0.07
   1  -9  13    0.06    0.16
  -2   9 -13    1.54    0.22
  -2   9 -13    1.43    0.17
  -2   9 -13    1.67    0.16
   2  -9  13    1.43    0.17
   2  -9  13    1.48    0.13
   2  -9  13    1.45    0.15
  -3   9 -13    2.06    0.19
  -3   9 -13    2.37    0.22
   3  -9  13    1.91    0.13
   3  -9  13    2.10    0.18
   3  -9  13    2.51    0.20
  -4   9 -13    0.38    0.14
  -4   9 -13    0.59    0.12
   4  -9  13    0.50    0.13
   4  -9  13    0.34    0.11
  -5   9 -13   -0.02    0.11
   5  -9  13    0.00    0.08
   5  -9  13    0.00    0.09
  -6   9 -13    0.57    0.15
   6  -9  13    0.15    0.09
  -7   9 -13    0.06    0.13
   7  -9  13    0.15    0.10
  -8   9 -13    0.10    0.14
   8  -9  13    0.11    0.09
  -8  -8  13    0.03    0.11
   7   8 -13   -0.01    0.08
  -7  -8  13   -0.02    0.10
   6   8 -13   -0.13    0.07
  -6  -8  13    0.05    0.10
  -6  -8  13    0.07    0.08
   5   8 -13    0.17    0.09
  -5  -8  13    0.24    0.10
  -5  -8  13    0.44    0.11
   4   8 -13    0.21    0.08
   4   8 -13    0.21    0.07
  -4  -8  13    0.06    0.08
  -4  -8  13    0.15    0.08
  -4  -8  13    0.07    0.08
   3   8 -13    2.06    0.15
   3   8 -13    2.04    0.18
  -3  -8  13    1.86    0.17
  -3  -8  13    1.94    0.14
  -3  -8  13    2.00    0.17
   2   8 -13    0.86    0.14
   2   8 -13    0.51    0.10
  -2  -8  13    0.55    0.12
  -2  -8  13    0.65    0.11
   1   8 -13    1.58    0.15
   1   8 -13    2.51    0.22
  -1  -8  13    1.87    0.18
  -1  -8  13    1.65    0.15
   0   8 -13    1.41    0.14
   0   8 -13    1.75    0.37
   0   8 -13    1.97    0.17
   0  -8  13    1.47    0.17
   0  -8  13    1.28    0.13
   0  -8  13    1.52    0.15
  -1   8 -13    1.43    0.16
  -1   8 -13    1.71    0.16
  -1   8 -13    2.04    0.41
   1  -8  13    1.83    0.20
   1  -8  13    1.81    0.16
   1  -8  13    1.66    0.14
  -2   8 -13    1.06    0.14
  -2   8 -13    1.12    0.20
  -2   8 -13    1.03    0.15
   2  -8  13    1.34    0.14
   2  -8  13    1.11    0.16
   2  -8  13    1.21    0.19
  -3   8 -13   -0.11    0.13
  -3   8 -13    0.21    0.10
  -3   8 -13    0.10    0.11
   3  -8  13    0.08    0.08
   3  -8  13    0.16    0.10
  -4   8 -13    0.50    0.14
   4  -8  13    0.81    0.14
   4  -8  13    0.52    0.11
  -5   8 -13    0.09    0.11
   5  -8  13    0.16    0.10
   5  -8  13    0.11    0.09
  -6   8 -13    0.46    0.14
   6  -8  13    0.31    0.10
  -7   8 -13    0.66    0.16
   7  -8  13    0.62    0.12
  -8   8 -13    0.63    0.16
   8  -8  13    0.59    0.12
  -9  -7  13    0.11    0.11
  -8  -7  13    0.13    0.11
   7   7 -13    0.38    0.10
  -7  -7  13    0.26    0.11
   6   7 -13    1.08    0.14
  -6  -7  13    0.90    0.13
  -6  -7  13    1.18    0.15
   5   7 -13    1.00    0.13
   5   7 -13    0.94    0.11
  -5  -7  13    1.16    0.15
  -5  -7  13    1.02    0.14
  -5  -7  13    0.97    0.12
   4   7 -13    0.12    0.08
   4   7 -13    0.17    0.08
  -4  -7  13    0.20    0.09
  -4  -7  13    0.17    0.09
  -4  -7  13    0.23    0.08
   3   7 -13    0.52    0.14
   3   7 -13    0.26    0.09
  -3  -7  13    0.31    0.09
  -3  -7  13    0.27    0.10
   2   7 -13    1.08    0.15
   2   7 -13    0.82    0.12
  -2  -7  13    0.94    0.11
  -2  -7  13    0.79    0.13
   1   7 -13    1.86    0.17
   1   7 -13    2.06    0.17
   1   7 -13    1.84    0.19
  -1  -7  13    1.91    0.16
  -1  -7  13    1.80    0.16
  -1  -7  13    1.90    0.15
  -1  -7  13    1.70    0.16
   0   7 -13    2.13    0.17
   0   7 -13    2.39    0.18
   0   7 -13    2.62    0.39
   0  -7  13    2.18    0.18
   0  -7  13    2.53    0.20
   0  -7  13    2.52    0.18
   0  -7  13    2.58    0.17
  -1   7 -13    1.26    0.14
  -1   7 -13    1.23    0.13
  -1   7 -13    1.26    0.19
   1  -7  13    1.31    0.16
   1  -7  13    1.46    0.26
   1  -7  13    1.51    0.14
   1  -7  13    0.97    0.14
  -2   7 -13    0.44    0.10
  -2   7 -13    0.48    0.15
  -2   7 -13    0.45    0.11
   2  -7  13    0.49    0.12
   2  -7  13    0.36    0.10
  -3   7 -13    0.98    0.20
   3  -7  13    1.02    0.12
   3  -7  13    1.35    0.18
  -4   7 -13   -0.10    0.08
   4  -7  13    0.03    0.09
   4  -7  13    0.02    0.08
  -5   7 -13    0.55    0.13
   5  -7  13    0.62    0.14
   5  -7  13    0.55    0.10
  -6   7 -13    0.12    0.11
   6  -7  13    0.19    0.08
  -7   7 -13    0.12    0.11
   7  -7  13    0.16    0.09
  -8   7 -13   -0.03    0.11
   8  -7  13   -0.02    0.08
 -10  -6  13   -0.07    0.11
  -9  -6  13    0.33    0.12
   8   6 -13    0.39    0.11
  -8  -6  13    0.38    0.11
   7   6 -13    0.20    0.10
  -7  -6  13    0.10    0.10
   6   6 -13   -0.01    0.08
   6   6 -13    0.06    0.08
  -6  -6  13    0.06    0.09
  -6  -6  13    0.10    0.07
  -6  -6  13    0.03    0.08
   5   6 -13    0.21    0.09
   5   6 -13    0.18    0.09
  -5  -6  13    0.24    0.09
  -5  -6  13    0.08    0.07
  -5  -6  13    0.36    0.10
   4   6 -13    0.94    0.12
  -4  -6  13    1.01    0.13
  -4  -6  13    0.90    0.13
  -4  -6  13    0.93    0.09
   3   6 -13    0.16    0.09
   3   6 -13   -0.01    0.08
   3   6 -13    0.30    0.18
  -3  -6  13    0.24    0.09
  -3  -6  13    0.10    0.07
   2   6 -13    0.37    0.10
   2   6 -13    0.13    0.09
  -2  -6  13    0.07    0.07
  -2  -6  13    0.16    0.08
  -2  -6  13    0.05    0.07
  -2  -6  13    0.14    0.08
   1   6 -13    0.25    0.09
   1   6 -13    0.31    0.17
  -1  -6  13    0.17    0.08
  -1  -6  13    0.08    0.07
  -1  -6  13    0.06    0.07
  -1  -6  13    0.12    0.06
   0   6 -13    0.08    0.21
   0   6 -13    0.00    0.08
   0  -6  13    0.07    0.05
   0  -6  13    0.10    0.08
   0  -6  13    0.14    0.08
   0  -6  13    0.11    0.07
   0  -6  13    0.09    0.07
  -1   6 -13    0.35    0.09
  -1   6 -13    0.30    0.13
   1  -6  13    0.25    0.08
   1  -6  13    0.24    0.10
   1  -6  13    0.37    0.10
  -2   6 -13   -0.06    0.12
   2  -6  13    0.02    0.08
   2  -6  13    0.15    0.10
   2  -6  13    0.00    0.06
  -3   6 -13   -0.10    0.13
   3  -6  13   -0.03    0.08
   3  -6  13    0.01    0.09
   3  -6  13   -0.08    0.06
  -4   6 -13   -0.23    0.27
   4  -6  13    0.06    0.07
   4  -6  13    0.30    0.11
   4  -6  13    0.18    0.11
  -5   6 -13   -0.03    0.09
   5  -6  13    0.16    0.10
   5  -6  13    0.00    0.07
  -6   6 -13    0.32    0.12
   6  -6  13    0.11    0.08
  -7   6 -13    0.18    0.12
   7  -6  13   -0.01    0.07
 -10  -5  13    0.02    0.11
  -9  -5  13    0.51    0.13
   8   5 -13   -0.02    0.08
  -8  -5  13   -0.01    0.10
   7   5 -13   -0.10    0.08
   7   5 -13    0.07    0.08
  -7  -5  13    0.08    0.09
  -7  -5  13   -0.08    0.08
   6   5 -13    0.03    0.07
   6   5 -13    0.01    0.09
  -6  -5  13    0.20    0.09
  -6  -5  13    0.25    0.09
  -6  -5  13    0.13    0.08
   5   5 -13    2.04    0.18
   5   5 -13    1.91    0.17
   5   5 -13    1.93    0.16
  -5  -5  13    2.03    0.17
  -5  -5  13    2.01    0.17
  -5  -5  13    1.81    0.12
   4   5 -13    0.05    0.08
  -4  -5  13    0.00    0.07
  -4  -5  13   -0.01    0.06
   3   5 -13    1.00    0.12
  -3  -5  13    1.25    0.15
  -3  -5  13    0.96    0.11
   2   5 -13    3.59    0.20
  -2  -5  13    3.86    0.19
  -2  -5  13    3.47    0.20
  -2  -5  13    3.55    0.20
  -2  -5  13    3.56    0.17
   1   5 -13    1.93    0.16
  -1  -5  13    1.58    0.15
  -1  -5  13    2.03    0.16
  -1  -5  13    1.74    0.12
  -1  -5  13    1.96    0.15
  -1  -5  13    2.01    0.17
   0   5 -13   -0.08    0.07
   0  -5  13    0.02    0.06
   0  -5  13    0.01    0.07
   0  -5  13    0.03    0.06
   1  -5  13    2.91    0.17
   1  -5  13    2.64    0.19
   1  -5  13    2.73    0.20
   2  -5  13    2.53    0.16
   2  -5  13    2.52    0.19
   2  -5  13    2.63    0.21
   3  -5  13    1.17    0.16
   3  -5  13    1.23    0.12
   3  -5  13    1.65    0.19
   4  -5  13    0.29    0.11
   4  -5  13    0.20    0.08
   4  -5  13    0.09    0.10
   5  -5  13    0.08    0.10
   5  -5  13    0.02    0.10
   5  -5  13    0.11    0.07
  -6   5 -13    0.01    0.08
   6  -5  13   -0.07    0.07
  -7   5 -13    0.06    0.10
   7  -5  13    0.02    0.08
 -10  -4  13    0.04    0.10
   9   4 -13   -0.04    0.08
  -9  -4  13   -0.03    0.09
   8   4 -13    0.24    0.10
  -8  -4  13    0.41    0.10
  -8  -4  13    0.23    0.10
   7   4 -13    2.22    0.20
   7   4 -13    1.50    0.14
  -7  -4  13    2.22    0.16
  -7  -4  13    2.24    0.19
   6   4 -13    0.16    0.10
   6   4 -13    0.15    0.10
   6   4 -13    0.21    0.09
  -6  -4  13    0.20    0.09
  -6  -4  13    0.21    0.09
  -6  -4  13    0.25    0.07
   5   4 -13    2.07    0.17
  -5  -4  13    2.28    0.18
  -5  -4  13    2.09    0.17
   4   4 -13    0.18    0.09
  -4  -4  13    0.39    0.10
  -4  -4  13    0.26    0.08
   3   4 -13    0.87    0.12
  -3  -4  13    0.56    0.10
  -3  -4  13    0.89    0.11
  -3  -4  13    0.87    0.10
  -3  -4  13    0.80    0.13
  -3  -4  13    0.74    0.12
   2   4 -13   -0.09    0.07
  -2  -4  13    0.10    0.07
  -2  -4  13   -0.13    0.06
  -2  -4  13    0.00    0.05
  -2  -4  13    0.01    0.07
   1   4 -13    0.24    0.09
  -1  -4  13    0.19    0.08
  -1  -4  13    0.11    0.07
  -1  -4  13    0.13    0.08
   0  -4  13    0.12    0.07
   0  -4  13    0.08    0.07
   0  -4  13    0.14    0.09
   1  -4  13    0.85    0.10
   1  -4  13    0.60    0.12
   1  -4  13    0.74    0.13
   2  -4  13    0.23    0.10
   2  -4  13    0.01    0.06
   2  -4  13    0.03    0.08
   3  -4  13    0.46    0.12
   3  -4  13    0.30    0.11
   3  -4  13    0.46    0.09
   4  -4  13    0.02    0.07
   4  -4  13   -0.02    0.09
   4  -4  13   -0.07    0.09
   5  -4  13    0.34    0.12
   5  -4  13    0.23    0.08
   5  -4  13    0.23    0.11
   6  -4  13    0.14    0.08
  -7   4 -13    0.26    0.11
   7  -4  13   -0.02    0.07
 -11  -3  13    0.33    0.12
 -10  -3  13    0.16    0.10
   9   3 -13    0.81    0.13
  -9  -3  13    0.81    0.15
  -9  -3  13    0.91    0.13
   8   3 -13    0.74    0.12
   8   3 -13    0.47    0.11
  -8  -3  13    0.60    0.12
  -8  -3  13    0.62    0.10
   7   3 -13   -0.06    0.07
   7   3 -13   -0.02    0.09
  -7  -3  13   -0.01    0.09
   6   3 -13    0.01    0.08
  -6  -3  13    0.08    0.07
  -6  -3  13   -0.02    0.07
  -6  -3  13   -0.16    0.07
   5   3 -13    0.07    0.09
  -5  -3  13    0.21    0.10
  -5  -3  13    0.04    0.07
  -5  -3  13    0.18    0.08
   4   3 -13    0.23    0.10
  -4  -3  13    0.19    0.08
  -4  -3  13    0.37    0.10
  -4  -3  13    0.17    0.07
  -4  -3  13    0.30    0.08
   3   3 -13    1.35    0.14
  -3  -3  13    1.32    0.15
  -3  -3  13    1.66    0.18
  -3  -3  13    1.40    0.12
  -3  -3  13    1.44    0.14
  -3  -3  13    1.62    0.12
   2   3 -13    0.72    0.11
  -2  -3  13    0.68    0.07
  -2  -3  13    0.62    0.10
  -2  -3  13    0.58    0.11
  -2  -3  13    0.59    0.11
  -1  -3  13   -0.02    0.07
  -1  -3  13    0.05    0.07
  -1  -3  13    0.14    0.07
   0  -3  13    1.95    0.18
   0  -3  13    1.99    0.17
   0  -3  13    1.96    0.15
   1  -3  13    0.34    0.08
   1  -3  13    0.08    0.09
   1  -3  13    0.34    0.11
   2  -3  13    0.58    0.09
   2  -3  13    0.52    0.13
   2  -3  13    0.64    0.14
   3  -3  13    0.04    0.07
   3  -3  13    0.08    0.09
   3  -3  13   -0.07    0.08
   4  -3  13    0.02    0.10
   4  -3  13    0.00    0.09
   4  -3  13    0.12    0.07
   5  -3  13   -0.06    0.10
   5  -3  13    0.13    0.11
   5  -3  13   -0.04    0.06
   6  -3  13   -0.02    0.12
   6  -3  13   -0.01    0.07
 -11  -2  13    0.05    0.10
 -10  -2  13    0.08    0.10
   9   2 -13   -0.01    0.08
   9   2 -13   -0.06    0.09
  -9  -2  13    0.12    0.09
  -9  -2  13    0.14    0.10
  -9  -2  13    0.01    0.08
   8   2 -13    0.00    0.10
   8   2 -13    0.01    0.08
  -8  -2  13    0.05    0.08
  -8  -2  13    0.02    0.08
   7   2 -13    0.56    0.12
  -7  -2  13    0.66    0.11
  -7  -2  13    0.27    0.09
   6   2 -13    1.16    0.14
  -6  -2  13    1.05    0.12
  -6  -2  13    1.38    0.16
  -6  -2  13    1.14    0.14
   5   2 -13    1.25    0.14
  -5  -2  13    1.51    0.16
  -5  -2  13    1.64    0.15
  -5  -2  13    1.73    0.14
  -5  -2  13    1.14    0.14
   4   2 -13    0.10    0.09
  -4  -2  13    0.16    0.08
  -4  -2  13    0.12    0.07
  -4  -2  13    0.10    0.08
  -4  -2  13    0.13    0.08
   3   2 -13    1.77    0.16
  -3  -2  13    1.78    0.22
  -3  -2  13    1.82    0.17
  -3  -2  13    1.97    0.15
  -3  -2  13    1.86    0.17
  -2  -2  13    0.04    0.07
  -2  -2  13    0.03    0.06
  -2  -2  13    0.03    0.07
  -1  -2  13    0.17    0.09
  -1  -2  13    0.08    0.07
  -1  -2  13    0.03    0.08
   0  -2  13    0.17    0.07
   0  -2  13    0.04    0.08
   0  -2  13   -0.01    0.08
   1  -2  13    0.10    0.09
   1  -2  13    0.10    0.06
   1  -2  13   -0.10    0.07
   2  -2  13    0.12    0.07
   2  -2  13    0.26    0.11
   2  -2  13   -0.01    0.08
   3  -2  13    0.27    0.11
   3  -2  13    0.25    0.18
   3  -2  13    0.18    0.07
   4  -2  13    0.07    0.07
   4  -2  13    0.13    0.10
   4  -2  13    0.08    0.10
   5  -2  13    0.08    0.07
   5  -2  13    0.13    0.11
   5  -2  13    0.13    0.11
   6  -2  13   -0.01    0.07
   6  -2  13   -0.07    0.11
 -11  -1  13    0.00    0.09
 -10  -1  13    0.03    0.09
   9   1 -13   -0.15    0.07
   9   1 -13    0.11    0.10
  -9  -1  13    0.04    0.08
   8   1 -13    0.22    0.11
  -8  -1  13    0.41    0.11
   7   1 -13   -0.05    0.09
  -7  -1  13   -0.03    0.14
   6   1 -13    0.02    0.09
  -6  -1  13    0.09    0.08
  -6  -1  13    0.05    0.06
  -6  -1  13    0.00    0.08
   5   1 -13    0.06    0.09
  -5  -1  13   -0.06    0.06
  -5  -1  13    0.01    0.08
  -5  -1  13    0.07    0.08
  -5  -1  13    0.01    0.13
   4   1 -13   -0.05    0.08
  -4  -1  13    0.04    0.07
  -4  -1  13   -0.09    0.06
  -4  -1  13   -0.06    0.08
  -4  -1  13   -0.09    0.06
   3   1 -13    0.06    0.08
  -3  -1  13    0.07    0.07
  -3  -1  13    0.10    0.08
  -3  -1  13    0.01    0.07
  -2  -1  13    0.82    0.13
  -2  -1  13    0.67    0.12
  -2  -1  13    0.70    0.11
  -1  -1  13    1.36    0.13
  -1  -1  13    1.37    0.16
  -1  -1  13    1.16    0.16
   0  -1  13    0.26    0.10
   0  -1  13    0.15    0.07
   0  -1  13    0.08    0.09
   1  -1  13   -0.02    0.08
   1  -1  13    0.04    0.06
   1  -1  13    0.07    0.24
   2  -1  13    1.17    0.17
   2  -1  13    1.18    0.18
   2  -1  13    1.10    0.11
   3  -1  13    0.22    0.07
   3  -1  13    0.06    0.11
   3  -1  13    0.16    0.11
   4  -1  13    0.01    0.11
   4  -1  13   -0.08    0.09
   4  -1  13   -0.04    0.06
   5  -1  13    0.20    0.12
   5  -1  13    0.27    0.08
  10   0 -13    0.22    0.11
  10   0 -13    0.09    0.10
   9   0 -13    0.46    0.12
  -9   0  13    0.72    0.13
   8   0 -13    0.03    0.10
  -8   0  13    0.26    0.23
   7   0 -13    0.30    0.12
  -7   0  13    0.33    0.12
   6   0 -13    0.44    0.12
  -6   0  13    0.61    0.10
  -6   0  13    0.56    0.12
  -6   0  13    0.70    0.19
   5   0 -13    1.43    0.15
  -5   0  13    1.50    0.17
  -5   0  13    1.27    0.14
  -5   0  13    1.49    0.12
  -5   0  13    0.89    0.14
   4   0 -13    0.15    0.09
  -4   0  13   -0.02    0.08
  -4   0  13    0.05    0.08
  -4   0  13   -0.06    0.07
  -3   0  13   -0.10    0.07
  -3   0  13   -0.01    0.06
  -3   0  13    0.02    0.09
  -2   0  13   -0.03    0.06
  -2   0  13    0.08    0.21
  -2   0  13   -0.02    0.08
  -1   0  13    0.20    0.09
  -1   0  13    0.19    0.10
  -1   0  13    0.14    0.07
   0   0  13    0.16    0.10
   0   0  13    0.12    0.10
   0   0  13    0.09    0.06
   1   0  13    0.04    0.10
   1   0  13    0.21    0.11
   1   0  13    0.27    0.07
   2   0  13   -0.06    0.06
   2   0  13    0.01    0.10
   2   0  13    0.00    0.10
   3   0  13   -0.01    0.06
   3   0  13    0.17    0.12
   3   0  13    0.13    0.12
   4   0  13   -0.02    0.06
   4   0  13    0.02    0.10
  10  -1 -13    0.06    0.11
   9  -1 -13    0.02    0.11
   8  -1 -13    0.13    0.11
  -8   1  13   -0.06    0.77
   7  -1 -13   -0.08    0.10
  -7   1  13    0.06    0.09
  -7   1  13   -0.06    0.07
  -7   1  13   -0.10    0.08
   6  -1 -13   -0.06    0.10
  -6   1  13   -0.09    0.06
  -6   1  13   -0.09    0.07
  -6   1  13   -0.03    0.06
  -6   1  13   -0.02    0.08
   5  -1 -13   -0.02    0.10
  -5   1  13    0.04    0.09
  -5   1  13   -0.08    0.06
  -5   1  13    0.05    0.09
  -4   1  13    0.00    0.08
  -4   1  13   -0.01    0.07
  -4   1  13    0.04    0.08
  -3   1  13   -0.09    0.06
  -3   1  13   -0.03    0.08
  -3   1  13    0.13    0.09
  -2   1  13    0.01    0.09
  -2   1  13    0.33    0.09
  -2   1  13    0.02    0.08
  -1   1  13    0.17    0.10
  -1   1  13    0.11    0.07
  -1   1  13    0.08    0.09
   0   1  13   -0.03    0.06
   0   1  13   -0.03    0.10
   0   1  13    0.10    0.10
   1   1  13    0.26    0.07
   1   1  13    0.24    0.12
   1   1  13    0.31    0.13
   2   1  13    0.05    0.06
   2   1  13    0.00    0.09
   3   1  13    0.02    0.10
   3   1  13   -0.12    0.05
  10  -2 -13    0.31    0.12
   9  -2 -13    0.17    0.12
   8  -2 -13    0.08    0.11
  -8   2  13    0.06    0.10
   7  -2 -13    0.00    0.10
  -7   2  13    0.04    0.07
  -7   2  13    0.00    0.09
   6  -2 -13    0.07    0.11
  -6   2  13    0.22    0.09
  -6   2  13    0.35    0.10
  -6   2  13    0.16    0.10
  -6   2  13    0.25    0.06
   5  -2 -13    1.76    0.17
  -5   2  13    2.03    0.18
  -5   2  13    1.47    0.19
  -5   2  13    2.27    0.19
  -4   2  13    1.48    0.19
  -4   2  13    1.21    0.14
  -4   2  13    1.25    0.17
  -3   2  13    0.50    0.11
  -3   2  13    0.48    0.12
  -3   2  13    0.38    0.12
  -2   2  13    0.83    0.15
  -2   2  13    0.77    0.11
  -2   2  13    0.67    0.14
  -1   2  13    0.69    0.10
  -1   2  13    0.58    0.14
   0   2  13    0.11    0.07
   0   2  13    0.17    0.12
   1   2  13   -0.06    0.06
   1   2  13    0.12    0.11
   2   2  13    0.33    0.08
   2   2  13    0.33    0.13
  10  -3 -13    0.01    0.12
   9  -3 -13   -0.15    0.10
  -9   3  13    0.07    0.10
   8  -3 -13   -0.09    0.10
  -8   3  13   -0.16    0.08
   7  -3 -13    0.20    0.12
  -7   3  13    0.21    0.07
  -7   3  13   -0.08    0.09
   6  -3 -13    0.87    0.15
  -6   3  13    0.51    0.14
  -6   3  13    0.78    0.13
  -5   3  13    0.30    0.12
  -5   3  13    0.25    0.09
  -4   3  13    0.04    0.08
  -4   3  13    0.20    0.11
  -3   3  13    0.09    0.10
  -3   3  13   -0.01    0.07
  -2   3  13    0.02    0.10
  -2   3  13   -0.05    0.06
  -1   3  13   -0.03    0.09
  -1   3  13   -0.03    0.07
   0   3  13    0.10    0.11
   0   3  13    0.07    0.07
   1   3  13    0.14    0.07
   1   3  13    0.23    0.12
   9  -4 -13    0.25    0.13
  -9   4  13    0.31    0.13
   8  -4 -13    0.11    0.12
  -8   4  13   -0.19    0.09
   7  -4 -13    0.15    0.12
  -7   4  13    0.02    0.11
   6  -4 -13    0.03    0.12
  -6   4  13    0.21    0.10
  -6   4  13    0.13    0.11
  -5   4  13    0.31    0.13
  -5   4  13    0.20    0.09
  -4   4  13    0.06    0.11
  -4   4  13    0.19    0.09
  -3   4  13    0.06    0.10
  -3   4  13    0.04    0.08
  -2   4  13    0.06    0.10
  -2   4  13   -0.04    0.07
  -1   4  13    0.18    0.12
  -1   4  13    0.02    0.07
   7  -5 -13    0.08    0.12
  -7   5  13   -0.07    0.10
  -6   5  13    0.10    0.11
  -6   5  13    0.12    0.11
  -5   5  13   -0.05    0.10
  -5   5  13   -0.04    0.08
  -4   5  13    0.06    0.10
  -4   5  13    0.25    0.10
  -3   5  13    0.00    0.07
  -3   5  13    0.04    0.11
  -1 -14  14    0.33    0.14
   0 -14  14   -0.05    0.11
   1 -14  14    0.20    0.13
  -2  14 -14    0.65    0.12
   2 -14  14    0.62    0.15
  -3  14 -14    0.07    0.08
   3 -14  14    0.18    0.13
   4 -14  14    0.28    0.13
  -3 -13  14    0.08    0.11
  -3 -13  14    0.20    0.12
  -2 -13  14    0.06    0.11
  -2 -13  14    0.24    0.11
  -1 -13  14    0.39    0.11
  -1 -13  14    0.39    0.14
   0 -13  14    0.36    0.14
  -1  13 -14    0.17    0.09
   1 -13  14    0.36    0.14
  -2  13 -14    0.05    0.08
   2 -13  14    0.07    0.11
  -3  13 -14    0.09    0.09
   3 -13  14    0.25    0.13
  -4  13 -14    0.21    0.11
  -4  13 -14    0.28    0.16
   4 -13  14    0.31    0.12
  -5  13 -14    0.09    0.11
  -5  13 -14    0.23    0.17
   5 -13  14    0.27    0.11
  -4 -12  14    0.67    0.13
  -4 -12  14    0.76    0.16
  -3 -12  14    0.85    0.13
  -3 -12  14    0.92    0.16
  -2 -12  14    0.03    0.09
  -2 -12  14    0.16    0.12
  -2 -12  14   -0.03    0.18
   1  12 -14    0.35    0.09
   1  12 -14    0.32    0.11
  -1 -12  14    0.38    0.14
  -1 -12  14    0.12    0.22
   0  12 -14    0.30    0.09
   0 -12  14    0.48    0.25
   0 -12  14    0.60    0.14
  -1  12 -14    0.12    0.08
   1 -12  14    0.23    0.11
   1 -12  14   -0.01    0.19
  -2  12 -14    0.37    0.10
   2 -12  14    0.54    0.15
  -3  12 -14    0.69    0.18
  -3  12 -14    0.58    0.13
   3 -12  14    0.96    0.16
  -4  12 -14    1.68    0.18
   4 -12  14    2.26    0.22
  -5  12 -14    0.06    0.11
  -5  12 -14    0.40    0.17
   5 -12  14    0.12    0.12
  -6  12 -14    0.30    0.17
  -6  12 -14    0.34    0.13
  -5 -11  14   -0.04    0.10
  -5 -11  14    0.12    0.10
  -4 -11  14    0.14    0.11
  -4 -11  14    0.06    0.10
   3  11 -14    0.19    0.25
  -3 -11  14    0.15    0.09
  -3 -11  14    0.52    0.14
   2  11 -14    0.95    0.14
   2  11 -14    0.93    0.11
  -2 -11  14    1.13    0.17
  -2 -11  14    0.86    0.12
  -2 -11  14    0.99    0.14
   1  11 -14    0.18    0.08
  -1 -11  14    0.22    0.12
  -1 -11  14    0.33    0.10
   0  11 -14    0.46    0.10
   0 -11  14    0.46    0.11
   0 -11  14    0.40    0.12
  -1  11 -14    0.73    0.12
   1 -11  14    0.79    0.15
   1 -11  14    1.19    0.15
  -2  11 -14    0.56    0.12
   2 -11  14    0.78    0.12
   2 -11  14    0.46    0.13
  -3  11 -14    0.05    0.11
  -3  11 -14    0.01    0.13
   3 -11  14    0.01    0.08
   3 -11  14    0.02    0.09
  -4  11 -14   -0.16    0.12
  -4  11 -14    0.01    0.11
   4 -11  14    0.03    0.08
   4 -11  14    0.33    0.14
  -5  11 -14   -0.06    0.14
  -5  11 -14   -0.02    0.11
   5 -11  14   -0.04    0.09
   5 -11  14    0.32    0.13
  -6  11 -14   -0.09    0.13
  -6  11 -14    0.27    0.13
   6 -11  14    0.00    0.10
  -6 -10  14    0.23    0.11
  -5 -10  14   -0.07    0.09
  -5 -10  14    0.15    0.10
   4  10 -14   -0.04    0.08
  -4 -10  14    0.12    0.10
  -4 -10  14    0.05    0.10
   3  10 -14    0.30    0.10
   3  10 -14    0.49    0.09
  -3 -10  14    0.30    0.12
  -3 -10  14    0.55    0.29
  -3 -10  14    0.42    0.10
   2  10 -14    0.99    0.11
   2  10 -14    1.59    0.21
  -2 -10  14    1.21    0.17
  -2 -10  14    1.43    0.17
   1  10 -14    0.73    0.11
  -1 -10  14    0.79    0.13
  -1 -10  14    0.68    0.14
   0  10 -14    0.03    0.09
   0 -10  14    0.03    0.15
   0 -10  14    0.02    0.09
  -1  10 -14   -0.08    0.09
   1 -10  14    0.06    0.07
   1 -10  14   -0.20    0.08
  -2  10 -14   -0.11    0.10
  -2  10 -14    0.11    0.11
   2 -10  14   -0.02    0.08
   2 -10  14   -0.09    0.06
  -3  10 -14    0.07    0.11
  -3  10 -14    0.19    0.13
   3 -10  14   -0.04    0.06
   3 -10  14    0.13    0.11
   3 -10  14    0.08    0.09
  -4  10 -14    0.06    0.11
  -4  10 -14    0.03    0.13
   4 -10  14    0.15    0.12
   4 -10  14   -0.04    0.08
  -5  10 -14    0.37    0.15
  -5  10 -14    0.16    0.12
   5 -10  14    0.48    0.12
   5 -10  14    0.52    0.14
  -6  10 -14    0.33    0.16
   6 -10  14    0.18    0.11
  -7  10 -14    0.17    0.15
   7 -10  14    0.19    0.11
  -7  -9  14    0.09    0.10
  -6  -9  14   -0.13    0.09
  -6  -9  14    0.04    0.08
   5   9 -14   -0.07    0.08
  -5  -9  14   -0.06    0.09
  -5  -9  14    0.01    0.08
   4   9 -14    0.05    0.07
   4   9 -14   -0.03    0.08
  -4  -9  14    0.03    0.08
  -4  -9  14    0.04    0.09
  -4  -9  14   -0.10    0.08
   3   9 -14    0.16    0.08
   3   9 -14    0.07    0.09
  -3  -9  14    0.21    0.09
  -3  -9  14    0.14    0.10
  -3  -9  14    0.18    0.08
   2   9 -14    0.17    0.09
  -2  -9  14    0.19    0.09
  -2  -9  14    0.21    0.11
   1   9 -14    0.72    0.12
  -1  -9  14    0.58    0.13
  -1  -9  14    0.39    0.10
   0   9 -14    1.48    0.15
   0  -9  14    1.44    0.17
   0  -9  14    1.43    0.33
  -1   9 -14    0.09    0.11
  -1   9 -14    0.11    0.10
   1  -9  14    0.11    0.07
   1  -9  14    0.18    0.11
  -2   9 -14    0.71    0.15
  -2   9 -14    0.67    0.13
   2  -9  14    0.48    0.14
   2  -9  14    0.74    0.15
   2  -9  14    0.55    0.11
  -3   9 -14    0.15    0.12
  -3   9 -14   -0.05    0.11
   3  -9  14    0.27    0.12
   3  -9  14    0.07    0.09
  -4   9 -14    1.28    0.16
  -4   9 -14    1.17    0.18
   4  -9  14    1.82    0.21
   4  -9  14    1.26    0.15
  -5   9 -14   -0.09    0.12
   5  -9  14   -0.01    0.09
   5  -9  14    0.03    0.11
  -6   9 -14    0.02    0.13
   6  -9  14    0.01    0.09
  -7   9 -14   -0.08    0.12
   7  -9  14   -0.02    0.09
  -8  -8  14    0.13    0.11
  -7  -8  14    0.11    0.10
   6   8 -14   -0.10    0.08
  -6  -8  14    0.12    0.08
  -6  -8  14    0.04    0.09
   5   8 -14    0.20    0.09
   5   8 -14    0.42    0.08
  -5  -8  14    0.28    0.11
  -5  -8  14    0.32    0.10
  -5  -8  14    0.35    0.11
   4   8 -14    1.63    0.16
   4   8 -14    1.30    0.13
  -4  -8  14    2.08    0.19
  -4  -8  14    1.67    0.14
  -4  -8  14    1.64    0.18
   3   8 -14    0.39    0.11
  -3  -8  14    0.72    0.12
  -3  -8  14    0.66    0.13
   2   8 -14   -0.01    0.09
  -2  -8  14   -0.04    0.07
  -2  -8  14   -0.05    0.08
   1   8 -14    0.65    0.13
   1   8 -14    0.22    0.11
  -1  -8  14    0.42    0.11
  -1  -8  14    0.51    0.11
   0   8 -14    0.38    0.12
   0   8 -14    0.44    0.11
   0   8 -14    0.53    0.24
   0  -8  14    0.48    0.12
   0  -8  14    0.60    0.11
   0  -8  14    0.43    0.13
  -1   8 -14    0.47    0.12
  -1   8 -14    0.46    0.16
  -1   8 -14    0.68    0.13
   1  -8  14    0.41    0.12
   1  -8  14    0.38    0.17
   1  -8  14    0.18    0.09
  -2   8 -14    0.09    0.10
  -2   8 -14    0.11    0.11
   2  -8  14    0.01    0.09
   2  -8  14   -0.02    0.07
  -3   8 -14    1.16    0.17
   3  -8  14    1.48    0.19
   3  -8  14    1.35    0.14
  -4   8 -14    0.07    0.11
   4  -8  14    0.14    0.09
   4  -8  14    0.11    0.12
  -5   8 -14    0.14    0.12
   5  -8  14    0.11    0.08
   5  -8  14    0.12    0.12
  -6   8 -14    0.15    0.13
   6  -8  14   -0.06    0.08
  -7   8 -14    0.31    0.14
   7  -8  14    0.18    0.10
  -9  -7  14   -0.09    0.10
  -8  -7  14    0.10    0.10
   7   7 -14    0.07    0.10
  -7  -7  14    0.14    0.10
   6   7 -14    0.05    0.07
   6   7 -14   -0.08    0.08
  -6  -7  14    0.07    0.07
  -6  -7  14    0.04    0.09
  -6  -7  14    0.01    0.08
   5   7 -14    0.35    0.10
   5   7 -14    0.29    0.10
  -5  -7  14    0.36    0.10
  -5  -7  14    0.47    0.09
  -5  -7  14    0.52    0.11
   4   7 -14   -0.12    0.08
  -4  -7  14    0.00    0.08
  -4  -7  14   -0.07    0.07
   3   7 -14   -0.03    0.09
  -3  -7  14    0.24    0.09
  -3  -7  14    0.15    0.09
   2   7 -14    0.45    0.12
  -2  -7  14    0.33    0.08
  -2  -7  14    0.33    0.10
   1   7 -14   -0.02    0.10
   1   7 -14    0.09    0.10
  -1  -7  14    0.15    0.09
  -1  -7  14    0.05    0.08
  -1  -7  14   -0.01    0.08
  -1  -7  14    0.02    0.15
   0   7 -14   -0.15    0.10
   0   7 -14    0.23    0.21
   0   7 -14    0.03    0.08
   0  -7  14    0.04    0.06
   0  -7  14    0.00    0.08
   0  -7  14   -0.05    0.08
   0  -7  14    0.02    0.07
   0  -7  14   -0.03    0.07
  -1   7 -14   -0.14    0.09
  -1   7 -14    0.18    0.14
  -1   7 -14    0.04    0.10
   1  -7  14    0.01    0.09
   1  -7  14    0.00    0.07
   1  -7  14   -0.01    0.08
  -2   7 -14    0.19    0.26
   2  -7  14    0.45    0.14
   2  -7  14    0.48    0.12
   2  -7  14    0.20    0.09
   3  -7  14    0.36    0.10
   3  -7  14    0.48    0.13
  -4   7 -14    0.27    0.12
   4  -7  14    0.52    0.11
   4  -7  14    0.35    0.13
  -5   7 -14    0.03    0.11
   5  -7  14    0.20    0.09
   5  -7  14    0.12    0.11
  -6   7 -14    0.21    0.12
   6  -7  14    0.17    0.09
  -7   7 -14    0.16    0.12
   7  -7  14   -0.04    0.08
  -9  -6  14    0.27    0.11
  -8  -6  14    0.08    0.10
   7   6 -14   -0.13    0.08
  -7  -6  14   -0.07    0.08
  -7  -6  14   -0.13    0.08
   6   6 -14    0.25    0.10
   6   6 -14    0.21    0.10
  -6  -6  14    0.16    0.08
  -6  -6  14    0.45    0.11
  -6  -6  14    0.25    0.10
   5   6 -14    0.19    0.10
  -5  -6  14    0.18    0.09
  -5  -6  14    0.41    0.11
   4   6 -14    0.05    0.10
   4   6 -14    0.15    0.10
  -4  -6  14    0.05    0.08
  -4  -6  14    0.14    0.08
   3   6 -14    1.36    0.15
   3   6 -14    1.19    0.14
  -3  -6  14    1.29    0.13
  -3  -6  14    1.21    0.15
   2   6 -14    0.65    0.12
  -2  -6  14    0.76    0.13
  -2  -6  14    0.87    0.14
  -2  -6  14    0.48    0.10
  -2  -6  14    0.63    0.10
   1   6 -14    0.99    0.14
  -1  -6  14    0.75    0.11
  -1  -6  14    1.13    0.16
  -1  -6  14    0.84    0.13
  -1  -6  14    0.84    0.15
  -1  -6  14    1.08    0.11
   0   6 -14    0.88    0.13
   0  -6  14    0.75    0.08
   0  -6  14    0.97    0.15
   0  -6  14    0.93    0.13
   0  -6  14    0.75    0.14
   1  -6  14   -0.02    0.08
   1  -6  14   -0.06    0.08
   1  -6  14   -0.07    0.07
   2  -6  14    1.09    0.17
   2  -6  14    1.10    0.13
   2  -6  14    1.21    0.17
   3  -6  14    0.25    0.09
   3  -6  14    0.14    0.10
   3  -6  14    0.12    0.10
   4  -6  14    0.04    0.08
   4  -6  14    0.04    0.10
   4  -6  14    0.08    0.09
  -5   6 -14    0.05    0.09
   5  -6  14   -0.01    0.09
   5  -6  14    0.07    0.08
  -6   6 -14    0.05    0.10
   6  -6  14    0.07    0.08
  -9  -5  14    0.23    0.11
   8   5 -14   -0.12    0.08
  -8  -5  14    0.13    0.10
  -8  -5  14    0.02    0.09
   7   5 -14   -0.09    0.08
   7   5 -14    0.14    0.09
  -7  -5  14   -0.01    0.09
  -7  -5  14   -0.01    0.08
   6   5 -14    0.19    0.10
  -6  -5  14    0.38    0.11
  -6  -5  14    0.20    0.10
   5   5 -14    0.25    0.10
   5   5 -14    0.17    0.09
  -5  -5  14    0.24    0.10
  -5  -5  14    0.14    0.09
   4   5 -14    0.29    0.11
  -4  -5  14    0.33    0.09
  -4  -5  14    0.23    0.11
   3   5 -14    0.40    0.11
  -3  -5  14    0.14    0.10
  -3  -5  14    0.26    0.10
  -3  -5  14    0.09    0.08
   2   5 -14    1.77    0.16
  -2  -5  14    2.00    0.16
  -2  -5  14    1.96    0.18
  -2  -5  14    1.75    0.16
  -2  -5  14    1.59    0.17
  -2  -5  14    1.99    0.18
   1   5 -14    0.42    0.10
  -1  -5  14    0.51    0.11
  -1  -5  14    0.72    0.12
  -1  -5  14    0.54    0.12
  -1  -5  14    0.55    0.07
  -1  -5  14    0.59    0.07
   0  -5  14    2.40    0.19
   0  -5  14    2.63    0.20
   0  -5  14    2.62    0.18
   1  -5  14    0.04    0.09
   1  -5  14    0.08    0.09
   1  -5  14    0.00    0.07
   2  -5  14    0.11    0.10
   2  -5  14    0.16    0.08
   2  -5  14    0.10    0.10
   3  -5  14   -0.03    0.06
   3  -5  14    0.14    0.10
   3  -5  14   -0.04    0.09
   4  -5  14    0.14    0.11
   4  -5  14    0.04    0.10
   4  -5  14    0.02    0.08
   5  -5  14    0.33    0.09
   5  -5  14    0.44    0.14
   5  -5  14    0.53    0.13
  -6   5 -14    0.18    0.11
   6  -5  14    0.26    0.09
 -10  -4  14    0.01    0.10
  -9  -4  14    0.35    0.11
   8   4 -14    0.79    0.11
   8   4 -14    0.76    0.13
  -8  -4  14    0.57    0.30
  -8  -4  14    0.82    0.11
   7   4 -14    0.59    0.12
   7   4 -14    0.51    0.12
  -7  -4  14    0.75    0.16
   6   4 -14    0.15    0.10
  -6  -4  14    0.02    0.14
  -6  -4  14    0.16    0.09
   5   4 -14    0.15    0.10
  -5  -4  14   -0.02    0.08
  -5  -4  14    0.04    0.10
  -5  -4  14    0.06    0.09
   4   4 -14   -0.19    0.08
  -4  -4  14    0.01    0.08
  -4  -4  14   -0.01    0.07
  -4  -4  14    0.10    0.09
   3   4 -14    0.04    0.09
  -3  -4  14    0.24    0.07
  -3  -4  14    0.06    0.08
  -3  -4  14    0.10    0.08
  -3  -4  14    0.12    0.08
   2   4 -14    0.03    0.09
  -2  -4  14    0.17    0.06
  -2  -4  14    0.03    0.08
  -2  -4  14    0.16    0.08
  -2  -4  14    0.14    0.09
  -1  -4  14    0.43    0.11
  -1  -4  14    0.14    0.08
  -1  -4  14    0.25    0.10
   0  -4  14   -0.04    0.07
   0  -4  14    0.08    0.07
   0  -4  14    0.01    0.08
   1  -4  14   -0.06    0.06
   1  -4  14    0.12    0.09
   1  -4  14    0.20    0.10
   2  -4  14    0.01    0.06
   2  -4  14    0.09    0.09
   2  -4  14    0.18    0.11
   3  -4  14    0.45    0.12
   3  -4  14    0.26    0.09
   3  -4  14    0.53    0.14
   4  -4  14    0.07    0.11
   4  -4  14    0.07    0.10
   4  -4  14    0.11    0.08
   5  -4  14    0.07    0.11
   5  -4  14    0.00    0.27
   5  -4  14    0.02    0.07
   6  -4  14    0.39    0.10
 -10  -3  14    0.30    0.11
   9   3 -14    0.23    0.11
  -9  -3  14    0.25    0.10
  -9  -3  14    0.09    0.10
   8   3 -14    0.09    0.10
   8   3 -14    0.23    0.11
   8   3 -14    0.17    0.10
  -8  -3  14    0.16    0.10
   7   3 -14    0.92    0.14
  -7  -3  14    0.93    0.14
  -7  -3  14    0.91    0.16
   6   3 -14    0.27    0.11
  -6  -3  14    0.30    0.09
  -6  -3  14    0.33    0.09
  -6  -3  14    0.32    0.10
   5   3 -14    0.07    0.10
  -5  -3  14    0.09    0.07
  -5  -3  14    0.14    0.09
  -5  -3  14    0.07    0.07
   4   3 -14    1.21    0.15
  -4  -3  14    1.25    0.16
  -4  -3  14    1.04    0.11
  -4  -3  14    1.31    0.15
  -4  -3  14    1.19    0.14
   3   3 -14    0.12    0.09
  -3  -3  14    0.20    0.09
  -3  -3  14    0.09    0.08
  -3  -3  14    0.21    0.09
  -3  -3  14    0.14    0.06
   2   3 -14    0.00    0.08
  -2  -3  14    0.03    0.07
  -2  -3  14    0.00    0.07
  -2  -3  14   -0.11    0.06
  -1  -3  14   -0.04    0.07
  -1  -3  14   -0.11    0.06
  -1  -3  14    0.03    0.08
   0  -3  14    0.15    0.08
   0  -3  14    0.07    0.09
   0  -3  14    0.13    0.09
   1  -3  14   -0.03    0.08
   1  -3  14    0.00    0.08
   1  -3  14   -0.05    0.06
   2  -3  14    0.75    0.11
   2  -3  14    0.74    0.15
   2  -3  14    0.81    0.16
   3  -3  14    0.97    0.12
   3  -3  14    1.06    0.17
   3  -3  14    1.50    0.20
   4  -3  14    0.07    0.07
   4  -3  14   -0.02    0.10
   4  -3  14    0.02    0.10
   5  -3  14   -0.08    0.06
   5  -3  14   -0.04    0.10
   5  -3  14   -0.06    0.11
   9   2 -14    0.08    0.10
   9   2 -14    0.02    0.09
   9   2 -14    0.11    0.10
   8   2 -14   -0.12    0.10
  -8  -2  14    0.01    0.09
  -8  -2  14    0.08    0.08
   7   2 -14    0.05    0.10
  -7  -2  14    0.05    0.07
   6   2 -14    0.71    0.13
  -6  -2  14    0.63    0.21
  -6  -2  14    0.60    0.12
   5   2 -14    1.21    0.15
  -5  -2  14    1.22    0.13
  -5  -2  14    1.37    0.16
  -5  -2  14    1.27    0.17
   4   2 -14    0.15    0.11
  -4  -2  14    0.15    0.12
  -4  -2  14    0.04    0.08
  -4  -2  14    0.15    0.10
  -4  -2  14    0.12    0.09
   3   2 -14    0.14    0.10
  -3  -2  14    0.12    0.09
  -3  -2  14    0.15    0.09
  -3  -2  14    0.11    0.08
  -2  -2  14    0.55    0.12
  -2  -2  14    0.52    0.12
  -2  -2  14    0.62    0.10
  -1  -2  14    0.04    0.09
  -1  -2  14    0.10    0.07
  -1  -2  14    0.03    0.08
   0  -2  14    0.18    0.07
   0  -2  14    0.20    0.11
   0  -2  14    0.15    0.10
   1  -2  14    0.53    0.14
   1  -2  14    0.94    0.16
   1  -2  14    0.82    0.11
   2  -2  14    0.21    0.33
   2  -2  14    0.12    0.11
   2  -2  14    0.29    0.09
   3  -2  14    0.08    0.11
   3  -2  14    0.02    0.09
   3  -2  14    0.00    0.07
   4  -2  14    0.00    0.10
   4  -2  14   -0.03    0.07
   4  -2  14   -0.01    0.11
   5  -2  14   -0.05    0.06
   9   1 -14   -0.13    0.10
   8   1 -14    0.11    0.11
  -8  -1  14    0.08    0.09
   7   1 -14    0.39    0.12
  -7  -1  14    0.30    0.09
   6   1 -14    1.06    0.14
  -6  -1  14    0.78    0.14
  -6  -1  14    0.81    0.19
  -6  -1  14    0.71    0.14
   5   1 -14    0.06    0.10
  -5  -1  14    0.12    0.08
  -5  -1  14    0.04    0.09
  -5  -1  14    0.03    0.33
  -5  -1  14    0.09    0.08
   4   1 -14    0.03    0.10
  -4  -1  14    0.06    0.09
  -4  -1  14    0.27    0.11
  -4  -1  14    0.21    0.09
  -3  -1  14    0.11    0.08
  -3  -1  14    0.08    0.09
  -3  -1  14    0.02    0.08
  -2  -1  14    0.18    0.10
  -2  -1  14    0.35    0.12
  -2  -1  14    0.42    0.10
  -1  -1  14    0.34    0.11
  -1  -1  14    0.33    0.12
  -1  -1  14    0.38    0.09
   0  -1  14    0.54    0.21
   0  -1  14    0.63    0.10
   0  -1  14    0.70    0.14
   1  -1  14   -0.05    0.06
   1  -1  14    0.03    0.10
   1  -1  14    0.15    0.11
   2  -1  14    0.09    0.11
   2  -1  14    0.04    0.07
   2  -1  14    0.03    0.11
   3  -1  14   -0.06    0.10
   3  -1  14   -0.09    0.06
   3  -1  14    0.19    0.12
   4  -1  14    0.07    0.11
   4  -1  14   -0.01    0.06
  10   0 -14    0.15    0.11
   9   0 -14   -0.03    0.11
   8   0 -14   -0.10    0.11
   7   0 -14    0.03    0.11
  -7   0  14    0.17    0.68
   6   0 -14    0.16    0.11
  -6   0  14    0.09    0.10
  -6   0  14    0.14    0.07
  -6   0  14    0.22    0.10
   5   0 -14    0.17    0.11
  -5   0  14   -0.08    0.08
  -5   0  14    0.02    0.08
  -5   0  14    0.03    0.08
   4   0 -14    0.08    0.10
  -4   0  14    0.00    0.08
  -4   0  14   -0.10    0.07
  -4   0  14    0.04    0.09
  -3   0  14    0.28    0.11
  -3   0  14    0.46    0.13
  -3   0  14    0.46    0.11
  -2   0  14   -0.02    0.06
  -2   0  14   -0.08    0.08
  -2   0  14    0.06    0.09
  -1   0  14    0.10    0.11
  -1   0  14    0.27    0.11
  -1   0  14    0.04    0.07
   0   0  14    0.14    0.12
   0   0  14    0.16    0.11
   0   0  14    0.18    0.08
   1   0  14    0.11    0.10
   1   0  14    0.06    0.11
   1   0  14    0.17    0.07
   2   0  14    0.19    0.14
   2   0  14    0.08    0.11
   2   0  14    0.13    0.08
   3   0  14   -0.11    0.06
   3   0  14   -0.10    0.10
  10  -1 -14   -0.05    0.11
   9  -1 -14    0.03    0.12
   8  -1 -14    0.21    0.12
   7  -1 -14    0.29    0.12
  -7   1  14    0.02    0.09
  -7   1  14    0.03    0.09
   6  -1 -14    0.07    0.11
  -6   1  14    0.08    0.09
  -6   1  14    0.05    0.06
  -6   1  14    0.18    0.11
  -6   1  14    0.07    0.09
   5  -1 -14   -0.04    0.10
  -5   1  14   -0.04    0.08
  -5   1  14    0.14    0.10
  -5   1  14    0.12    0.10
  -4   1  14    0.31    0.11
  -4   1  14    0.39    0.12
  -4   1  14    0.28    0.10
  -3   1  14    0.17    0.10
  -3   1  14    0.27    0.09
  -3   1  14    0.23    0.10
  -2   1  14    0.17    0.08
  -2   1  14    0.14    0.11
  -2   1  14    0.16    0.10
  -1   1  14    0.05    0.07
  -1   1  14    0.01    0.10
  -1   1  14    0.12    0.10
   0   1  14    0.44    0.10
   0   1  14    0.42    0.13
   0   1  14    0.59    0.15
   1   1  14    0.03    0.10
   1   1  14    0.29    0.09
   2   1  14    0.14    0.08
   2   1  14    0.18    0.12
   9  -2 -14    0.01    0.12
   8  -2 -14    0.11    0.12
  -8   2  14   -0.05    0.09
   7  -2 -14   -0.23    0.10
  -7   2  14   -0.05    0.09
   6  -2 -14    0.59    0.14
  -6   2  14    0.31    0.12
  -6   2  14    0.43    0.11
   5  -2 -14    1.22    0.16
  -5   2  14    0.96    0.17
  -5   2  14    0.92    0.14
  -4   2  14    0.57    0.14
  -4   2  14    0.76    0.13
  -3   2  14    0.05    0.08
  -3   2  14    0.16    0.10
  -2   2  14    0.07    0.08
  -2   2  14    0.09    0.11
  -1   2  14    0.01    0.07
  -1   2  14    0.01    0.10
   0   2  14   -0.01    0.12
   0   2  14   -0.02    0.07
   1   2  14    0.10    0.12
   1   2  14   -0.04    0.06
   8  -3 -14   -0.08    0.12
  -8   3  14    0.18    0.12
   7  -3 -14    0.22    0.13
  -7   3  14    0.06    0.11
   6  -3 -14    0.11    0.13
  -6   3  14   -0.14    0.09
  -6   3  14    0.03    0.09
  -5   3  14   -0.01    0.08
  -5   3  14    0.08    0.11
  -4   3  14    0.06    0.08
  -4   3  14   -0.05    0.09
  -3   3  14    0.06    0.11
  -3   3  14   -0.06    0.07
  -2   3  14   -0.03    0.10
  -2   3  14   -0.02    0.07
  -1   3  14   -0.05    0.07
  -1   3  14    0.07    0.11
   6  -4 -14    0.08    0.12
  -6   4  14    0.10    0.09
  -6   4  14    0.01    0.11
  -5   4  14    0.04    0.11
  -5   4  14    0.09    0.10
  -4   4  14    0.10    0.08
  -4   4  14    0.07    0.11
  -2 -13  15    0.18    0.12
  -1 -13  15    0.30    0.12
   0  13 -15    0.00    0.08
   0 -13  15    0.11    0.11
  -1  13 -15    0.16    0.09
   1 -13  15    0.15    0.11
  -2  13 -15    0.07    0.09
   2 -13  15    0.20    0.12
  -3  13 -15    0.09    0.11
   3 -13  15    0.30    0.13
  -3 -12  15    0.26    0.12
  -3 -12  15    0.05    0.10
  -2 -12  15    0.38    0.12
   1  12 -15   -0.03    0.08
  -1 -12  15    0.11    0.10
   0  12 -15    0.36    0.10
   0 -12  15    0.57    0.14
  -1  12 -15    0.03    0.08
   1 -12  15    0.13    0.11
  -2  12 -15    0.19    0.10
   2 -12  15    0.32    0.13
  -3  12 -15    0.03    0.10
   3 -12  15    0.14    0.10
  -4  12 -15    0.36    0.17
  -4  12 -15    0.03    0.11
   4 -12  15    0.27    0.14
  -5  12 -15    0.03    0.15
   5 -12  15    0.41    0.14
  -5 -11  15   -0.07    0.10
  -5 -11  15    0.39    0.12
  -4 -11  15    0.06    0.10
  -4 -11  15    0.22    0.10
  -3 -11  15    0.70    0.15
   2  11 -15    1.53    0.14
   2  11 -15    1.44    0.18
  -2 -11  15    1.33    0.17
  -2 -11  15    1.20    0.18
   1  11 -15    0.08    0.08
  -1 -11  15    0.02    0.10
  -1 -11  15    0.06    0.10
   0  11 -15    0.16    0.09
   0 -11  15   -0.04    0.09
  -1  11 -15    0.33    0.11
   1 -11  15    0.22    0.11
  -2  11 -15    0.27    0.12
   2 -11  15    0.25    0.11
  -3  11 -15    0.04    0.12
  -3  11 -15    0.00    0.13
   3 -11  15   -0.07    0.10
  -4  11 -15    0.50    0.16
  -4  11 -15    0.76    0.15
   4 -11  15    0.58    0.15
  -5  11 -15    0.61    0.15
  -5  11 -15    0.44    0.17
   5 -11  15    0.67    0.17
   5 -11  15    0.37    0.13
  -6 -10  15    0.03    0.10
  -5 -10  15    0.10    0.09
  -5 -10  15   -0.07    0.09
   4  10 -15    0.07    0.09
  -4 -10  15    0.09    0.10
  -4 -10  15   -0.08    0.19
  -4 -10  15    0.01    0.09
   3  10 -15    0.00    0.10
   3  10 -15    0.12    0.08
  -3 -10  15   -0.10    0.14
  -3 -10  15    0.00    0.09
   2  10 -15   -0.02    0.08
  -2 -10  15   -0.01    0.11
  -2 -10  15    0.11    0.09
   1  10 -15    0.09    0.10
  -1 -10  15   -0.10    0.17
  -1 -10  15   -0.03    0.08
   0  10 -15   -0.06    0.09
   0 -10  15    0.10    0.10
   0 -10  15    0.08    0.08
  -1  10 -15    0.08    0.11
   1 -10  15    0.08    0.10
   1 -10  15   -0.08    0.06
  -2  10 -15    0.02    0.12
  -2  10 -15    0.11    0.12
   2 -10  15    0.04    0.12
   2 -10  15    0.01    0.07
  -3  10 -15    0.54    0.16
  -3  10 -15    0.26    0.13
   3 -10  15    0.42    0.14
   3 -10  15    0.36    0.11
  -4  10 -15    0.07    0.12
  -4  10 -15    0.33    0.15
   4 -10  15    0.17    0.12
   4 -10  15    0.07    0.09
  -5  10 -15    0.18    0.15
   5 -10  15    0.11    0.13
   5 -10  15    0.17    0.11
  -7  -9  15    0.07    0.10
  -6  -9  15    0.22    0.09
  -6  -9  15   -0.02    0.09
   5   9 -15    0.10    0.09
  -5  -9  15    0.23    0.09
  -5  -9  15    0.12    0.11
  -5  -9  15    0.01    0.09
   4   9 -15    0.18    0.08
   4   9 -15   -0.02    0.09
  -4  -9  15    0.15    0.10
  -4  -9  15    0.13    0.10
   3   9 -15   -0.13    0.08
  -3  -9  15    0.02    0.08
  -3  -9  15    0.04    0.09
   2   9 -15    0.19    0.10
  -2  -9  15   -0.10    0.08
  -2  -9  15    0.07    0.08
   1   9 -15    0.09    0.10
  -1  -9  15    0.18    0.10
  -1  -9  15    0.05    0.09
   0   9 -15    0.34    0.12
   0  -9  15    0.10    0.10
   0  -9  15    0.21    0.09
  -1   9 -15    0.32    0.12
  -1   9 -15    0.24    0.12
   1  -9  15    0.06    0.15
   1  -9  15    0.10    0.10
  -2   9 -15    0.48    0.14
  -2   9 -15    0.29    0.13
   2  -9  15    0.42    0.11
   2  -9  15    0.47    0.14
  -3   9 -15    0.18    0.12
  -3   9 -15    0.00    0.12
   3  -9  15    0.01    0.08
   3  -9  15   -0.09    0.10
  -4   9 -15    0.23    0.14
   4  -9  15    0.18    0.12
   4  -9  15   -0.03    0.09
  -5   9 -15    0.07    0.13
   5  -9  15   -0.01    0.11
   5  -9  15   -0.09    0.09
  -6   9 -15    0.25    0.15
   6  -9  15    0.07    0.09
  -7  -8  15   -0.04    0.10
  -6  -8  15    0.18    0.09
  -6  -8  15    0.17    0.11
  -6  -8  15    0.07    0.09
   5   8 -15   -0.01    0.10
   5   8 -15   -0.04    0.07
  -5  -8  15    0.13    0.10
  -5  -8  15    0.15    0.09
   4   8 -15    0.16    0.09
  -4  -8  15    0.22    0.10
  -4  -8  15    0.16    0.10
   3   8 -15    0.03    0.09
  -3  -8  15    0.19    0.10
  -3  -8  15    0.03    0.08
   2   8 -15    0.01    0.10
  -2  -8  15   -0.02    0.08
  -2  -8  15    0.14    0.09
   1   8 -15    0.00    0.11
  -1  -8  15   -0.02    0.20
  -1  -8  15    0.05    0.09
   0   8 -15    0.19    0.12
   0   8 -15    0.10    0.09
   0  -8  15   -0.01    0.08
   0  -8  15   -0.01    0.09
   0  -8  15    0.02    0.06
  -1   8 -15    0.07    0.10
  -1   8 -15    0.09    0.12
   1  -8  15    0.14    0.09
   1  -8  15    0.13    0.11
  -2   8 -15    0.11    0.12
  -2   8 -15    0.24    0.12
   2  -8  15    0.18    0.12
   2  -8  15    0.20    0.10
  -3   8 -15    0.01    0.11
   3  -8  15    0.06    0.10
   3  -8  15    0.07    0.09
  -4   8 -15    0.41    0.14
   4  -8  15    0.13    0.09
   4  -8  15   -0.01    0.10
  -5   8 -15   -0.02    0.12
   5  -8  15    0.30    0.11
   5  -8  15    0.35    0.13
  -6   8 -15    0.14    0.13
   6  -8  15    0.03    0.09
  -8  -7  15    0.23    0.11
  -7  -7  15   -0.01    0.09
  -7  -7  15    0.19    0.11
   6   7 -15    0.14    0.08
   6   7 -15    0.04    0.10
  -6  -7  15    0.10    0.09
  -6  -7  15    0.18    0.10
   5   7 -15    0.06    0.09
  -5  -7  15    0.11    0.08
  -5  -7  15    0.17    0.09
   4   7 -15    0.15    0.10
  -4  -7  15    0.10    0.09
  -4  -7  15    0.27    0.10
   3   7 -15    0.12    0.11
  -3  -7  15    0.05    0.08
  -3  -7  15    0.33    0.10
   2   7 -15    3.11    0.22
   2   7 -15    3.00    0.21
  -2  -7  15    3.30    0.22
  -2  -7  15    3.41    0.19
   1   7 -15    1.39    0.16
   1   7 -15    1.63    0.17
  -1  -7  15    1.51    0.14
  -1  -7  15    1.52    0.18
  -1  -7  15    1.31    0.18
  -1  -7  15    1.50    0.16
  -1  -7  15    1.16    0.16
   0   7 -15    1.05    0.15
   0   7 -15    0.83    0.14
   0  -7  15    1.03    0.17
   0  -7  15    0.73    0.14
   0  -7  15    0.89    0.16
   0  -7  15    0.66    0.12
  -1   7 -15   -0.07    0.10
   1  -7  15    0.07    0.10
   1  -7  15   -0.03    0.09
   1  -7  15   -0.05    0.07
   2  -7  15    0.62    0.14
   2  -7  15    0.81    0.16
   2  -7  15    0.64    0.12
   3  -7  15    0.14    0.11
   3  -7  15   -0.15    0.07
  -4   7 -15    0.20    0.11
   4  -7  15    0.43    0.10
   4  -7  15    0.41    0.13
  -5   7 -15    0.36    0.14
   5  -7  15    0.19    0.09
   5  -7  15    0.27    0.12
  -8  -6  15   -0.03    0.09
   7   6 -15   -0.11    0.08
  -7  -6  15    0.09    0.10
   6   6 -15    0.11    0.09
  -6  -6  15    0.21    0.10
  -6  -6  15    0.00    0.08
   5   6 -15    0.02    0.10
  -5  -6  15    0.07    0.09
  -5  -6  15    0.20    0.11
   4   6 -15    0.01    0.11
   4   6 -15   -0.09    0.10
  -4  -6  15    0.14    0.09
  -4  -6  15   -0.06    0.08
   3   6 -15    1.97    0.18
   3   6 -15    1.76    0.18
  -3  -6  15    2.14    0.17
  -3  -6  15    1.95    0.19
   2   6 -15    0.20    0.12
  -2  -6  15    0.11    0.09
  -2  -6  15    0.15    0.09
  -2  -6  15    0.05    0.08
  -2  -6  15    0.14    0.08
  -2  -6  15    0.13    0.10
   1   6 -15    0.00    0.11
  -1  -6  15    0.04    0.09
  -1  -6  15   -0.07    0.07
  -1  -6  15   -0.03    0.05
  -1  -6  15    0.14    0.10
   0   6 -15   -0.15    0.09
   0  -6  15    0.03    0.09
   0  -6  15   -0.01    0.09
   0  -6  15    0.20    0.09
   1  -6  15    0.12    0.10
   1  -6  15    0.06    0.08
   1  -6  15    0.12    0.10
   2  -6  15    0.78    0.12
   2  -6  15    0.68    0.15
   2  -6  15    0.73    0.15
   3  -6  15   -0.12    0.07
   3  -6  15    0.13    0.10
   3  -6  15   -0.13    0.09
   4  -6  15    0.45    0.11
   4  -6  15    0.64    0.15
  -5   6 -15    0.20    0.11
   5  -6  15    0.02    0.10
   5  -6  15    0.08    0.08
   7   5 -15    0.59    0.12
  -7  -5  15    0.80    0.14
   6   5 -15    1.61    0.16
  -6  -5  15    1.53    0.17
  -6  -5  15    1.95    0.19
   5   5 -15    0.02    0.11
   5   5 -15    0.13    0.11
  -5  -5  15   -0.06    0.10
  -5  -5  15    0.21    0.11
  -5  -5  15    0.26    0.10
   4   5 -15    0.02    0.11
  -4  -5  15    0.13    0.08
  -4  -5  15    0.08    0.09
  -4  -5  15    0.21    0.10
   3   5 -15    0.08    0.10
  -3  -5  15   -0.10    0.06
  -3  -5  15    0.03    0.09
   2   5 -15    0.23    0.11
  -2  -5  15   -0.03    0.07
  -2  -5  15   -0.02    0.08
  -2  -5  15   -0.08    0.05
  -2  -5  15   -0.09    0.05
  -2  -5  15    0.11    0.09
   1   5 -15    0.20    0.11
  -1  -5  15    0.36    0.10
  -1  -5  15    0.21    0.10
  -1  -5  15    0.26    0.11
   0  -5  15    0.96    0.16
   0  -5  15    1.12    0.14
   0  -5  15    0.98    0.15
   1  -5  15    0.84    0.15
   1  -5  15    0.43    0.13
   1  -5  15    0.91    0.13
   2  -5  15    0.08    0.11
   2  -5  15    0.06    0.08
   2  -5  15    0.03    0.10
   3  -5  15    0.11    0.08
   3  -5  15   -0.04    0.11
   3  -5  15   -0.02    0.10
   4  -5  15    0.04    0.11
   4  -5  15    0.06    0.11
   4  -5  15    0.01    0.08
   5  -5  15    0.04    0.08
   5  -5  15    0.20    0.12
   8   4 -15   -0.13    0.09
   7   4 -15    0.13    0.11
   7   4 -15    0.01    0.10
  -7  -4  15    0.15    0.10
   6   4 -15    1.30    0.16
  -6  -4  15    1.72    0.17
  -6  -4  15    1.56    0.19
   5   4 -15    1.10    0.15
  -5  -4  15    1.27    0.17
  -5  -4  15    1.00    0.12
  -5  -4  15    1.43    0.15
   4   4 -15    0.08    0.10
  -4  -4  15    0.20    0.09
  -4  -4  15    0.12    0.07
  -4  -4  15    0.10    0.09
   3   4 -15   -0.07    0.10
  -3  -4  15    0.09    0.09
  -3  -4  15    0.04    0.09
  -3  -4  15    0.07    0.11
  -3  -4  15    0.04    0.07
   2   4 -15    0.05    0.10
  -2  -4  15    0.07    0.09
  -2  -4  15    0.09    0.09
  -2  -4  15   -0.04    0.08
  -1  -4  15   -0.01    0.07
  -1  -4  15    0.12    0.09
  -1  -4  15    0.02    0.09
   0  -4  15    0.56    0.14
   0  -4  15    0.93    0.16
   0  -4  15    0.75    0.12
   1  -4  15    0.49    0.14
   1  -4  15    0.17    0.10
   1  -4  15    0.34    0.10
   2  -4  15    0.44    0.14
   2  -4  15    0.68    0.15
   2  -4  15    0.43    0.10
   3  -4  15   -0.03    0.10
   3  -4  15    0.00    0.10
   3  -4  15    0.07    0.08
   4  -4  15    0.17    0.11
   4  -4  15    0.08    0.12
   4  -4  15    0.10    0.08
   8   3 -15   -0.09    0.10
   8   3 -15    0.00    0.11
   7   3 -15    0.08    0.11
  -7  -3  15    0.11    0.09
   6   3 -15   -0.08    0.10
  -6  -3  15   -0.03    0.09
  -6  -3  15    0.18    0.08
   5   3 -15    0.34    0.12
  -5  -3  15    0.22    0.11
  -5  -3  15    0.38    0.16
   4   3 -15    0.13    0.11
  -4  -3  15    0.02    0.08
  -4  -3  15    0.04    0.07
  -4  -3  15   -0.06    0.07
  -4  -3  15   -0.01    0.09
   3   3 -15    0.09    0.11
  -3  -3  15    0.01    0.08
  -3  -3  15    0.03    0.09
  -3  -3  15   -0.14    0.07
  -2  -3  15    0.07    0.09
  -2  -3  15    0.13    0.08
  -2  -3  15   -0.14    0.07
  -1  -3  15    0.40    0.12
  -1  -3  15    0.12    0.10
  -1  -3  15    0.29    0.10
   0  -3  15    0.63    0.14
   0  -3  15    0.66    0.14
   0  -3  15    0.65    0.11
   1  -3  15    0.01    0.07
   1  -3  15    0.04    0.10
   1  -3  15   -0.01    0.10
   2  -3  15    0.67    0.16
   2  -3  15    0.50    0.10
   2  -3  15    0.59    0.14
   3  -3  15    0.56    0.20
   3  -3  15    0.31    0.09
   3  -3  15    0.24    0.12
   4  -3  15    0.06    0.11
   4  -3  15    0.03    0.11
   4  -3  15   -0.04    0.07
   9   2 -15    0.21    0.11
   9   2 -15    0.16    0.11
   8   2 -15   -0.10    0.10
   7   2 -15   -0.07    0.10
   6   2 -15    0.26    0.12
  -6  -2  15    0.15    0.11
  -6  -2  15    0.07    0.09
   5   2 -15    0.19    0.11
  -5  -2  15    0.07    0.09
  -5  -2  15    0.03    0.10
  -5  -2  15    0.01    0.06
   4   2 -15    1.49    0.17
  -4  -2  15    1.54    0.16
  -4  -2  15    1.12    0.17
  -4  -2  15    1.52    0.19
   3   2 -15    0.64    0.13
  -3  -2  15    0.56    0.11
  -3  -2  15    0.68    0.14
  -3  -2  15    0.54    0.13
  -2  -2  15    0.09    0.09
  -2  -2  15    0.12    0.10
  -2  -2  15   -0.02    0.08
  -1  -2  15   -0.04    0.08
  -1  -2  15   -0.02    0.07
  -1  -2  15    0.07    0.10
   0  -2  15   -0.01    0.08
   0  -2  15    0.20    0.12
   0  -2  15    0.13    0.10
   1  -2  15    0.12    0.33
   1  -2  15    0.01    0.08
   1  -2  15    0.11    0.11
   2  -2  15    0.04    0.11
   2  -2  15    0.08    0.08
   2  -2  15   -0.08    0.10
   3  -2  15   -0.11    0.11
   3  -2  15   -0.10    0.07
   3  -2  15    0.06    0.11
   9   1 -15    0.04    0.12
   8   1 -15    0.07    0.11
   7   1 -15   -0.13    0.10
   6   1 -15   -0.16    0.11
  -6  -1  15    0.02    0.21
  -6  -1  15   -0.09    0.08
   5   1 -15   -0.05    0.11
  -5  -1  15    0.03    0.08
  -5  -1  15   -0.01    0.09
  -5  -1  15    0.18    0.10
   4   1 -15    0.26    0.12
  -4  -1  15    0.01    0.08
  -4  -1  15    0.20    0.11
  -4  -1  15    0.17    0.10
  -3  -1  15   -0.12    0.07
  -3  -1  15    0.00    0.09
  -3  -1  15    0.03    0.09
  -2  -1  15    0.15    0.25
  -2  -1  15   -0.03    0.08
  -2  -1  15    0.01    0.10
  -1  -1  15   -0.02    0.10
  -1  -1  15    0.01    0.08
  -1  -1  15    0.07    0.10
   0  -1  15    0.41    0.10
   0  -1  15    0.52    0.14
   0  -1  15    0.33    0.14
   1  -1  15    0.03    0.07
   1  -1  15    0.10    0.11
   1  -1  15    0.07    0.12
   2  -1  15    0.04    0.11
   2  -1  15    0.03    0.07
   2  -1  15   -0.10    0.10
   9   0 -15   -0.08    0.12
   8   0 -15    0.00    0.11
   7   0 -15    0.35    0.13
   6   0 -15    0.26    0.13
  -6   0  15    0.18    0.11
  -6   0  15    0.43    0.13
   5   0 -15    0.07    0.12
  -5   0  15    0.24    0.11
  -5   0  15    0.07    0.09
  -5   0  15    0.13    0.10
  -4   0  15    0.08    0.09
  -4   0  15   -0.11    0.08
  -4   0  15    0.16    0.10
  -3   0  15   -0.16    0.07
  -3   0  15    0.08    0.10
  -3   0  15    0.14    0.11
  -2   0  15    0.09    0.11
  -2   0  15   -0.01    0.07
  -2   0  15   -0.02    0.10
  -1   0  15    0.01    0.08
  -1   0  15    0.12    0.11
  -1   0  15    0.09    0.10
   0   0  15    0.23    0.09
   0   0  15    0.11    0.11
   0   0  15    0.31    0.13
   1   0  15    0.49    0.15
   1   0  15    0.16    0.12
   1   0  15    0.18    0.08
   8  -1 -15   -0.04    0.12
   7  -1 -15    0.18    0.13
  -7   1  15    0.08    0.11
   6  -1 -15    0.00    0.12
  -6   1  15    0.12    0.11
  -6   1  15   -0.10    0.08
   5  -1 -15   -0.09    0.11
  -5   1  15   -0.10    0.08
  -5   1  15    0.10    0.10
  -5   1  15   -0.15    0.07
  -4   1  15    0.20    0.10
  -4   1  15    0.01    0.10
  -4   1  15    0.07    0.09
  -3   1  15    0.08    0.10
  -3   1  15    0.04    0.09
  -3   1  15    0.05    0.08
  -2   1  15   -0.10    0.07
  -2   1  15    0.03    0.10
  -2   1  15    0.01    0.10
  -1   1  15    0.12    0.12
  -1   1  15    0.16    0.12
  -1   1  15    0.09    0.07
   0   1  15   -0.01    0.10
   0   1  15    0.08    0.08
   7  -2 -15    0.27    0.13
  -7   2  15   -0.07    0.10
   6  -2 -15    0.32    0.13
  -6   2  15    0.38    0.12
  -6   2  15    0.15    0.12
  -5   2  15    0.38    0.13
  -5   2  15    0.12    0.09
  -4   2  15    0.15    0.12
  -4   2  15    0.15    0.10
  -3   2  15    0.01    0.08
  -3   2  15   -0.04    0.09
  -2   2  15    0.14    0.12
  -2   2  15    0.05    0.09
  -2 -12  16    0.32    0.12
   1  12 -16   -0.04    0.08
  -1 -12  16    0.00    0.10
   0  12 -16    0.09    0.09
   0 -12  16    0.05    0.11
  -1  12 -16    0.05    0.10
   1 -12  16   -0.02    0.09
  -2  12 -16   -0.08    0.11
   2 -12  16   -0.04    0.12
   3 -12  16    0.20    0.14
  -4 -11  16    0.26    0.11
  -3 -11  16    0.11    0.10
   2  11 -16    0.41    0.09
  -2 -11  16    0.43    0.13
   1  11 -16    0.08    0.09
  -1 -11  16    0.19    0.11
   0  11 -16    0.23    0.11
   0 -11  16    0.25    0.12
  -1  11 -16    0.67    0.14
   1 -11  16    1.15    0.19
  -2  11 -16    0.63    0.14
   2 -11  16    0.75    0.17
  -3  11 -16    0.27    0.14
  -3  11 -16    0.16    0.15
   3 -11  16    0.33    0.13
  -4  11 -16    0.44    0.17
   4 -11  16    0.88    0.17
  -5 -10  16    0.11    0.09
  -4 -10  16    0.20    0.10
   3  10 -16    0.07    0.08
  -3 -10  16    0.16    0.10
   2  10 -16    0.26    0.10
  -2 -10  16    0.16    0.11
   1  10 -16    0.03    0.10
  -1 -10  16    0.18    0.11
   0  10 -16   -0.08    0.11
   0 -10  16    0.05    0.11
  -1  10 -16   -0.03    0.12
   1 -10  16    0.28    0.12
  -2  10 -16    0.10    0.13
  -2  10 -16   -0.01    0.12
   2 -10  16    0.16    0.12
  -3  10 -16    0.07    0.14
  -3  10 -16    0.30    0.14
   3 -10  16    0.21    0.14
   3 -10  16    0.06    0.10
  -4  10 -16    0.24    0.13
  -4  10 -16    0.24    0.15
   4 -10  16    0.14    0.13
   4 -10  16    0.10    0.10
  -6  -9  16    0.14    0.08
  -5  -9  16    0.27    0.10
   4   9 -16    0.10    0.08
  -4  -9  16    0.08    0.08
   3   9 -16    0.27    0.10
  -3  -9  16    0.41    0.12
   2   9 -16    0.40    0.12
  -2  -9  16    0.34    0.12
   1   9 -16    0.00    0.11
  -1  -9  16    0.02    0.09
   0   9 -16    0.00    0.12
   0  -9  16   -0.09    0.09
  -1   9 -16    0.23    0.13
  -1   9 -16    0.29    0.13
   1  -9  16    0.36    0.13
  -2   9 -16    0.31    0.14
  -2   9 -16    0.28    0.13
   2  -9  16    0.38    0.14
   2  -9  16    0.22    0.10
  -3   9 -16    0.01    0.12
  -3   9 -16    0.11    0.12
   3  -9  16    0.17    0.13
   3  -9  16   -0.03    0.10
  -4   9 -16    0.27    0.14
   4  -9  16    0.25    0.14
   4  -9  16    0.09    0.10
  -6  -8  16    0.35    0.11
   5   8 -16    0.13    0.08
  -5  -8  16    0.26    0.10
   4   8 -16    0.11    0.10
  -4  -8  16    0.22    0.10
   3   8 -16    0.04    0.11
  -3  -8  16    0.14    0.10
  -3  -8  16    0.10    0.10
   2   8 -16    0.17    0.11
  -2  -8  16   -0.01    0.08
  -2  -8  16   -0.01    0.08
   1   8 -16   -0.11    0.12
  -1  -8  16   -0.03    0.07
  -1  -8  16    0.08    0.10
  -1  -8  16   -0.04    0.09
   0   8 -16    0.13    0.13
   0  -8  16   -0.01    0.11
   0  -8  16    0.16    0.10
  -1   8 -16    1.13    0.16
  -1   8 -16    1.08    0.17
   1  -8  16    1.24    0.16
   1  -8  16    1.10    0.19
  -2   8 -16    0.44    0.13
  -2   8 -16   -0.06    0.12
   2  -8  16    0.13    0.09
   2  -8  16    0.19    0.13
  -3   8 -16    0.38    0.14
   3  -8  16    0.19    0.10
   3  -8  16    0.40    0.15
  -4   8 -16    0.34    0.13
   4  -8  16    0.04    0.12
   4  -8  16    0.10    0.10
   6   7 -16    0.02    0.08
  -6  -7  16    0.37    0.12
   5   7 -16    0.25    0.11
  -5  -7  16    0.31    0.12
   4   7 -16    0.15    0.11
  -4  -7  16    0.41    0.12
  -4  -7  16    0.34    0.13
   3   7 -16    0.17    0.13
  -3  -7  16   -0.01    0.08
  -3  -7  16    0.03    0.10
   2   7 -16    0.86    0.16
   2   7 -16    0.80    0.15
  -2  -7  16    0.91    0.12
  -2  -7  16    0.71    0.15
   1   7 -16    1.59    0.18
   1   7 -16    1.01    0.15
  -1  -7  16    1.30    0.13
  -1  -7  16    1.08    0.15
  -1  -7  16    1.34    0.18
  -1  -7  16    1.77    0.22
   0   7 -16    0.43    0.14
   0   7 -16    0.60    0.15
   0  -7  16    0.26    0.11
   0  -7  16    0.39    0.13
   0  -7  16    0.43    0.13
  -1   7 -16   -0.07    0.12
   1  -7  16    0.05    0.11
   1  -7  16    0.01    0.10
   1  -7  16   -0.05    0.08
   2  -7  16    0.35    0.11
   2  -7  16    0.47    0.14
   2  -7  16    0.15    0.12
   3  -7  16   -0.05    0.09
   3  -7  16    0.10    0.11
  -4   7 -16    0.05    0.10
   4  -7  16    0.17    0.12
   4  -7  16    0.03    0.09
   7   6 -16    0.38    0.11
   6   6 -16    0.11    0.10
  -6  -6  16    0.15    0.10
   5   6 -16    0.68    0.14
  -5  -6  16    0.58    0.14
   4   6 -16   -0.02    0.12
   4   6 -16    0.32    0.13
  -4  -6  16    0.25    0.12
  -4  -6  16    0.28    0.22
   3   6 -16   -0.05    0.11
  -3  -6  16    0.02    0.07
  -3  -6  16    0.08    0.09
   2   6 -16    0.11    0.11
  -2  -6  16    0.07    0.06
  -2  -6  16    0.10    0.07
  -2  -6  16    0.05    0.09
   1   6 -16   -0.13    0.11
  -1  -6  16    0.01    0.08
  -1  -6  16    0.05    0.09
  -1  -6  16    0.05    0.09
   0   6 -16   -0.08    0.11
   0  -6  16    0.18    0.11
   0  -6  16    0.05    0.09
   0  -6  16    0.09    0.10
   1  -6  16   -0.08    0.09
   1  -6  16    0.17    0.12
   1  -6  16    0.04    0.10
   2  -6  16    0.10    0.11
   2  -6  16    0.13    0.10
   2  -6  16    0.07    0.09
   3  -6  16    0.07    0.09
   3  -6  16   -0.12    0.11
   3  -6  16    0.13    0.12
   4  -6  16    0.02    0.08
   4  -6  16    0.07    0.11
   7   5 -16    0.09    0.10
   6   5 -16    0.03    0.11
   6   5 -16   -0.26    0.10
  -6  -5  16    0.09    0.10
   5   5 -16    0.13    0.12
  -5  -5  16    0.05    0.09
   4   5 -16   -0.06    0.11
  -4  -5  16    0.03    0.08
  -4  -5  16    0.01    0.09
  -4  -5  16    0.00    0.07
   3   5 -16    1.07    0.15
  -3  -5  16    0.93    0.10
  -3  -5  16    0.82    0.15
   2   5 -16    0.67    0.14
  -2  -5  16    0.82    0.15
  -2  -5  16    0.80    0.13
  -2  -5  16    1.02    0.17
   1   5 -16   -0.05    0.10
  -1  -5  16    0.03    0.08
  -1  -5  16    0.06    0.10
  -1  -5  16    0.04    0.09
   0  -5  16    0.32    0.11
   0  -5  16    0.32    0.12
   0  -5  16    0.14    0.12
   1  -5  16    1.33    0.20
   1  -5  16    0.97    0.17
   1  -5  16    1.11    0.14
   2  -5  16    0.26    0.13
   2  -5  16   -0.06    0.11
   2  -5  16    0.09    0.09
   3  -5  16    0.17    0.08
   3  -5  16   -0.04    0.11
   3  -5  16    0.06    0.11
   8   4 -16    0.11    0.11
   7   4 -16   -0.07    0.11
   7   4 -16    0.15    0.12
   6   4 -16    0.39    0.13
  -6  -4  16    0.84    0.15
   5   4 -16   -0.04    0.11
  -5  -4  16   -0.07    0.09
   4   4 -16    0.23    0.12
  -4  -4  16    0.40    0.08
  -4  -4  16    0.32    0.12
   3   4 -16    0.16    0.12
  -3  -4  16    0.16    0.11
  -3  -4  16    0.09    0.09
  -3  -4  16    0.01    0.08
   2   4 -16   -0.08    0.11
  -2  -4  16   -0.02    0.09
  -2  -4  16    0.02    0.09
  -2  -4  16   -0.01    0.08
  -1  -4  16    0.35    0.12
  -1  -4  16    0.49    0.14
  -1  -4  16    0.56    0.12
   0  -4  16    0.11    0.10
   0  -4  16    0.06    0.09
   0  -4  16    0.22    0.12
   1  -4  16    0.01    0.08
   1  -4  16   -0.02    0.10
   1  -4  16    0.14    0.11
   2  -4  16    0.01    0.08
   2  -4  16    0.02    0.11
   2  -4  16    0.11    0.12
   3  -4  16   -0.09    0.08
   3  -4  16    0.20    0.14
   3  -4  16    0.06    0.12
   8   3 -16    0.21    0.11
   8   3 -16    0.15    0.11
   7   3 -16   -0.06    0.11
   6   3 -16   -0.10    0.11
  -6  -3  16    0.14    0.11
   5   3 -16    0.11    0.12
  -5  -3  16    0.23    0.12
   4   3 -16   -0.16    0.10
  -4  -3  16    0.02    0.09
  -4  -3  16   -0.04    0.09
  -4  -3  16    0.06    0.09
   3   3 -16    0.23    0.12
  -3  -3  16    0.28    0.10
  -3  -3  16    0.08    0.10
  -3  -3  16    0.01    0.09
  -2  -3  16    0.06    0.10
  -2  -3  16    0.03    0.09
  -2  -3  16    0.01    0.09
  -1  -3  16    0.30    0.10
  -1  -3  16    0.24    0.11
  -1  -3  16    0.34    0.12
   0  -3  16    0.00    0.09
   0  -3  16    0.03    0.11
   0  -3  16    0.00    0.08
   1  -3  16    0.26    0.12
   1  -3  16    0.10    0.08
   1  -3  16    0.24    0.13
   2  -3  16    0.15    0.20
   2  -3  16    0.01    0.11
   2  -3  16   -0.09    0.07
   8   2 -16   -0.12    0.12
   7   2 -16    0.01    0.12
   6   2 -16    0.01    0.12
  -6  -2  16    0.00    0.10
   5   2 -16   -0.04    0.11
  -5  -2  16   -0.02    0.10
  -5  -2  16    0.06    0.10
   4   2 -16    0.17    0.12
  -4  -2  16    0.21    0.10
  -4  -2  16    0.32    0.13
  -4  -2  16    0.26    0.11
  -3  -2  16   -0.05    0.08
  -3  -2  16   -0.07    0.08
  -3  -2  16    0.03    0.10
  -2  -2  16   -0.08    0.08
  -2  -2  16   -0.08    0.09
  -2  -2  16   -0.09    0.08
  -1  -2  16    0.02    0.10
  -1  -2  16    0.08    0.08
  -1  -2  16    0.01    0.10
   0  -2  16   -0.08    0.08
   0  -2  16    0.09    0.11
   0  -2  16    0.12    0.14
   1  -2  16    0.31    0.14
   1  -2  16    0.34    0.14
   1  -2  16    0.41    0.10
   7   1 -16    0.46    0.13
   6   1 -16    0.29    0.13
  -6  -1  16    0.15    0.11
   5   1 -16    0.06    0.12
  -5  -1  16    0.12    0.11
  -5  -1  16    0.14    0.11
  -5  -1  16    0.00    0.09
   4   1 -16    0.08    0.11
  -4  -1  16   -0.07    0.10
  -4  -1  16    0.01    0.09
  -4  -1  16   -0.13    0.08
  -3  -1  16   -0.07    0.09
  -3  -1  16   -0.10    0.08
  -3  -1  16   -0.08    0.09
  -2  -1  16    0.17    0.11
  -2  -1  16    0.06    0.09
  -2  -1  16    0.31    0.13
  -1  -1  16    0.11    0.11
  -1  -1  16    0.08    0.10
  -1  -1  16   -0.06    0.08
   0  -1  16   -0.01    0.11
   0  -1  16    0.12    0.13
   0  -1  16    0.19    0.09
   7   0 -16   -0.01    0.12
   6   0 -16    0.30    0.14
  -6   0  16    0.04    0.10
  -6   0  16    0.24    0.12
   5   0 -16    0.05    0.12
  -5   0  16   -0.11    0.08
  -5   0  16    0.07    0.10
  -5   0  16    0.07    0.11
  -4   0  16    0.25    0.12
  -4   0  16   -0.09    0.09
  -4   0  16   -0.05    0.08
  -3   0  16    0.17    0.11
  -3   0  16    0.13    0.09
  -3   0  16    0.11    0.11
  -2   0  16    0.03    0.10
  -2   0  16   -0.02    0.08
  -2   0  16    0.03    0.11
  -1   0  16    0.09    0.11
  -1   0  16    0.03    0.11
  -1   0  16   -0.10    0.08
  -4   1  16    0.09    0.11
   1  11 -17    0.49    0.12
  -1 -11  17    0.72    0.16
   0  11 -17    0.32    0.12
   0 -11  17    0.70    0.17
  -1  11 -17    0.57    0.14
   1 -11  17    0.33    0.14
   3  10 -17    0.06    0.09
  -3 -10  17    0.17    0.10
   2  10 -17    0.15    0.10
  -2 -10  17    0.14    0.11
   1  10 -17   -0.02    0.11
  -1 -10  17    0.04    0.10
   0  10 -17    0.14    0.13
   0 -10  17    0.22    0.12
  -1  10 -17    0.05    0.13
   1 -10  17    0.09    0.12
  -2  10 -17    0.06    0.14
  -2  10 -17    0.08    0.13
   2 -10  17    0.22    0.14
   4   9 -17    0.08    0.09
  -4  -9  17    0.30    0.11
   3   9 -17    0.35    0.12
  -3  -9  17    0.45    0.13
   2   9 -17    0.00    0.11
  -2  -9  17    0.36    0.12
   1   9 -17    0.15    0.12
  -1  -9  17    0.12    0.11
   0   9 -17    0.13    0.14
   0  -9  17    0.04    0.11
  -1   9 -17    0.31    0.14
  -1   9 -17   -0.03    0.13
   1  -9  17    0.25    0.14
  -2   9 -17    0.11    0.13
  -2   9 -17    0.12    0.14
   2  -9  17   -0.04    0.12
   2  -9  17    0.12    0.11
   5   8 -17    0.03    0.09
  -5  -8  17    0.14    0.11
   4   8 -17    0.08    0.11
  -4  -8  17    0.09    0.11
   3   8 -17    0.05    0.12
  -3  -8  17    0.07    0.10
   2   8 -17    0.06    0.12
  -2  -8  17   -0.06    0.10
   1   8 -17   -0.20    0.12
  -1  -8  17    0.10    0.11
   0   8 -17    0.01    0.13
   0  -8  17    0.07    0.11
  -1   8 -17    0.34    0.12
  -1   8 -17   -0.09    0.13
   1  -8  17    0.05    0.10
   1  -8  17    0.17    0.12
  -2   8 -17    0.46    0.14
   2  -8  17    0.15    0.11
   2  -8  17    0.19    0.13
   6   7 -17    0.22    0.11
  -6  -7  17    0.32    0.12
   5   7 -17    0.43    0.12
  -5  -7  17    0.58    0.14
   4   7 -17    0.00    0.12
  -4  -7  17    0.24    0.12
   3   7 -17    0.02    0.12
  -3  -7  17    0.08    0.11
   2   7 -17    0.27    0.14
   2   7 -17    0.13    0.12
  -2  -7  17    0.18    0.11
   1   7 -17    0.10    0.13
   1   7 -17    0.36    0.12
  -1  -7  17   -0.10    0.10
  -1  -7  17    0.12    0.10
   0   7 -17    0.03    0.12
   0   7 -17   -0.07    0.13
   0  -7  17    0.01    0.10
   0  -7  17    0.01    0.09
   0  -7  17    0.08    0.10
   1  -7  17   -0.12    0.10
   1  -7  17    0.07    0.10
   1  -7  17   -0.09    0.10
   2  -7  17    0.24    0.10
   2  -7  17    0.35    0.13
   6   6 -17    0.39    0.12
  -6  -6  17    0.40    0.13
   5   6 -17    0.14    0.12
  -5  -6  17    0.29    0.12
   4   6 -17    0.45    0.14
   4   6 -17    0.52    0.14
  -4  -6  17    0.88    0.17
   3   6 -17    1.60    0.19
  -3  -6  17    1.69    0.22
   2   6 -17    0.18    0.12
  -2  -6  17    0.02    0.09
   1   6 -17   -0.11    0.12
  -1  -6  17    0.10    0.10
  -1  -6  17    0.05    0.09
  -1  -6  17   -0.01    0.10
   0  -6  17    0.21    0.10
   0  -6  17    0.17    0.11
   0  -6  17    0.07    0.11
   1  -6  17   -0.01    0.10
   1  -6  17    0.15    0.10
   1  -6  17   -0.04    0.10
   2  -6  17    0.11    0.12
   2  -6  17   -0.19    0.10
   2  -6  17   -0.04    0.09
   6   5 -17   -0.02    0.12
   6   5 -17    0.18    0.12
  -6  -5  17    0.02    0.10
   5   5 -17    0.02    0.12
  -5  -5  17    0.01    0.09
   4   5 -17    0.06    0.12
  -4  -5  17   -0.03    0.09
   3   5 -17    0.08    0.13
  -3  -5  17    0.39    0.13
   2   5 -17    0.08    0.12
  -2  -5  17    0.22    0.11
  -2  -5  17    0.15    0.10
  -2  -5  17    0.05    0.09
  -1  -5  17    0.14    0.11
  -1  -5  17    0.33    0.12
  -1  -5  17    0.26    0.11
   0  -5  17   -0.11    0.09
   0  -5  17    0.00    0.11
   0  -5  17    0.23    0.12
   1  -5  17    0.10    0.10
   1  -5  17    0.19    0.12
   1  -5  17    0.17    0.12
   2  -5  17   -0.02    0.11
   6   4 -17   -0.10    0.11
  -6  -4  17    0.06    0.11
   5   4 -17    0.03    0.12
  -5  -4  17    0.00    0.09
   4   4 -17   -0.12    0.11
  -4  -4  17    0.04    0.11
   3   4 -17   -0.04    0.11
  -3  -4  17   -0.07    0.10
  -3  -4  17    0.12    0.11
  -3  -4  17    0.05    0.09
   2   4 -17    0.39    0.13
  -2  -4  17    0.23    0.11
  -2  -4  17    0.26    0.13
  -2  -4  17    0.20    0.11
  -1  -4  17    0.51    0.15
  -1  -4  17    0.39    0.13
  -1  -4  17    0.28    0.10
   0  -4  17    0.05    0.12
   0  -4  17   -0.08    0.09
   0  -4  17    0.05    0.11
   1  -4  17    0.03    0.09
   1  -4  17    0.06    0.10
   1  -4  17    0.04    0.12
   6   3 -17    0.16    0.13
  -6  -3  17    0.05    0.10
   5   3 -17    0.05    0.12
  -5  -3  17    0.07    0.11
   4   3 -17   -0.17    0.10
  -4  -3  17   -0.11    0.09
  -4  -3  17    0.01    0.10
   3   3 -17    0.01    0.12
  -3  -3  17    0.14    0.12
  -3  -3  17    0.09    0.11
  -3  -3  17    0.00    0.11
  -2  -3  17    0.14    0.10
  -2  -3  17   -0.01    0.10
  -2  -3  17   -0.02    0.10
  -1  -3  17    0.17    0.12
  -1  -3  17    0.05    0.10
  -1  -3  17    0.15    0.11
   0  -3  17    0.20    0.13
   0  -3  17    0.14    0.12
   0  -3  17    0.09    0.10
  -6  -2  17    0.54    0.19
   5   2 -17    0.03    0.12
  -5  -2  17    0.02    0.10
   4   2 -17    0.06    0.12
  -4  -2  17    0.06    0.11
  -4  -2  17    0.12    0.11
  -4  -2  17    0.00    0.10
  -3  -2  17   -0.03    0.16
  -3  -2  17    0.03    0.10
  -3  -2  17    0.00    0.10
  -2  -2  17   -0.18    0.08
  -2  -2  17    0.05    0.15
  -2  -2  17    0.00    0.10
  -1  -2  17    0.12    0.12
  -2  -8  18    0.16    0.12
  -1  -8  18    0.08    0.11
   3   7 -18    0.05    0.13
  -3  -7  18    0.04    0.10
   2   7 -18    0.32    0.15
   2   7 -18    0.46    0.14
  -2  -7  18    0.63    0.15
   1   7 -18    0.49    0.14
   1   7 -18    0.19    0.15
  -1  -7  18    0.21    0.12
   3   6 -18    0.15    0.14
   3   6 -18   -0.18    0.13
  -3  -6  18    0.23    0.11
   2   6 -18    0.13    0.13
  -2  -6  18    0.17    0.11
  -1  -6  18    0.05    0.11
  -1  -6  18    0.05    0.10
  -3  -5  18   -0.03    0.10
  -2  -5  18    0.16    0.12
   0   0   0    0.00    0.00
;
_shelx_hkl_checksum              25902
_shelx_res_file
;
TITL  bny536cg
CELL  0.71073   8.8460   9.9951  11.2435  114.481   98.564  105.891
ZERR     2.00   0.0002   0.0002   0.0002    0.001    0.001    0.001
LATT   1
SFAC  C    H    N    O    S
UNIT  40 30 6 2 2
MERG   2
OMIT -2 60.0
FMAP   2
PLAN    5
SIZE     0.150   0.200   0.350
TEMP 23.0
ACTA
BOND   $H
CONF
HTAB
L.S.  20
TEMP    23.00
EXYZ C56 C66
EADP C56 C66
EADP S51 C63
EADP C52 C62
EADP C53 S61
EADP C54 C65
EADP C55 C64
WGHT    0.054300    0.185300
FVAR       0.22002   0.90051
N1    3    0.417902    0.804843    0.313534    11.00000    0.04359    0.03578 =
         0.04540    0.02388    0.01241    0.01628
C2    1    0.308618    0.674075    0.293129    11.00000    0.04615    0.03360 =
         0.03434    0.01831    0.01443    0.01900
N3    3    0.381345    0.586558    0.335944    11.00000    0.04550    0.03068 =
         0.04022    0.02048    0.01257    0.01545
C4    1    0.549878    0.669456    0.391063    11.00000    0.04724    0.03521 =
         0.03437    0.01892    0.01281    0.01751
O41   4    0.648688    0.627772    0.440596    11.00000    0.05336    0.04888 =
         0.05301    0.03268    0.01224    0.02398
C5    1    0.571256    0.811149    0.373552    11.00000    0.04559    0.03490 =
         0.03814    0.02036    0.01240    0.01706
C21   1    0.132124    0.629529    0.233742    11.00000    0.04347    0.04193 =
         0.03686    0.02248    0.01580    0.01895
C22   1    0.081362    0.751856    0.238426    11.00000    0.05359    0.04512 =
         0.04926    0.02242    0.01434    0.02446
AFIX  43
H22   2    0.158160    0.855016    0.280491    11.00000   -1.20000
AFIX   0
C23   1   -0.081420    0.720997    0.181291    11.00000    0.06026    0.07001 =
         0.06771    0.03878    0.02372    0.03941
AFIX  43
H23   2   -0.113906    0.803111    0.184553    11.00000   -1.20000
AFIX   0
C24   1   -0.196122    0.568624    0.119331    11.00000    0.04180    0.08986 =
         0.08084    0.05590    0.02107    0.02822
AFIX  43
H24   2   -0.306218    0.548061    0.081800    11.00000   -1.20000
AFIX   0
C25   1   -0.147560    0.446881    0.113051    11.00000    0.04474    0.06849 =
         0.08473    0.04937    0.01145    0.00916
AFIX  43
H25   2   -0.225074    0.343979    0.070247    11.00000   -1.20000
AFIX   0
C26   1    0.015577    0.476221    0.169858    11.00000    0.04653    0.04785 =
         0.06612    0.03481    0.01431    0.01568
AFIX  43
H26   2    0.047196    0.393223    0.165255    11.00000   -1.20000
AFIX   0
N31   3    0.298450    0.440830    0.326247    11.00000    0.05370    0.03173 =
         0.03836    0.02110    0.01715    0.01717
H31   2    0.323366    0.444836    0.406184    11.00000   -1.20000
C31   1    0.303555    0.306609    0.215294    11.00000    0.03942    0.03446 =
         0.03687    0.01853    0.00868    0.01560
C32   1    0.217717    0.158933    0.199146    11.00000    0.06693    0.03847 =
         0.05642    0.02456    0.02462    0.01646
AFIX  43
H32   2    0.165373    0.150424    0.262988    11.00000   -1.20000
AFIX   0
C33   1    0.209752    0.024090    0.088175    11.00000    0.08923    0.03494 =
         0.06525    0.01959    0.02113    0.01642
AFIX  43
H33   2    0.151130   -0.074960    0.077452    11.00000   -1.20000
AFIX   0
C34   1    0.287564    0.034435   -0.006873    11.00000    0.07998    0.04700 =
         0.04697    0.01017    0.01341    0.02913
AFIX  43
H34   2    0.282032   -0.056872   -0.081196    11.00000   -1.20000
AFIX   0
C35   1    0.372778    0.180066    0.009262    11.00000    0.06636    0.06063 =
         0.04356    0.01843    0.02124    0.02510
AFIX  43
H35   2    0.425963    0.187741   -0.054362    11.00000   -1.20000
AFIX   0
C36   1    0.381099    0.317141    0.119634    11.00000    0.05684    0.04413 =
         0.04476    0.02116    0.01954    0.01551
AFIX  43
H36   2    0.438728    0.415812    0.129157    11.00000   -1.20000
AFIX   0
PART -1
C56   1    0.716638    0.926647    0.406548    21.00000    0.04159    0.04028 =
         0.03958    0.02119    0.00954    0.01737
AFIX  43
H56   2    0.810096    0.916646    0.446231    21.00000   -1.20000
AFIX   0
S51   5    0.587018    1.116178    0.332721    21.00000    0.04788    0.04206 =
         0.04719    0.02545    0.01742    0.02402
C52   1    0.743057    1.063517    0.387136    21.00000    0.04141    0.03473 =
         0.03080    0.01458    0.01023    0.01413
C53   1    0.891625    1.171005    0.413222    21.00000    0.04071    0.04611 =
         0.05536    0.02410    0.00752   -0.00089
AFIX  43
H53   2    0.990192    1.163315    0.445745    21.00000   -1.20000
AFIX   0
C54   1    0.885194    1.296764    0.386976    21.00000    0.06048    0.03400 =
         0.05243    0.01904    0.01659    0.00672
AFIX  43
H54   2    0.977012    1.377778    0.397017    21.00000   -1.20000
AFIX   0
C55   1    0.727153    1.282979    0.345273    21.00000    0.06985    0.03230 =
         0.05267    0.02315    0.02335    0.02019
AFIX  43
H55   2    0.697782    1.355745    0.325619    21.00000   -1.20000
AFIX   0
PART 0
PART -2
SAME 0.005 0.01 C56 > C55
C66   1    0.716638    0.926647    0.406548   -21.00000    0.04159    0.04028 =
         0.03958    0.02119    0.00954    0.01737
AFIX  43
H66   2    0.811005    0.906941    0.428367   -21.00000   -1.20000
AFIX   0
S61   5    0.932696    1.189147    0.422501   -21.00000    0.04071    0.04611 =
         0.05536    0.02410    0.00752   -0.00089
C62   1    0.740570    1.075865    0.411426   -21.00000    0.04141    0.03473 =
         0.03080    0.01458    0.01023    0.01413
C63   1    0.624274    1.120417    0.365727   -21.00000    0.04788    0.04206 =
         0.04719    0.02545    0.01742    0.02402
AFIX  43
H63   2    0.512912    1.071443    0.352669   -21.00000   -1.20000
AFIX   0
C64   1    0.685810    1.248438    0.339114   -21.00000    0.06985    0.03230 =
         0.05267    0.02315    0.02335    0.02019
AFIX  43
H64   2    0.620946    1.284694    0.296592   -21.00000   -1.20000
AFIX   0
C65   1    0.853036    1.310619    0.384575   -21.00000    0.06048    0.03400 =
         0.05243    0.01904    0.01659    0.00672
AFIX  43
H65   2    0.916992    1.407475    0.394093   -21.00000   -1.20000
PART 0
AFIX   0
HKLF 4
REM   bny536cg
REM R1 =  0.0409 for    3747 Fo > 4sig(Fo)  and  0.0568 for all    4814 data
REM    245 parameters refined using     13 restraints
END
WGHT      0.0543      0.1854
REM Instructions for potential hydrogen bonds
EQIV $1 -x+1, -y+1, -z+1
HTAB N31 O41_$1
EQIV $2 x-1, y-1, z
HTAB C32 S61_$2
HTAB C63 N1
REM Highest difference peak  0.280,  deepest hole -0.258,  1-sigma level  0.039
Q1    1   0.3050  0.3022  0.1414  11.00000  0.05    0.28
Q2    1   0.2144  0.6572  0.2719  11.00000  0.05    0.27
Q3    1   0.5709  0.7616  0.3974  11.00000  0.05    0.25
Q4    1   0.6654  1.0739  0.3321  11.00000  0.05    0.25
Q5    1   0.8214  1.1167  0.4102  11.00000  0.05    0.24
;
_shelx_res_checksum              15274
_shelxl_version_number           2.014
loop_
_space_group_symop_operation_xyz
'x, y, z'
'-x, -y, -z'
loop_
_atom_site_type_symbol
_atom_site_label
_atom_site_fract_x
_atom_site_fract_y
_atom_site_fract_z
_atom_site_U_iso_or_equiv
_atom_site_adp_type
_atom_site_calc_flag
_atom_site_occupancy
_atom_site_disorder_assembly
_atom_site_disorder_group
N N1 0.41790(14) 0.80484(13) 0.31353(12) 0.0397(2) Uani d 1 . .
C C2 0.30862(16) 0.67408(14) 0.29313(12) 0.0360(3) Uani d 1 . .
N N3 0.38134(14) 0.58656(12) 0.33594(11) 0.0372(2) Uani d 1 . .
C C4 0.54988(17) 0.66946(15) 0.39106(13) 0.0375(3) Uani d 1 . .
O O41 0.64869(13) 0.62777(12) 0.44060(11) 0.0479(2) Uani d 1 . .
C C5 0.57126(17) 0.81115(15) 0.37355(13) 0.0380(3) Uani d 1 . .
C C21 0.13212(16) 0.62953(15) 0.23374(13) 0.0382(3) Uani d 1 . .
C C22 0.0814(2) 0.75186(18) 0.23843(15) 0.0481(3) Uani d 1 . .
H H22 0.1582 0.8550 0.2805 0.058 Uiso calc 1 . .
C C23 -0.0814(2) 0.7210(2) 0.18129(19) 0.0597(4) Uani d 1 . .
H H23 -0.1139 0.8031 0.1846 0.072 Uiso calc 1 . .
C C24 -0.1961(2) 0.5686(2) 0.1193(2) 0.0640(5) Uani d 1 . .
H H24 -0.3062 0.5481 0.0818 0.077 Uiso calc 1 . .
C C25 -0.1476(2) 0.4469(2) 0.1131(2) 0.0650(5) Uani d 1 . .
H H25 -0.2251 0.3440 0.0702 0.078 Uiso calc 1 . .
C C26 0.01558(19) 0.47622(19) 0.16986(17) 0.0514(4) Uani d 1 . .
H H26 0.0472 0.3932 0.1653 0.062 Uiso calc 1 . .
N N31 0.29845(15) 0.44083(12) 0.32625(12) 0.0389(2) Uani d 1 . .
H H31 0.3234(19) 0.4448(18) 0.4062(17) 0.047 Uiso d 1 . .
C C31 0.30355(16) 0.30661(14) 0.21529(13) 0.0363(3) Uani d 1 . .
C C32 0.2177(2) 0.15893(17) 0.19915(17) 0.0532(4) Uani d 1 . .
H H32 0.1654 0.1504 0.2630 0.064 Uiso calc 1 . .
C C33 0.2098(3) 0.02409(19) 0.08817(19) 0.0666(5) Uani d 1 . .
H H33 0.1511 -0.0750 0.0775 0.080 Uiso calc 1 . .
C C34 0.2876(2) 0.0344(2) -0.00687(17) 0.0620(4) Uani d 1 . .
H H34 0.2820 -0.0569 -0.0812 0.074 Uiso calc 1 . .
C C35 0.3728(2) 0.1801(2) 0.00926(16) 0.0584(4) Uani d 1 . .
H H35 0.4260 0.1877 -0.0544 0.070 Uiso calc 1 . .
C C36 0.3811(2) 0.31714(18) 0.11963(15) 0.0489(3) Uani d 1 . .
H H36 0.4387 0.4158 0.1292 0.059 Uiso calc 1 . .
C C56 0.7166(2) 0.92665(15) 0.40655(13) 0.0395(3) Uani d 0.9005(19) A -1
H H56 0.8101 0.9166 0.4462 0.047 Uiso calc 0.9005(19) A -1
S S51 0.58702(5) 1.11618(5) 0.33272(4) 0.0421(2) Uani d 0.9005(19) A -1
C C52 0.7431(2) 1.06352(18) 0.38714(19) 0.0361(4) Uani d 0.9005(19) A -1
C C53 0.8916(4) 1.1710(5) 0.4132(6) 0.0523(6) Uani d 0.9005(19) A -1
H H53 0.9902 1.1633 0.4457 0.063 Uiso calc 0.9005(19) A -1
C C54 0.8852(3) 1.2968(3) 0.3870(4) 0.0522(5) Uani d 0.9005(19) A -1
H H54 0.9770 1.3778 0.3970 0.063 Uiso calc 0.9005(19) A -1
C C55 0.7272(2) 1.2830(2) 0.3453(3) 0.0497(4) Uani d 0.9005(19) A -1
H H55 0.6978 1.3557 0.3256 0.060 Uiso calc 0.9005(19) A -1
C C66 0.7166(2) 0.92665(15) 0.40655(13) 0.0395(3) Uani d 0.0995(19) A -2
H H66 0.8110 0.9069 0.4284 0.047 Uiso calc 0.0995(19) A -2
S S61 0.9327(10) 1.1891(14) 0.4225(17) 0.0523(6) Uani d 0.0995(19) A -2
C C62 0.7406(13) 1.0759(15) 0.411(2) 0.0361(4) Uani d 0.0995(19) A -2
C C63 0.6243(15) 1.1204(18) 0.366(2) 0.04206(14) Uani d 0.0995(19) A -2
H H63 0.5129 1.0714 0.3527 0.050 Uiso calc 0.0995(19) A -2
C C64 0.6858(19) 1.248(2) 0.339(3) 0.0497(4) Uani d 0.0995(19) A -2
H H64 0.6209 1.2847 0.2966 0.060 Uiso calc 0.0995(19) A -2
C C65 0.8530(18) 1.311(3) 0.385(4) 0.0522(5) Uani d 0.0995(19) A -2
H H65 0.9170 1.4075 0.3941 0.063 Uiso calc 0.0995(19) A -2
loop_
_atom_site_aniso_label
_atom_site_aniso_U_11
_atom_site_aniso_U_22
_atom_site_aniso_U_33
_atom_site_aniso_U_12
_atom_site_aniso_U_13
_atom_site_aniso_U_23
N1 0.0436(6) 0.0358(5) 0.0454(6) 0.0163(5) 0.0124(5) 0.0239(5)
C2 0.0462(7) 0.0336(6) 0.0343(6) 0.0190(5) 0.0144(5) 0.0183(5)
N3 0.0455(6) 0.0307(5) 0.0402(5) 0.0155(4) 0.0126(5) 0.0205(4)
C4 0.0472(7) 0.0352(6) 0.0344(6) 0.0175(6) 0.0128(5) 0.0189(5)
O41 0.0534(6) 0.0489(6) 0.0530(6) 0.0240(5) 0.0122(5) 0.0327(5)
C5 0.0456(7) 0.0349(6) 0.0381(6) 0.0171(5) 0.0124(5) 0.0204(5)
C21 0.0435(7) 0.0419(7) 0.0369(6) 0.0189(6) 0.0158(5) 0.0225(5)
C22 0.0536(8) 0.0451(8) 0.0493(8) 0.0245(7) 0.0143(6) 0.0224(6)
C23 0.0603(10) 0.0700(11) 0.0677(10) 0.0394(9) 0.0237(8) 0.0388(9)
C24 0.0418(8) 0.0899(13) 0.0808(12) 0.0282(9) 0.0211(8) 0.0559(11)
C25 0.0447(9) 0.0685(11) 0.0847(13) 0.0092(8) 0.0114(8) 0.0494(10)
C26 0.0465(8) 0.0478(8) 0.0661(10) 0.0157(7) 0.0143(7) 0.0348(7)
N31 0.0537(7) 0.0317(5) 0.0384(6) 0.0172(5) 0.0171(5) 0.0211(5)
C31 0.0394(7) 0.0345(6) 0.0369(6) 0.0156(5) 0.0087(5) 0.0185(5)
C32 0.0669(10) 0.0385(7) 0.0564(9) 0.0165(7) 0.0246(8) 0.0246(7)
C33 0.0892(13) 0.0349(8) 0.0653(11) 0.0164(8) 0.0211(10) 0.0196(7)
C34 0.0800(12) 0.0470(9) 0.0470(8) 0.0291(9) 0.0134(8) 0.0102(7)
C35 0.0664(10) 0.0606(10) 0.0436(8) 0.0251(8) 0.0212(7) 0.0184(7)
C36 0.0568(9) 0.0441(7) 0.0448(7) 0.0155(7) 0.0195(7) 0.0212(6)
C56 0.0416(7) 0.0403(7) 0.0396(6) 0.0174(6) 0.0095(5) 0.0212(5)
S51 0.0479(3) 0.0421(2) 0.0472(3) 0.02402(18) 0.01742(19) 0.02545(19)
C52 0.0414(7) 0.0347(7) 0.0308(10) 0.0141(5) 0.0102(6) 0.0146(7)
C53 0.0407(17) 0.0461(13) 0.0554(12) -0.0009(13) 0.0075(18) 0.0241(12)
C54 0.0605(12) 0.0340(8) 0.0524(9) 0.0067(8) 0.0166(11) 0.0190(7)
C55 0.0698(14) 0.0323(11) 0.0527(9) 0.0202(10) 0.0234(11) 0.0232(10)
C66 0.0416(7) 0.0403(7) 0.0396(6) 0.0174(6) 0.0095(5) 0.0212(5)
S61 0.0407(17) 0.0461(13) 0.0554(12) -0.0009(13) 0.0075(18) 0.0241(12)
C62 0.0414(7) 0.0347(7) 0.0308(10) 0.0141(5) 0.0102(6) 0.0146(7)
C63 0.0479(3) 0.0421(2) 0.0472(3) 0.02402(18) 0.01742(19) 0.02545(19)
C64 0.0698(14) 0.0323(11) 0.0527(9) 0.0202(10) 0.0234(11) 0.0232(10)
C65 0.0605(12) 0.0340(8) 0.0524(9) 0.0067(8) 0.0166(11) 0.0190(7)
loop_
_atom_type_symbol
_atom_type_description
_atom_type_scat_dispersion_real
_atom_type_scat_dispersion_imag
_atom_type_scat_source
C C 0.0033 0.0016 'International Tables Vol C Tables 4.2.6.8 and 6.1.1.4'
H H 0.0000 0.0000 'International Tables Vol C Tables 4.2.6.8 and 6.1.1.4'
N N 0.0061 0.0033 'International Tables Vol C Tables 4.2.6.8 and 6.1.1.4'
O O 0.0106 0.0060 'International Tables Vol C Tables 4.2.6.8 and 6.1.1.4'
S S 0.1246 0.1234 'International Tables Vol C Tables 4.2.6.8 and 6.1.1.4'
loop_
_geom_angle_atom_site_label_1
_geom_angle_atom_site_label_2
_geom_angle_atom_site_label_3
_geom_angle
C2 N1 C5 107.05(10)
N1 C2 N3 111.80(11)
N1 C2 C21 122.21(11)
N3 C2 C21 125.98(11)
C4 N3 N31 125.00(10)
C4 N3 C2 109.11(10)
N31 N3 C2 125.89(11)
O41 C4 N3 125.65(12)
O41 C4 C5 131.83(13)
N3 C4 C5 102.52(10)
C56 C5 N1 125.10(11)
C56 C5 C4 125.38(12)
N1 C5 C4 109.49(11)
C26 C21 C22 118.77(13)
C26 C21 C2 124.94(12)
C22 C21 C2 116.25(12)
C23 C22 C21 120.60(15)
C23 C22 H22 119.7
C21 C22 H22 119.7
C24 C23 C22 120.07(15)
C24 C23 H23 120.0
C22 C23 H23 120.0
C25 C24 C23 119.91(16)
C25 C24 H24 120.0
C23 C24 H24 120.0
C24 C25 C26 120.59(17)
C24 C25 H25 119.7
C26 C25 H25 119.7
C25 C26 C21 120.05(15)
C25 C26 H26 120.0
C21 C26 H26 120.0
N3 N31 C31 115.70(10)
N3 N31 H31 110.4(11)
C31 N31 H31 115.2(10)
C32 C31 C36 119.27(13)
C32 C31 N31 117.51(12)
C36 C31 N31 123.09(12)
C33 C32 C31 119.96(15)
C33 C32 H32 120.0
C31 C32 H32 120.0
C34 C33 C32 120.83(16)
C34 C33 H33 119.6
C32 C33 H33 119.6
C35 C34 C33 119.25(15)
C35 C34 H34 120.4
C33 C34 H34 120.4
C34 C35 C36 120.79(15)
C34 C35 H35 119.6
C36 C35 H35 119.6
C31 C36 C35 119.90(14)
C31 C36 H36 120.1
C35 C36 H36 120.1
C5 C56 C52 127.09(14)
C5 C56 H56 116.5
C52 C56 H56 116.5
C55 S51 C52 91.26(9)
C53 C52 C56 125.2(2)
C53 C52 S51 110.74(19)
C56 C52 S51 124.05(13)
C52 C53 C54 114.5(3)
C52 C53 H53 122.8
C54 C53 H53 122.8
C55 C54 C53 110.88(18)
C55 C54 H54 124.6
C53 C54 H54 124.6
C54 C55 S51 112.60(14)
C54 C55 H55 123.7
S51 C55 H55 123.7
C62 S61 C65 90.7(4)
C63 C62 S61 111.1(5)
C62 C63 C64 114.2(6)
C62 C63 H63 122.9
C64 C63 H63 122.9
C65 C64 C63 110.3(6)
C65 C64 H64 124.9
C63 C64 H64 124.9
C64 C65 S61 112.1(6)
C64 C65 H65 124.0
S61 C65 H65 124.0
loop_
_geom_bond_atom_site_label_1
_geom_bond_atom_site_label_2
_geom_bond_distance
N1 C2 1.2996(16)
N1 C5 1.3946(17)
C2 N3 1.4056(15)
C2 C21 1.4643(19)
N3 C4 1.3842(18)
N3 N31 1.3895(14)
C4 O41 1.2225(15)
C4 C5 1.4750(17)
C5 C56 1.3469(19)
C21 C26 1.389(2)
C21 C22 1.3977(18)
C22 C23 1.378(2)
C22 H22 0.9300
C23 C24 1.378(3)
C23 H23 0.9300
C24 C25 1.376(3)
C24 H24 0.9300
C25 C26 1.384(2)
C25 H25 0.9300
C26 H26 0.9300
N31 C31 1.4216(16)
N31 H31 0.874(17)
C31 C32 1.3825(19)
C31 C36 1.3829(19)
C32 C33 1.381(2)
C32 H32 0.9300
C33 C34 1.378(3)
C33 H33 0.9300
C34 C35 1.364(2)
C34 H34 0.9300
C35 C36 1.390(2)
C35 H35 0.9300
C36 H36 0.9300
C56 C52 1.4357(18)
C56 H56 0.9300
S51 C55 1.7197(17)
S51 C52 1.7233(18)
C52 C53 1.348(3)
C53 C54 1.418(4)
C53 H53 0.9300
C54 C55 1.356(3)
C54 H54 0.9300
C55 H55 0.9300
S61 C62 1.718(5)
S61 C65 1.721(5)
C62 C63 1.343(6)
C63 C64 1.417(6)
C63 H63 0.9300
C64 C65 1.358(5)
C64 H64 0.9300
C65 H65 0.9300
loop_
_geom_hbond_atom_site_label_D
_geom_hbond_atom_site_label_H
_geom_hbond_atom_site_label_A
_geom_hbond_site_symmetry_A
_geom_hbond_distance_DH
_geom_hbond_distance_HA
_geom_hbond_distance_DA
_geom_hbond_angle_DHA
_geom_hbond_publ_flag
N31 H31 O41 2_666 0.875(17) 2.136(18) 2.9767(17) 161.1(17) no
C34 H34 Cg1 2_665 0.93 2.90 3.654(2) 140 no
loop_
_geom_torsion_atom_site_label_1
_geom_torsion_atom_site_label_2
_geom_torsion_atom_site_label_3
_geom_torsion_atom_site_label_4
_geom_torsion
C5 N1 C2 N3 -0.68(14)
C5 N1 C2 C21 178.68(11)
N1 C2 N3 C4 1.54(14)
C21 C2 N3 C4 -177.79(11)
N1 C2 N3 N31 -179.04(11)
C21 C2 N3 N31 1.63(19)
N31 N3 C4 O41 -1.2(2)
C2 N3 C4 O41 178.22(12)
N31 N3 C4 C5 178.98(11)
C2 N3 C4 C5 -1.59(13)
C2 N1 C5 C56 177.83(13)
C2 N1 C5 C4 -0.36(14)
O41 C4 C5 C56 3.2(2)
N3 C4 C5 C56 -176.96(12)
O41 C4 C5 N1 -178.57(13)
N3 C4 C5 N1 1.22(13)
N1 C2 C21 C26 158.56(14)
N3 C2 C21 C26 -22.2(2)
N1 C2 C21 C22 -18.88(18)
N3 C2 C21 C22 160.39(12)
C26 C21 C22 C23 0.3(2)
C2 C21 C22 C23 177.91(13)
C21 C22 C23 C24 0.3(2)
C22 C23 C24 C25 -0.8(3)
C23 C24 C25 C26 0.7(3)
C24 C25 C26 C21 -0.1(3)
C22 C21 C26 C25 -0.4(2)
C2 C21 C26 C25 -177.77(14)
C4 N3 N31 C31 -79.88(15)
C2 N3 N31 C31 100.78(14)
N3 N31 C31 C32 -177.77(12)
N3 N31 C31 C36 -1.85(19)
C36 C31 C32 C33 -0.2(2)
N31 C31 C32 C33 175.89(15)
C31 C32 C33 C34 0.5(3)
C32 C33 C34 C35 -0.2(3)
C33 C34 C35 C36 -0.3(3)
C32 C31 C36 C35 -0.3(2)
N31 C31 C36 C35 -176.19(14)
C34 C35 C36 C31 0.6(3)
N1 C5 C56 C52 -0.1(2)
C4 C5 C56 C52 177.85(14)
C5 C56 C52 C53 -175.3(3)
C5 C56 C52 S51 7.2(2)
C55 S51 C52 C53 0.4(3)
C55 S51 C52 C56 178.24(17)
C56 C52 C53 C54 -179.4(3)
S51 C52 C53 C54 -1.6(5)
C52 C53 C54 C55 2.3(6)
C53 C54 C55 S51 -1.9(4)
C52 S51 C55 C54 0.9(2)
C65 S61 C62 C63 7(2)
S61 C62 C63 C64 -1(3)
C62 C63 C64 C65 -8(3)
C63 C64 C65 S61 13(4)
C62 S61 C65 C64 -12(3)

_cod_database_fobs_code 2020069
