#------------------------------------------------------------------------------
#$Date: 2017-07-22 08:20:02 +0300 (Sat, 22 Jul 2017) $
#$Revision: 198914 $
#$URL: file:///home/coder/svn-repositories/cod/cif/2/02/07/2020758.cif $
#------------------------------------------------------------------------------
#
# This file is available in the Crystallography Open Database (COD),
# http://www.crystallography.net/. The original data for this entry
# were provided by IUCr Journals, http://journals.iucr.org/.
#
# The file may be used within the scientific community so long as
# proper attribution is given to the journal article from which the
# data were obtained.
#
data_2020758
loop_
_publ_author_name
'Wong, Lawrence W.-Y.'
'Kan, Jack W.-H.'
'Sung, Herman H.-Y.'
'Williams, Ian D.'
_publ_section_title
;
 Chiral bis(mandelato)borate salts for resolution <i>via</i> metathesis
 crystallization
;
_journal_coeditor_code           FM3050
_journal_issue                   8
_journal_name_full               'Acta Crystallographica Section C'
_journal_page_first
;
;
_journal_paper_doi               10.1107/S2053229617009718
_journal_volume                  73
_journal_year                    2017
_chemical_formula_iupac          '[Li (C16 H12 B O6) (H2 O1)]'
_chemical_formula_moiety         'Li +, C16 H12 B O6 -, H2 O1'
_chemical_formula_sum            'C16 H14 B Li O7'
_chemical_formula_weight         336.02
_chemical_name_systematic
;
Poly[[aqua-\m~3~-bis[(<i>R</i>)-mandelato]borato-lithium(I)] monohydrate]
;
_space_group_crystal_system      monoclinic
_space_group_IT_number           4
_space_group_name_Hall           'P 2yb'
_space_group_name_H-M_alt        'P 1 21 1'
_symmetry_space_group_name_Hall  'P 2yb'
_symmetry_space_group_name_H-M   'P 1 21 1'
_atom_sites_solution_hydrogens   mixed
_atom_sites_solution_primary     direct
_audit_creation_method
;
Olex2 1.2
(compiled 2017.03.28 svn.r3405 for OlexSys, GUI svn.r5337)
;
_cell_angle_alpha                90
_cell_angle_beta                 93.900(2)
_cell_angle_gamma                90
_cell_formula_units_Z            2
_cell_length_a                   6.55920(10)
_cell_length_b                   9.1328(2)
_cell_length_c                   13.7163(3)
_cell_measurement_reflns_used    4712
_cell_measurement_temperature    173(2)
_cell_measurement_theta_max      71.4507
_cell_measurement_theta_min      4.8072
_cell_volume                     819.76(3)
_computing_cell_refinement
;
CrysAlis PRO (Oxford Diffraction, 2009)
;
_computing_data_collection
;
CrysAlis PRO (Oxford Diffraction, 2009)
;
_computing_data_reduction
;
CrysAlis PRO (Oxford Diffraction, 2009)
;
_computing_molecular_graphics
;
OLEX2 (Dolomanov <i>et al.</i>,  2009)
;
_computing_publication_material
;
OLEX2 (Dolomanov <i>et al.</i>,  2009)
;
_computing_structure_refinement
;
SHELXL2014 (Sheldrick, 2015)
;
_computing_structure_solution
;
SHELXS97 (Sheldrick, 2008)
;
_diffrn_ambient_temperature      173.15
_diffrn_detector_area_resol_mean 15.9578
_diffrn_measured_fraction_theta_full 0.997
_diffrn_measured_fraction_theta_max 0.983
_diffrn_measurement_device       'kappa diffractometer'
_diffrn_measurement_device_type
'Oxford Diffraction Xcalibur Sapphire3 Gemini ultra'
_diffrn_measurement_method       '\w scans'
_diffrn_radiation_monochromator  mirror
_diffrn_radiation_type           CuK\a
_diffrn_radiation_wavelength     1.54178
_diffrn_reflns_av_R_equivalents  0.0163
_diffrn_reflns_limit_h_max       7
_diffrn_reflns_limit_h_min       -8
_diffrn_reflns_limit_k_max       11
_diffrn_reflns_limit_k_min       -11
_diffrn_reflns_limit_l_max       16
_diffrn_reflns_limit_l_min       -16
_diffrn_reflns_number            5234
_diffrn_reflns_theta_full        67.500
_diffrn_reflns_theta_max         71.450
_diffrn_reflns_theta_min         5.824
_exptl_absorpt_coefficient_mu    0.884
_exptl_absorpt_correction_T_max  1.00000
_exptl_absorpt_correction_T_min  0.93284
_exptl_absorpt_correction_type   multi-scan
_exptl_absorpt_process_details
;
(CrysAlis PRO; Oxford Diffraction, 2009)
;
_exptl_crystal_colour            colourless
_exptl_crystal_density_diffrn    1.361
_exptl_crystal_description       plate
_exptl_crystal_F_000             348
_exptl_crystal_size_max          0.3
_exptl_crystal_size_mid          0.12
_exptl_crystal_size_min          0.04
_refine_diff_density_max         0.195
_refine_diff_density_min         -0.156
_refine_ls_abs_structure_details
;
Flack <i>x</i> determined using 1336 quotients [(I+)-(I-)]/[(I+)+(I-)]
(Parsons <i>et al.</i>,  2013)
;
_refine_ls_abs_structure_Flack   0.00(12)
_refine_ls_extinction_method     none
_refine_ls_goodness_of_fit_ref   1.063
_refine_ls_hydrogen_treatment    mixed
_refine_ls_matrix_type           full
_refine_ls_number_parameters     234
_refine_ls_number_reflns         3072
_refine_ls_number_restraints     1
_refine_ls_restrained_S_all      1.063
_refine_ls_R_factor_all          0.0311
_refine_ls_R_factor_gt           0.0304
_refine_ls_shift/su_max          0.000
_refine_ls_shift/su_mean         0.000
_refine_ls_structure_factor_coef Fsqd
_refine_ls_weighting_details
'w=1/[\s^2^(Fo^2^)+(0.0540P)^2^+0.0790P] where P=(Fo^2^+2Fc^2^)/3'
_refine_ls_weighting_scheme      calc
_refine_ls_wR_factor_gt          0.0812
_refine_ls_wR_factor_ref         0.0819
_reflns_number_gt                2973
_reflns_number_total             3072
_reflns_threshold_expression     'I > 2\s(I)'
_cod_data_source_file            fm3050sup1.cif
_cod_data_source_block           jack323a
_cod_database_code               2020758
_shelx_space_group_comment
;
The symmetry employed for this shelxl refinement is uniquely defined
by the following loop, which should always be used as a source of
symmetry information in preference to the above space-group names.
They are only intended as comments.
;
_shelx_hkl_file
;
   0 -10   1    0.07    0.03
   0 -10   2    0.52    0.05
   0 -10   3    1.27    0.07
   0 -10   4    0.50    0.06
   0 -10   5    1.21    0.07
   0 -10   6    0.87    0.06
   0 -10   7    0.07    0.04
   0  -9   0    0.02    0.04
   0  -9   1    8.60    0.19
   0  -9   6    3.01    0.12
   0  -9   7   17.06    0.24
   0  -9   8    9.16    0.14
   0  -9   8    9.04    0.16
   0  -9   9    1.50    0.06
   0  -9   9    1.60    0.07
   0  -8   0   10.56    0.19
   0  -8  -1    0.49    0.05
   0  -8   1    0.57    0.06
   0  -8   2    0.38    0.06
   0  -8   3    4.08    0.14
   0  -8   4    7.58    0.19
   0  -8   5    7.98    0.20
   0  -8   6    8.05    0.17
   0  -8   6    8.30    0.20
   0  -8   7    8.22    0.18
   0  -8   7    7.90    0.19
   0  -8   8    0.03    0.06
   0  -8   8    0.02    0.04
   0  -8   9    0.48    0.05
   0  -8   9    0.54    0.07
   0  -8  10    0.50    0.06
   0  -8  10    0.49    0.05
   0  -8  11    1.02    0.06
   0  -7   0    0.10    0.12
   0  -7   0    0.01    0.03
   0  -7   1   16.36    0.24
   0  -7  -1   17.26    0.24
   0  -7   2    6.45    0.15
   0  -7  -2    6.53    0.15
   0  -7   3   10.11    0.21
   0  -7   4   13.69    0.25
   0  -7   5   25.37    0.34
   0  -7   5   24.95    0.30
   0  -7   6    9.34    0.19
   0  -7   6    9.22    0.21
   0  -7   7   17.19    0.27
   0  -7   7   16.95    0.28
   0  -7   8    7.71    0.19
   0  -7   8    7.38    0.18
   0  -7   8    7.35    0.18
   0  -7   8    7.48    0.19
   0  -7   9    4.16    0.14
   0  -7   9    4.51    0.14
   0  -7  10    5.17    0.14
   0  -7  10    4.91    0.13
   0  -7  11    2.79    0.10
   0  -7  12    4.60    0.11
   0  -7  13    0.07    0.03
   0  -6   0   63.67    0.41
   0  -6   0   64.86    0.91
   0  -6   1   49.65    0.37
   0  -6  -1   51.29    0.37
   0  -6   1   49.69    0.84
   0  -6   2    3.47    0.25
   0  -6   2    3.53    0.11
   0  -6   3   12.68    0.46
   0  -6   3   12.79    0.20
   0  -6   4   26.40    0.68
   0  -6   4   26.89    0.32
   0  -6   5   22.02    0.30
   0  -6   5   22.01    0.64
   0  -6   6   57.18    0.46
   0  -6   6   54.91    0.48
   0  -6   7   24.65    0.32
   0  -6   7   24.18    0.33
   0  -6   8    5.54    0.16
   0  -6   8    5.42    0.16
   0  -6   8    5.27    0.16
   0  -6   9   11.39    0.23
   0  -6   9   11.34    0.22
   0  -6   9   11.26    0.23
   0  -6  10    1.98    0.10
   0  -6  10    1.99    0.10
   0  -6  10    1.87    0.10
   0  -6  11    4.21    0.14
   0  -6  12   10.05    0.19
   0  -6  13    0.89    0.06
   0  -6  14    0.39    0.04
   0  -5   0    0.25    0.07
   0  -5   1   27.27    0.56
   0  -5  -1   28.22    0.51
   0  -5  -2   13.27    0.33
   0  -5   2   12.67    0.17
   0  -5   2   12.46    0.39
   0  -5   3   29.36    0.63
   0  -5   3   29.23    0.27
   0  -5   4    9.53    0.17
   0  -5   4    9.41    0.38
   0  -5   5    4.93    0.29
   0  -5   5    4.77    0.13
   0  -5   6   13.77    0.23
   0  -5   6   13.93    0.48
   0  -5   7    0.79    0.07
   0  -5   7    0.73    0.14
   0  -5   8   12.10    0.23
   0  -5   8   12.20    0.22
   0  -5   8   12.33    0.23
   0  -5   9    1.63    0.10
   0  -5   9    1.70    0.10
   0  -5   9    1.65    0.10
   0  -5  10    1.74    0.10
   0  -5  10    1.72    0.10
   0  -5  11    5.11    0.15
   0  -5  11    5.22    0.15
   0  -5  11    5.33    0.15
   0  -5  12    4.10    0.14
   0  -5  12    4.22    0.13
   0  -5  13    1.37    0.08
   0  -5  13    1.50    0.07
   0  -5  14    0.85    0.05
   0  -5  14    0.85    0.06
   0  -4   0  205.00    1.26
   0  -4   1  124.24    1.77
   0  -4   1  122.87    1.04
   0  -4   2   67.04    0.81
   0  -4   2   66.21    0.34
   0  -4   3    9.72    0.33
   0  -4   3   10.20    0.14
   0  -4   4   13.32    0.40
   0  -4   4   13.22    0.18
   0  -4   5    8.28    0.33
   0  -4   5    8.23    0.15
   0  -4   6   10.85    0.39
   0  -4   6   10.72    0.18
   0  -4   7    9.17    0.18
   0  -4   7    9.51    0.37
   0  -4   8   19.24    0.54
   0  -4   8   19.85    0.27
   0  -4   8   18.62    0.27
   0  -4   9   17.24    0.26
   0  -4   9   17.54    0.27
   0  -4  10    2.44    0.11
   0  -4  10    2.45    0.11
   0  -4  10    2.52    0.11
   0  -4  11    4.76    0.14
   0  -4  11    4.55    0.15
   0  -4  11    4.91    0.15
   0  -4  12    5.35    0.15
   0  -4  12    5.21    0.16
   0  -4  12    4.84    0.15
   0  -4  13    5.77    0.15
   0  -4  13    5.61    0.15
   0  -4  14    0.26    0.05
   0  -4  14    0.29    0.05
   0  -4  15    0.50    0.04
   0  -4  15    0.40    0.04
   0  -3   0    0.16    0.05
   0  -3   1  133.08    0.92
   0  -3  -1  135.61    0.81
   0  -3  -2  105.59    0.65
   0  -3   2  103.48    1.43
   0  -3   3    3.36    0.07
   0  -3   3    3.08    0.17
   0  -3  -3    3.33    0.11
   0  -3   4   61.79    0.33
   0  -3   4   60.00    0.74
   0  -3   5   59.79    0.35
   0  -3   5   58.57    0.77
   0  -3   6   10.04    0.34
   0  -3   6    9.62    0.16
   0  -3   7   42.37    0.35
   0  -3   7   41.93    0.34
   0  -3   8   47.45    0.40
   0  -3   8   50.82    0.79
   0  -3   9    5.26    0.14
   0  -3  10   17.07    0.26
   0  -3  10   16.58    0.25
   0  -3  10   17.34    0.27
   0  -3  11    1.28    0.09
   0  -3  11    1.39    0.09
   0  -3  11    1.34    0.09
   0  -3  12   14.11    0.24
   0  -3  12   13.54    0.24
   0  -3  12   13.69    0.26
   0  -3  13   14.63    0.24
   0  -3  13   14.61    0.26
   0  -3  14    0.43    0.05
   0  -3  14    0.47    0.06
   0  -3  15    0.58    0.05
   0  -3  15    0.61    0.06
   0  -2   0  606.52    5.90
   0  -2  -1  382.00    4.20
   0  -2   1  356.03    4.91
   0  -2  -2   47.69    0.33
   0  -2  -3  216.44    2.40
   0  -2   3  211.32    2.75
   0  -2   4   94.72    0.60
   0  -2   4   97.71    1.45
   0  -2   5  111.53    0.79
   0  -2   5  110.45    0.91
   0  -2   6   17.54    0.20
   0  -2   6   18.32    0.19
   0  -2   6   18.49    0.40
   0  -2   7   19.41    0.22
   0  -2   7   20.98    0.44
   0  -2   8    0.07    0.04
   0  -2   9   52.03    0.40
   0  -2  10    7.89    0.17
   0  -2  11    0.50    0.06
   0  -2  11    0.47    0.06
   0  -2  11    0.49    0.07
   0  -2  11    0.42    0.06
   0  -2  12    2.93    0.11
   0  -2  12    2.97    0.13
   0  -2  12    2.91    0.12
   0  -2  12    3.19    0.12
   0  -2  13    1.86    0.09
   0  -2  13    1.66    0.10
   0  -2  13    1.98    0.09
   0  -2  14    0.06    0.05
   0  -2  14    0.05    0.04
   0  -2  15    0.26    0.04
   0  -2  15    0.26    0.05
   0  -2  16    0.60    0.05
   0  -1   0    0.03    0.02
   0  -1  -1   38.91    0.21
   0  -1   2    1.05    0.05
   0  -1  -2    1.09    0.03
   0  -1   3  183.51    3.19
   0  -1   4    9.13    0.22
   0  -1   5   15.58    0.33
   0  -1   5   15.55    0.15
   0  -1   6   10.65    0.31
   0  -1   6   10.79    0.26
   0  -1   6   10.17    0.14
   0  -1   7    3.08    0.19
   0  -1   7    3.20    0.09
   0  -1   8   36.27    0.30
   0  -1   8   35.46    0.69
   0  -1   9    2.69    0.21
   0  -1   9    2.87    0.10
   0  -1  10    4.81    0.13
   0  -1  11   11.68    0.20
   0  -1  11   11.65    0.23
   0  -1  11   11.66    0.22
   0  -1  12   30.72    0.38
   0  -1  12   30.97    0.36
   0  -1  13    4.41    0.14
   0  -1  13    4.43    0.15
   0  -1  14    5.70    0.15
   0  -1  14    5.50    0.16
   0  -1  15    0.91    0.07
   0  -1  15    1.09    0.07
   0  -1  16    0.21    0.04
   0  -1  16    0.23    0.04
   0   0   2    4.85    0.12
   0   0   3   71.55    0.56
   0   0   4    6.81    0.21
   0   0   5    5.20    0.08
   0   0   5    4.70    0.20
   0   0   6  260.68    2.51
   0   0   6  251.60    1.59
   0   0   7   -0.04    0.07
   0   0   7    0.02    0.03
   0   0   8    0.19    0.08
   0   0   8    0.14    0.03
   0   0   9    0.75    0.13
   0   0   9    0.76    0.06
   0   0  10    0.09    0.13
   0   0  11    2.63    0.11
   0   0  11    2.66    0.11
   0   0  12   35.91    0.40
   0   0  12   36.67    0.41
   0   0  13   30.53    0.37
   0   0  13   30.20    0.37
   0   0  14    1.64    0.09
   0   0  14    1.76    0.10
   0   0  15    9.15    0.18
   0   0  15    9.45    0.18
   0   0  16    3.74    0.10
   0   1   0    0.01    0.02
   0   1   1   37.38    0.26
   0   1   1   37.06    0.29
   0   1   2    1.10    0.06
   0   1   2    1.16    0.07
   0   1   3  180.58    0.99
   0   1   4    9.38    0.26
   0   1   5   14.96    0.37
   0   1   5   14.25    0.13
   0   1   6   10.04    0.34
   0   1   7    3.03    0.21
   0   1   8   35.60    0.76
   0   1   9    2.58    0.23
   0   1  10    5.26    0.35
   0   1  11   11.34    0.21
   0   1  11   11.96    0.23
   0   1  12   30.85    0.36
   0   1  12   30.68    0.38
   0   1  13    4.48    0.15
   0   1  13    4.48    0.14
   0   1  14    5.71    0.15
   0   1  14    5.58    0.16
   0   1  15    1.08    0.07
   0   1  15    0.92    0.07
   0   1  16    0.20    0.04
   0   2   0  635.33    3.99
   0   2   0  610.50    5.84
   0   2   1  355.14    4.23
   0   2   1  366.54    4.42
   0   2   2   49.09    0.48
   0   2   2   45.20    0.41
   0   2   3  204.80    1.16
   0   2   3  208.96    3.92
   0   2   4   90.23    0.87
   0   2   4   91.66    0.73
   0   2   5  107.74    1.05
   0   2   6   18.11    0.49
   0   2   7   20.48    0.56
   0   2   8    0.02    0.10
   0   2   9   54.95    1.07
   0   2  10    8.31    0.45
   0   2  11    0.45    0.07
   0   2  12    2.95    0.13
   0   2  13    1.81    0.10
   0   2  14    0.06    0.05
   0   2  15    0.28    0.05
   0   2  16    0.55    0.05
   0   3   0    0.01    0.02
   0   3   0    0.00    0.05
   0   3   1  136.23    0.74
   0   3   1  137.09    0.84
   0   3   2   99.93    0.73
   0   3   2  100.28    0.76
   0   3   3    3.47    0.17
   0   3   3    3.15    0.14
   0   3   4   60.17    0.77
   0   3   4   59.70    0.65
   0   3   5   60.54    0.71
   0   3   5   61.19    0.86
   0   3   6    9.81    0.38
   0   3   7   43.06    0.86
   0   3   8   49.92    1.00
   0   3   9    5.62    0.37
   0   3  10   17.41    0.27
   0   3  11    1.40    0.09
   0   3 -12   15.66    0.24
   0   3  12   13.92    0.25
   0   3  13   14.95    0.26
   0   3  14    0.42    0.06
   0   3  15    0.67    0.06
   0   3  16    4.80    0.09
   0   4   0  204.73    1.26
   0   4   1  127.54    0.97
   0   4  -1  129.18    1.03
   0   4   2   69.78    0.72
   0   4   2   70.43    0.69
   0   4   3   10.41    0.31
   0   4   3   10.39    0.29
   0   4   4   14.33    0.36
   0   4   4   13.88    0.40
   0   4   5    8.34    0.35
   0   4   5    8.25    0.29
   0   4   6   11.16    0.43
   0   4   7    9.65    0.43
   0   4   8   19.96    0.66
   0   4   9   17.86    0.28
   0   4 -10    2.48    0.11
   0   4  10    2.45    0.11
   0   4 -11    5.12    0.14
   0   4  11    4.96    0.15
   0   4 -12    5.14    0.14
   0   4  12    5.26    0.15
   0   4  13    5.97    0.15
   0   4  14    0.27    0.05
   0   4 -15    0.52    0.05
   0   4  15    0.50    0.04
   0   5   0   -0.01    0.07
   0   5   1   27.87    0.53
   0   5  -1   28.86    0.56
   0   5   2   12.87    0.36
   0   5  -2   13.77    0.41
   0   5   3   31.59    0.57
   0   5   4   10.23    0.34
   0   5   5    5.41    0.27
   0   5   6   14.33    0.50
   0   5   6   14.34    0.44
   0   5   7    0.60    0.17
   0   5  -8   12.39    0.22
   0   5  -9    1.63    0.09
   0   5 -10    1.81    0.09
   0   5 -11    5.37    0.15
   0   5 -12    4.32    0.12
   0   5 -13    1.39    0.08
   0   5 -14    0.89    0.06
   0   6   0   67.19    0.93
   0   6  -1   51.57    0.84
   0   6   1   51.43    0.80
   0   6   2    3.62    0.23
   0   6  -2    3.66    0.24
   0   6   3   12.91    0.41
   0   6  -3   14.09    0.47
   0   6  -4   29.07    0.70
   0   6   4   28.44    0.61
   0   6  -5   23.24    0.65
   0   6   5   22.39    0.56
   0   6  -6   63.18    0.49
   0   6  -6   63.77    0.50
   0   6  -7   25.42    0.32
   0   6  -7   26.42    0.34
   0   6  -8    5.68    0.16
   0   6  -8    5.36    0.16
   0   6  -9   11.49    0.23
   0   6  -9   11.68    0.22
   0   6 -10    2.07    0.10
   0   6 -10    1.84    0.10
   0   6 -11    4.29    0.12
   0   6 -11    4.32    0.14
   0   6 -12   10.05    0.19
   0   6 -13    0.91    0.06
   0   6 -14    0.33    0.03
   0   7   0    0.02    0.11
   0   7   1   16.64    0.50
   0   7  -1   16.48    0.51
   0   7   2    6.43    0.16
   0   7  -2    5.91    0.33
   0   7   2    5.95    0.30
   0   7  -3   11.80    0.22
   0   7   3   11.90    0.22
   0   7  -3   11.71    0.22
   0   7  -4   15.80    0.26
   0   7  -4   15.92    0.25
   0   7   4   16.60    0.26
   0   7  -5   28.52    0.35
   0   7  -5   29.16    0.35
   0   7  -6    9.81    0.21
   0   7  -6   10.10    0.21
   0   7  -7   17.76    0.28
   0   7  -7   17.58    0.27
   0   7  -8    7.97    0.18
   0   7  -8    7.49    0.19
   0   7  -9    4.56    0.14
   0   7  -9    4.36    0.14
   0   7 -10    4.90    0.14
   0   7 -10    5.23    0.14
   0   7 -11    2.83    0.09
   0   7 -11    2.61    0.10
   0   7 -12    4.49    0.11
   0   8   0   12.22    0.24
   0   8   0   12.96    0.24
   0   8   1    0.60    0.07
   0   8  -1    0.53    0.07
   0   8  -1    0.50    0.07
   0   8   2    0.52    0.07
   0   8  -2    0.42    0.07
   0   8  -2    0.50    0.07
   0   8  -3    4.78    0.15
   0   8  -3    4.63    0.15
   0   8   3    4.64    0.15
   0   8   4    8.37    0.20
   0   8  -4    8.05    0.19
   0   8  -4    8.09    0.20
   0   8  -5    8.15    0.19
   0   8   5    8.61    0.20
   0   8  -5    8.27    0.19
   0   8  -6    8.80    0.20
   0   8  -6    8.62    0.19
   0   8  -7    8.56    0.19
   0   8  -7    8.11    0.19
   0   8  -8    0.05    0.05
   0   8  -8    0.04    0.04
   0   8  -9    0.47    0.06
   0   8  -9    0.43    0.06
   0   8 -10    0.42    0.05
   0   8 -10    0.49    0.05
   0   8 -11    0.92    0.05
   0   9   0    0.01    0.05
   0   9  -1   10.34    0.22
   0   9   1   10.09    0.21
   0   9  -2    2.82    0.12
   0   9  -2    2.55    0.11
   0   9   2    2.62    0.12
   0   9  -3    0.08    0.05
   0   9  -3    0.05    0.05
   0   9   3    0.14    0.06
   0   9  -4    3.41    0.12
   0   9   4    3.41    0.13
   0   9  -4    3.40    0.13
   0   9  -5    0.66    0.07
   0   9  -5    0.70    0.07
   0   9  -6    3.16    0.11
   0   9  -6    3.23    0.11
   0   9  -7   18.61    0.24
   0   9  -7   17.65    0.23
   0   9  -8   10.05    0.16
   0   9  -8    9.32    0.15
   0   9  -9    1.42    0.06
   0   9  -9    1.60    0.06
   0  10   0    0.06    0.05
   0  10  -1    0.08    0.05
   0  10   1    0.13    0.05
   0  10  -2    0.80    0.07
   0  10   2    0.66    0.07
   0  10  -3    1.64    0.08
   0  10  -4    0.47    0.05
   0  10  -5    1.28    0.07
   0  10  -6    0.87    0.05
   0  11   0    0.00    0.03
   0  11  -1    0.47    0.04
   0  11  -2    1.32    0.06
   1 -11   0    0.98    0.05
   1 -11   1    0.65    0.05
   1 -11   2    0.36    0.04
  -1 -10   7    2.78    0.08
  -1 -10   6    1.64    0.07
  -1 -10   5    2.40    0.09
   1 -10   2    0.03    0.03
   1 -10   3    0.47    0.05
   1 -10   4    0.68    0.06
   1 -10   5    1.23    0.07
   1 -10   5    1.20    0.06
   1 -10   6    2.75    0.08
   1 -10   6    3.55    0.09
   1 -10   7    1.09    0.05
  -1  -9   9    0.33    0.04
  -1  -9   9    0.35    0.05
  -1  -9   8    0.29    0.04
  -1  -9   8    0.28    0.05
  -1  -9   7    0.30    0.06
  -1  -9   7    0.35    0.04
  -1  -9   6    8.08    0.16
  -1  -9   5   10.25    0.18
   1  -9   1   12.32    0.21
   1  -9   2    7.09    0.17
   1  -9   3    1.14    0.08
   1  -9   4    1.54    0.09
   1  -9   5    5.62    0.15
   1  -9   6    2.32    0.10
   1  -9   7    1.13    0.08
   1  -9   8    0.87    0.06
   1  -9   9    1.49    0.06
  -1  -8  11    0.34    0.04
  -1  -8  10    0.43    0.05
  -1  -8  10    0.37    0.05
  -1  -8   9    0.93    0.07
  -1  -8   9    0.94    0.07
  -1  -8   8    3.03    0.11
  -1  -8   7    2.43    0.11
  -1  -8   6    6.86    0.18
  -1  -8   6    6.65    0.16
  -1  -8   6    6.63    0.17
  -1  -8   5    0.47    0.07
  -1  -8   5    0.47    0.06
   1  -8  -4    3.08    0.11
  -1  -8   4    3.42    0.13
   1  -8  -3    8.36    0.18
  -1  -8   3    8.01    0.19
  -1  -8   2    4.18    0.14
   1  -8  -2    4.17    0.13
  -1  -8   1    1.53    0.09
   1  -8  -1    1.57    0.09
   1  -8   0   15.93    0.25
  -1  -8   0   15.54    0.25
   1  -8   1    3.08    0.12
   1  -8   2    1.96    0.10
   1  -8   3    5.52    0.16
   1  -8   4   11.67    0.23
   1  -8   5    4.47    0.15
   1  -8   5    4.41    0.15
   1  -8   6    6.22    0.17
   1  -8   7    2.02    0.11
   1  -8   8    0.02    0.06
   1  -8   8    0.00    0.03
   1  -8   9    0.00    0.03
   1  -8   9    0.00    0.05
   1  -8  10    0.03    0.03
   1  -8  10    0.06    0.04
   1  -8  11    1.06    0.05
  -1  -7  13    1.88    0.06
  -1  -7  12    0.01    0.03
  -1  -7  11    0.73    0.06
  -1  -7  10    0.07    0.05
  -1  -7  10    0.08    0.06
  -1  -7   9    3.06    0.12
  -1  -7   9    3.26    0.12
  -1  -7   8    1.55    0.09
  -1  -7   8    1.72    0.09
  -1  -7   8    1.55    0.10
  -1  -7   7    8.05    0.19
  -1  -7   7    7.85    0.18
  -1  -7   7    7.71    0.20
  -1  -7   6   17.01    0.27
  -1  -7   6   16.57    0.29
  -1  -7   5   18.17    0.29
  -1  -7   4    2.74    0.12
  -1  -7   3    6.22    0.17
  -1  -7   2   17.40    0.26
  -1  -7   1   19.64    0.27
   1  -7  -1   20.38    0.27
   1  -7   0    9.25    0.19
   1  -7   0    9.32    0.39
   1  -7   1    2.86    0.24
   1  -7   1    2.65    0.10
   1  -7   2    1.93    0.09
   1  -7   3    7.13    0.17
   1  -7   4    3.74    0.14
   1  -7   5   20.41    0.30
   1  -7   6   21.57    0.31
   1  -7   6   21.11    0.31
   1  -7   7    5.03    0.15
   1  -7   7    5.55    0.15
   1  -7   7    5.43    0.16
   1  -7   8    1.06    0.08
   1  -7   8    1.09    0.08
   1  -7   8    1.24    0.10
   1  -7   8    1.15    0.08
   1  -7   9   -0.01    0.06
   1  -7   9    0.03    0.04
   1  -7  10    1.55    0.09
   1  -7  10    1.53    0.08
   1  -7  11    0.07    0.05
   1  -7  11    0.09    0.04
   1  -7  12    0.31    0.04
  -1  -6  14    0.30    0.03
  -1  -6  13    0.22    0.04
  -1  -6  12    7.71    0.16
  -1  -6  11   10.13    0.20
  -1  -6  10    1.52    0.09
  -1  -6  10    1.43    0.09
  -1  -6   9    1.00    0.09
  -1  -6   9    0.95    0.07
  -1  -6   9    0.88    0.08
  -1  -6   8    0.80    0.08
  -1  -6   8    0.82    0.08
  -1  -6   8    0.86    0.08
  -1  -6   7    0.28    0.06
  -1  -6   7    0.26    0.06
  -1  -6   7    0.22    0.06
  -1  -6   6    0.22    0.06
  -1  -6   5    3.16    0.26
  -1  -6   5    3.10    0.12
  -1  -6   4    7.83    0.18
  -1  -6   4    8.13    0.40
  -1  -6   3   10.45    0.43
  -1  -6   3   11.44    0.20
  -1  -6   2    0.96    0.07
  -1  -6   2    0.78    0.14
  -1  -6   1    4.51    0.11
   1  -6  -1    4.77    0.26
   1  -6   0    1.50    0.08
   1  -6   0    1.80    0.18
  -1  -6   0    1.62    0.16
   1  -6   1    3.66    0.24
   1  -6   1    3.71    0.11
   1  -6   2   14.41    0.48
   1  -6   2   14.09    0.22
   1  -6   3   22.20    0.28
   1  -6   3   22.05    0.61
   1  -6   4   14.01    0.50
   1  -6   5    5.79    0.15
   1  -6   5    5.54    0.33
   1  -6   6    5.33    0.14
   1  -6   6    5.19    0.15
   1  -6   7   14.00    0.24
   1  -6   7   14.29    0.24
   1  -6   7   14.05    0.25
   1  -6   8    4.23    0.14
   1  -6   8    3.93    0.13
   1  -6   8    3.99    0.14
   1  -6   9   24.44    0.32
   1  -6   9   24.03    0.31
   1  -6   9   24.46    0.33
   1  -6  10    2.64    0.11
   1  -6  10    2.61    0.11
   1  -6  11    1.70    0.09
   1  -6  11    1.70    0.09
   1  -6  12    0.19    0.05
   1  -6  13    1.28    0.07
  -1  -5  14    2.94    0.09
  -1  -5  14    2.82    0.08
  -1  -5  13    2.93    0.10
  -1  -5  13    2.89    0.10
  -1  -5  12    3.90    0.12
  -1  -5  12    3.67    0.13
  -1  -5  11    0.37    0.06
  -1  -5  11    0.38    0.05
  -1  -5  11    0.40    0.06
  -1  -5  10    2.01    0.10
  -1  -5  10    1.82    0.10
  -1  -5  10    1.98    0.10
  -1  -5   9    5.35    0.16
  -1  -5   9    5.52    0.15
  -1  -5   9    5.51    0.16
  -1  -5   8    2.19    0.10
  -1  -5   8    2.01    0.10
  -1  -5   8    1.96    0.10
  -1  -5   7   15.82    0.26
  -1  -5   7   16.19    0.56
  -1  -5   7   16.45    0.25
  -1  -5   6   19.77    0.60
  -1  -5   6   18.10    0.27
  -1  -5   5   18.51    0.56
  -1  -5   5   18.06    0.26
  -1  -5   4   40.52    0.80
  -1  -5   4   43.16    0.37
  -1  -5   3   19.29    0.23
  -1  -5   3   18.45    0.52
   1  -5  -2   32.57    0.57
  -1  -5   2   29.02    0.62
   1  -5  -1   36.31    0.62
  -1  -5   1   36.09    0.26
   1  -5   0    0.53    0.10
  -1  -5   0    0.60    0.04
  -1  -5   0    0.45    0.09
   1  -5   1    4.63    0.11
   1  -5   1    4.79    0.25
  -1  -5  -1    4.93    0.22
   1  -5   2    1.24    0.06
   1  -5   2    1.09    0.13
   1  -5   3   38.92    0.33
   1  -5   3   38.22    0.73
   1  -5   4    0.69    0.12
   1  -5   4    0.85    0.06
   1  -5   5   13.19    0.46
   1  -5   5   13.85    0.21
   1  -5   6    6.76    0.16
   1  -5   6    6.45    0.34
   1  -5   7    1.35    0.08
   1  -5   7    1.15    0.17
   1  -5   8    2.34    0.10
   1  -5   8    2.29    0.11
   1  -5   8    2.32    0.11
   1  -5   9    5.65    0.16
   1  -5   9    5.86    0.16
   1  -5   9    5.70    0.16
   1  -5  10   10.24    0.22
   1  -5  10   10.22    0.20
   1  -5  10    9.79    0.20
   1  -5  11    4.65    0.15
   1  -5  12    8.31    0.19
   1  -5  12    8.51    0.17
   1  -5  13    0.88    0.07
   1  -5  14    0.08    0.03
  -1  -4  15    0.74    0.05
  -1  -4  14    1.96    0.08
  -1  -4  14    2.09    0.09
  -1  -4  13    0.60    0.06
  -1  -4  13    0.54    0.06
  -1  -4  12    6.25    0.17
  -1  -4  12    6.05    0.16
  -1  -4  12    6.42    0.16
  -1  -4  11   25.16    0.32
  -1  -4  11   25.41    0.34
  -1  -4  10   10.32    0.21
  -1  -4  10   10.44    0.21
  -1  -4  10   10.76    0.22
  -1  -4   9    1.99    0.20
  -1  -4   9    1.99    0.10
  -1  -4   9    1.95    0.09
  -1  -4   9    1.82    0.10
  -1  -4   9    1.84    0.09
  -1  -4   8    0.82    0.14
  -1  -4   8    0.66    0.07
  -1  -4   8    0.68    0.07
  -1  -4   7    1.90    0.09
  -1  -4   7    1.96    0.09
  -1  -4   6    2.14    0.09
  -1  -4   5   22.37    0.26
  -1  -4   4   19.09    0.22
  -1  -4   3    2.55    0.08
   1  -4  -3    2.43    0.14
  -1  -4   2    0.25    0.03
   1  -4  -2    0.62    0.08
  -1  -4   1   12.61    0.13
   1  -4  -1   12.33    0.32
  -1  -4   0   13.35    0.13
   1  -4   0   13.53    0.35
   1  -4   1    4.00    0.20
  -1  -4  -1    4.39    0.19
   1  -4   2  131.63    2.01
   1  -4   2  130.38    1.15
   1  -4   3   37.66    0.28
   1  -4   3   39.68    0.66
   1  -4   4   55.15    0.81
   1  -4   4   53.69    0.35
   1  -4   5   32.72    0.29
   1  -4   5   32.23    0.64
   1  -4   6    3.09    0.22
   1  -4   6    3.50    0.10
   1  -4   7    6.91    0.15
   1  -4   7    6.30    0.30
   1  -4   8    9.64    0.20
   1  -4   9   26.93    0.32
   1  -4   9   26.95    0.31
   1  -4   9   27.17    0.33
   1  -4  10   11.19    0.22
   1  -4  10   11.39    0.22
   1  -4  10   11.10    0.21
   1  -4  11    1.85    0.10
   1  -4  11    1.82    0.09
   1  -4  11    1.81    0.10
   1  -4  12    0.73    0.07
   1  -4  12    0.79    0.08
   1  -4  13    0.71    0.07
   1  -4  13    0.66    0.06
   1  -4  14    0.80    0.06
   1  -4  15    0.03    0.03
  -1  -3  16    2.12    0.07
  -1  -3  15    0.05    0.04
  -1  -3  14    1.20    0.08
  -1  -3  13    1.54    0.08
  -1  -3  13    1.50    0.10
  -1  -3  12    3.18    0.12
  -1  -3  12    3.10    0.13
  -1  -3  11    0.23    0.06
  -1  -3  11    0.22    0.05
  -1  -3  11    0.24    0.05
  -1  -3  10    4.21    0.14
  -1  -3  10    4.33    0.14
  -1  -3  10    4.15    0.13
  -1  -3   9    0.72    0.06
  -1  -3   9    0.80    0.07
  -1  -3   8   21.84    0.25
  -1  -3   8   22.00    0.27
  -1  -3   7   28.74    0.29
  -1  -3   7   28.43    0.28
  -1  -3   6    1.07    0.07
  -1  -3   6    1.06    0.06
  -1  -3   5   27.98    0.26
   1  -3  -4  183.16    0.95
  -1  -3   4  172.69    2.37
   1  -3  -3   57.68    0.56
  -1  -3   3   57.76    0.32
  -1  -3   2   49.86    0.27
   1  -3  -2   47.23    0.52
   1  -3  -1  131.05    0.89
   1  -3   0    6.21    0.21
   1  -3   1   12.99    0.31
   1  -3   2   75.51    1.30
   1  -3   2   72.01    0.75
   1  -3   3   42.75    0.60
   1  -3   3   45.65    0.27
   1  -3   4   48.03    0.30
   1  -3   4   49.56    0.67
   1  -3   5   50.78    0.71
   1  -3   5   52.43    0.30
   1  -3   5   52.19    0.31
   1  -3   6    2.99    0.08
   1  -3   6    3.17    0.08
   1  -3   6    2.76    0.18
   1  -3   7   30.37    0.59
   1  -3   7   29.68    0.27
   1  -3   8    9.30    0.18
   1  -3   9   10.05    0.19
   1  -3  10   13.56    0.24
   1  -3  10   13.22    0.22
   1  -3  10   13.36    0.24
   1  -3  11    9.20    0.19
   1  -3  11    9.06    0.19
   1  -3  11    9.21    0.21
   1  -3  11    8.93    0.20
   1  -3  12    2.09    0.09
   1  -3  12    1.92    0.10
   1  -3  12    1.77    0.10
   1  -3  12    1.89    0.09
   1  -3  13    1.15    0.08
   1  -3  13    1.27    0.09
   1  -3  13    1.17    0.07
   1  -3  14    0.39    0.05
   1  -3  14    0.40    0.06
   1  -3  15    1.34    0.06
  -1  -2  16    8.55    0.15
  -1  -2  15    5.48    0.14
  -1  -2  14    1.07    0.08
  -1  -2  13    0.14    0.05
  -1  -2  12   12.34    0.25
  -1  -2  12   13.16    0.23
  -1  -2  11    9.00    0.21
  -1  -2  11    8.96    0.19
  -1  -2  10    7.82    0.17
  -1  -2   9   10.66    0.19
  -1  -2   8   10.37    0.18
  -1  -2   8   10.40    0.16
  -1  -2   7   41.46    0.30
  -1  -2   7   41.50    0.32
  -1  -2   6    1.88    0.07
  -1  -2   6    2.84    0.08
  -1  -2   5   90.04    1.61
  -1  -2   5   90.13    0.42
  -1  -2   5   92.12    0.74
  -1  -2   4   92.27    0.65
  -1  -2   4   91.27    1.55
   1  -2  -4   92.80    0.60
  -1  -2   3   54.66    0.42
   1  -2  -3   51.77    0.46
   1  -2  -2    4.83    0.15
   1  -2  -1  133.73    0.76
   1  -2   0  270.74    4.45
   1  -2   1   17.78    0.30
   1  -2   2  132.07    0.85
   1  -2   3   55.14    0.58
   1  -2   4   76.66    0.32
   1  -2   4   76.90    0.72
   1  -2   5    8.00    0.25
   1  -2   5    8.13    0.11
   1  -2   6   49.51    0.29
   1  -2   6   50.58    0.66
   1  -2   6   50.40    0.63
   1  -2   7   16.91    0.21
   1  -2   7   16.05    0.20
   1  -2   8   18.27    0.23
   1  -2   9    0.91    0.06
   1  -2  10    7.17    0.16
   1  -2  10    7.28    0.17
   1  -2  10    7.28    0.18
   1  -2  11   14.28    0.22
   1  -2  11   13.99    0.24
   1  -2  11   13.72    0.24
   1  -2  11   14.13    0.26
   1  -2  12    0.12    0.06
   1  -2  12    0.07    0.05
   1  -2  12    0.08    0.05
   1  -2  13    1.18    0.09
   1  -2  13    1.21    0.08
   1  -2  13    1.23    0.08
   1  -2  14    4.06    0.12
   1  -2  14    4.14    0.12
   1  -2  14    3.96    0.14
   1  -2  15    0.01    0.03
   1  -2  15    0.02    0.03
  -1  -1  16    0.50    0.04
  -1  -1  16    0.49    0.05
  -1  -1  15    0.15    0.05
  -1  -1  15    0.16    0.04
  -1  -1  14    6.62    0.17
  -1  -1  14    6.67    0.16
  -1  -1  13    4.92    0.15
  -1  -1  13    5.15    0.16
  -1  -1  12    6.57    0.18
  -1  -1  12    6.63    0.17
  -1  -1  11    4.92    0.14
  -1  -1  11    4.91    0.14
  -1  -1  11    5.11    0.16
  -1  -1  10    4.31    0.13
  -1  -1   9    4.34    0.27
  -1  -1   9    4.12    0.12
  -1  -1   8    0.04    0.04
  -1  -1   8    0.08    0.03
  -1  -1   7   15.80    0.19
  -1  -1   7   15.65    0.42
  -1  -1   7   16.51    0.17
  -1  -1   6   40.03    0.60
  -1  -1   6   40.51    0.27
  -1  -1   6   40.75    0.25
  -1  -1   5  120.87    1.70
  -1  -1   5  123.61    1.67
  -1  -1   5  121.59    0.94
  -1  -1   4   31.34    0.42
  -1  -1   3  180.30    3.52
   1  -1  -2    1.23    0.07
   1  -1  -1  356.11    4.20
   1  -1   0  165.39    2.90
   1  -1   1  284.49    3.87
   1  -1   2   77.13    0.53
   1  -1   3    5.61    0.15
   1  -1   3    5.17    0.17
   1  -1   4   15.49    0.33
   1  -1   4   16.04    0.15
   1  -1   5    6.12    0.18
   1  -1   5    5.92    0.10
   1  -1   5    5.54    0.22
   1  -1   6   12.47    0.17
   1  -1   6   12.21    0.36
   1  -1   6   12.79    0.15
   1  -1   7   38.90    0.69
   1  -1   7   39.20    0.28
   1  -1   7   38.95    0.32
   1  -1   8    0.98    0.06
   1  -1   8    1.02    0.14
   1  -1   8    1.10    0.07
   1  -1   9    0.72    0.12
   1  -1   9    0.75    0.06
   1  -1  10    9.37    0.17
   1  -1  11   33.32    0.38
   1  -1  11   32.25    0.35
   1  -1  11   33.18    0.39
   1  -1  12   61.61    0.54
   1  -1  12   61.53    0.52
   1  -1  12   62.31    0.50
   1  -1  13    7.25    0.18
   1  -1  13    7.31    0.17
   1  -1  13    7.02    0.19
   1  -1  14    0.57    0.07
   1  -1  14    0.59    0.07
   1  -1  15    0.48    0.05
   1  -1  16    2.96    0.08
  -1   0  16    0.07    0.03
  -1   0  16    0.07    0.03
  -1   0  15    0.51    0.06
  -1   0  15    0.55    0.06
  -1   0  14    0.07    0.05
  -1   0  14    0.03    0.05
  -1   0  13    4.66    0.15
  -1   0  13    4.47    0.15
  -1   0  12    9.91    0.21
  -1   0  12   10.11    0.22
  -1   0  11   60.17    0.50
  -1   0  11   60.34    0.50
  -1   0  10   16.20    0.56
  -1   0   9    0.35    0.05
  -1   0   9    0.28    0.11
  -1   0   8   20.40    0.55
  -1   0   8   20.58    0.23
  -1   0   7    0.70    0.05
  -1   0   7    0.76    0.04
  -1   0   7    0.62    0.11
  -1   0   6  197.26    1.43
  -1   0   6  197.22    2.04
  -1   0   5  107.72    0.95
  -1   0   5  106.29    0.35
   1   0  -4   38.25    0.29
  -1   0   4   35.97    0.49
   1   0  -3  299.09    3.36
  -1   0   3  300.91    4.98
   1   0  -2    0.60    0.05
   1   0  -1  281.55    3.53
   1   0   0   16.89    0.13
   1   0   0   16.97    0.20
   1   0   1   17.67    0.19
   1   0   1   18.18    0.20
   1   0   2    0.02    0.05
   1   0   2    0.02    0.03
   1   0   2    0.02    0.03
   1   0   3  121.84    2.09
   1   0   3  123.98    0.86
   1   0   4    3.64    0.07
   1   0   4    3.41    0.10
   1   0   4    3.66    0.17
   1   0   4    3.47    0.09
   1   0   5    0.21    0.08
   1   0   5    0.28    0.03
   1   0   6   13.53    0.14
   1   0   6   13.09    0.17
   1   0   6   12.76    0.39
   1   0   7   11.58    0.14
   1   0   7   11.19    0.39
   1   0   7   11.40    0.17
   1   0   8   92.91    0.54
   1   0   8   91.44    1.21
   1   0   9  142.13    1.60
   1   0   9  145.38    0.58
   1   0  10    1.07    0.17
   1   0  11    0.32    0.05
   1   0  11    0.34    0.06
   1   0  11    0.34    0.06
   1   0  12    8.77    0.21
   1   0  12    8.69    0.20
   1   0  13    3.81    0.14
   1   0  13    3.72    0.14
   1   0  14    5.27    0.15
   1   0  14    4.86    0.15
   1   0  15    0.06    0.04
   1   0  16    0.07    0.03
  -1   1  16    0.49    0.05
  -1   1  15    0.13    0.05
  -1   1  15    0.12    0.04
  -1   1  14    6.55    0.16
  -1   1  14    6.60    0.17
  -1   1  13    5.16    0.15
  -1   1  13    5.30    0.16
  -1   1  12    6.67    0.17
  -1   1  12    6.20    0.18
  -1   1  11    4.67    0.14
  -1   1  11    4.59    0.14
  -1   1  10    4.31    0.31
  -1   1   9    3.93    0.28
  -1   1   8    0.02    0.10
  -1   1   7   15.65    0.47
  -1   1   6   40.63    0.69
  -1   1   5  118.35    1.06
  -1   1   4   30.55    0.49
   1   1  -4   35.02    0.35
  -1   1   3  184.78    1.05
   1   1  -3  188.76    3.20
   1   1  -2    1.28    0.07
   1   1  -1  346.41    4.31
   1   1   0  162.49    2.60
   1   1   0  155.41    2.87
   1   1   1  294.45    3.74
   1   1   1  313.06    4.50
   1   1   2   83.40    0.66
   1   1   2   80.80    0.53
   1   1   3    5.04    0.19
   1   1   3    5.16    0.14
   1   1   3    4.68    0.16
   1   1   4   16.12    0.38
   1   1   4   16.05    0.15
   1   1   4   15.59    0.23
   1   1   5    5.91    0.10
   1   1   5    6.11    0.26
   1   1   6   12.50    0.17
   1   1   6   12.27    0.40
   1   1   7   39.66    0.32
   1   1   7   37.97    0.75
   1   1   8    1.00    0.07
   1   1   8    1.04    0.16
   1   1   9    0.72    0.15
   1   1  10    9.73    0.47
   1   1  11   33.59    0.38
   1   1  11   32.31    0.37
   1   1  12   60.57    0.51
   1   1  12   60.60    0.53
   1   1  13    6.95    0.18
   1   1  13    7.06    0.18
   1   1  14    0.57    0.07
   1   1  15    0.49    0.06
  -1   1 -16    1.78    0.06
   1   1  16    2.85    0.09
  -1   2  16    8.87    0.15
  -1   2  15    5.55    0.14
  -1   2  14    1.14    0.09
  -1   2  13    0.10    0.06
  -1   2  12   13.46    0.26
  -1   2  12   12.48    0.24
  -1   2  11    9.06    0.20
  -1   2  10    8.49    0.46
  -1   2   9   10.69    0.48
  -1   2   8   10.73    0.45
  -1   2   7   41.12    0.80
  -1   2   6    1.90    0.18
   1   2  -5   93.91    0.73
  -1   2   5   90.33    1.00
  -1   2   4   91.28    0.91
   1   2  -4   98.36    0.75
  -1   2   3   50.63    0.60
  -1   2   3   50.98    0.41
  -1   2   2    4.94    0.17
   1   2  -2    5.23    0.18
   1   2  -1  140.29    0.88
   1   2  -1  137.93    0.81
   1   2   0    9.25    0.21
   1   2   1   18.30    0.30
   1   2   2  141.68    0.88
   1   2   2  141.15    0.84
   1   2   3   57.11    0.67
   1   2   3   57.16    0.59
   1   2   4   76.61    0.86
   1   2   4   77.21    1.30
   1   2   4   77.86    0.75
   1   2   5    8.49    0.32
   1   2   5    8.67    0.12
   1   2   6   50.26    0.84
   1   2   6   50.95    0.33
   1   2   7   15.98    0.52
   1   2   7   16.59    0.21
   1   2   8   17.82    0.59
   1   2   9    0.96    0.18
   1   2  10    7.25    0.17
   1   2  11   14.27    0.25
   1   2  12    0.13    0.06
   1   2  13    1.13    0.09
   1   2  14    3.91    0.13
  -1   2 -15    0.00    0.03
   1   2  15    0.04    0.04
   1   2  16    0.26    0.04
  -1   3  16    2.16    0.07
  -1   3  15    0.06    0.04
  -1   3  14    1.16    0.08
  -1   3  13    1.44    0.09
  -1   3  12    3.26    0.13
  -1   3  11    0.18    0.05
  -1   3  10    4.03    0.14
  -1   3  10    4.05    0.13
  -1   3   9    0.73    0.17
  -1   3   8   22.13    0.67
  -1   3   7   28.54    0.71
  -1   3   6    0.95    0.15
  -1   3   5   29.81    0.61
   1   3  -4  173.76    1.21
  -1   3   4  172.67    1.34
   1   3  -3   57.23    0.70
  -1   3   3   57.51    0.51
  -1   3   2   46.37    0.56
  -1   3   2   46.25    0.43
  -1   3   1  134.53    0.84
   1   3  -1  133.26    1.05
  -1   3   1  132.87    0.72
  -1   3   0    6.72    0.18
   1   3   0    6.31    0.21
  -1   3   0    6.70    0.17
   1   3   1   13.96    0.31
   1   3   1   14.07    0.34
   1   3   1   14.49    0.28
   1   3   2   75.43    0.72
   1   3   2   78.65    0.74
   1   3   3   43.69    0.58
   1   3   3   43.67    0.59
   1   3   4   52.74    0.76
   1   3   4   51.68    0.63
   1   3   4   51.93    0.67
   1   3   5   53.92    0.30
   1   3   5   54.72    0.85
   1   3   6    2.96    0.23
   1   3   6    3.23    0.09
   1   3   7   30.30    0.74
   1   3   8    9.21    0.45
   1   3   9   10.27    0.49
   1   3  10   13.40    0.23
   1   3  11    9.30    0.20
   1   3  12    1.96    0.10
  -1   3 -13    1.29    0.08
   1   3  13    1.14    0.08
   1   3  14    0.39    0.06
  -1   3 -14    0.45    0.05
  -1   3 -15    1.31    0.06
   1   3  15    1.35    0.06
  -1   4  15    0.69    0.05
   1   4 -15    0.69    0.05
  -1   4  14    2.01    0.09
  -1   4  13    0.63    0.07
  -1   4  12    6.35    0.17
  -1   4  11   25.51    0.36
  -1   4  10   10.99    0.23
  -1   4  10   10.31    0.21
  -1   4   9    1.92    0.10
  -1   4   9    2.13    0.10
  -1   4   8    0.50    0.14
  -1   4   7    2.08    0.22
  -1   4   6    2.21    0.21
  -1   4   5   23.79    0.58
  -1   4   4   19.09    0.48
  -1   4   4   19.82    0.37
  -1   4   3    2.35    0.16
  -1   4   3    2.60    0.13
   1   4  -2    0.19    0.08
  -1   4   2    0.22    0.07
   1   4  -2    0.24    0.08
  -1   4   2    0.19    0.06
   1   4  -1   12.61    0.35
   1   4  -1   12.26    0.38
  -1   4   1   13.26    0.28
   1   4   0   13.30    0.39
  -1   4   0   14.09    0.30
   1   4   0   13.48    0.35
   1   4   1    3.96    0.20
   1   4   1    3.53    0.21
   1   4   2  128.75    1.19
   1   4   2  135.34    1.11
   1   4   3   42.30    0.64
   1   4   3   43.45    0.65
   1   4   4   58.58    0.83
   1   4   4   57.58    0.78
   1   4   5   34.53    0.64
   1   4   5   33.27    0.70
   1   4   6    3.21    0.22
   1   4   6    3.34    0.25
   1   4   7    6.42    0.36
   1   4   8   10.43    0.49
  -1   4  -9   31.05    0.36
  -1   4 -10   11.91    0.23
  -1   4 -11    1.88    0.10
   1   4  11    1.93    0.10
  -1   4 -12    0.84    0.08
   1   4  12    0.87    0.07
  -1   4 -13    0.77    0.07
   1   4  13    0.68    0.06
  -1   4 -14    0.86    0.06
   1   4  14    0.89    0.06
  -1   4 -15    0.04    0.02
   1   5 -15    0.19    0.03
  -1   5  14    2.67    0.08
   1   5 -14    2.93    0.09
  -1   5  13    2.98    0.10
   1   5 -13    3.06    0.11
  -1   5  12    3.85    0.12
  -1   5  11    0.39    0.06
  -1   5  10    1.93    0.10
  -1   5  10    2.12    0.11
  -1   5   9    5.74    0.16
  -1   5   9    5.47    0.16
  -1   5   8    2.13    0.10
  -1   5   8    2.06    0.10
  -1   5   7   16.17    0.58
  -1   5   6   20.58    0.60
  -1   5   5   18.44    0.53
   1   5  -4   41.76    0.79
   1   5  -3   19.64    0.52
   1   5  -2   32.24    0.64
  -1   5   1   36.51    0.55
   1   5  -1   35.55    0.66
   1   5   0    0.61    0.11
  -1   5   0    0.57    0.09
  -1   5  -1    5.14    0.23
   1   5   1    4.67    0.24
  -1   5  -2    1.37    0.14
   1   5   2    1.12    0.14
   1   5   3   41.17    0.71
   1   5   4    0.76    0.14
   1   5   5   13.88    0.45
   1   5   6    6.32    0.35
   1   5   6    7.03    0.34
   1   5   7    1.32    0.20
  -1   5  -8    2.37    0.11
  -1   5  -9    5.88    0.17
  -1   5 -10   10.85    0.22
  -1   5 -11    5.17    0.15
  -1   5 -12    8.55    0.17
  -1   5 -12    9.06    0.18
  -1   5 -13    0.90    0.06
  -1   5 -13    0.85    0.06
  -1   5 -14    0.10    0.03
  -1   5 -14    0.10    0.03
   1   6 -14    0.26    0.03
   1   6 -13    0.19    0.04
   1   6 -12    7.67    0.17
   1   6 -11   10.13    0.21
   1   6 -10    1.38    0.09
  -1   6   9    1.00    0.08
   1   6  -9    0.81    0.08
  -1   6   9    0.96    0.08
   1   6  -8    0.71    0.08
  -1   6   8    0.76    0.07
  -1   6   8    0.83    0.08
  -1   6   7    0.30    0.06
   1   6  -7    0.21    0.06
   1   6  -6    0.20    0.05
  -1   6   6    0.18    0.04
   1   6  -6    0.11    0.11
  -1   6   6    0.20    0.05
   1   6  -5    3.19    0.27
   1   6  -4    8.09    0.39
   1   6  -3   11.15    0.44
   1   6  -2    0.98    0.16
   1   6  -1    4.34    0.26
   1   6   0    1.68    0.17
   1   6   1    3.98    0.25
   1   6   2   14.53    0.47
  -1   6  -2   15.40    0.44
  -1   6  -3   24.77    0.59
   1   6   3   23.49    0.60
  -1   6  -4   14.59    0.48
   1   6   4   14.80    0.49
   1   6   5    5.74    0.32
  -1   6  -6    5.55    0.14
  -1   6  -6    5.95    0.16
  -1   6  -7   14.05    0.23
  -1   6  -7   14.19    0.25
  -1   6  -8    4.16    0.14
  -1   6  -8    4.09    0.13
  -1   6  -9   24.60    0.33
  -1   6  -9   24.74    0.31
  -1   6 -10    2.85    0.12
  -1   6 -10    2.90    0.11
  -1   6 -11    1.73    0.08
  -1   6 -11    1.67    0.09
  -1   6 -12    0.26    0.05
  -1   6 -12    0.21    0.04
  -1   6 -13    1.24    0.06
  -1   6 -13    1.08    0.05
   1   7 -13    1.86    0.06
   1   7 -12    0.01    0.04
   1   7 -11    0.64    0.06
   1   7 -10    0.05    0.05
   1   7  -9    2.93    0.12
   1   7  -8    1.42    0.10
  -1   7   8    1.46    0.09
   1   7  -7    8.51    0.20
  -1   7   7    8.29    0.19
  -1   7   6   18.79    0.28
   1   7  -6   18.26    0.29
  -1   7   5   20.27    0.28
   1   7  -5   19.95    0.27
  -1   7   5   19.86    0.29
   1   7  -5   20.44    0.30
   1   7  -4    3.11    0.12
  -1   7   4    3.05    0.12
  -1   7   4    3.13    0.12
   1   7  -4    2.87    0.12
   1   7  -3    6.90    0.17
  -1   7   3    7.08    0.17
   1   7  -3    6.73    0.17
   1   7  -2   20.39    0.28
   1   7  -2   21.01    0.29
  -1   7   2   20.05    0.28
   1   7  -1   20.36    0.29
   1   7  -1   21.95    0.62
   1   7   0    9.96    0.42
   1   7   0   10.36    0.21
   1   7   1    2.87    0.25
  -1   7  -1    3.20    0.12
   1   7   1    3.18    0.12
   1   7   1    3.04    0.12
   1   7   2    2.07    0.21
   1   7   2    2.23    0.10
  -1   7  -2    2.14    0.10
   1   7   3    9.15    0.20
  -1   7  -3    8.38    0.19
   1   7   4    4.31    0.14
  -1   7  -4    4.49    0.15
  -1   7  -5   22.81    0.32
  -1   7  -5   23.19    0.29
  -1   7  -6   24.17    0.31
  -1   7  -6   22.62    0.32
  -1   7  -7    5.73    0.15
  -1   7  -7    5.12    0.16
  -1   7  -8    1.17    0.07
  -1   7  -8    1.12    0.09
  -1   7  -9    0.07    0.04
  -1   7  -9    0.03    0.05
  -1   7 -10    1.48    0.07
  -1   7 -10    1.57    0.09
  -1   7 -11    0.06    0.04
  -1   7 -11    0.08    0.03
  -1   7 -12    0.29    0.04
   1   8 -11    0.35    0.04
   1   8 -10    0.43    0.05
   1   8  -9    0.92    0.07
   1   8  -8    2.75    0.11
   1   8  -7    2.58    0.12
   1   8  -6    7.68    0.19
   1   8  -6    7.49    0.17
  -1   8   6    7.67    0.18
  -1   8   5    0.42    0.06
   1   8  -5    0.42    0.06
   1   8  -5    0.38    0.06
  -1   8   5    0.46    0.06
   1   8  -4    3.62    0.14
   1   8  -4    3.82    0.13
  -1   8   4    3.75    0.13
  -1   8   4    3.64    0.13
  -1   8   3    9.05    0.20
   1   8  -3    9.25    0.21
   1   8  -3    9.59    0.20
  -1   8   3    9.22    0.20
   1   8  -2    4.95    0.15
  -1   8   2    4.91    0.15
   1   8  -2    4.76    0.16
   1   8  -1    1.71    0.10
  -1   8   1    1.95    0.10
   1   8  -1    1.78    0.10
   1   8   0   19.23    0.30
   1   8   0   19.16    0.28
  -1   8   0   19.00    0.29
   1   8   1    3.48    0.13
  -1   8  -1    3.61    0.14
  -1   8  -2    2.21    0.11
   1   8   2    2.31    0.11
   1   8   3    6.28    0.17
  -1   8  -3    6.41    0.18
  -1   8  -4   12.85    0.22
   1   8   4   12.57    0.24
  -1   8  -4   12.45    0.25
  -1   8  -5    4.90    0.14
  -1   8  -5    4.60    0.15
  -1   8  -6    6.92    0.16
  -1   8  -6    6.63    0.18
  -1   8  -7    2.03    0.09
  -1   8  -7    1.89    0.10
  -1   8  -8    0.02    0.05
  -1   8  -8    0.01    0.03
  -1   8  -9    0.03    0.04
  -1   8 -10    0.04    0.04
  -1   8 -11    0.98    0.05
   1   9  -9    0.33    0.04
   1   9  -8    0.27    0.04
   1   9  -7    0.40    0.06
   1   9  -6    8.64    0.18
   1   9  -6    8.74    0.16
   1   9  -5   11.01    0.21
   1   9  -5   11.33    0.19
  -1   9   5   11.05    0.19
  -1   9   4    4.48    0.13
   1   9  -4    4.46    0.14
  -1   9   4    4.41    0.14
   1   9  -4    4.64    0.13
  -1   9   3    3.53    0.13
  -1   9   3    3.32    0.12
   1   9  -3    3.43    0.12
   1   9  -3    3.30    0.13
  -1   9   2    2.32    0.11
  -1   9   2    2.18    0.11
   1   9  -2    2.41    0.11
   1   9  -2    2.32    0.11
   1   9  -1    2.52    0.11
  -1   9   1    2.57    0.11
   1   9   0    7.00    0.17
  -1   9   0    6.97    0.18
  -1   9  -1   16.07    0.27
   1   9   1   16.06    0.26
  -1   9  -2    8.35    0.20
   1   9   2    8.28    0.19
   1   9   3    1.34    0.09
  -1   9  -3    1.32    0.09
  -1   9  -4    1.81    0.10
  -1   9  -5    6.26    0.16
  -1   9  -6    2.47    0.10
  -1   9  -7    1.26    0.07
  -1   9  -8    0.92    0.06
  -1   9  -9    1.61    0.06
   1  10  -6    1.52    0.07
   1  10  -5    2.47    0.07
   1  10  -4    1.61    0.07
  -1  10   3    0.67    0.06
   1  10  -3    0.68    0.06
  -1  10   3    0.61    0.05
  -1  10   2    0.79    0.07
   1  10  -2    0.74    0.06
  -1  10   2    0.80    0.06
   1  10  -1    0.36    0.05
  -1  10   1    0.34    0.06
  -1  10   1    0.31    0.05
   1  10   0    3.59    0.11
  -1  10   0    3.81    0.12
  -1  10   0    3.53    0.11
   1  10   1    2.60    0.10
  -1  10  -1    2.59    0.10
  -1  10  -2    0.07    0.04
  -1  10  -3    0.55    0.06
  -1  10  -4    0.89    0.06
  -1  10  -5    1.23    0.07
  -1  10  -6    3.41    0.09
  -1  10  -7    1.11    0.05
  -1  11   0    1.16    0.05
  -1  11  -1    0.80    0.05
  -1  11  -2    0.42    0.04
  -2 -10   6    0.82    0.05
   2 -10  -4    1.42    0.07
   2 -10  -2    2.46    0.09
   2 -10  -1    2.30    0.09
   2 -10   0    2.07    0.09
   2 -10   1    0.32    0.06
   2 -10   2    0.81    0.07
   2 -10   3    1.45    0.07
   2 -10   3    1.47    0.08
   2 -10   3    1.33    0.05
   2 -10   4    1.44    0.06
   2 -10   4    1.58    0.07
   2 -10   4    1.46    0.06
   2 -10   5    1.16    0.06
   2 -10   5    1.08    0.05
  -2  -9   9    0.31    0.04
  -2  -9   8    0.17    0.04
  -2  -9   8    0.14    0.04
  -2  -9   7    6.35    0.13
  -2  -9   6    3.57    0.11
  -2  -9   5    2.99    0.10
  -2  -9   4    1.51    0.08
   2  -9   2    0.03    0.03
   2  -9   3    0.24    0.05
   2  -9   4    0.04    0.05
   2  -9   5    1.60    0.08
   2  -9   5    1.46    0.08
   2  -9   6    0.25    0.05
   2  -9   6    0.27    0.05
   2  -9   7    1.90    0.08
   2  -9   8    2.82    0.08
  -2  -8  11    0.35    0.04
  -2  -8  10    1.17    0.06
  -2  -8   9    0.46    0.06
  -2  -8   9    0.54    0.06
  -2  -8   8    0.32    0.06
  -2  -8   7    2.21    0.10
  -2  -8   6    0.96    0.08
  -2  -8   5    1.88    0.10
  -2  -8   4    0.42    0.06
   2  -8  -3    3.30    0.12
  -2  -8   3    2.90    0.11
   2  -8  -2    3.73    0.13
   2  -8  -1    3.74    0.13
   2  -8   0    0.02    0.04
   2  -8   1    0.38    0.05
   2  -8   2    1.59    0.09
   2  -8   2    1.54    0.09
   2  -8   3    0.73    0.07
   2  -8   4    7.00    0.18
   2  -8   4    7.19    0.18
   2  -8   5    5.54    0.16
   2  -8   6    1.52    0.09
   2  -8   6    1.53    0.09
   2  -8   7    2.10    0.10
   2  -8   8    1.20    0.08
   2  -8   9    2.99    0.10
   2  -8  10    0.04    0.04
  -2  -7  12    0.09    0.03
  -2  -7  11    0.08    0.04
  -2  -7  10    0.53    0.06
  -2  -7   9    1.69    0.09
  -2  -7   8    4.86    0.15
  -2  -7   7    9.26    0.21
  -2  -7   6    9.55    0.21
  -2  -7   5    9.68    0.21
  -2  -7   4    8.69    0.20
  -2  -7   3    4.52    0.14
  -2  -7   2    9.23    0.19
   2  -7  -1   10.72    0.21
   2  -7   0    5.99    0.16
   2  -7   1    3.77    0.13
   2  -7   2   15.08    0.25
   2  -7   2   14.57    0.24
   2  -7   3    9.53    0.20
   2  -7   3    9.02    0.20
   2  -7   4    6.17    0.17
   2  -7   5   11.15    0.23
   2  -7   5   10.59    0.21
   2  -7   6    9.79    0.21
   2  -7   6    9.91    0.20
   2  -7   7    2.22    0.11
   2  -7   8    0.35    0.05
   2  -7   8    0.29    0.07
   2  -7   9    0.50    0.07
   2  -7   9    0.39    0.05
   2  -7  10    0.14    0.04
   2  -7  10    0.14    0.05
   2  -7  11    0.47    0.04
   2  -7  11    0.43    0.05
  -2  -6  13    0.65    0.05
  -2  -6  12    0.03    0.04
  -2  -6  11    3.29    0.12
  -2  -6  10    1.93    0.10
  -2  -6   9    8.45    0.20
  -2  -6   9    8.73    0.19
  -2  -6   9    8.88    0.18
  -2  -6   8   18.12    0.29
  -2  -6   8   18.59    0.29
  -2  -6   7   22.87    0.32
  -2  -6   7   24.00    0.29
  -2  -6   6    6.82    0.16
  -2  -6   6    6.60    0.18
  -2  -6   5    1.09    0.08
  -2  -6   4    9.51    0.20
  -2  -6   4    9.70    0.44
  -2  -6   3   15.28    0.53
  -2  -6   3   15.62    0.24
  -2  -6   2   23.45    0.28
   2  -6  -2   23.64    0.58
  -2  -6   1    5.62    0.13
   2  -6  -1    5.94    0.31
  -2  -6   1    5.41    0.30
   2  -6   0    2.09    0.21
   2  -6   1    0.36    0.12
   2  -6   1    0.27    0.05
   2  -6   2    2.58    0.22
   2  -6   2    2.46    0.10
   2  -6   3    4.65    0.30
   2  -6   3    4.42    0.13
   2  -6   4   39.92    0.39
   2  -6   4   41.79    0.40
   2  -6   5    8.10    0.19
   2  -6   5    8.09    0.18
   2  -6   6    5.72    0.17
   2  -6   6    6.20    0.16
   2  -6   7    4.20    0.13
   2  -6   7    3.76    0.14
   2  -6   8    2.93    0.11
   2  -6   8    2.96    0.13
   2  -6   9    3.45    0.12
   2  -6   9    3.33    0.13
   2  -6  10    5.40    0.15
   2  -6  10    5.13    0.14
   2  -6  11    0.15    0.05
   2  -6  11    0.10    0.05
   2  -6  12    1.89    0.08
   2  -6  13    0.15    0.03
  -2  -5  14    0.26    0.03
  -2  -5  14    1.40    0.06
  -2  -5  13    1.65    0.08
  -2  -5  13    1.61    0.07
  -2  -5  12    5.40    0.14
  -2  -5  12    5.56    0.14
  -2  -5  11    3.31    0.12
  -2  -5  11    3.43    0.12
  -2  -5  10    0.47    0.06
  -2  -5  10    0.37    0.06
  -2  -5  10    0.43    0.06
  -2  -5  10    0.38    0.05
  -2  -5   9    4.87    0.14
  -2  -5   9    4.63    0.15
  -2  -5   9    4.84    0.14
  -2  -5   9    4.68    0.14
  -2  -5   8    3.08    0.11
  -2  -5   8    2.92    0.12
  -2  -5   7    2.13    0.10
  -2  -5   7    1.92    0.10
  -2  -5   6    0.79    0.06
  -2  -5   6    0.64    0.08
  -2  -5   5    3.32    0.12
  -2  -5   5    3.33    0.11
  -2  -5   4    4.46    0.13
   2  -5  -3    0.29    0.08
  -2  -5   3    0.30    0.05
   2  -5  -2   12.46    0.39
  -2  -5   2   11.59    0.18
  -2  -5   1    8.93    0.15
   2  -5  -1    8.93    0.35
   2  -5   0   15.63    0.47
   2  -5   1   38.57    0.74
   2  -5   2   35.73    0.32
   2  -5   2   36.72    0.74
   2  -5   3    4.19    0.12
   2  -5   3    4.32    0.27
   2  -5   4    5.59    0.14
   2  -5   4    5.61    0.31
   2  -5   5    1.22    0.17
   2  -5   6    2.53    0.23
   2  -5   7    0.32    0.05
   2  -5   7    0.31    0.07
   2  -5   8    4.33    0.14
   2  -5   8    4.25    0.14
   2  -5   9   11.54    0.23
   2  -5   9   11.34    0.22
   2  -5   9   11.01    0.21
   2  -5  10    5.40    0.16
   2  -5  10    5.19    0.15
   2  -5  11    0.84    0.07
   2  -5  11    0.84    0.07
   2  -5  12    0.41    0.06
   2  -5  13    0.73    0.06
   2  -5  14    0.50    0.04
  -2  -4  15    0.73    0.05
  -2  -4  14    1.75    0.08
  -2  -4  13    0.95    0.06
  -2  -4  13    0.99    0.07
  -2  -4  12    8.06    0.17
  -2  -4  12    8.18    0.19
  -2  -4  11    1.55    0.09
  -2  -4  11    1.30    0.08
  -2  -4  11    1.55    0.10
  -2  -4  10    6.67    0.17
  -2  -4  10    6.72    0.18
  -2  -4  10    6.87    0.16
  -2  -4  10    6.87    0.17
  -2  -4   9    7.10    0.17
  -2  -4   9    7.22    0.18
  -2  -4   9    6.73    0.17
  -2  -4   9    6.91    0.17
  -2  -4   8    6.46    0.16
  -2  -4   8    6.51    0.16
  -2  -4   7    9.31    0.17
  -2  -4   7    8.93    0.19
  -2  -4   6   31.79    0.30
  -2  -4   6   29.99    0.33
  -2  -4   5   20.76    0.23
  -2  -4   5   21.54    0.27
  -2  -4   4    0.15    0.03
   2  -4  -4    0.17    0.06
  -2  -4   4    0.17    0.04
  -2  -4   3   39.67    0.32
   2  -4  -3   40.35    0.63
   2  -4  -2  144.19    1.20
  -2  -4   2  141.19    2.25
   2  -4  -1   87.60    0.96
  -2  -4   1   89.39    0.41
   2  -4   0    6.27    0.27
  -2  -4   0    5.81    0.10
   2  -4   1    4.49    0.23
   2  -4   2   56.45    0.36
   2  -4   2   56.43    0.82
   2  -4   3   20.77    0.22
   2  -4   3   20.22    0.51
   2  -4   4   24.90    0.25
   2  -4   4   25.16    0.58
   2  -4   5   11.16    0.40
   2  -4   6    6.63    0.32
   2  -4   7    1.31    0.17
   2  -4   8    5.39    0.15
   2  -4   8    5.68    0.15
   2  -4   8    5.33    0.15
   2  -4   9   12.40    0.22
   2  -4   9   12.52    0.22
   2  -4   9   12.63    0.24
   2  -4   9   12.73    0.22
   2  -4  10   35.23    0.40
   2  -4  10   34.90    0.36
   2  -4  10   35.17    0.38
   2  -4  11   11.86    0.23
   2  -4  12    0.50    0.07
   2  -4  13    1.23    0.08
   2  -4  14    0.42    0.05
  -2  -3  15    4.17    0.11
  -2  -3  14    1.89    0.09
  -2  -3  13    3.88    0.14
  -2  -3  12    2.79    0.12
  -2  -3  11    0.28    0.05
  -2  -3  11    0.22    0.06
  -2  -3  10    8.74    0.19
  -2  -3  10    8.30    0.18
  -2  -3  10    8.87    0.21
  -2  -3  10    8.85    0.18
  -2  -3   9   11.60    0.21
  -2  -3   9   11.34    0.20
  -2  -3   8    3.50    0.11
  -2  -3   8    3.55    0.12
  -2  -3   7   25.91    0.27
  -2  -3   7   24.77    0.28
  -2  -3   6   11.94    0.17
  -2  -3   6   11.82    0.19
  -2  -3   5   19.58    0.21
  -2  -3   5   19.41    0.23
  -2  -3   4   21.95    0.20
   2  -3  -4   22.77    0.43
  -2  -3   4   22.38    0.23
   2  -3  -3    1.04    0.11
  -2  -3   3    0.92    0.04
  -2  -3   2   25.33    0.21
   2  -3  -2   24.86    0.46
   2  -3  -1   10.65    0.31
  -2  -3   1   10.72    0.13
   2  -3   0    6.11    0.24
   2  -3   1   39.48    0.60
   2  -3   2   55.50    0.30
   2  -3   2   57.56    0.74
   2  -3   3   74.32    0.86
   2  -3   3   74.86    0.35
   2  -3   4    8.33    0.13
   2  -3   4    8.14    0.13
   2  -3   4    8.39    0.31
   2  -3   5   63.72    0.38
   2  -3   5   62.17    0.83
   2  -3   6   17.45    0.45
   2  -3   6   18.76    0.22
   2  -3   7   10.47    0.18
   2  -3   8    2.51    0.10
   2  -3   8    2.24    0.09
   2  -3   9    2.97    0.12
   2  -3   9    2.78    0.12
   2  -3   9    3.06    0.12
   2  -3   9    3.04    0.11
   2  -3  10   13.96    0.25
   2  -3  10   14.24    0.26
   2  -3  10   14.60    0.24
   2  -3  11    5.15    0.16
   2  -3  11    5.06    0.16
   2  -3  11    5.12    0.15
   2  -3  12    5.47    0.16
   2  -3  12    5.68    0.15
   2  -3  13    0.39    0.06
   2  -3  13    0.46    0.05
   2  -3  14    1.41    0.07
   2  -3  14    1.47    0.07
   2  -3  15    2.96    0.08
  -2  -2  16    0.05    0.03
  -2  -2  15    0.11    0.04
  -2  -2  14    4.11    0.14
  -2  -2  13    3.67    0.14
  -2  -2  12   11.36    0.24
  -2  -2  11   13.20    0.25
  -2  -2  10    9.72    0.19
  -2  -2  10    9.48    0.21
  -2  -2  10    9.42    0.17
  -2  -2   9    7.58    0.16
  -2  -2   9    7.74    0.16
  -2  -2   8   44.44    0.37
  -2  -2   8   45.58    0.36
  -2  -2   7   74.83    0.44
  -2  -2   7   75.57    0.44
  -2  -2   6  140.39    2.19
  -2  -2   6  140.73    2.32
  -2  -2   5   43.04    0.28
  -2  -2   5   43.74    0.60
  -2  -2   5   42.44    0.31
  -2  -2   4    1.94    0.06
  -2  -2   4    1.85    0.07
  -2  -2   4    2.10    0.13
  -2  -2   3   26.35    0.22
   2  -2  -3   27.20    0.44
   2  -2  -2  113.24    0.89
  -2  -2   2  110.63    1.64
   2  -2  -1    8.20    0.24
   2  -2   0   69.99    0.70
   2  -2   1   29.99    0.47
   2  -2   2   18.78    0.15
   2  -2   2   19.40    0.38
   2  -2   3    2.98    0.16
   2  -2   3    2.96    0.06
   2  -2   4   76.49    0.79
   2  -2   4   77.08    0.38
   2  -2   5   82.31    0.43
   2  -2   5   83.81    0.85
   2  -2   6   29.22    0.28
   2  -2   7    8.15    0.16
   2  -2   8    2.91    0.11
   2  -2   9   10.09    0.20
   2  -2  10    1.83    0.10
   2  -2  10    1.76    0.10
   2  -2  10    1.81    0.10
   2  -2  11   18.62    0.30
   2  -2  11   18.26    0.29
   2  -2  11   18.91    0.29
   2  -2  12    3.20    0.13
   2  -2  12    3.16    0.13
   2  -2  12    3.12    0.13
   2  -2  13    3.68    0.13
   2  -2  13    3.50    0.12
   2  -2  14    1.20    0.07
   2  -2  14    1.31    0.07
   2  -2  15    4.22    0.10
  -2  -1  16    0.72    0.05
  -2  -1  15    3.90    0.12
  -2  -1  15    3.98    0.10
  -2  -1  14    5.64    0.16
  -2  -1  14    5.78    0.14
  -2  -1  13    1.91    0.11
  -2  -1  13    1.85    0.09
  -2  -1  12    7.32    0.19
  -2  -1  12    7.16    0.17
  -2  -1  11   10.10    0.22
  -2  -1  10   11.73    0.19
  -2  -1   9    3.71    0.12
  -2  -1   9    3.88    0.11
  -2  -1   8   16.02    0.22
  -2  -1   8   16.68    0.21
  -2  -1   8   17.08    0.50
  -2  -1   7   24.54    0.24
  -2  -1   7   25.29    0.24
  -2  -1   7   25.23    0.57
  -2  -1   6   14.43    0.17
  -2  -1   6   14.84    0.41
  -2  -1   6   15.15    0.18
  -2  -1   5   48.46    0.28
  -2  -1   5   49.78    0.30
  -2  -1   4    5.94    0.09
  -2  -1   4    6.26    0.10
  -2  -1   3   45.60    0.26
   2  -1  -2   96.39    0.76
   2  -1  -1   66.08    0.62
   2  -1   0   73.67    0.65
   2  -1   1   41.09    0.49
   2  -1   2   22.64    0.37
   2  -1   3   60.73    0.60
   2  -1   4   22.05    0.41
   2  -1   4   21.35    0.20
   2  -1   4   21.24    0.37
   2  -1   5   34.29    0.28
   2  -1   5   35.18    0.47
   2  -1   6   44.85    0.34
   2  -1   7   33.36    0.32
   2  -1   8    3.44    0.12
   2  -1   9    2.98    0.11
   2  -1  10    3.34    0.13
   2  -1  10    3.25    0.13
   2  -1  10    3.18    0.12
   2  -1  11   19.69    0.30
   2  -1  11   19.83    0.31
   2  -1  11   19.98    0.30
   2  -1  12    8.50    0.21
   2  -1  12    8.41    0.20
   2  -1  12    8.32    0.20
   2  -1  13    1.37    0.09
   2  -1  13    1.32    0.09
   2  -1  14    1.44    0.08
   2  -1  14    1.52    0.08
   2  -1  15    0.26    0.04
  -2   0  16    2.15    0.07
  -2   0  16    2.34    0.07
  -2   0  15    6.61    0.14
  -2   0  15    6.46    0.14
  -2   0  14   12.51    0.22
  -2   0  14   12.27    0.22
  -2   0  13    0.42    0.06
  -2   0  13    0.41    0.06
  -2   0  12    0.87    0.08
  -2   0  11    4.84    0.15
  -2   0  10    2.55    0.24
  -2   0   9   27.99    0.72
  -2   0   8   61.38    1.01
  -2   0   8   64.11    0.39
  -2   0   7    9.93    0.15
  -2   0   7   10.00    0.38
  -2   0   6    0.26    0.04
  -2   0   6    0.26    0.09
   2   0  -5    1.36    0.09
  -2   0   5    1.22    0.05
   2   0  -4   63.98    0.58
  -2   0   4   59.18    0.29
   2   0  -3  392.54    5.78
  -2   0   3  371.09    2.69
   2   0  -2  987.04    9.31
   2   0  -2 1000.00    5.36
   2   0  -1    0.35    0.07
   2   0  -1    0.18    0.02
   2   0   0  348.46    3.42
   2   0   0  346.41    5.21
   2   0   1   28.11    0.42
   2   0   1   29.97    0.38
   2   0   2   10.44    0.26
   2   0   2   10.27    0.22
   2   0   3  154.77    0.98
   2   0   3  148.40    0.83
   2   0   4   37.74    0.48
   2   0   4   35.96    0.26
   2   0   5   16.19    0.19
   2   0   6    8.92    0.36
   2   0   6    9.64    0.16
   2   0   7    1.56    0.17
   2   0   7    1.69    0.08
   2   0   8    2.10    0.10
   2   0   8    1.89    0.21
   2   0   9    8.40    0.19
   2   0  10   24.71    0.33
   2   0  10   24.71    0.31
   2   0  10   24.93    0.32
   2   0  11   83.90    0.59
   2   0  11   85.47    0.62
   2   0  11   84.01    0.63
   2   0  12    0.10    0.05
   2   0  12    0.12    0.06
   2   0  13    3.20    0.13
   2   0  13    3.15    0.12
   2   0  14    2.87    0.11
   2   0  15    0.12    0.04
   2   0  16    1.38    0.05
  -2   1  16    0.69    0.05
  -2   1  15    3.89    0.12
  -2   1  14    5.84    0.14
  -2   1  14    5.79    0.16
  -2   1  13    1.70    0.09
  -2   1  13    1.76    0.09
  -2   1  13    1.79    0.10
  -2   1  12    7.43    0.18
  -2   1  12    7.03    0.18
  -2   1  11   10.19    0.20
  -2   1  11    9.75    0.20
  -2   1  10   11.10    0.51
  -2   1   9    3.49    0.29
  -2   1   8   17.11    0.56
  -2   1   7   25.17    0.63
  -2   1   6   14.70    0.45
   2   1  -5   55.10    0.57
  -2   1   5   52.59    0.77
   2   1  -4    6.28    0.20
  -2   1   4    6.02    0.26
   2   1  -3   45.68    0.53
   2   1  -2   95.13    0.62
   2   1  -2   95.95    0.76
   2   1  -1   63.61    0.62
   2   1  -1   64.46    0.48
   2   1   0   69.11    0.65
   2   1   0   72.33    0.52
   2   1   1   40.02    0.50
   2   1   1   41.30    0.42
   2   1   2   21.92    0.38
   2   1   2   23.14    0.35
   2   1   3   65.03    0.64
   2   1   3   63.77    0.65
   2   1   4   20.26    0.49
   2   1   4   21.00    0.20
   2   1   5   33.80    0.67
   2   1   5   33.89    0.28
   2   1   6   44.62    0.35
   2   1   6   44.25    0.82
   2   1   7   31.41    0.74
   2   1   7   33.22    0.32
   2   1   8    3.48    0.12
   2   1   8    2.96    0.26
   2   1   9    2.82    0.27
   2   1   9    2.77    0.11
   2   1  10    3.24    0.12
   2   1  10    3.12    0.12
   2   1  10    3.21    0.12
   2   1  11   19.91    0.28
   2   1  11   19.77    0.30
   2   1  12    8.09    0.20
   2   1  13    1.21    0.09
   2   1  14    1.41    0.08
   2   1  15    0.27    0.04
  -2   2  16    0.07    0.03
  -2   2  15    0.14    0.04
  -2   2  14    4.31    0.14
  -2   2  13    3.59    0.13
  -2   2  13    3.53    0.14
  -2   2  12   11.45    0.23
  -2   2  11   13.05    0.25
  -2   2  10    9.04    0.20
  -2   2  10    9.52    0.21
  -2   2   9    7.69    0.42
  -2   2   8   45.98    0.96
  -2   2   7   76.52    1.15
  -2   2   6  146.92    1.48
   2   2  -5   45.22    0.61
  -2   2   5   43.54    0.75
  -2   2   4    2.11    0.17
   2   2  -3   26.56    0.45
  -2   2   3   26.83    0.52
   2   2  -2  108.14    0.91
   2   2  -2  111.52    0.83
   2   2  -1    8.26    0.22
   2   2  -1    8.32    0.26
   2   2   0   68.07    0.73
   2   2   0   68.25    0.62
   2   2   1   28.99    0.48
   2   2   1   29.59    0.43
   2   2   2   19.13    0.39
   2   2   2   19.76    0.37
   2   2   3    3.32    0.17
   2   2   3    3.17    0.17
   2   2   4   75.24    0.97
   2   2   4   75.84    0.77
   2   2   4   76.95    0.39
   2   2   4   76.30    0.84
   2   2   5   82.84    0.44
   2   2   5   82.82    1.08
   2   2   6   27.69    0.68
   2   2   6   30.26    0.29
   2   2   7    7.42    0.39
   2   2   7    8.35    0.16
   2   2   8    2.58    0.25
   2   2   8    3.02    0.11
   2   2   9    9.34    0.48
   2   2   9   10.15    0.20
   2   2  10    1.75    0.10
   2   2  10    1.79    0.10
   2   2  11   18.88    0.29
   2   2  12    3.04    0.12
   2   2  13    3.39    0.12
   2   2  14    1.14    0.07
  -2   2 -15    3.89    0.10
   2   2  15    3.95    0.10
  -2   3  15    4.33    0.11
  -2   3  14    1.82    0.09
  -2   3  13    3.71    0.14
  -2   3  13    3.46    0.13
  -2   3  12    2.64    0.12
  -2   3  11    0.26    0.06
  -2   3  10    8.42    0.20
  -2   3  10    8.58    0.20
  -2   3   9   11.77    0.54
  -2   3   8    3.22    0.29
  -2   3   7   26.04    0.71
  -2   3   6   12.26    0.46
   2   3  -5   20.67    0.47
  -2   3   5   20.64    0.55
   2   3  -4   23.32    0.50
  -2   3   4   23.91    0.55
   2   3  -3    1.00    0.11
   2   3  -3    1.12    0.13
  -2   3   3    1.02    0.12
   2   3  -2   25.62    0.52
   2   3  -2   26.09    0.47
   2   3  -1   10.70    0.30
   2   3   0    6.37    0.23
   2   3   1   41.28    0.58
   2   3   2   58.07    0.78
   2   3   2   59.81    0.72
   2   3   3   76.04    0.89
   2   3   3   75.18    0.35
   2   3   3   76.99    0.86
   2   3   4    8.31    0.30
   2   3   4    8.41    0.13
   2   3   4    8.02    0.33
   2   3   4    8.22    0.30
   2   3   5   64.64    0.38
   2   3   5   64.30    0.89
   2   3   6   15.73    0.54
   2   3   6   19.14    0.23
   2   3   7    9.65    0.45
   2   3   7   10.14    0.18
   2   3   8    2.03    0.23
   2   3   8    2.61    0.10
   2   3   9    3.28    0.13
   2   3  10   14.07    0.27
   2   3  10   14.31    0.24
   2   3  11    5.23    0.15
   2   3  12    5.37    0.15
  -2   3 -13    0.47    0.06
   2   3  13    0.37    0.05
  -2   3 -14    1.46    0.08
   2   3  14    1.41    0.07
  -2   3 -15    3.13    0.08
   2   3  15    2.97    0.07
   2   4 -15    0.70    0.05
  -2   4  15    0.69    0.05
   2   4 -14    1.72    0.08
  -2   4  14    1.76    0.08
  -2   4  13    1.04    0.08
  -2   4  12    8.52    0.21
  -2   4  11    1.54    0.10
  -2   4  11    1.47    0.10
  -2   4  10    7.03    0.19
  -2   4  10    6.62    0.18
  -2   4   9    7.20    0.18
  -2   4   9    7.00    0.18
  -2   4   8    6.70    0.41
  -2   4   7    9.57    0.45
  -2   4   6   32.68    0.78
   2   4  -5   20.43    0.53
  -2   4   5   22.78    0.60
   2   4  -4    0.08    0.10
  -2   4   4    0.20    0.09
   2   4  -4    0.13    0.08
   2   4  -3   39.91    0.74
   2   4  -3   40.94    0.70
   2   4  -2  137.10    1.37
   2   4  -2  142.28    1.25
   2   4  -1   88.71    0.97
  -2   4   1   94.62    0.91
   2   4   0    6.00    0.26
   2   4   0    6.00    0.30
   2   4   1    4.50    0.26
   2   4   1    4.58    0.23
   2   4   2   54.41    0.87
   2   4   2   59.40    0.81
   2   4   3   21.86    0.55
   2   4   3   21.42    0.51
   2   4   4   26.30    0.59
   2   4   4   26.92    0.59
   2   4   5   11.41    0.44
   2   4   5   11.86    0.42
   2   4   6    6.48    0.36
   2   4   6    6.71    0.34
   2   4   7    1.76    0.22
   2   4   8    6.22    0.18
  -2   4  -9   13.50    0.25
   2   4   9   13.23    0.27
  -2   4 -10   36.45    0.41
  -2   4 -11   13.15    0.25
  -2   4 -12    0.54    0.07
  -2   4 -13    1.36    0.08
  -2   4 -14    0.40    0.05
   2   5 -14    1.42    0.06
  -2   5  14    1.21    0.06
   2   5 -13    1.62    0.08
  -2   5  13    1.58    0.08
  -2   5  12    5.37    0.14
   2   5 -12    5.47    0.15
   2   5 -11    3.25    0.13
  -2   5  11    3.68    0.14
  -2   5  11    3.29    0.13
  -2   5  10    0.41    0.07
  -2   5  10    0.47    0.07
   2   5 -10    0.42    0.07
   2   5  -9    4.54    0.15
  -2   5   9    4.81    0.16
   2   5  -8    3.15    0.13
  -2   5   8    3.17    0.13
  -2   5   8    2.94    0.12
   2   5  -7    2.14    0.10
  -2   5   7    1.86    0.23
  -2   5   7    2.10    0.10
   2   5  -7    1.78    0.20
  -2   5   7    1.98    0.10
  -2   5   6    0.72    0.16
   2   5  -6    0.76    0.13
   2   5  -5    3.61    0.26
   2   5  -4    4.99    0.29
   2   5  -3    0.37    0.12
   2   5  -3    0.27    0.11
   2   5  -2   10.95    0.44
   2   5  -2   12.12    0.42
   2   5  -1    8.23    0.39
   2   5  -1    8.98    0.35
   2   5   0   13.93    0.49
   2   5   0   15.19    0.45
   2   5   1   39.91    0.73
   2   5   1   35.39    0.78
   2   5   2   36.24    0.79
   2   5   2   40.27    0.74
   2   5   3    5.80    0.32
   2   5   3    4.71    0.27
   2   5   4    6.04    0.32
   2   5   5    1.50    0.18
   2   5   6    2.32    0.22
  -2   5  -7    0.42    0.06
  -2   5  -8    4.54    0.15
  -2   5  -9   12.11    0.24
  -2   5 -10    5.64    0.16
  -2   5 -11    0.92    0.08
  -2   5 -12    0.54    0.06
  -2   5 -13    0.71    0.06
  -2   5 -14    0.58    0.04
   2   6 -13    0.70    0.05
   2   6 -12    0.02    0.04
  -2   6  11    3.45    0.12
   2   6 -11    3.39    0.12
   2   6 -10    2.05    0.10
  -2   6  10    2.25    0.11
  -2   6  10    2.30    0.11
  -2   6   9    9.10    0.21
  -2   6   9    9.47    0.21
   2   6  -8   19.14    0.30
  -2   6   8   19.55    0.30
  -2   6   8   19.47    0.29
   2   6  -7   25.02    0.34
  -2   6   7   26.10    0.34
   2   6  -6    7.72    0.19
  -2   6   6    7.31    0.18
  -2   6   6    7.85    0.19
  -2   6   5    1.12    0.08
   2   6  -5    1.21    0.08
  -2   6   5    1.29    0.09
   2   6  -4   10.45    0.44
   2   6  -3   17.24    0.55
   2   6  -2   24.32    0.64
   2   6  -1    5.81    0.32
   2   6   0    2.54    0.22
   2   6   1    0.34    0.11
   2   6   2    2.98    0.24
   2   6   3    4.81    0.30
  -2   6  -4   47.24    0.43
   2   6   4   44.30    0.89
  -2   6  -5    9.30    0.20
  -2   6  -6    6.51    0.17
  -2   6  -7    3.82    0.14
  -2   6  -8    2.87    0.12
  -2   6  -9    3.32    0.13
  -2   6 -10    5.73    0.16
  -2   6 -11    0.15    0.05
  -2   6 -12    1.93    0.08
  -2   6 -13    0.14    0.03
   2   7 -12    0.10    0.04
   2   7 -11    0.06    0.04
   2   7 -10    0.43    0.06
  -2   7  10    0.54    0.06
   2   7  -9    1.65    0.09
  -2   7   9    1.66    0.10
   2   7  -8    4.78    0.15
  -2   7   8    4.91    0.15
   2   7  -7    9.76    0.22
  -2   7   7   10.17    0.22
   2   7  -6   10.87    0.23
  -2   7   6   10.92    0.23
   2   7  -5   10.61    0.22
  -2   7   5   10.58    0.23
   2   7  -4   10.04    0.21
  -2   7   4    9.95    0.22
  -2   7   4    9.99    0.19
   2   7  -3    5.30    0.16
  -2   7   3    4.99    0.14
  -2   7   3    5.27    0.16
  -2   7   2   10.87    0.20
   2   7  -2   11.10    0.22
   2   7  -1   13.37    0.24
  -2   7   1   13.33    0.23
   2   7   0    7.12    0.16
   2   7   0    7.57    0.18
  -2   7   0    7.10    0.17
   2   7   1    4.70    0.14
  -2   7  -1    4.57    0.14
   2   7   2   17.44    0.26
  -2   7  -2   17.86    0.28
   2   7   3   10.36    0.21
  -2   7  -3   10.69    0.22
  -2   7  -4    6.93    0.18
  -2   7  -5   11.64    0.24
  -2   7  -6   10.26    0.22
  -2   7  -7    2.49    0.12
  -2   7  -8    0.31    0.06
  -2   7  -9    0.38    0.06
  -2   7 -10    0.12    0.05
  -2   7 -11    0.43    0.05
  -2   7 -12    4.57    0.09
   2   8 -11    0.38    0.04
   2   8 -10    1.29    0.07
  -2   8  10    1.39    0.06
   2   8  -9    0.57    0.06
  -2   8   9    0.61    0.06
   2   8  -8    0.34    0.06
  -2   8   8    0.39    0.06
   2   8  -7    2.22    0.11
  -2   8   7    2.47    0.11
   2   8  -6    0.83    0.08
  -2   8   6    0.92    0.08
   2   8  -5    2.05    0.11
  -2   8   5    2.06    0.09
  -2   8   5    2.25    0.11
   2   8  -4    0.55    0.07
  -2   8   4    0.50    0.06
  -2   8   4    0.51    0.07
   2   8  -3    3.51    0.13
  -2   8   3    3.50    0.12
  -2   8   3    3.58    0.14
  -2   8   2    4.53    0.14
   2   8  -2    4.43    0.15
  -2   8   1    4.31    0.14
   2   8  -1    4.14    0.15
   2   8  -1    4.33    0.13
   2   8   0    0.03    0.05
  -2   8   0    0.01    0.05
   2   8   1    0.36    0.06
  -2   8  -1    0.35    0.06
   2   8   2    1.66    0.10
  -2   8  -2    1.80    0.10
  -2   8  -3    0.88    0.08
  -2   8  -4    8.24    0.20
  -2   8  -5    6.01    0.17
  -2   8  -6    1.54    0.09
  -2   8  -7    2.11    0.10
  -2   8  -8    1.36    0.08
  -2   8  -9    3.26    0.10
  -2   8 -10    0.04    0.03
   2   9  -9    0.29    0.04
   2   9  -8    0.22    0.04
  -2   9   8    0.18    0.04
   2   9  -7    6.36    0.14
  -2   9   7    6.76    0.14
   2   9  -6    3.81    0.12
  -2   9   6    3.75    0.12
   2   9  -5    3.08    0.12
  -2   9   5    3.21    0.11
   2   9  -4    1.65    0.09
  -2   9   4    1.64    0.08
  -2   9   4    1.64    0.09
  -2   9   3    4.27    0.13
   2   9  -3    4.08    0.14
  -2   9   3    3.93    0.14
  -2   9   2    1.29    0.08
  -2   9   2    1.30    0.09
  -2   9   1   15.16    0.24
  -2   9   1   15.15    0.26
   2   9   0    5.23    0.14
  -2   9   0    5.63    0.15
  -2   9  -1    0.57    0.07
   2   9   1    0.57    0.06
  -2   9  -2    0.02    0.05
  -2   9  -3    0.33    0.06
  -2   9  -4    0.04    0.05
  -2   9  -5    1.64    0.09
  -2   9  -6    0.25    0.05
  -2   9  -7    2.04    0.08
  -2   9  -8    3.04    0.09
  -2  10   5    0.44    0.04
  -2  10   4    1.62    0.07
  -2  10   3    0.49    0.05
  -2  10   2    3.07    0.09
  -2  10   2    3.10    0.10
  -2  10   1    2.66    0.10
  -2  10   1    2.76    0.09
  -2  10   0    2.72    0.09
  -2  10   0    2.60    0.10
  -2  10  -1    0.32    0.05
  -2  10  -1    0.32    0.05
  -2  10  -2    0.96    0.06
  -2  10  -3    1.62    0.07
  -2  10  -4    1.69    0.07
  -2  10  -5    1.26    0.06
  -2  10  -6    0.67    0.04
   3 -10  -3    0.29    0.04
   3 -10  -2    3.01    0.09
   3 -10  -2    2.61    0.07
   3 -10  -1    0.56    0.05
   3 -10  -1    0.62    0.05
   3 -10   0    0.08    0.04
   3 -10   0    0.08    0.04
   3 -10   1    0.22    0.04
   3 -10   1    0.28    0.05
   3 -10   2    0.38    0.04
   3 -10   2    0.39    0.05
   3 -10   3    0.44    0.04
  -3  -9   8    3.44    0.08
  -3  -9   7    1.58    0.06
   3  -9  -7    1.36    0.06
  -3  -9   6    0.46    0.05
   3  -9  -5    1.59    0.07
  -3  -9   5    1.68    0.08
   3  -9  -4    0.91    0.07
   3  -9  -3    3.28    0.12
   3  -9  -3    3.29    0.10
   3  -9  -2    3.38    0.12
   3  -9  -2    3.41    0.11
   3  -9  -1    2.31    0.11
   3  -9  -1    2.43    0.10
   3  -9   0    0.62    0.08
   3  -9   0    0.49    0.07
   3  -9   1    2.50    0.11
   3  -9   1    2.51    0.11
   3  -9   2    2.88    0.11
   3  -9   2    2.85    0.11
   3  -9   3    0.13    0.05
   3  -9   3    0.11    0.06
   3  -9   3    0.08    0.03
   3  -9   4    1.07    0.07
   3  -9   4    1.02    0.07
   3  -9   4    0.97    0.06
   3  -9   5    2.89    0.09
   3  -9   5    2.93    0.09
   3  -9   6    1.47    0.06
   3  -9   6    1.59    0.07
   3  -9   7    0.03    0.03
  -3  -8  10    1.54    0.06
  -3  -8   9    0.91    0.06
  -3  -8   8    0.92    0.07
   3  -8  -8    0.86    0.06
  -3  -8   7    7.60    0.17
   3  -8  -5    2.60    0.11
   3  -8  -4    3.58    0.13
   3  -8  -3    0.93    0.07
   3  -8  -2    6.02    0.16
   3  -8  -1    0.36    0.07
   3  -8  -1    0.38    0.05
   3  -8   0    2.43    0.12
   3  -8   0    2.74    0.11
   3  -8   1    0.59    0.08
   3  -8   2    0.52    0.08
   3  -8   3    3.05    0.11
   3  -8   3    2.96    0.13
   3  -8   3    2.85    0.13
   3  -8   4    1.22    0.09
   3  -8   4    1.12    0.08
   3  -8   4    1.14    0.08
   3  -8   5    8.26    0.18
   3  -8   5    8.10    0.17
   3  -8   6    0.82    0.07
   3  -8   6    0.80    0.07
   3  -8   7    0.07    0.05
   3  -8   8    0.64    0.06
   3  -8   9    0.32    0.04
  -3  -7  11    1.92    0.07
  -3  -7  10    0.11    0.04
  -3  -7   9    4.84    0.13
  -3  -7   8   15.37    0.25
   3  -7  -8   14.32    0.23
  -3  -7   6    0.78    0.07
   3  -7  -5    0.94    0.07
  -3  -7   5    0.93    0.08
  -3  -7   4    1.07    0.08
   3  -7  -3    0.29    0.05
  -3  -7   3    0.24    0.06
   3  -7  -2    3.59    0.13
  -3  -7   2    3.59    0.13
   3  -7  -1    6.48    0.17
   3  -7   0    2.90    0.12
   3  -7   1    2.17    0.10
   3  -7   2    6.98    0.16
   3  -7   2    6.62    0.19
   3  -7   2    6.96    0.17
   3  -7   3   12.70    0.22
   3  -7   3   12.41    0.25
   3  -7   3   12.82    0.23
   3  -7   4   15.66    0.26
   3  -7   4   15.84    0.26
   3  -7   4   15.70    0.27
   3  -7   5    6.07    0.17
   3  -7   5    6.32    0.17
   3  -7   6    3.84    0.13
   3  -7   6    3.74    0.14
   3  -7   7    0.60    0.07
   3  -7   8    2.33    0.10
   3  -7   9    1.67    0.08
   3  -7  10    0.87    0.06
  -3  -6  12    0.27    0.04
  -3  -6  11    0.56    0.06
  -3  -6  10    1.55    0.09
  -3  -6   9    4.46    0.14
   3  -6  -8    2.65    0.11
  -3  -6   8    2.87    0.12
  -3  -6   7    3.05    0.12
  -3  -6   6   13.00    0.24
  -3  -6   5    5.15    0.16
  -3  -6   4    4.48    0.15
   3  -6  -3    2.12    0.09
  -3  -6   3    2.13    0.11
  -3  -6   2    3.73    0.12
  -3  -6   1    3.47    0.11
   3  -6   0    4.42    0.13
   3  -6   1    3.48    0.12
   3  -6   2    5.12    0.14
   3  -6   2    5.28    0.14
   3  -6   3    0.57    0.07
   3  -6   3    0.65    0.08
   3  -6   3    0.66    0.06
   3  -6   4    1.29    0.09
   3  -6   4    1.30    0.10
   3  -6   5   12.71    0.24
   3  -6   5   12.80    0.24
   3  -6   6    4.82    0.15
   3  -6   6    4.92    0.16
   3  -6   7    2.20    0.11
   3  -6   8    1.42    0.08
   3  -6   8    1.32    0.09
   3  -6   9    1.53    0.09
   3  -6   9    1.49    0.08
   3  -6  10    0.21    0.06
   3  -6  10    0.24    0.04
   3  -6  11    0.59    0.05
   3  -6  11    0.54    0.05
   3  -6  12    0.51    0.04
  -3  -5  13    0.44    0.04
  -3  -5  12    0.06    0.04
  -3  -5  12    0.09    0.04
  -3  -5  11    0.96    0.07
  -3  -5  11    0.95    0.07
  -3  -5  10    2.02    0.10
  -3  -5  10    2.17    0.10
  -3  -5   9   10.18    0.21
  -3  -5   9   10.48    0.21
  -3  -5   9   10.53    0.21
  -3  -5   8   14.18    0.24
  -3  -5   8   14.29    0.25
  -3  -5   7    7.13    0.18
  -3  -5   6    2.82    0.12
  -3  -5   5    2.96    0.12
  -3  -5   4    3.33    0.12
   3  -5  -3   33.82    0.71
  -3  -5   3   31.87    0.34
   3  -5  -2   10.25    0.40
  -3  -5   2    9.22    0.18
   3  -5  -1    6.92    0.34
  -3  -5   1    6.21    0.14
   3  -5   0    2.97    0.23
   3  -5   1   11.26    0.19
   3  -5   1   10.94    0.44
   3  -5   2    3.06    0.25
   3  -5   2    3.11    0.10
   3  -5   3    6.36    0.34
   3  -5   3    6.74    0.15
   3  -5   4   12.20    0.22
   3  -5   4   12.62    0.21
   3  -5   5    8.13    0.19
   3  -5   5    7.82    0.18
   3  -5   6    4.18    0.14
   3  -5   7    2.50    0.10
   3  -5   7    2.53    0.12
   3  -5   8    2.19    0.10
   3  -5   8    2.09    0.11
   3  -5   9    9.82    0.20
   3  -5   9    9.41    0.20
   3  -5  10    7.55    0.17
   3  -5  10    7.25    0.17
   3  -5  11    1.31    0.08
   3  -5  11    1.19    0.08
   3  -5  12    4.71    0.10
   3  -5  12    5.13    0.12
   3  -5  13    1.22    0.05
  -3  -4  14    3.86    0.10
  -3  -4  13    1.83    0.09
  -3  -4  12    3.57    0.13
  -3  -4  11    3.66    0.13
  -3  -4  10    2.04    0.09
  -3  -4  10    1.88    0.09
  -3  -4  10    2.00    0.11
  -3  -4  10    2.11    0.10
  -3  -4   9    0.65    0.06
  -3  -4   9    0.72    0.07
  -3  -4   9    0.65    0.07
  -3  -4   8    8.92    0.17
  -3  -4   8    8.80    0.20
  -3  -4   8    8.83    0.19
  -3  -4   7    9.56    0.20
  -3  -4   7    9.04    0.19
  -3  -4   6    1.16    0.09
  -3  -4   5    3.82    0.13
  -3  -4   4    5.87    0.15
   3  -4  -4    6.07    0.28
   3  -4  -3    2.85    0.20
  -3  -4   3    2.55    0.10
   3  -4  -2    1.37    0.16
  -3  -4   2    1.41    0.07
  -3  -4   1   24.67    0.25
   3  -4  -1   24.84    0.58
   3  -4   0   32.85    0.68
   3  -4   1   11.41    0.41
   3  -4   2   17.15    0.21
   3  -4   2   17.65    0.52
   3  -4   3    6.70    0.33
   3  -4   3    6.68    0.13
   3  -4   4   39.74    0.33
   3  -4   4   38.49    0.78
   3  -4   5   19.82    0.56
   3  -4   6    2.12    0.11
   3  -4   6    2.00    0.20
   3  -4   7   12.20    0.22
   3  -4   7   11.73    0.22
   3  -4   8    4.37    0.14
   3  -4   8    4.65    0.14
   3  -4   8    4.27    0.14
   3  -4   9    0.71    0.07
   3  -4   9    0.71    0.08
   3  -4   9    0.73    0.07
   3  -4  10    1.47    0.09
   3  -4  10    1.50    0.09
   3  -4  10    1.53    0.09
   3  -4  11    2.30    0.11
   3  -4  11    2.14    0.10
   3  -4  11    2.45    0.10
   3  -4  12    0.18    0.05
   3  -4  12    0.19    0.04
   3  -4  13    0.18    0.04
  -3  -3  15    1.58    0.06
  -3  -3  14    0.41    0.05
  -3  -3  13    3.67    0.13
  -3  -3  12    2.60    0.12
  -3  -3  11    1.59    0.10
  -3  -3  11    1.54    0.08
  -3  -3  10   10.05    0.23
  -3  -3  10   10.28    0.20
  -3  -3   9    0.88    0.07
  -3  -3   9    0.91    0.08
  -3  -3   9    0.87    0.07
  -3  -3   8    5.05    0.13
  -3  -3   8    4.74    0.14
  -3  -3   8    4.70    0.15
  -3  -3   7    7.72    0.15
  -3  -3   7    7.57    0.17
  -3  -3   6    2.22    0.10
  -3  -3   5    0.15    0.05
  -3  -3   4    8.93    0.17
   3  -3  -3    0.86    0.12
  -3  -3   3    0.88    0.06
   3  -3  -2    8.67    0.32
  -3  -3   2    7.96    0.14
   3  -3  -1    4.12    0.23
  -3  -3   1    4.16    0.10
  -3  -3   0    0.66    0.04
   3  -3   0    0.77    0.12
   3  -3   1    0.01    0.08
   3  -3   2    5.13    0.10
   3  -3   2    5.03    0.26
   3  -3   3    4.07    0.10
   3  -3   3    3.82    0.09
   3  -3   3    3.81    0.23
   3  -3   4    3.68    0.10
   3  -3   4    3.32    0.22
   3  -3   5    2.76    0.09
   3  -3   5    2.46    0.20
   3  -3   6    4.15    0.12
   3  -3   7    0.17    0.04
   3  -3   8    3.43    0.12
   3  -3   8    3.42    0.13
   3  -3   8    3.44    0.13
   3  -3   8    3.59    0.12
   3  -3   9   14.81    0.26
   3  -3   9   14.48    0.24
   3  -3   9   14.90    0.26
   3  -3   9   15.35    0.25
   3  -3  10    4.31    0.15
   3  -3  10    4.36    0.14
   3  -3  10    4.63    0.15
   3  -3  11    0.66    0.07
   3  -3  11    0.58    0.07
   3  -3  11    0.67    0.07
   3  -3  12    1.41    0.09
   3  -3  12    1.66    0.09
   3  -3  13    3.20    0.11
   3  -3  13    3.46    0.10
   3  -3  14    0.65    0.04
  -3  -2  15    4.67    0.11
  -3  -2  14    2.27    0.10
  -3  -2  13    3.78    0.13
  -3  -2  12    1.20    0.09
  -3  -2  11    3.99    0.15
  -3  -2  10    4.91    0.16
  -3  -2  10    4.99    0.14
  -3  -2   9    7.98    0.20
  -3  -2   9    8.04    0.17
  -3  -2   8    9.50    0.18
  -3  -2   7   23.92    0.25
  -3  -2   7   23.99    0.28
  -3  -2   6   36.60    0.29
  -3  -2   6   37.59    0.33
  -3  -2   5   46.99    0.29
   3  -2  -5   46.22    0.68
  -3  -2   5   47.62    0.76
   3  -2  -4   21.58    0.50
  -3  -2   4   23.26    0.24
   3  -2  -3   54.82    0.76
  -3  -2   3   51.46    0.33
  -3  -2   2   16.62    0.18
   3  -2  -2   17.65    0.43
   3  -2  -1   63.34    0.81
  -3  -2   1   59.44    0.31
  -3  -2   0   23.62    0.18
   3  -2   0   24.05    0.50
   3  -2   1    1.43    0.14
   3  -2   2    0.76    0.11
   3  -2   3    6.63    0.27
   3  -2   4   27.11    0.27
   3  -2   4   26.65    0.59
   3  -2   4   26.00    0.53
   3  -2   5   12.45    0.40
   3  -2   5   12.45    0.20
   3  -2   5   11.86    0.36
   3  -2   6   30.72    0.32
   3  -2   7   32.13    0.35
   3  -2   8    2.49    0.11
   3  -2   8    2.35    0.11
   3  -2   8    2.63    0.11
   3  -2   8    2.57    0.11
   3  -2   9    1.48    0.09
   3  -2   9    1.46    0.09
   3  -2   9    1.63    0.10
   3  -2   9    1.57    0.09
   3  -2  10    1.57    0.10
   3  -2  10    1.76    0.10
   3  -2  10    1.57    0.10
   3  -2  10    1.57    0.09
   3  -2  11    5.00    0.16
   3  -2  11    5.27    0.16
   3  -2  12    1.66    0.10
   3  -2  12    1.82    0.10
   3  -2  13    5.87    0.15
   3  -2  13    6.37    0.15
   3  -2  14    3.51    0.10
  -3  -1  15    0.00    0.03
  -3  -1  14    4.25    0.13
  -3  -1  13   13.59    0.24
  -3  -1  12    7.70    0.20
  -3  -1  11    4.43    0.15
  -3  -1  10    1.75    0.10
  -3  -1   9   23.05    0.32
  -3  -1   9   23.20    0.28
  -3  -1   8   11.76    0.45
  -3  -1   8   12.19    0.20
  -3  -1   7   26.61    0.65
  -3  -1   7   25.76    0.28
  -3  -1   6    9.26    0.36
  -3  -1   6    8.46    0.15
   3  -1  -5    4.40    0.20
  -3  -1   5    4.44    0.26
  -3  -1   5    4.14    0.10
   3  -1  -4   25.26    0.49
  -3  -1   4   23.36    0.22
   3  -1  -3  126.88    1.11
  -3  -1   3  117.74    1.87
   3  -1  -2   44.55    0.68
  -3  -1   2   45.16    0.27
   3  -1  -1   31.36    0.53
  -3  -1   1   31.14    0.21
   3  -1   0   16.94    0.39
  -3  -1   0   16.47    0.14
   3  -1   1   28.33    0.57
   3  -1   1   28.93    0.51
   3  -1   2   19.61    0.47
   3  -1   2   20.15    0.43
   3  -1   3   21.64    0.49
   3  -1   3   20.13    0.43
   3  -1   4   66.52    0.85
   3  -1   4   59.66    0.73
   3  -1   5    7.56    0.28
   3  -1   5    6.92    0.15
   3  -1   6    0.66    0.06
   3  -1   7    4.99    0.14
   3  -1   8    1.70    0.09
   3  -1   9   31.49    0.33
   3  -1   9   32.02    0.38
   3  -1   9   32.84    0.38
   3  -1   9   31.54    0.38
   3  -1  10   21.17    0.32
   3  -1  10   20.84    0.31
   3  -1  10   21.51    0.32
   3  -1  11    2.24    0.11
   3  -1  11    2.36    0.11
   3  -1  12   12.45    0.24
   3  -1  12   12.52    0.23
   3  -1  13    0.88    0.07
   3  -1  14    2.16    0.09
   3  -1  15    1.24    0.05
  -3   0  15    0.89    0.05
  -3   0  15    0.90    0.05
  -3   0  14    0.26    0.05
  -3   0  14    0.28    0.05
  -3   0  13    0.94    0.07
  -3   0  13    1.00    0.07
  -3   0  12    0.53    0.07
  -3   0  11    2.60    0.12
  -3   0  10   25.87    0.34
  -3   0   9    3.10    0.27
  -3   0   8    9.35    0.43
  -3   0   7    0.48    0.13
  -3   0   6   24.34    0.61
  -3   0   6   24.25    0.25
   3   0  -5   38.44    0.58
  -3   0   5   36.30    0.72
   3   0  -4    2.16    0.15
  -3   0   4    1.94    0.07
   3   0  -3   15.74    0.38
  -3   0   3   15.52    0.17
   3   0  -2   12.12    0.34
  -3   0   2   13.05    0.15
   3   0  -1   70.27    0.81
   3   0   0   34.54    0.58
   3   0   1   19.72    0.44
   3   0   2   15.17    0.39
   3   0   3   50.82    0.71
   3   0   4    4.60    0.22
   3   0   5    0.30    0.05
   3   0   6    0.24    0.05
   3   0   7    8.72    0.19
   3   0   8   12.83    0.24
   3   0   9   12.62    0.24
   3   0   9   12.68    0.23
   3   0   9   13.02    0.24
   3   0   9   12.55    0.24
   3   0  10    8.89    0.21
   3   0  10    9.12    0.21
   3   0  10    9.09    0.21
   3   0  11    0.14    0.05
   3   0  11    0.16    0.06
   3   0  12    3.25    0.13
   3   0  13    5.82    0.15
   3   0  14    0.20    0.04
   3   0  15    0.03    0.03
  -3   1  15    0.00    0.03
  -3   1  14    4.38    0.13
  -3   1  13   13.36    0.22
  -3   1  12    8.52    0.19
  -3   1  12    8.53    0.19
  -3   1  11    4.63    0.14
  -3   1  11    4.37    0.14
  -3   1  10    1.52    0.09
  -3   1  10    1.61    0.09
  -3   1   9   24.19    0.74
  -3   1   8   11.99    0.51
  -3   1   7   25.60    0.70
  -3   1   6    8.35    0.38
   3   1  -5    4.42    0.21
  -3   1   5    3.99    0.27
   3   1  -4   25.80    0.50
   3   1  -3  128.07    1.11
   3   1  -2   47.01    0.68
   3   1  -1   29.57    0.54
   3   1   0   15.80    0.40
   3   1   0   16.82    0.29
   3   1   1   25.71    0.51
   3   1   1   28.70    0.41
   3   1   2   19.96    0.45
   3   1   2   20.61    0.38
   3   1   3   22.17    0.48
   3   1   4   65.81    0.82
   3   1   5    7.03    0.15
   3   1   6    0.67    0.06
   3   1   7    4.69    0.14
   3   1   8    1.76    0.10
   3   1   9   32.45    0.38
   3   1   9   32.17    0.36
   3   1   9   31.40    0.38
   3   1  10   22.27    0.32
   3   1  10   21.87    0.32
   3   1  10   21.79    0.31
   3   1  11    2.35    0.11
   3   1  12   12.72    0.23
   3   1  13    0.84    0.07
   3   1  14    2.12    0.08
  -3   1 -15    0.92    0.05
   3   1  15    1.26    0.05
  -3   2  15    4.80    0.11
  -3   2  14    2.32    0.10
  -3   2  13    3.82    0.13
  -3   2  12    1.25    0.09
  -3   2  11    4.14    0.14
  -3   2  10    4.98    0.16
  -3   2   9    7.75    0.19
  -3   2   9    7.75    0.19
  -3   2   8    9.30    0.46
  -3   2   7   25.07    0.72
  -3   2   6   37.71    0.82
  -3   2   5   47.53    0.88
   3   2  -4   23.27    0.51
  -3   2   4   24.22    0.61
   3   2  -3   53.83    0.78
   3   2  -3   56.64    0.63
   3   2  -2   17.02    0.34
   3   2  -2   17.24    0.45
   3   2  -1   61.54    0.64
   3   2  -1   59.67    0.82
   3   2   0   22.54    0.51
   3   2   0   23.62    0.41
   3   2   1    1.09    0.13
   3   2   1    1.55    0.12
   3   2   2    0.93    0.12
   3   2   2    0.97    0.11
   3   2   3    7.69    0.30
   3   2   3    7.80    0.28
   3   2   4   27.25    0.28
   3   2   4   27.74    0.57
   3   2   5   12.70    0.20
   3   2   6   32.24    0.33
   3   2   7   31.78    0.35
   3   2   8    2.31    0.10
   3   2   8    2.57    0.12
   3   2   9    1.49    0.10
   3   2   9    1.39    0.09
   3   2   9    1.57    0.09
   3   2  10    1.69    0.09
   3   2  10    1.60    0.10
   3   2  10    1.67    0.10
   3   2  11    4.90    0.16
   3   2  11    5.24    0.15
   3   2  12    1.62    0.09
   3   2  13    6.41    0.14
  -3   2 -14    3.05    0.09
   3   2  14    3.35    0.09
  -3   3  15    1.58    0.06
   3   3 -14    0.44    0.05
  -3   3  14    0.44    0.05
  -3   3  13    3.84    0.13
  -3   3  12    2.73    0.12
  -3   3  11    1.63    0.10
  -3   3  10   10.08    0.22
  -3   3  10   10.23    0.23
  -3   3   9    1.05    0.09
  -3   3   9    0.83    0.08
  -3   3   8    4.57    0.15
  -3   3   8    4.90    0.15
  -3   3   7    8.60    0.44
  -3   3   6    2.32    0.24
   3   3  -5    0.13    0.09
  -3   3   5    0.06    0.11
   3   3  -5    0.06    0.07
   3   3  -4    9.97    0.38
  -3   3   4   10.34    0.41
   3   3  -4    9.85    0.32
  -3   3   3    1.16    0.16
   3   3  -3    0.89    0.11
   3   3  -2    8.24    0.28
   3   3  -1    4.00    0.24
   3   3  -1    4.41    0.21
   3   3   0    0.62    0.11
   3   3   0    0.66    0.09
   3   3   1    0.00    0.08
   3   3   1    0.05    0.06
   3   3   2    5.22    0.24
   3   3   3    3.98    0.10
   3   3   3    3.90    0.23
   3   3   4    3.44    0.10
   3   3   4    3.02    0.22
   3   3   5    2.78    0.10
   3   3   6    4.21    0.12
   3   3   7    0.14    0.06
   3   3   7    0.14    0.04
   3   3   8    3.87    0.15
   3   3   8    3.89    0.13
   3   3   9   15.66    0.29
   3   3   9   15.83    0.25
   3   3  10    4.63    0.17
   3   3  11    0.47    0.07
  -3   3 -12    1.62    0.09
   3   3  12    1.65    0.08
  -3   3 -13    3.23    0.11
   3   3  13    3.44    0.09
  -3   3 -14    0.60    0.05
   3   4 -14    3.61    0.09
  -3   4  14    3.67    0.10
   3   4 -13    1.79    0.08
  -3   4  13    1.76    0.09
   3   4 -12    3.81    0.12
  -3   4  12    3.58    0.13
   3   4 -11    4.02    0.13
  -3   4  11    3.94    0.15
  -3   4  11    3.80    0.14
   3   4 -10    2.12    0.10
  -3   4  10    2.21    0.12
  -3   4  10    2.02    0.11
   3   4  -9    0.64    0.07
  -3   4   9    0.59    0.08
  -3   4   9    0.58    0.07
   3   4  -8    8.96    0.19
  -3   4   8    8.83    0.20
  -3   4   8    9.11    0.21
  -3   4   7    9.55    0.20
  -3   4   7    9.79    0.21
  -3   4   7    9.85    0.21
  -3   4   6    1.06    0.18
   3   4  -6    1.00    0.14
   3   4  -5    4.02    0.27
  -3   4   5    3.63    0.29
   3   4  -5    3.86    0.24
   3   4  -4    6.40    0.34
  -3   4   4    6.69    0.35
   3   4  -4    6.39    0.30
   3   4  -3    2.56    0.23
   3   4  -3    2.96    0.20
  -3   4   3    2.95    0.23
   3   4  -2    1.43    0.18
  -3   4   2    1.46    0.18
   3   4  -2    1.37    0.15
   3   4  -1   23.47    0.63
   3   4  -1   24.76    0.55
   3   4   0   29.03    0.70
   3   4   0   32.69    0.63
   3   4   1    9.89    0.42
   3   4   1   12.19    0.39
   3   4   2   17.08    0.54
   3   4   2   19.33    0.51
   3   4   3    6.73    0.34
   3   4   3    6.98    0.32
   3   4   4   39.90    0.81
   3   4   4   42.66    0.81
   3   4   5   21.14    0.60
  -3   4  -6    2.29    0.10
   3   4   6    2.12    0.11
  -3   4  -7   12.98    0.23
   3   4   7   12.79    0.26
  -3   4  -8    4.85    0.15
   3   4   8    4.65    0.17
  -3   4  -9    0.82    0.08
   3   4   9    0.79    0.09
  -3   4 -10    1.46    0.09
  -3   4 -11    2.35    0.11
  -3   4 -12    0.17    0.05
  -3   4 -13    0.20    0.04
  -3   4 -14    1.60    0.06
   3   5 -13    0.43    0.04
  -3   5  13    0.32    0.05
  -3   5  12    0.09    0.05
   3   5 -12    0.10    0.04
   3   5 -11    1.01    0.07
  -3   5  11    0.99    0.09
  -3   5  11    0.99    0.08
   3   5 -10    2.24    0.10
  -3   5  10    2.16    0.12
  -3   5  10    1.97    0.11
   3   5  -9   10.57    0.21
  -3   5   9   10.34    0.23
  -3   5   9   11.00    0.23
   3   5  -8   14.46    0.25
  -3   5   8   14.46    0.27
  -3   5   8   14.42    0.26
   3   5  -7    6.99    0.17
  -3   5   7    7.08    0.18
  -3   5   7    7.34    0.19
  -3   5   7    7.28    0.18
   3   5  -6    3.11    0.11
  -3   5   6    3.08    0.12
  -3   5   6    3.16    0.13
  -3   5   6    3.00    0.12
   3   5  -5    2.67    0.25
  -3   5   5    3.25    0.12
   3   5  -5    2.72    0.22
   3   5  -4    3.27    0.27
   3   5  -4    3.25    0.24
   3   5  -3   33.59    0.83
   3   5  -3   34.24    0.73
   3   5  -2    9.51    0.45
   3   5  -2   10.37    0.40
   3   5  -1    6.63    0.38
   3   5  -1    7.06    0.33
   3   5   0    2.98    0.27
   3   5   0    3.35    0.23
   3   5   1   10.30    0.46
   3   5   1   11.32    0.42
   3   5   2    3.07    0.27
   3   5   2    3.54    0.25
   3   5   3    6.58    0.37
   3   5   3    7.82    0.37
   3   5   4   14.70    0.51
  -3   5  -5    8.85    0.19
   3   5   5    8.59    0.21
  -3   5  -6    4.44    0.14
   3   5   6    4.38    0.16
  -3   5  -7    2.47    0.11
   3   5   7    2.73    0.14
  -3   5  -8    2.02    0.11
  -3   5  -9    9.98    0.21
  -3   5 -10    7.75    0.18
  -3   5 -11    1.13    0.08
  -3   5 -12    4.95    0.12
  -3   5 -13    1.21    0.05
   3   6 -12    0.22    0.04
  -3   6  12    0.11    0.03
   3   6 -11    0.64    0.06
  -3   6  11    0.59    0.06
  -3   6  11    0.71    0.07
   3   6 -10    1.56    0.08
  -3   6  10    1.57    0.10
  -3   6  10    1.64    0.09
   3   6  -9    4.57    0.14
  -3   6   9    4.53    0.16
  -3   6   9    4.78    0.14
   3   6  -8    2.90    0.12
  -3   6   8    3.21    0.13
  -3   6   8    3.02    0.12
   3   6  -7    3.28    0.12
  -3   6   7    3.22    0.14
  -3   6   7    3.30    0.12
   3   6  -6   14.01    0.24
  -3   6   6   14.26    0.26
  -3   6   6   14.57    0.27
   3   6  -5    5.93    0.16
  -3   6   5    5.76    0.16
  -3   6   5    5.87    0.17
   3   6  -4    4.95    0.14
  -3   6   4    5.02    0.15
  -3   6   4    5.30    0.16
   3   6  -3    2.50    0.11
  -3   6   3    2.55    0.11
  -3   6   3    2.78    0.12
  -3   6   2    4.33    0.14
   3   6  -2    4.29    0.13
   3   6  -1    3.55    0.12
  -3   6   1    3.91    0.13
   3   6  -1    3.70    0.27
   3   6   0    4.85    0.14
  -3   6   0    5.01    0.15
   3   6   0    4.86    0.31
  -3   6  -1    4.27    0.14
  -3   6  -2    5.67    0.16
  -3   6  -2    5.65    0.15
  -3   6  -3    0.60    0.07
  -3   6  -3    0.70    0.07
  -3   6  -4    1.39    0.09
  -3   6  -4    1.42    0.09
  -3   6  -5   13.49    0.24
  -3   6  -5   14.02    0.25
  -3   6  -6    5.29    0.16
  -3   6  -7    2.30    0.11
  -3   6  -8    1.49    0.09
  -3   6  -9    1.38    0.09
  -3   6 -10    0.21    0.05
  -3   6 -11    0.48    0.04
  -3   6 -11    0.62    0.05
  -3   6 -12    0.60    0.04
   3   7 -11    1.90    0.07
   3   7 -10    0.09    0.04
  -3   7  10    0.09    0.05
   3   7  -9    5.11    0.13
  -3   7   9    5.21    0.15
   3   7  -8   16.36    0.24
  -3   7   8   16.20    0.26
   3   7  -7    7.70    0.18
  -3   7   7    7.67    0.19
   3   7  -6    0.73    0.07
  -3   7   6    0.75    0.08
   3   7  -5    0.95    0.08
  -3   7   5    1.01    0.08
  -3   7   5    0.86    0.08
   3   7  -4    1.25    0.08
  -3   7   4    1.41    0.09
  -3   7   4    1.23    0.09
   3   7  -3    0.27    0.06
  -3   7   3    0.27    0.06
  -3   7   3    0.28    0.06
   3   7  -2    4.48    0.14
  -3   7   2    4.50    0.14
  -3   7   2    4.61    0.16
   3   7  -1    7.49    0.18
  -3   7   1    7.60    0.18
  -3   7   0    3.14    0.12
  -3   7  -1    2.28    0.11
  -3   7  -1    2.61    0.11
  -3   7  -2    7.88    0.19
  -3   7  -2    8.22    0.18
  -3   7  -3   14.93    0.25
  -3   7  -3   15.36    0.25
  -3   7  -4   17.12    0.27
  -3   7  -4   18.23    0.28
  -3   7  -5    6.48    0.16
  -3   7  -5    6.72    0.17
  -3   7  -6    4.02    0.13
  -3   7  -6    3.84    0.14
  -3   7  -7    0.60    0.06
  -3   7  -7    0.64    0.07
  -3   7  -8    2.17    0.09
  -3   7  -8    2.32    0.10
  -3   7  -9    1.69    0.08
  -3   7 -10    0.94    0.06
  -3   7 -11    1.32    0.05
   3   8 -10    1.49    0.05
   3   8  -9    0.88    0.05
  -3   8   9    0.96    0.06
   3   8  -8    0.92    0.06
  -3   8   8    0.96    0.07
   3   8  -7    7.96    0.16
  -3   8   7    8.21    0.18
   3   8  -6    5.89    0.15
  -3   8   6    6.18    0.17
   3   8  -5    3.28    0.12
  -3   8   5    3.10    0.13
   3   8  -4    4.35    0.14
  -3   8   4    4.24    0.13
  -3   8   4    4.30    0.15
   3   8  -3    1.16    0.08
  -3   8   3    1.23    0.09
   3   8  -2    7.26    0.18
  -3   8   2    7.42    0.19
  -3   8   1    0.44    0.07
  -3   8   0    3.02    0.11
  -3   8  -1    0.74    0.07
  -3   8  -2    0.60    0.06
  -3   8  -3    3.50    0.12
  -3   8  -4    1.17    0.08
  -3   8  -5    8.93    0.18
  -3   8  -6    0.82    0.07
  -3   8  -7    0.08    0.04
  -3   8  -8    0.67    0.05
  -3   8  -9    0.33    0.04
  -3   9   8    3.44    0.08
   3   9  -7    1.46    0.06
  -3   9   7    1.57    0.07
   3   9  -6    0.51    0.05
  -3   9   6    0.46    0.05
   3   9  -5    1.82    0.08
  -3   9   5    1.91    0.09
  -3   9   4    1.21    0.08
  -3   9   3    4.08    0.13
  -3   9   2    4.14    0.13
  -3   9   1    3.05    0.12
  -3   9   0    0.59    0.05
  -3   9   0    0.63    0.07
  -3   9  -1    3.05    0.10
  -3   9  -1    2.97    0.12
  -3   9  -2    3.43    0.11
  -3   9  -3    0.10    0.04
  -3   9  -4    1.07    0.06
  -3   9  -5    3.10    0.09
  -3   9  -6    1.67    0.07
  -3   9  -7    0.03    0.03
  -3  10   4    0.94    0.05
  -3  10   3    0.32    0.04
  -3  10   2    3.61    0.10
  -3  10   1    0.70    0.05
  -3  10   0    0.09    0.04
  -3  10  -1    0.26    0.03
  -3  10  -1    0.26    0.04
  -3  10  -2    0.41    0.03
  -3  10  -2    0.38    0.04
  -3  10  -3    0.38    0.04
  -4  -9   6    1.45    0.06
  -4  -9   5    0.37    0.04
   4  -9  -5    0.42    0.05
   4  -9  -4    0.67    0.05
   4  -9  -4    0.76    0.06
   4  -9  -3    2.18    0.08
   4  -9  -3    2.23    0.09
   4  -9  -2    1.51    0.08
   4  -9  -2    1.57    0.07
   4  -9  -2    1.56    0.08
   4  -9  -1    0.77    0.06
   4  -9  -1    0.78    0.06
   4  -9  -1    0.75    0.06
   4  -9   0    3.12    0.10
   4  -9   0    3.24    0.10
   4  -9   0    2.99    0.10
   4  -9   1    2.69    0.09
   4  -9   1    2.76    0.10
   4  -9   1    2.46    0.08
   4  -9   2    3.96    0.11
   4  -9   2    4.15    0.11
   4  -9   3    2.30    0.08
   4  -9   3    2.27    0.08
   4  -9   4    0.08    0.04
  -4  -8   8    3.79    0.09
   4  -8  -8    3.35    0.08
  -4  -8   7    1.86    0.08
   4  -8  -7    1.82    0.08
   4  -8  -6    0.78    0.07
   4  -8  -5    0.12    0.04
   4  -8  -5    0.20    0.06
   4  -8  -4    0.23    0.05
   4  -8  -3    1.29    0.08
   4  -8  -3    1.41    0.07
   4  -8  -2    1.86    0.10
   4  -8  -2    1.81    0.09
   4  -8  -1    1.09    0.09
   4  -8  -1    1.08    0.08
   4  -8   0    0.05    0.06
   4  -8   0    0.10    0.06
   4  -8   1    3.40    0.13
   4  -8   1    3.57    0.13
   4  -8   2    3.74    0.13
   4  -8   2    3.77    0.13
   4  -8   3    0.83    0.07
   4  -8   3    0.81    0.07
   4  -8   4   10.46    0.17
   4  -8   4   10.63    0.19
   4  -8   4   11.19    0.17
   4  -8   5    4.81    0.12
   4  -8   5    4.80    0.11
   4  -8   6    0.28    0.04
   4  -8   7    0.03    0.03
  -4  -7  10    1.47    0.06
  -4  -7   9    0.08    0.04
  -4  -7   8    0.33    0.05
   4  -7  -8    0.25    0.05
   4  -7  -7    2.81    0.11
   4  -7  -6    1.40    0.10
   4  -7  -5    0.64    0.06
   4  -7  -4    9.85    0.21
   4  -7  -3   10.12    0.22
   4  -7  -3   10.31    0.20
   4  -7  -2    4.49    0.16
   4  -7  -2    4.51    0.14
   4  -7  -2    4.72    0.14
   4  -7  -1    1.28    0.10
   4  -7  -1    1.22    0.09
   4  -7  -1    1.21    0.08
   4  -7   0   11.76    0.25
   4  -7   0   12.47    0.24
   4  -7   0   12.17    0.21
   4  -7   1    6.80    0.19
   4  -7   1    7.00    0.19
   4  -7   1    6.46    0.15
   4  -7   2   12.05    0.24
   4  -7   2   12.05    0.24
   4  -7   3   13.38    0.24
   4  -7   3   12.97    0.24
   4  -7   3   13.64    0.21
   4  -7   4    4.98    0.14
   4  -7   4    4.92    0.15
   4  -7   4    5.08    0.14
   4  -7   5    4.22    0.13
   4  -7   5    4.29    0.13
   4  -7   6    0.38    0.06
   4  -7   6    0.48    0.06
   4  -7   7    0.37    0.06
   4  -7   8    0.58    0.06
   4  -7   9    0.77    0.05
  -4  -6  11    0.93    0.05
  -4  -6  10    1.63    0.07
  -4  -6   9    7.04    0.16
   4  -6  -8    1.92    0.10
   4  -6  -7    2.87    0.12
   4  -6  -6    0.14    0.07
  -4  -6   6    0.06    0.04
   4  -6  -5    0.59    0.07
  -4  -6   5    0.49    0.06
   4  -6  -4    1.30    0.09
  -4  -6   4    1.30    0.08
   4  -6  -3    0.92    0.08
   4  -6  -3    0.98    0.07
  -4  -6   3    0.94    0.07
   4  -6  -2    2.13    0.12
   4  -6  -2    2.47    0.11
   4  -6  -1    7.59    0.20
   4  -6  -1    7.42    0.19
   4  -6  -1    7.66    0.17
   4  -6   0    4.86    0.17
   4  -6   0    5.12    0.16
   4  -6   0    5.04    0.14
   4  -6   1    2.51    0.13
   4  -6   1    2.67    0.13
   4  -6   1    2.71    0.10
   4  -6   2   11.20    0.24
   4  -6   2   11.17    0.24
   4  -6   2   11.90    0.20
   4  -6   3   28.67    0.36
   4  -6   3   28.21    0.36
   4  -6   4   18.87    0.28
   4  -6   4   18.79    0.29
   4  -6   4   18.97    0.27
   4  -6   5    2.44    0.12
   4  -6   5    2.37    0.11
   4  -6   6    0.66    0.08
   4  -6   6    0.72    0.07
   4  -6   7    2.29    0.11
   4  -6   8    1.67    0.09
   4  -6   9    2.18    0.09
   4  -6  10    0.46    0.04
  -4  -5  12    3.25    0.09
  -4  -5  11    0.96    0.06
  -4  -5  10    2.71    0.10
  -4  -5  10    2.93    0.11
  -4  -5   9   16.48    0.24
  -4  -5   9   17.18    0.26
  -4  -5   8    6.69    0.17
   4  -5  -8    6.57    0.17
  -4  -5   8    6.60    0.16
  -4  -5   7    3.80    0.13
   4  -5  -7    3.41    0.14
  -4  -5   7    3.78    0.13
  -4  -5   6    6.38    0.17
  -4  -5   6    6.13    0.16
   4  -5  -5    4.04    0.13
  -4  -5   5    4.36    0.14
   4  -5  -4    5.60    0.16
  -4  -5   4    5.81    0.15
   4  -5  -3    1.01    0.09
   4  -5  -3    1.06    0.07
  -4  -5   3    1.26    0.08
   4  -5  -2    6.59    0.18
   4  -5  -2    6.81    0.17
   4  -5  -1   22.61    0.33
   4  -5  -1   23.32    0.31
   4  -5   0    6.16    0.18
   4  -5   0    6.20    0.17
   4  -5   0    6.24    0.15
   4  -5   1   10.44    0.22
   4  -5   1   10.46    0.22
   4  -5   1   10.47    0.19
   4  -5   2    4.09    0.15
   4  -5   2    4.17    0.15
   4  -5   2    4.04    0.12
   4  -5   3   14.15    0.25
   4  -5   3   14.92    0.26
   4  -5   3   14.77    0.24
   4  -5   4    0.89    0.08
   4  -5   4    0.81    0.08
   4  -5   4    0.84    0.08
   4  -5   5    7.86    0.19
   4  -5   5    7.99    0.19
   4  -5   6   10.00    0.20
   4  -5   6    9.98    0.21
   4  -5   7    3.46    0.13
   4  -5   8    0.81    0.08
   4  -5   9    6.53    0.15
   4  -5   9    6.53    0.16
   4  -5  10    1.29    0.07
   4  -5  10    1.14    0.06
   4  -5  11    1.26    0.06
  -4  -4  13    0.26    0.04
  -4  -4  12    0.48    0.06
  -4  -4  11    0.36    0.06
  -4  -4  10    0.24    0.06
  -4  -4   9    3.83    0.14
  -4  -4   9    3.82    0.13
  -4  -4   8    6.21    0.18
   4  -4  -8    6.00    0.16
  -4  -4   8    6.14    0.16
   4  -4  -7    0.63    0.07
  -4  -4   7    0.76    0.07
   4  -4  -6    7.92    0.20
  -4  -4   6    8.46    0.19
   4  -4  -5   16.55    0.28
  -4  -4   5   17.94    0.26
   4  -4  -4   22.67    0.30
   4  -4  -4   21.86    0.63
   4  -4  -3    5.27    0.31
  -4  -4   3    5.14    0.13
   4  -4  -2   16.09    0.53
  -4  -4   2   15.88    0.22
   4  -4  -1   13.66    0.49
   4  -4   0   15.74    0.53
   4  -4   1   10.34    0.44
   4  -4   2   39.57    0.84
   4  -4   3    6.12    0.17
   4  -4   3    6.50    0.17
   4  -4   3    6.41    0.15
   4  -4   4    1.85    0.10
   4  -4   4    2.05    0.11
   4  -4   4    2.01    0.10
   4  -4   5    0.27    0.06
   4  -4   5    0.26    0.07
   4  -4   5    0.20    0.06
   4  -4   6    2.90    0.12
   4  -4   6    2.85    0.12
   4  -4   7   20.59    0.30
   4  -4   7   20.26    0.31
   4  -4   8   30.93    0.35
   4  -4   8   31.46    0.39
   4  -4   9    6.91    0.17
   4  -4   9    6.64    0.17
   4  -4   9    7.19    0.18
   4  -4  10    2.76    0.10
   4  -4  10    2.78    0.11
   4  -4  10    2.62    0.11
   4  -4  11    2.77    0.10
   4  -4  11    3.00    0.10
   4  -4  11    2.66    0.09
   4  -4  12    0.04    0.02
  -4  -3  14    0.37    0.04
  -4  -3  13    1.40    0.08
  -4  -3  12    3.79    0.13
  -4  -3  11    1.31    0.09
  -4  -3  10    1.75    0.10
  -4  -3  10    2.00    0.10
  -4  -3   9    5.63    0.18
  -4  -3   9    6.08    0.16
  -4  -3   8   15.53    0.28
   4  -3  -8   15.45    0.25
  -4  -3   8   15.29    0.25
  -4  -3   7    7.92    0.20
   4  -3  -7    7.26    0.18
  -4  -3   7    7.51    0.18
   4  -3  -6    0.79    0.08
  -4  -3   6    0.74    0.07
  -4  -3   5    3.84    0.12
   4  -3  -4   24.05    0.63
  -4  -3   4   23.92    0.28
   4  -3  -3   10.32    0.44
  -4  -3   3   10.70    0.18
   4  -3  -2    9.98    0.43
   4  -3  -2   10.10    0.40
  -4  -3   2   10.23    0.16
   4  -3  -1   10.09    0.40
   4  -3   0    5.40    0.30
   4  -3   1   18.08    0.54
   4  -3   2    8.54    0.41
   4  -3   2    8.63    0.38
   4  -3   3    6.06    0.14
   4  -3   3    5.81    0.35
   4  -3   4    3.98    0.12
   4  -3   4    3.26    0.27
   4  -3   4    3.47    0.26
   4  -3   5    2.08    0.10
   4  -3   5    2.32    0.11
   4  -3   5    1.99    0.10
   4  -3   5    2.20    0.10
   4  -3   6    3.51    0.12
   4  -3   6    3.31    0.13
   4  -3   6    3.13    0.13
   4  -3   6    3.74    0.12
   4  -3   7    0.89    0.07
   4  -3   7    0.92    0.09
   4  -3   7    0.89    0.08
   4  -3   7    0.97    0.07
   4  -3   8    6.57    0.17
   4  -3   8    6.50    0.18
   4  -3   8    6.89    0.19
   4  -3   8    6.72    0.16
   4  -3   9    0.65    0.07
   4  -3   9    0.57    0.07
   4  -3   9    0.69    0.08
   4  -3  10    0.56    0.06
   4  -3  10    0.50    0.06
   4  -3  10    0.59    0.07
   4  -3  11    0.92    0.07
   4  -3  11    1.11    0.08
   4  -3  11    1.03    0.06
   4  -3  12    2.17    0.09
   4  -3  13    0.07    0.03
  -4  -2  14    6.45    0.13
  -4  -2  13    0.44    0.06
  -4  -2  12    0.31    0.06
  -4  -2  11    3.91    0.14
  -4  -2  10    8.55    0.21
  -4  -2   9   11.66    0.25
  -4  -2   9   11.98    0.22
  -4  -2   8   10.91    0.24
  -4  -2   8   10.59    0.21
   4  -2  -7   20.29    0.28
  -4  -2   7   20.24    0.28
  -4  -2   6   13.89    0.22
  -4  -2   5   10.36    0.19
   4  -2  -4   25.05    0.60
  -4  -2   4   30.89    0.30
   4  -2  -3    2.61    0.21
  -4  -2   3    4.22    0.11
   4  -2  -2   60.23    0.97
  -4  -2   2   61.77    0.38
   4  -2  -1   49.10    0.89
   4  -2   0   25.96    0.65
   4  -2   0   26.40    0.61
   4  -2   1   24.87    0.65
   4  -2   1   23.31    0.58
   4  -2   2   30.71    0.72
   4  -2   2   29.92    0.65
   4  -2   3   72.67    1.10
   4  -2   3   65.48    0.95
   4  -2   4   53.43    0.44
   4  -2   4   53.73    0.92
   4  -2   5   14.14    0.24
   4  -2   6    1.84    0.09
   4  -2   6    1.87    0.10
   4  -2   6    1.95    0.10
   4  -2   6    1.90    0.09
   4  -2   7    4.39    0.14
   4  -2   7    4.29    0.14
   4  -2   7    4.26    0.15
   4  -2   7    4.16    0.14
   4  -2   8   17.85    0.27
   4  -2   8   17.74    0.29
   4  -2   8   18.55    0.30
   4  -2   8   18.36    0.29
   4  -2   9   15.19    0.25
   4  -2   9   14.62    0.27
   4  -2   9   16.16    0.28
   4  -2   9   16.00    0.26
   4  -2  10    4.18    0.15
   4  -2  10    4.11    0.13
   4  -2  11   10.81    0.21
   4  -2  11    9.78    0.17
   4  -2  12    1.37    0.08
   4  -2  13    0.65    0.05
  -4  -1  14    0.50    0.05
  -4  -1  13    0.87    0.07
  -4  -1  12    3.50    0.13
  -4  -1  11    2.06    0.11
  -4  -1  10    6.55    0.19
  -4  -1   9   10.75    0.23
  -4  -1   8   31.70    0.39
  -4  -1   7    7.77    0.38
  -4  -1   7    8.47    0.18
  -4  -1   6    1.84    0.21
  -4  -1   6    1.80    0.09
  -4  -1   5   14.27    0.51
  -4  -1   5   16.04    0.23
   4  -1  -4   53.98    0.84
  -4  -1   4   51.43    0.38
   4  -1  -3   62.64    0.92
  -4  -1   3   61.34    0.39
   4  -1  -2   31.32    0.66
  -4  -1   2   31.69    0.27
   4  -1  -1    5.25    0.29
   4  -1   0   38.25    0.75
   4  -1   1   25.92    0.62
   4  -1   2    0.07    0.10
   4  -1   3   24.73    0.61
   4  -1   4    9.83    0.39
   4  -1   5    0.34    0.05
   4  -1   6    6.00    0.17
   4  -1   6    6.54    0.16
   4  -1   7    2.29    0.10
   4  -1   7    2.13    0.11
   4  -1   7    2.36    0.11
   4  -1   7    2.12    0.11
   4  -1   8    3.07    0.13
   4  -1   8    3.02    0.13
   4  -1   8    3.34    0.13
   4  -1   8    3.03    0.12
   4  -1   9    7.47    0.20
   4  -1   9    7.80    0.20
   4  -1   9    7.86    0.19
   4  -1   9    7.80    0.18
   4  -1  10    3.47    0.13
   4  -1  10    3.27    0.13
   4  -1  10    3.06    0.11
   4  -1  11   16.33    0.26
   4  -1  12    0.42    0.06
   4  -1  13    2.34    0.09
  -4   0  14    1.92    0.07
  -4   0  13    4.10    0.12
  -4   0  13    3.62    0.11
  -4   0  12    2.88    0.11
  -4   0  11   11.45    0.23
  -4   0  10    1.35    0.09
  -4   0   9    0.03    0.04
  -4   0   9    0.01    0.05
  -4   0   8    7.18    0.16
  -4   0   8    7.68    0.19
  -4   0   7    9.76    0.46
  -4   0   6    0.31    0.13
   4   0  -5    1.06    0.13
  -4   0   5    0.77    0.16
   4   0  -4    8.13    0.34
   4   0  -3    2.30    0.19
   4   0  -2    0.88    0.14
   4   0  -1   41.00    0.75
   4   0   0   88.36    1.11
   4   0   1   31.64    0.67
   4   0   2   23.03    0.58
   4   0   3    0.30    0.11
   4   0   4    0.41    0.11
   4   0   5    2.84    0.11
   4   0   6    0.16    0.05
   4   0   7   24.34    0.32
   4   0   7   25.90    0.31
   4   0   8   71.85    0.56
   4   0   8   73.13    0.53
   4   0   9   59.45    0.53
   4   0   9   57.87    0.51
   4   0   9   57.70    0.52
   4   0   9   59.33    0.46
   4   0  10    6.43    0.18
   4   0  10    6.48    0.18
   4   0  10    6.42    0.17
   4   0  11    0.03    0.05
   4   0  12    0.26    0.05
   4   0  13    0.46    0.05
   4   0  14    1.18    0.05
  -4   1  14    0.50    0.05
  -4   1  13    0.88    0.06
  -4   1  12    3.61    0.12
  -4   1  11    2.28    0.10
  -4   1  11    2.23    0.10
  -4   1  10    6.54    0.17
  -4   1  10    6.41    0.17
  -4   1   9   10.63    0.22
  -4   1   9   10.45    0.21
  -4   1   8   32.89    0.37
  -4   1   8   30.98    0.36
  -4   1   7    8.48    0.44
  -4   1   6    1.89    0.22
   4   1  -5   16.98    0.48
  -4   1   5   16.56    0.59
   4   1  -4   55.30    0.88
   4   1  -3   62.39    0.94
   4   1  -2   31.91    0.68
   4   1  -1    5.75    0.29
   4   1   0   39.17    0.76
   4   1   1   25.34    0.61
   4   1   2    0.12    0.10
   4   1   3   24.73    0.61
   4   1   4    9.51    0.38
   4   1   5    0.39    0.06
   4   1   6    6.14    0.17
   4   1   7    2.23    0.10
   4   1   7    2.19    0.11
   4   1   7    2.31    0.10
   4   1   8    2.93    0.13
   4   1   8    3.09    0.12
   4   1   8    2.90    0.12
   4   1   8    3.12    0.11
   4   1   9    7.47    0.20
   4   1   9    7.77    0.19
   4   1   9    7.56    0.17
   4   1   9    7.90    0.19
   4   1  10    3.02    0.13
   4   1  10    3.44    0.13
   4   1  10    3.36    0.13
   4   1  11   15.31    0.25
   4   1  11   16.44    0.25
   4   1  12    0.48    0.06
  -4   1 -13    1.81    0.07
   4   1  13    2.28    0.08
  -4   2  14    5.70    0.12
  -4   2  13    0.47    0.05
  -4   2  12    0.25    0.05
  -4   2  11    3.85    0.14
  -4   2  10    8.45    0.20
  -4   2   9   12.27    0.24
  -4   2   9   11.70    0.24
  -4   2   8   10.52    0.22
  -4   2   8   10.64    0.21
  -4   2   7   18.90    0.27
  -4   2   7   18.28    0.27
  -4   2   6   13.93    0.57
   4   2  -5   11.11    0.41
  -4   2   5   10.97    0.49
   4   2  -4   25.08    0.62
  -4   2   4   21.04    0.67
   4   2  -3    2.93    0.23
   4   2  -2   59.57    0.97
   4   2  -1   48.87    0.88
   4   2   0   25.32    0.64
   4   2   1   23.17    0.61
   4   2   2   29.18    0.69
   4   2   3   69.45    1.05
   4   2   4   54.11    0.45
   4   2   4   51.72    0.90
   4   2   5   14.23    0.24
   4   2   6    1.76    0.09
   4   2   6    1.77    0.10
   4   2   7    4.50    0.16
   4   2   7    4.14    0.13
   4   2   7    4.50    0.15
   4   2   8   18.12    0.31
   4   2   8   18.13    0.26
   4   2   8   18.45    0.29
   4   2   9   15.69    0.29
   4   2   9   16.37    0.25
   4   2   9   15.63    0.26
   4   2  10    4.30    0.15
   4   2  10    4.35    0.13
   4   2  11   10.04    0.21
   4   2  11   10.74    0.19
  -4   2 -12    1.25    0.07
   4   2  12    1.31    0.07
  -4   2 -13    0.50    0.04
   4   2  13    0.48    0.04
  -4   3  14    0.31    0.04
  -4   3  13    1.42    0.07
  -4   3  12    3.89    0.13
  -4   3  11    1.36    0.09
  -4   3  10    1.85    0.10
  -4   3   9    5.67    0.17
  -4   3   9    5.51    0.17
  -4   3   8   15.32    0.26
  -4   3   8   15.71    0.28
  -4   3   7    7.85    0.19
  -4   3   7    7.69    0.19
  -4   3   7    7.45    0.18
  -4   3   6    0.76    0.07
  -4   3   6    0.82    0.07
  -4   3   6    0.82    0.07
   4   3  -5    3.53    0.27
  -4   3   5    3.82    0.32
  -4   3   4   25.87    0.74
  -4   3   3   10.33    0.48
   4   3  -2   11.00    0.44
   4   3  -1    9.12    0.41
   4   3   0    5.11    0.31
   4   3   1   16.63    0.54
   4   3   2    7.76    0.38
   4   3   3    6.24    0.15
   4   3   4    3.90    0.12
   4   3   5    2.42    0.12
   4   3   5    2.38    0.10
   4   3   6    3.47    0.14
   4   3   6    3.78    0.13
  -4   3  -7    0.97    0.07
   4   3   7    0.95    0.09
   4   3   7    1.02    0.08
  -4   3  -8    7.24    0.17
   4   3   8    6.90    0.20
   4   3   8    6.74    0.17
  -4   3  -9    0.67    0.07
   4   3   9    0.53    0.08
  -4   3 -10    0.60    0.06
   4   3  10    0.60    0.08
  -4   3 -11    1.07    0.07
   4   3  11    1.08    0.08
  -4   3 -12    1.83    0.08
  -4   3 -13    0.07    0.03
  -4   4  13    0.23    0.04
  -4   4  12    0.51    0.06
  -4   4  11    0.38    0.06
  -4   4  10    0.26    0.06
  -4   4  10    0.27    0.07
  -4   4   9    3.92    0.14
  -4   4   9    3.79    0.14
  -4   4   8    5.84    0.17
  -4   4   8    6.41    0.18
  -4   4   7    0.68    0.07
  -4   4   7    0.70    0.08
  -4   4   7    0.75    0.08
  -4   4   6    8.86    0.20
  -4   4   6    8.87    0.20
  -4   4   6    8.94    0.20
  -4   4   5   19.42    0.29
  -4   4   5   19.57    0.29
  -4   4   5   19.20    0.28
  -4   4   4   27.49    0.33
  -4   4   4   26.83    0.33
   4   4  -3    5.13    0.34
  -4   4   3    4.91    0.33
   4   4  -2   16.23    0.59
  -4   4   2   15.67    0.56
   4   4  -1   12.41    0.52
   4   4   0   14.67    0.56
   4   4   1   10.19    0.47
   4   4   2   37.13    0.88
   4   4   3    6.19    0.16
   4   4   3    6.14    0.32
   4   4   4    1.89    0.10
   4   4   5    0.33    0.06
   4   4   6    3.08    0.14
  -4   4  -7   22.83    0.30
   4   4   7   22.43    0.35
  -4   4  -8   31.53    0.35
   4   4   8   31.89    0.42
  -4   4  -9    6.83    0.17
   4   4   9    7.34    0.20
  -4   4 -10    2.98    0.11
  -4   4 -11    2.77    0.09
  -4   4 -12    2.09    0.07
  -4   5  12    3.42    0.10
  -4   5  11    1.03    0.07
  -4   5  10    2.95    0.12
  -4   5  10    2.99    0.12
  -4   5   9   17.18    0.28
  -4   5   9   17.09    0.28
  -4   5   8    6.51    0.18
  -4   5   8    6.74    0.18
  -4   5   7    3.94    0.14
  -4   5   7    3.77    0.14
  -4   5   7    3.66    0.14
  -4   5   6    6.42    0.18
  -4   5   6    6.42    0.18
  -4   5   6    6.31    0.17
  -4   5   5    4.47    0.14
  -4   5   5    4.68    0.15
  -4   5   5    4.81    0.15
  -4   5   4    6.28    0.16
  -4   5   4    6.59    0.18
  -4   5   4    6.80    0.17
  -4   5   3    1.36    0.09
  -4   5   3    1.45    0.09
  -4   5   2    7.79    0.19
  -4   5   2    7.77    0.18
  -4   5   1   28.24    0.35
  -4   5   1   27.28    0.32
  -4   5   0    7.26    0.19
  -4   5  -1   12.41    0.24
  -4   5  -2    4.92    0.16
  -4   5  -3   16.30    0.28
  -4   5  -4    0.86    0.08
   4   5   4    0.87    0.08
  -4   5  -5    8.31    0.20
   4   5   5    8.10    0.21
  -4   5  -6   10.87    0.20
   4   5   6   10.27    0.24
  -4   5  -7    3.61    0.12
   4   5   7    3.93    0.16
  -4   5  -8    0.79    0.07
   4   5   8    0.86    0.09
  -4   5  -9    6.68    0.15
  -4   5 -10    1.28    0.07
  -4   5 -11    1.09    0.06
  -4   5 -11    1.38    0.06
  -4   6  11    1.10    0.06
  -4   6  10    1.94    0.09
  -4   6  10    1.76    0.08
  -4   6   9    7.05    0.17
  -4   6   9    7.46    0.16
  -4   6   8    2.03    0.11
  -4   6   8    2.04    0.10
  -4   6   7    3.05    0.13
  -4   6   7    3.35    0.12
  -4   6   6    0.06    0.05
  -4   6   6    0.09    0.05
  -4   6   6    0.06    0.06
  -4   6   5    0.48    0.07
  -4   6   5    0.51    0.07
  -4   6   4    1.46    0.09
  -4   6   4    1.39    0.09
  -4   6   3    1.17    0.09
  -4   6   3    1.08    0.08
  -4   6   2    2.60    0.12
  -4   6   2    2.80    0.12
  -4   6   1    9.04    0.21
  -4   6   1    8.93    0.20
  -4   6   0    5.96    0.17
  -4   6  -1    2.88    0.13
  -4   6  -2   13.49    0.26
  -4   6  -3   33.56    0.40
  -4   6  -4   20.60    0.31
  -4   6  -5    2.56    0.12
  -4   6  -5    2.63    0.10
  -4   6  -6    0.61    0.07
  -4   6  -6    0.57    0.06
  -4   6  -7    1.94    0.10
  -4   6  -7    2.10    0.09
  -4   6  -8    1.48    0.08
  -4   6  -8    1.63    0.08
  -4   6  -9    2.07    0.09
  -4   6  -9    2.21    0.08
  -4   6 -10    0.43    0.04
  -4   6 -10    0.50    0.04
  -4   7   9    0.09    0.05
  -4   7   8    0.31    0.06
  -4   7   7    3.24    0.12
  -4   7   6    1.54    0.09
  -4   7   6    1.57    0.10
  -4   7   5    0.77    0.07
  -4   7   5    0.77    0.08
  -4   7   4   11.35    0.23
  -4   7   4   11.59    0.23
  -4   7   3   11.80    0.23
  -4   7   3   12.24    0.23
  -4   7   2    5.54    0.16
  -4   7   2    5.53    0.16
  -4   7   1    1.54    0.10
  -4   7   1    1.44    0.09
  -4   7   0   14.84    0.26
  -4   7   0   14.79    0.25
  -4   7  -1    8.37    0.20
  -4   7  -2   14.67    0.25
  -4   7  -3   15.01    0.25
  -4   7  -4    5.38    0.15
  -4   7  -5    4.34    0.13
  -4   7  -5    4.62    0.12
  -4   7  -6    0.40    0.05
  -4   7  -6    0.41    0.05
  -4   7  -7    0.42    0.05
  -4   7  -7    0.41    0.04
  -4   7  -8    0.61    0.05
  -4   7  -8    0.71    0.05
  -4   7  -9    0.57    0.04
  -4   7  -9    0.62    0.04
  -4   8   8    4.31    0.11
  -4   8   7    2.07    0.09
  -4   8   6    1.01    0.07
  -4   8   5    0.18    0.05
  -4   8   4    0.20    0.05
  -4   8   4    0.21    0.06
  -4   8   3    1.57    0.08
  -4   8   3    1.61    0.09
  -4   8   2    2.31    0.10
  -4   8   2    2.25    0.10
  -4   8   1    1.21    0.08
  -4   8   1    1.19    0.08
  -4   8   0    0.08    0.04
  -4   8   0    0.07    0.05
  -4   8  -1    3.91    0.12
  -4   8  -1    3.87    0.13
  -4   8  -2    4.56    0.13
  -4   8  -2    4.18    0.13
  -4   8  -3    0.93    0.06
  -4   8  -4   11.30    0.18
  -4   8  -5    4.50    0.11
  -4   8  -5    4.74    0.10
  -4   8  -6    0.24    0.03
  -4   8  -6    0.22    0.03
  -4   9   6    1.56    0.06
  -4   9   5    0.38    0.04
  -4   9   4    0.86    0.06
  -4   9   3    2.68    0.09
  -4   9   2    1.79    0.08
  -4   9   1    0.85    0.06
  -4   9   0    3.47    0.10
  -4   9  -1    3.09    0.09
  -4   9  -2    4.08    0.10
  -4   9  -3    1.96    0.07
  -5  -8   6    0.13    0.03
   5  -8  -6    0.14    0.03
   5  -8  -5    0.07    0.04
   5  -8  -4    0.24    0.04
   5  -8  -4    0.26    0.05
   5  -8  -3    0.98    0.06
   5  -8  -3    0.98    0.06
   5  -8  -2    3.90    0.11
   5  -8  -2    3.81    0.11
   5  -8  -1    4.00    0.11
   5  -8  -1    3.95    0.11
   5  -8   0    0.16    0.05
   5  -8   0    0.15    0.04
   5  -8   1    0.59    0.05
   5  -8   2    0.86    0.06
   5  -8   3    1.24    0.06
  -5  -7   8    0.97    0.05
   5  -7  -8    0.97    0.05
   5  -7  -7    0.04    0.04
   5  -7  -6    1.68    0.08
   5  -7  -5    0.52    0.05
   5  -7  -5    0.59    0.07
   5  -7  -4    0.74    0.06
   5  -7  -4    0.71    0.07
   5  -7  -3    0.94    0.08
   5  -7  -3    0.94    0.08
   5  -7  -2    1.97    0.10
   5  -7  -2    1.84    0.10
   5  -7  -1    4.74    0.15
   5  -7  -1    4.79    0.14
   5  -7   0    3.30    0.13
   5  -7   0    3.23    0.12
   5  -7   0    3.27    0.12
   5  -7   1    0.00    0.06
   5  -7   1    0.11    0.06
   5  -7   2    0.54    0.06
   5  -7   3    6.50    0.14
   5  -7   4    3.12    0.09
   5  -7   4    3.15    0.09
   5  -7   5    1.29    0.06
   5  -7   6    2.43    0.07
   5  -7   7    0.86    0.04
  -5  -6   9    1.48    0.06
   5  -6  -9    1.65    0.06
  -5  -6   8    3.26    0.10
   5  -6  -8    3.49    0.10
   5  -6  -7    3.01    0.11
   5  -6  -6    0.63    0.07
   5  -6  -5    2.58    0.10
   5  -6  -5    2.34    0.12
   5  -6  -4    0.17    0.06
   5  -6  -4    0.18    0.07
   5  -6  -3   11.40    0.22
   5  -6  -3   11.04    0.24
   5  -6  -2   14.72    0.26
   5  -6  -2   14.62    0.26
   5  -6  -1    7.70    0.20
   5  -6  -1    7.62    0.18
   5  -6  -1    7.56    0.19
   5  -6   0    0.32    0.07
   5  -6   0    0.27    0.07
   5  -6   0    0.35    0.06
   5  -6   1    0.62    0.08
   5  -6   1    0.62    0.08
   5  -6   1    0.57    0.07
   5  -6   2    3.12    0.13
   5  -6   2    3.10    0.13
   5  -6   3    0.79    0.07
   5  -6   3    0.84    0.06
   5  -6   4    1.37    0.08
   5  -6   4    1.40    0.08
   5  -6   5    0.36    0.05
   5  -6   6    0.41    0.05
   5  -6   7    0.15    0.04
   5  -6   8    1.24    0.06
  -5  -5  11    0.47    0.04
  -5  -5  10    0.20    0.04
  -5  -5   9    2.85    0.10
   5  -5  -9    2.77    0.09
  -5  -5   8    3.90    0.12
   5  -5  -8    3.66    0.12
  -5  -5   7    2.72    0.11
   5  -5  -7    2.54    0.11
  -5  -5   6    1.15    0.08
   5  -5  -6    1.23    0.09
   5  -5  -5    2.60    0.11
  -5  -5   5    2.71    0.11
   5  -5  -5    2.49    0.12
   5  -5  -4   12.82    0.23
   5  -5  -4   12.03    0.25
   5  -5  -3   14.36    0.26
   5  -5  -3   13.88    0.27
   5  -5  -2    5.01    0.16
   5  -5  -2    5.17    0.17
   5  -5  -1    5.88    0.18
   5  -5  -1    5.70    0.17
   5  -5  -1    5.31    0.17
   5  -5   0   15.40    0.28
   5  -5   0   15.53    0.27
   5  -5   0   15.59    0.27
   5  -5   1    0.62    0.08
   5  -5   1    0.60    0.07
   5  -5   2   14.32    0.26
   5  -5   2   14.53    0.27
   5  -5   3   16.03    0.26
   5  -5   3   16.71    0.25
   5  -5   4    1.71    0.09
   5  -5   4    1.75    0.09
   5  -5   5    0.31    0.06
   5  -5   6    0.95    0.07
   5  -5   7    4.16    0.12
   5  -5   8    1.39    0.07
   5  -5   9    1.69    0.07
   5  -5  10    0.88    0.04
  -5  -4  12    3.71    0.09
  -5  -4  11    1.93    0.08
  -5  -4  10    5.27    0.14
  -5  -4   9    5.67    0.16
   5  -4  -9    5.44    0.13
  -5  -4   8    3.95    0.14
   5  -4  -8    3.80    0.13
  -5  -4   7    5.43    0.17
   5  -4  -7    5.25    0.16
   5  -4  -6    1.20    0.10
  -5  -4   6    1.33    0.08
   5  -4  -5    0.30    0.05
   5  -4  -5    0.32    0.07
  -5  -4   5    0.34    0.05
   5  -4  -4   11.76    0.23
   5  -4  -4   11.80    0.25
  -5  -4   4   12.00    0.20
   5  -4  -3   12.71    0.24
   5  -4  -3   12.44    0.25
   5  -4  -2    7.12    0.19
   5  -4  -2    7.16    0.20
   5  -4  -1   10.10    0.22
   5  -4  -1    9.96    0.22
   5  -4   0    2.94    0.13
   5  -4   0    3.10    0.13
   5  -4   1    4.55    0.16
   5  -4   2   15.47    0.27
   5  -4   2   16.65    0.24
   5  -4   3   21.67    0.30
   5  -4   3   21.74    0.29
   5  -4   4   15.46    0.25
   5  -4   4   15.67    0.25
   5  -4   5    9.83    0.20
   5  -4   6    0.34    0.06
   5  -4   7    7.11    0.17
   5  -4   8    1.71    0.09
   5  -4   9    0.65    0.06
   5  -4  10    0.76    0.05
  -5  -3  13    0.56    0.04
  -5  -3  12    0.42    0.05
  -5  -3  11    2.43    0.10
  -5  -3  10    8.73    0.19
  -5  -3   9   15.04    0.27
   5  -3  -9   15.24    0.22
  -5  -3   8    6.79    0.19
   5  -3  -8    7.40    0.17
  -5  -3   7    2.06    0.11
   5  -3  -7    2.06    0.11
  -5  -3   7    2.09    0.10
   5  -3  -6    3.05    0.13
  -5  -3   6    2.94    0.11
   5  -3  -5   17.78    0.30
  -5  -3   5   17.79    0.26
   5  -3  -5   18.12    0.26
   5  -3  -4   16.38    0.26
   5  -3  -4   16.51    0.29
  -5  -3   4   16.37    0.24
   5  -3  -3    6.57    0.17
   5  -3  -3    6.48    0.19
   5  -3  -2    1.00    0.08
   5  -3  -2    0.92    0.08
   5  -3  -1    1.63    0.10
   5  -3  -1    1.50    0.10
   5  -3   0    6.30    0.17
   5  -3   0    6.35    0.17
   5  -3   1    2.17    0.11
   5  -3   2    9.58    0.21
   5  -3   2    9.44    0.19
   5  -3   3    0.29    0.06
   5  -3   3    0.37    0.05
   5  -3   3    0.38    0.06
   5  -3   4    2.18    0.10
   5  -3   4    2.23    0.10
   5  -3   5   10.30    0.21
   5  -3   5   10.51    0.21
   5  -3   6   18.22    0.28
   5  -3   6   18.60    0.32
   5  -3   7    8.33    0.19
   5  -3   7    8.83    0.22
   5  -3   8    0.91    0.09
   5  -3   8    0.78    0.07
   5  -3   9    1.76    0.10
   5  -3   9    1.84    0.09
   5  -3  10    0.89    0.07
   5  -3  10    0.84    0.06
   5  -3  11    0.22    0.03
  -5  -2  13    0.69    0.05
  -5  -2  12    0.68    0.06
  -5  -2  11    0.20    0.05
  -5  -2  10    3.90    0.14
  -5  -2   9   12.83    0.25
   5  -2  -9   14.17    0.22
  -5  -2   8   32.01    0.41
   5  -2  -8   34.58    0.37
   5  -2  -7   28.33    0.35
   5  -2  -6    3.43    0.13
   5  -2  -5    6.20    0.17
   5  -2  -5    6.10    0.15
   5  -2  -4    9.06    0.21
   5  -2  -4    8.73    0.19
   5  -2  -3   31.57    0.37
   5  -2  -3   31.39    0.35
   5  -2  -2   10.87    0.22
   5  -2  -2   10.30    0.21
   5  -2  -1    6.60    0.17
   5  -2  -1    6.21    0.17
   5  -2   0    1.60    0.09
   5  -2   0    1.70    0.09
   5  -2   1   12.27    0.20
   5  -2   1   13.29    0.24
   5  -2   2    0.24    0.06
   5  -2   2    0.28    0.05
   5  -2   3   26.93    0.32
   5  -2   3   25.83    0.32
   5  -2   4   16.93    0.28
   5  -2   4   17.50    0.26
   5  -2   4   16.49    0.26
   5  -2   5   14.49    0.26
   5  -2   5   14.55    0.25
   5  -2   6    1.14    0.10
   5  -2   6    1.21    0.08
   5  -2   6    1.24    0.09
   5  -2   7   28.34    0.39
   5  -2   7   27.80    0.35
   5  -2   8   18.60    0.31
   5  -2   8   17.72    0.27
   5  -2   9    0.94    0.09
   5  -2   9    0.92    0.07
   5  -2  10    0.18    0.04
   5  -2  10    0.19    0.06
   5  -2  11    1.08    0.07
   5  -2  11    0.86    0.05
  -5  -1  13    0.26    0.04
  -5  -1  12    0.83    0.06
  -5  -1  11    3.59    0.12
  -5  -1  10    2.30    0.11
  -5  -1   9    9.47    0.22
   5  -1  -9   10.36    0.19
  -5  -1   8    1.05    0.09
   5  -1  -8    1.16    0.08
   5  -1  -7    0.41    0.06
   5  -1  -6    2.11    0.11
   5  -1  -5    4.35    0.14
   5  -1  -5    4.04    0.12
   5  -1  -4   11.99    0.23
   5  -1  -4   11.83    0.21
   5  -1  -3    1.01    0.08
   5  -1  -3    0.86    0.07
   5  -1  -2    1.19    0.17
   5  -1  -1    0.17    0.13
   5  -1   0    6.83    0.37
   5  -1   2   14.76    0.23
   5  -1   2   15.91    0.24
   5  -1   3    2.57    0.11
   5  -1   3    2.55    0.11
   5  -1   4    3.03    0.12
   5  -1   4    3.35    0.12
   5  -1   5   10.27    0.22
   5  -1   5   10.37    0.21
   5  -1   6    3.83    0.15
   5  -1   6    3.69    0.14
   5  -1   6    3.74    0.13
   5  -1   7    1.08    0.10
   5  -1   7    1.09    0.08
   5  -1   7    1.13    0.08
   5  -1   8    3.09    0.14
   5  -1   8    3.02    0.12
   5  -1   9    3.02    0.13
   5  -1   9    2.79    0.11
   5  -1  10    2.01    0.09
   5  -1  10    2.16    0.11
   5  -1  10    2.08    0.08
   5  -1  11    0.40    0.06
   5  -1  11    0.37    0.04
   5  -1  12    0.04    0.03
  -5   0  13    1.36    0.06
  -5   0  12    0.80    0.06
  -5   0  11    0.36    0.05
  -5   0  10    0.02    0.05
  -5   0   9    8.52    0.20
  -5   0   9    8.27    0.18
  -5   0   8   18.54    0.27
  -5   0   8   17.88    0.30
  -5   0   7    0.68    0.06
   5   0  -7    0.73    0.07
  -5   0   6   19.15    0.28
   5   0  -6   20.21    0.29
  -5   0   5    7.95    0.18
   5   0  -5    8.13    0.19
   5   0  -5    8.17    0.17
  -5   0   4    4.04    0.13
   5   0  -4    3.92    0.13
   5   0  -4    3.79    0.12
   5   0  -3   17.19    0.56
   5   0  -2   19.61    0.60
   5   0  -1    7.16    0.38
   5   0   0   18.18    0.59
   5   0   1    9.64    0.44
   5   0   2    0.66    0.06
   5   0   2    0.63    0.07
   5   0   3    1.80    0.09
   5   0   3    1.76    0.09
   5   0   4   13.41    0.25
   5   0   4   14.12    0.24
   5   0   5    2.19    0.11
   5   0   5    2.34    0.12
   5   0   5    2.47    0.11
   5   0   6    2.01    0.11
   5   0   6    2.01    0.11
   5   0   6    2.02    0.11
   5   0   7   10.23    0.22
   5   0   7   10.53    0.23
   5   0   7   10.42    0.21
   5   0   8   28.56    0.36
   5   0   8   28.35    0.33
   5   0   9    1.26    0.09
   5   0   9    1.24    0.09
   5   0   9    1.24    0.08
   5   0  10    5.24    0.15
   5   0  10    5.62    0.16
   5   0  10    5.35    0.13
   5   0  11    0.79    0.06
   5   0  11    0.82    0.07
   5   0  12    0.01    0.03
  -5   1  13    0.13    0.03
  -5   1  12    0.89    0.05
  -5   1  11    3.41    0.11
  -5   1  10    2.27    0.10
  -5   1  10    2.35    0.10
  -5   1   9   10.50    0.21
  -5   1   9    9.72    0.21
  -5   1   8    1.04    0.08
  -5   1   8    1.01    0.08
  -5   1   7    0.34    0.06
  -5   1   6    2.18    0.11
   5   1  -6    2.02    0.10
  -5   1   5    4.15    0.14
   5   1  -5    4.13    0.14
  -5   1   4   12.31    0.23
   5   1  -4   11.43    0.22
  -5   1   3    1.09    0.08
   5   1  -3    0.95    0.08
   5   1  -3    0.90    0.07
   5   1  -2    0.95    0.18
   5   1  -1    0.14    0.14
   5   1   0    6.75    0.37
   5   1   2   14.79    0.23
   5   1   2   14.97    0.24
   5   1   3    2.52    0.11
   5   1   4    3.01    0.13
   5   1   4    3.28    0.12
   5   1   5   10.20    0.22
   5   1   5   10.42    0.21
   5   1   6    3.89    0.13
   5   1   6    3.82    0.14
   5   1   7    0.98    0.08
   5   1   7    1.12    0.08
   5   1   7    1.05    0.08
   5   1   8    2.81    0.13
   5   1   8    3.02    0.12
   5   1   8    3.08    0.12
   5   1   9    2.75    0.13
   5   1   9    2.83    0.11
   5   1   9    2.97    0.11
   5   1  10    2.06    0.10
   5   1  10    2.09    0.09
   5   1  11    0.37    0.05
   5   1  11    0.29    0.05
  -5   2  13    0.64    0.04
  -5   2  12    0.69    0.05
  -5   2  11    0.20    0.05
  -5   2  10    3.63    0.13
  -5   2   9   13.23    0.25
  -5   2   8   31.30    0.39
  -5   2   7   26.81    0.36
  -5   2   6    3.39    0.13
  -5   2   6    3.24    0.11
  -5   2   5    6.08    0.17
  -5   2   5    6.04    0.15
  -5   2   4    8.41    0.20
  -5   2   4    7.93    0.17
  -5   2   3   32.94    0.38
  -5   2   3   29.50    0.32
  -5   2   2   11.26    0.22
  -5   2   2   10.34    0.19
  -5   2   1    6.86    0.17
  -5   2   0    1.88    0.10
  -5   2   0    1.69    0.08
  -5   2  -1   12.60    0.22
  -5   2  -2    0.25    0.05
   5   2   2    0.25    0.05
  -5   2  -3   25.89    0.32
   5   2   3   24.87    0.32
   5   2   4   16.75    0.26
   5   2   4   17.34    0.28
   5   2   5   14.35    0.25
   5   2   5   15.08    0.26
   5   2   6    1.09    0.09
   5   2   6    1.10    0.08
   5   2   6    1.09    0.08
   5   2   7   26.94    0.33
   5   2   7   27.88    0.39
   5   2   7   27.53    0.35
   5   2   8   18.14    0.31
   5   2   9    0.91    0.09
   5   2  10    0.18    0.05
   5   2  11    0.95    0.06
  -5   3  13    0.25    0.03
  -5   3  12    0.41    0.05
  -5   3  11    2.48    0.10
  -5   3  10    8.93    0.19
  -5   3   9   15.42    0.26
  -5   3   8    7.45    0.17
  -5   3   8    7.18    0.19
  -5   3   7    2.12    0.11
  -5   3   7    2.15    0.10
  -5   3   6    3.01    0.13
  -5   3   6    2.94    0.12
  -5   3   5   18.49    0.30
  -5   3   5   18.22    0.28
  -5   3   4   17.21    0.28
  -5   3   4   17.47    0.27
  -5   3   3    7.01    0.18
  -5   3   3    7.08    0.18
  -5   3   2    1.06    0.08
  -5   3   2    1.12    0.08
  -5   3   1    1.90    0.10
  -5   3   1    1.77    0.09
  -5   3   0    6.96    0.17
  -5   3   0    6.99    0.17
  -5   3  -1    2.33    0.11
  -5   3  -1    2.29    0.11
  -5   3  -2   10.60    0.21
  -5   3  -2   10.46    0.21
  -5   3  -3    0.41    0.06
   5   3   3    0.38    0.06
   5   3   3    0.34    0.05
  -5   3  -4    2.07    0.10
   5   3   4    2.15    0.11
   5   3   4    2.11    0.10
   5   3   5   10.46    0.24
   5   3   5    9.80    0.20
   5   3   6   19.21    0.32
   5   3   7    8.56    0.22
   5   3   8    0.85    0.09
   5   3   9    1.90    0.10
   5   3  10    0.89    0.07
  -5   3 -11    0.18    0.03
  -5   4  12    3.94    0.10
  -5   4  11    2.04    0.08
  -5   4  10    5.70    0.15
  -5   4   9    5.58    0.16
  -5   4   8    4.04    0.13
  -5   4   8    4.00    0.14
  -5   4   7    5.51    0.16
  -5   4   7    5.29    0.15
  -5   4   7    5.21    0.16
  -5   4   6    1.22    0.09
  -5   4   6    1.18    0.09
  -5   4   6    1.25    0.08
  -5   4   5    0.31    0.06
  -5   4   5    0.33    0.06
  -5   4   4   13.06    0.25
  -5   4   4   12.91    0.25
  -5   4   3   14.40    0.26
  -5   4   3   14.37    0.26
  -5   4   2    8.19    0.19
  -5   4   2    8.23    0.20
  -5   4   1   11.33    0.22
  -5   4   1   11.58    0.23
  -5   4   0    3.43    0.12
  -5   4   0    3.59    0.14
  -5   4  -1    5.27    0.15
  -5   4  -1    5.36    0.16
  -5   4  -2   17.71    0.29
  -5   4  -3   23.82    0.34
   5   4   3   21.64    0.31
  -5   4  -4   16.44    0.28
   5   4   4   14.88    0.27
  -5   4  -5   10.58    0.23
   5   4   5   10.18    0.23
  -5   4  -6    0.35    0.06
   5   4   6    0.36    0.07
  -5   4  -7    7.15    0.18
   5   4   7    7.24    0.19
  -5   4  -8    1.52    0.09
   5   4   8    1.77    0.10
  -5   4  -9    0.61    0.06
   5   4   9    0.66    0.07
  -5   4 -10    0.68    0.05
  -5   4 -11    0.06    0.02
  -5   5  11    0.51    0.04
  -5   5  10    0.20    0.04
  -5   5   9    3.25    0.11
  -5   5   9    3.13    0.11
  -5   5   8    4.10    0.13
  -5   5   8    3.94    0.13
  -5   5   7    2.68    0.11
  -5   5   7    2.67    0.11
  -5   5   6    1.11    0.08
  -5   5   6    1.25    0.08
  -5   5   6    1.14    0.08
  -5   5   5    2.57    0.11
  -5   5   5    2.77    0.12
  -5   5   5    2.71    0.11
  -5   5   4   13.08    0.24
  -5   5   4   13.75    0.26
  -5   5   4   13.90    0.23
  -5   5   3   15.44    0.25
  -5   5   3   15.78    0.28
  -5   5   2    6.00    0.16
  -5   5   2    6.01    0.18
  -5   5   1    6.53    0.18
  -5   5   0   17.93    0.30
  -5   5  -1    0.71    0.08
  -5   5  -2   16.46    0.29
  -5   5  -3   17.39    0.29
  -5   5  -4    1.82    0.10
   5   5   4    1.81    0.10
  -5   5  -5    0.37    0.06
   5   5   5    0.32    0.06
  -5   5  -6    0.98    0.08
   5   5   6    1.11    0.09
  -5   5  -7    4.03    0.13
   5   5   7    4.17    0.14
  -5   5  -8    1.36    0.08
  -5   5  -9    1.62    0.07
  -5   5 -10    0.81    0.05
  -5   6  10    0.47    0.04
  -5   6   9    1.86    0.07
  -5   6   8    3.78    0.11
  -5   6   8    3.80    0.11
  -5   6   7    3.30    0.11
  -5   6   7    3.10    0.10
  -5   6   6    0.73    0.07
  -5   6   6    0.68    0.06
  -5   6   6    0.62    0.06
  -5   6   5    2.82    0.12
  -5   6   5    2.80    0.11
  -5   6   5    2.77    0.10
  -5   6   4    0.23    0.06
  -5   6   4    0.24    0.05
  -5   6   3   13.51    0.25
  -5   6   3   13.14    0.22
  -5   6   2   17.11    0.28
  -5   6   1    9.37    0.21
  -5   6   0    0.35    0.07
  -5   6  -1    0.76    0.08
  -5   6  -2    3.66    0.14
  -5   6  -3    0.82    0.08
  -5   6  -4    1.57    0.09
  -5   6  -5    0.30    0.06
  -5   6  -6    0.34    0.05
  -5   6  -7    0.13    0.04
  -5   6  -8    1.15    0.06
  -5   7   8    1.14    0.06
  -5   7   7    0.03    0.04
  -5   7   6    1.89    0.08
  -5   7   5    0.59    0.06
  -5   7   5    0.66    0.06
  -5   7   4    0.89    0.07
  -5   7   4    0.88    0.07
  -5   7   3    1.11    0.08
  -5   7   3    1.08    0.07
  -5   7   2    2.24    0.10
  -5   7   2    2.05    0.09
  -5   7   1    5.70    0.15
  -5   7   1    5.40    0.13
  -5   7   0    3.88    0.13
  -5   7  -1    0.04    0.04
  -5   7  -2    0.56    0.06
  -5   7  -3    7.32    0.16
  -5   7  -4    3.26    0.11
  -5   7  -5    1.36    0.07
  -5   7  -6    2.43    0.08
  -5   7  -7    0.76    0.04
  -5   8   5    0.08    0.03
  -5   8   4    0.29    0.04
  -5   8   3    1.10    0.06
  -5   8   3    1.07    0.06
  -5   8   2    4.76    0.11
  -5   8   2    4.19    0.10
  -5   8   1    4.70    0.11
  -5   8   1    4.27    0.10
  -5   8   0    0.13    0.04
  -5   8  -1    0.75    0.05
  -5   8  -2    0.91    0.05
  -5   8  -3    1.35    0.06
  -5   8  -4    1.10    0.05
   6  -7  -4    0.81    0.05
   6  -7  -3    0.28    0.04
   6  -7  -3    0.30    0.04
   6  -7  -2    1.22    0.06
   6  -7  -2    1.23    0.06
   6  -7  -1    1.85    0.06
   6  -7  -1    2.17    0.07
   6  -7   0    1.22    0.06
   6  -7   1    0.46    0.04
   6  -7   2    4.48    0.09
   6  -6  -7    0.39    0.04
   6  -6  -6    0.86    0.05
   6  -6  -5    2.96    0.10
   6  -6  -5    2.79    0.08
   6  -6  -4    4.19    0.12
   6  -6  -4    4.04    0.10
   6  -6  -3    0.87    0.07
   6  -6  -3    0.87    0.06
   6  -6  -2    0.09    0.05
   6  -6  -2    0.05    0.04
   6  -6  -1    1.36    0.07
   6  -6  -1    1.20    0.08
   6  -6   0    5.56    0.12
   6  -6   0    5.62    0.14
   6  -6   1    5.82    0.14
   6  -6   2    0.85    0.06
   6  -6   3    0.18    0.04
  -6  -5   8    3.38    0.09
   6  -5  -8    3.46    0.09
  -6  -5   7    0.10    0.03
   6  -5  -7    0.06    0.04
  -6  -5   6    7.24    0.15
   6  -5  -6    6.94    0.15
  -6  -5   5    3.14    0.11
   6  -5  -5    3.08    0.11
   6  -5  -5    2.98    0.09
  -6  -5   4    3.58    0.11
   6  -5  -4    3.50    0.12
   6  -5  -4    3.40    0.11
   6  -5  -3    6.62    0.16
   6  -5  -3    6.38    0.16
   6  -5  -2    1.80    0.09
   6  -5  -2    1.73    0.09
   6  -5  -1    0.08    0.06
   6  -5  -1    0.06    0.05
   6  -5   0    2.22    0.09
   6  -5   0    2.14    0.10
   6  -5   1    1.27    0.08
   6  -5   2    1.25    0.08
   6  -5   3    1.08    0.06
   6  -5   3    1.13    0.07
   6  -5   4    0.08    0.04
   6  -5   4    0.15    0.03
   6  -5   5    3.96    0.10
   6  -5   6    3.73    0.09
   6  -5   7    0.51    0.04
  -6  -4  10    2.28    0.07
  -6  -4   9    2.90    0.09
   6  -4  -9    2.71    0.08
  -6  -4   8    3.21    0.11
   6  -4  -8    3.01    0.09
  -6  -4   7    1.10    0.08
   6  -4  -7    1.01    0.07
  -6  -4   6    0.04    0.05
   6  -4  -6    0.09    0.05
   6  -4  -5    7.16    0.18
   6  -4  -5    6.76    0.15
   6  -4  -4    5.74    0.16
   6  -4  -4    5.62    0.15
   6  -4  -3    8.14    0.19
   6  -4  -3    7.77    0.18
   6  -4  -2    8.54    0.19
   6  -4  -2    8.16    0.19
   6  -4  -1    5.02    0.15
   6  -4  -1    5.04    0.15
   6  -4   0    0.89    0.07
   6  -4   0    0.88    0.08
   6  -4   1    0.56    0.07
   6  -4   2    8.02    0.18
   6  -4   3    8.12    0.16
   6  -4   3    8.05    0.17
   6  -4   4    8.68    0.17
   6  -4   4    8.91    0.16
   6  -4   5    7.76    0.16
   6  -4   6    1.54    0.07
   6  -4   7    1.15    0.06
   6  -4   8    0.30    0.04
  -6  -3  11    1.12    0.05
  -6  -3  10    0.05    0.04
  -6  -3   9    1.06    0.07
   6  -3  -9    1.07    0.06
  -6  -3   8    0.43    0.06
   6  -3  -8    0.39    0.05
  -6  -3   7    5.44    0.16
   6  -3  -7    5.64    0.15
   6  -3  -6    2.11    0.10
   6  -3  -5    0.97    0.08
   6  -3  -5    1.04    0.07
   6  -3  -4    1.65    0.10
   6  -3  -4    1.66    0.09
   6  -3  -3    1.83    0.10
   6  -3  -3    1.86    0.10
   6  -3  -2    5.84    0.16
   6  -3  -2    5.65    0.16
   6  -3  -1    9.69    0.20
   6  -3  -1    9.34    0.21
   6  -3   0    5.97    0.16
   6  -3   0    5.78    0.17
   6  -3   1    0.95    0.08
   6  -3   2   16.30    0.23
   6  -3   2   16.51    0.26
   6  -3   3   13.47    0.22
   6  -3   3   14.09    0.23
   6  -3   4    8.39    0.18
   6  -3   4    9.33    0.18
   6  -3   5    0.70    0.06
   6  -3   6    1.31    0.08
   6  -3   7    0.08    0.04
   6  -3   8    3.73    0.10
   6  -3   9    0.86    0.05
  -6  -2  11    1.30    0.06
  -6  -2  10    2.94    0.10
  -6  -2   9    1.00    0.07
  -6  -2   8    1.10    0.08
   6  -2  -8    1.28    0.08
  -6  -2   7    4.73    0.16
   6  -2  -7    5.09    0.15
   6  -2  -6    2.89    0.12
   6  -2  -5    7.32    0.19
   6  -2  -5    7.75    0.17
   6  -2  -4   37.40    0.41
   6  -2  -4   36.71    0.38
   6  -2  -3   15.81    0.27
   6  -2  -3   15.90    0.26
  -6  -2   2    2.28    0.10
   6  -2  -2    2.22    0.11
   6  -2  -2    2.11    0.11
  -6  -2   1    1.82    0.09
   6  -2  -1    1.65    0.10
  -6  -2   0   12.01    0.22
   6  -2   0   11.77    0.21
   6  -2   1   32.92    0.33
   6  -2   1   31.94    0.37
   6  -2   2   34.74    0.39
   6  -2   2   34.43    0.35
   6  -2   3   11.57    0.23
   6  -2   3   10.87    0.20
   6  -2   4    2.24    0.10
   6  -2   4    2.35    0.10
   6  -2   5    2.09    0.10
   6  -2   6    1.65    0.09
   6  -2   7    0.25    0.05
   6  -2   8    1.14    0.07
   6  -2   9    1.48    0.07
   6  -2   9    1.43    0.06
  -6  -1  11    1.77    0.07
  -6  -1  10    0.60    0.06
  -6  -1   9    0.15    0.05
  -6  -1   8    1.40    0.09
   6  -1  -7    2.23    0.10
   6  -1  -6    0.80    0.08
  -6  -1   5    2.16    0.10
   6  -1  -5    2.06    0.11
   6  -1  -5    2.25    0.10
  -6  -1   4    0.56    0.06
   6  -1  -4    0.54    0.07
   6  -1  -4    0.50    0.06
  -6  -1   3    7.50    0.18
   6  -1  -3    7.45    0.19
   6  -1  -3    7.40    0.18
  -6  -1   2    5.36    0.16
   6  -1  -2    5.47    0.16
   6  -1  -2    5.15    0.15
  -6  -1   1    0.63    0.07
   6  -1  -1    0.55    0.07
   6  -1  -1    0.56    0.07
  -6  -1   0    6.78    0.18
   6  -1   0    6.94    0.17
   6  -1   0    6.50    0.17
   6  -1   1    8.82    0.18
   6  -1   1    8.72    0.20
   6  -1   2    3.68    0.12
   6  -1   2    3.60    0.13
   6  -1   3   16.29    0.28
   6  -1   3   15.86    0.25
   6  -1   4    8.06    0.19
   6  -1   4    7.95    0.18
   6  -1   5    1.56    0.09
   6  -1   6    0.99    0.08
   6  -1   7    0.90    0.07
   6  -1   8    1.22    0.08
   6  -1   8    1.12    0.07
   6  -1   9    5.72    0.13
   6  -1   9    5.41    0.11
  -6   0  11    2.17    0.07
  -6   0  10    0.19    0.04
  -6   0   9    2.18    0.10
  -6   0   9    2.08    0.08
  -6   0   8    3.88    0.13
  -6   0   8    3.89    0.12
  -6   0   7    6.37    0.16
  -6   0   7    6.39    0.18
  -6   0   6   11.69    0.22
  -6   0   5    5.30    0.15
   6   0  -5    5.09    0.16
  -6   0   4    8.75    0.20
   6   0  -4    8.61    0.20
   6   0  -4    9.17    0.19
  -6   0   3   21.00    0.31
   6   0  -3   20.20    0.30
   6   0  -3   20.47    0.29
  -6   0   2    4.84    0.15
   6   0  -2    4.71    0.15
   6   0  -2    4.73    0.15
   6   0  -1    5.70    0.16
   6   0  -1    5.44    0.16
   6   0   0    9.91    0.19
   6   0   0    9.64    0.21
   6   0   1    0.87    0.07
   6   0   1    0.91    0.08
   6   0   2    3.11    0.12
   6   0   2    3.12    0.12
   6   0   3   21.07    0.29
   6   0   3   20.65    0.32
   6   0   4    0.03    0.05
   6   0   4    0.03    0.04
   6   0   5   13.73    0.23
   6   0   6   14.44    0.24
   6   0   7    2.97    0.11
   6   0   8    0.46    0.06
   6   0   8    0.50    0.06
   6   0   9    0.28    0.05
   6   0  10    0.31    0.04
  -6   1  11    1.43    0.05
  -6   1  10    0.62    0.05
  -6   1   9    0.18    0.04
  -6   1   8    1.41    0.08
  -6   1   8    1.43    0.08
  -6   1   7    1.95    0.10
  -6   1   7    1.90    0.10
  -6   1   6    0.72    0.07
  -6   1   5    2.28    0.11
  -6   1   4    0.46    0.07
  -6   1   3    7.45    0.19
  -6   1   2    5.32    0.16
  -6   1   1    0.52    0.07
  -6   1   0    6.70    0.18
  -6   1  -1    8.97    0.21
   6   1   2    3.40    0.13
   6   1   3   16.00    0.26
   6   1   3   16.33    0.28
   6   1   4    8.18    0.19
   6   1   4    8.02    0.19
   6   1   5    1.64    0.09
   6   1   6    1.02    0.08
   6   1   6    1.01    0.09
   6   1   7    0.86    0.08
   6   1   8    1.10    0.08
   6   1   9    5.77    0.14
   6   1  10    0.06    0.03
  -6   2  11    1.39    0.06
  -6   2  10    2.91    0.09
  -6   2   9    0.96    0.07
  -6   2   8    1.21    0.08
  -6   2   7    4.82    0.15
  -6   2   6    2.71    0.12
  -6   2   5    7.32    0.19
  -6   2   4   36.06    0.42
  -6   2   3   16.15    0.28
  -6   2   2    2.30    0.11
  -6   2   1    1.60    0.10
  -6   2   0   11.89    0.24
  -6   2  -1   33.95    0.40
  -6   2  -2   37.03    0.41
   6   2   2   34.57    0.39
  -6   2  -3   12.18    0.24
   6   2   3   12.01    0.23
   6   2   4    2.28    0.11
  -6   2  -5    2.15    0.09
   6   2   5    2.27    0.11
  -6   2  -6    1.63    0.08
   6   2   6    1.64    0.10
  -6   2  -7    0.22    0.03
   6   2   7    0.25    0.06
  -6   2  -8    0.95    0.05
   6   2   8    1.15    0.08
   6   2   9    1.68    0.08
  -6   3  11    1.05    0.05
  -6   3  10    0.09    0.04
  -6   3   9    1.06    0.07
  -6   3   8    0.38    0.06
  -6   3   7    5.40    0.16
  -6   3   6    2.11    0.11
  -6   3   6    2.10    0.09
  -6   3   5    1.01    0.08
  -6   3   5    0.96    0.07
  -6   3   4    1.65    0.10
  -6   3   4    1.64    0.09
  -6   3   3    1.95    0.11
  -6   3   3    2.06    0.09
  -6   3   2    6.02    0.17
  -6   3   2    6.20    0.16
  -6   3   1   10.01    0.22
  -6   3   1   10.35    0.21
  -6   3   0    6.27    0.17
  -6   3   0    6.43    0.16
  -6   3  -1    1.08    0.08
  -6   3  -1    1.06    0.07
  -6   3  -2   18.32    0.28
  -6   3  -2   17.86    0.27
  -6   3  -3   14.53    0.24
  -6   3  -3   14.50    0.24
  -6   3  -4    9.01    0.19
  -6   3  -4    9.01    0.19
   6   3   4    8.65    0.20
  -6   3  -5    0.62    0.06
  -6   3  -5    0.66    0.06
   6   3   5    0.59    0.07
  -6   3  -6    1.33    0.07
   6   3   6    1.43    0.09
  -6   3  -7    0.07    0.03
   6   3   7    0.07    0.05
  -6   3  -8    3.53    0.09
   6   3   8    4.26    0.12
   6   3   9    1.00    0.06
  -6   4  10    2.31    0.07
  -6   4   9    2.87    0.09
  -6   4   8    3.14    0.11
  -6   4   7    1.00    0.07
  -6   4   6    0.02    0.05
  -6   4   6    0.04    0.04
  -6   4   5    6.83    0.17
  -6   4   5    7.06    0.16
  -6   4   4    5.93    0.16
  -6   4   4    6.41    0.16
  -6   4   3    8.67    0.19
  -6   4   3    8.96    0.19
  -6   4   2    9.10    0.20
  -6   4   2    9.55    0.20
  -6   4   1    5.34    0.15
  -6   4   1    5.67    0.16
  -6   4   0    0.93    0.08
  -6   4   0    0.97    0.08
  -6   4  -1    0.67    0.06
  -6   4  -1    0.60    0.07
  -6   4  -2    8.99    0.18
  -6   4  -2    9.16    0.20
  -6   4  -3    8.95    0.19
  -6   4  -4    9.46    0.19
   6   4   4    8.96    0.18
  -6   4  -5    8.03    0.17
   6   4   5    8.35    0.18
  -6   4  -6    1.55    0.08
   6   4   6    1.54    0.08
  -6   4  -7    1.18    0.06
   6   4   7    1.16    0.07
  -6   4  -8    0.31    0.03
  -6   5   9    9.57    0.13
  -6   5   8    3.50    0.10
  -6   5   7    0.07    0.04
  -6   5   6    7.28    0.15
  -6   5   5    3.16    0.11
  -6   5   5    3.20    0.11
  -6   5   4    3.70    0.12
  -6   5   4    3.61    0.12
  -6   5   3    6.97    0.16
  -6   5   3    7.11    0.17
  -6   5   2    1.83    0.09
  -6   5   2    1.87    0.09
  -6   5   1    0.14    0.04
  -6   5   1    0.11    0.05
  -6   5   0    2.45    0.11
  -6   5  -1    1.32    0.08
  -6   5  -2    1.47    0.09
  -6   5  -3    1.21    0.08
  -6   5  -4    0.08    0.04
  -6   5  -5    4.02    0.11
  -6   5  -6    3.90    0.10
  -6   5  -7    0.51    0.04
  -6   6   6    0.63    0.04
  -6   6   5    3.34    0.10
  -6   6   4    4.63    0.12
  -6   6   3    0.97    0.07
  -6   6   2    0.08    0.04
  -6   6   1    1.50    0.08
  -6   6   0    6.59    0.15
  -6   6  -1    6.72    0.15
  -6   6  -2    0.93    0.06
  -6   6  -3    0.21    0.04
  -6   6  -4    2.83    0.09
  -6   6  -5    2.97    0.08
  -6   7   3    0.28    0.04
  -6   7   2    1.43    0.06
  -6   7   1    2.54    0.08
  -6   7   0    1.42    0.06
  -6   7  -1    0.52    0.04
  -6   7  -2    5.28    0.11
  -6   7  -3    2.91    0.08
   7  -5  -4    0.07    0.03
   7  -5  -3    2.37    0.07
   7  -5  -3    2.38    0.07
   7  -5  -2    1.06    0.05
   7  -5  -2    1.14    0.05
   7  -5  -1    6.06    0.11
   7  -5   0    5.35    0.11
   7  -5   1    0.48    0.04
  -7  -4   6    0.78    0.05
   7  -4  -6    0.81    0.05
  -7  -4   5    0.84    0.05
   7  -4  -5    0.82    0.05
  -7  -4   4    0.50    0.05
   7  -4  -4    0.47    0.05
   7  -4  -4    0.53    0.04
   7  -4  -3    2.00    0.08
   7  -4  -3    2.07    0.08
   7  -4  -2    1.24    0.06
   7  -4  -2    1.16    0.07
   7  -4  -1    0.94    0.05
   7  -4  -1    0.89    0.06
   7  -4   0    2.06    0.08
   7  -4   1    6.00    0.12
   7  -4   2    1.12    0.06
   7  -4   3    0.15    0.03
  -7  -3   8    2.00    0.06
  -7  -3   7    3.27    0.09
  -7  -3   6    4.20    0.11
   7  -3  -6    4.40    0.11
  -7  -3   5    3.77    0.11
   7  -3  -5    3.67    0.11
   7  -3  -4    0.27    0.04
   7  -3  -4    0.27    0.05
   7  -3  -3    0.05    0.04
   7  -3  -3    0.04    0.04
   7  -3  -2    0.46    0.05
   7  -3  -2    0.55    0.06
   7  -3  -1    0.03    0.05
   7  -3  -1    0.04    0.04
   7  -3   0    0.13    0.05
   7  -3   1    0.23    0.05
   7  -3   2    0.43    0.05
  -7  -3  -3    0.64    0.04
   7  -3   3    0.77    0.04
  -7  -3  -4    0.91    0.05
   7  -3   4    1.16    0.05
  -7  -3  -5    0.69    0.04
   7  -3   5    1.41    0.05
  -7  -2   8    1.25    0.06
  -7  -2   7    0.40    0.05
  -7  -2   6    3.79    0.12
   7  -2  -5    4.07    0.12
   7  -2  -4    0.12    0.05
   7  -2  -3    3.25    0.11
   7  -2  -3    3.24    0.11
   7  -2  -2    2.60    0.10
   7  -2  -2    2.56    0.10
  -7  -2   1    4.44    0.12
   7  -2  -1    4.34    0.13
  -7  -2   0    0.89    0.06
   7  -2   0    0.83    0.07
  -7  -2  -1    3.31    0.11
   7  -2   1    3.45    0.11
  -7  -2  -2    5.11    0.13
   7  -2   2    4.51    0.11
  -7  -2  -3    1.78    0.08
   7  -2   3    1.68    0.07
  -7  -2  -4    0.12    0.04
   7  -2   4    0.12    0.03
  -7  -2  -5    6.28    0.13
   7  -2   5    7.83    0.13
  -7  -2  -6    0.06    0.03
   7  -2   6    0.05    0.03
  -7  -1   8    0.93    0.06
  -7  -1   7    2.24    0.09
  -7  -1   6    0.45    0.06
  -7  -1   4    8.22    0.16
  -7  -1   3    0.69    0.06
  -7  -1   2    1.08    0.07
  -7  -1   1    0.50    0.06
  -7  -1   0    2.81    0.11
  -7  -1  -1    1.70    0.09
  -7  -1  -2    0.47    0.06
  -7  -1  -3    1.43    0.08
  -7  -1  -4    1.54    0.08
  -7  -1  -5    3.70    0.11
  -7  -1  -6    1.23    0.06
   7  -1   6    1.81    0.08
  -7  -1  -7    0.06    0.03
   7  -1   7    0.10    0.03
  -7   0   8    2.41    0.08
  -7   0   7    2.42    0.09
  -7   0   7    2.45    0.08
  -7   0   6    1.17    0.06
  -7   0   6    1.21    0.07
  -7   0   5    0.18    0.04
  -7   0   4    0.00    0.04
  -7   0   3    5.71    0.15
  -7   0   2    1.80    0.09
  -7   0   1    0.06    0.05
  -7   0   0    2.02    0.10
  -7   0  -1    0.78    0.07
  -7   0  -2    0.06    0.05
  -7   0  -3    0.02    0.04
  -7   0  -4    4.21    0.12
  -7   0  -5    0.03    0.04
   7   0   5    0.06    0.04
  -7   0  -6    0.19    0.04
   7   0   6    0.29    0.05
  -7   0  -7    1.94    0.07
   7   0   7    3.82    0.10
  -7   1   8    0.79    0.05
  -7   1   7    2.32    0.08
  -7   1   6    0.46    0.05
  -7   1   6    0.41    0.05
  -7   1   5    3.48    0.11
  -7   1   4    8.18    0.18
  -7   1   3    0.73    0.07
  -7   1   2    0.95    0.08
  -7   1   1    0.41    0.06
  -7   1   0    2.86    0.11
  -7   1  -1    1.71    0.09
  -7   1  -2    0.48    0.06
  -7   1  -3    1.41    0.08
   7   1   3    1.42    0.08
  -7   1  -4    1.58    0.08
   7   1   4    1.68    0.08
  -7   1  -5    3.81    0.11
   7   1   5    4.13    0.12
  -7   1  -6    1.30    0.06
   7   1   6    1.63    0.07
   7   1   7    0.11    0.03
  -7   2   8    1.14    0.06
  -7   2   7    0.38    0.05
  -7   2   6    3.88    0.11
  -7   2   5    4.07    0.12
  -7   2   4    0.12    0.05
  -7   2   3    3.33    0.12
  -7   2   2    2.80    0.11
  -7   2   1    4.44    0.14
  -7   2   0    0.80    0.07
  -7   2  -1    3.52    0.12
  -7   2  -2    5.38    0.14
  -7   2  -3    2.03    0.09
   7   2   3    1.89    0.08
  -7   2  -4    0.18    0.04
   7   2   4    0.13    0.04
  -7   2  -5    7.40    0.13
   7   2   5    8.41    0.15
  -7   2  -6    0.02    0.02
   7   2   6    0.08    0.03
  -7   3   8    1.71    0.06
  -7   3   7    3.26    0.09
  -7   3   6    4.16    0.11
  -7   3   5    3.71    0.11
  -7   3   4    0.27    0.05
  -7   3   3    0.07    0.04
  -7   3   2    0.59    0.06
  -7   3   1    0.06    0.04
  -7   3   0    0.18    0.04
  -7   3  -1    0.30    0.05
  -7   3  -2    0.46    0.05
  -7   3  -3    0.90    0.06
  -7   3  -4    1.18    0.06
   7   3   5    1.40    0.06
  -7   4   6    0.81    0.05
  -7   4   5    0.85    0.05
  -7   4   4    0.48    0.05
  -7   4   3    2.07    0.08
  -7   4   3    2.07    0.07
  -7   4   2    1.28    0.07
  -7   4   2    1.29    0.06
  -7   4   1    0.97    0.06
  -7   4   1    0.96    0.05
  -7   4   0    2.13    0.08
  -7   4   0    2.17    0.07
  -7   4  -1    6.38    0.12
  -7   4  -1    6.53    0.12
  -7   4  -2    0.75    0.05
  -7   4  -2    1.23    0.05
  -7   4  -3    0.13    0.02
  -7   5   3    2.11    0.06
  -7   5   2    1.15    0.05
  -7   5   1    6.36    0.11
  -7   5   0    5.43    0.10
  -7   5  -1    0.45    0.04
  -8   0   1    0.31    0.03
  -8   0   0    0.06    0.02
  -8   1   2    1.65    0.06
  -8   1   1    0.43    0.04
  -8   1   0    1.29    0.05
   0   0   0    0.00    0.00
;
_shelx_hkl_checksum              65590
_shelx_res_file
;
    jack323a.res created by SHELXL-2014/7
TITL jack323a in P2(1)
CELL 1.54178 6.5592 9.1328 13.7163 90 93.9 90
ZERR 2 0.0001 0.0002 0.0003 0 0.002 0
LATT -1
SYMM -X,0.5+Y,-Z
SFAC C H Li B O
UNIT 32 28 2 2 14
EQIV $1 -X,0.5+Y,1-Z
L.S. 10
PLAN  20
TEMP -100
HTAB O1W O22_$1
FREE Li1 C21
CONF
BOND
MORE -1
BOND $H
fmap 2
acta 135
OMIT 1 2 0
OMIT 4 -4 12
OMIT -1 0 2
OMIT 2 0 2
REM <olex2.extras>
REM <HklSrc "%.\\jack323a.hkl">
REM </olex2.extras>
WGHT    0.054000    0.079000
FVAR       0.31261
LI1   3   -0.003577    0.499613    0.580469    11.00000    0.02578    0.04075 =
         0.03567    0.00319    0.00364    0.00006
O1W   5   -0.046639    0.667172    0.664104    11.00000    0.03629    0.03634 =
         0.07282   -0.00373    0.00861    0.00012
B1    4    0.247432    0.539652    0.410327    11.00000    0.02317    0.02960 =
         0.02904   -0.00042    0.00213    0.00001
O10   5    0.763677    0.499586    0.482592    11.00000    0.02146    0.04541 =
         0.03899    0.00470    0.00451    0.00232
O11   5    0.471790    0.545608    0.395322    11.00000    0.02358    0.03717 =
         0.02846    0.00422    0.00334    0.00072
C11   1    0.578624    0.496919    0.472872    11.00000    0.02418    0.02742 =
         0.02947   -0.00023    0.00411    0.00183
O12   5    0.235573    0.466060    0.503196    11.00000    0.01917    0.03620 =
         0.02966    0.00518    0.00037   -0.00091
C12   1    0.434431    0.437619    0.547306    11.00000    0.01910    0.03019 =
         0.03060    0.00448    0.00178    0.00086
AFIX  13
H12   2    0.454357    0.329521    0.554619    11.00000   -1.20000
AFIX   0
C13   1    0.472809    0.510413    0.645658    11.00000    0.01944    0.03992 =
         0.03030    0.00299    0.00406   -0.00148
C14   1    0.557585    0.431433    0.724922    11.00000    0.03370    0.05430 =
         0.03312    0.00722    0.00195    0.00341
AFIX  43
H14   2    0.585873    0.330029    0.718346    11.00000   -1.20000
AFIX   0
C15   1    0.600914    0.501567    0.814058    11.00000    0.04796    0.08544 =
         0.03051    0.00725   -0.00406   -0.00257
AFIX  43
H15   2    0.660832    0.448365    0.868208    11.00000   -1.20000
AFIX   0
C16   1    0.556677    0.648780    0.823750    11.00000    0.05370    0.08007 =
         0.03688   -0.01476    0.00293   -0.01472
AFIX  43
H16   2    0.587515    0.696544    0.884496    11.00000   -1.20000
AFIX   0
C17   1    0.468308    0.726411    0.745959    11.00000    0.04434    0.05154 =
         0.04945   -0.01415    0.00965   -0.01133
AFIX  43
H17   2    0.435213    0.826872    0.753448    11.00000   -1.20000
AFIX   0
C18   1    0.427663    0.657686    0.656603    11.00000    0.03025    0.04048 =
         0.03714   -0.00211    0.00336   -0.00558
AFIX  43
H18   2    0.368625    0.711690    0.602619    11.00000   -1.20000
AFIX   0
O20   5   -0.052370    0.835003    0.329635    11.00000    0.03213    0.03648 =
         0.03653   -0.00373   -0.00047    0.00908
O21   5    0.171490    0.693499    0.415417    11.00000    0.02634    0.02979 =
         0.02898   -0.00235   -0.00289    0.00130
C21   1    0.031465    0.717962    0.344229    11.00000    0.02296    0.03247 =
         0.02835   -0.00081    0.00233    0.00162
O22   5    0.128111    0.474160    0.330064    11.00000    0.03193    0.02710 =
         0.03073   -0.00277   -0.00348    0.00197
C22   1   -0.001071    0.580411    0.282359    11.00000    0.02614    0.03118 =
         0.03130   -0.00310   -0.00356    0.00167
AFIX  13
H22   2   -0.146724    0.548211    0.282785    11.00000   -1.20000
AFIX   0
C23   1    0.051367    0.611121    0.178007    11.00000    0.03893    0.03950 =
         0.02749   -0.00648   -0.00503   -0.00127
C24   1   -0.078524    0.697625    0.117878    11.00000    0.04802    0.08657 =
         0.04055    0.00674   -0.01085    0.01305
AFIX  43
H24   2   -0.202791    0.732856    0.140887    11.00000   -1.20000
AFIX   0
C25   1   -0.026554    0.732432    0.024309    11.00000    0.07800    0.10186 =
         0.04108    0.01717   -0.02057    0.00798
AFIX  43
H25   2   -0.114142    0.793139   -0.016182    11.00000   -1.20000
AFIX   0
C26   1    0.151236    0.679443   -0.010112    11.00000    0.09329    0.09779 =
         0.03109    0.00403    0.00514    0.00084
AFIX  43
H26   2    0.182775    0.699130   -0.075409    11.00000   -1.20000
AFIX   0
C27   1    0.282515    0.598347    0.049875    11.00000    0.08921    0.08726 =
         0.04747    0.00828    0.02763    0.02364
AFIX  43
H27   2    0.408006    0.565346    0.026945    11.00000   -1.20000
AFIX   0
C28   1    0.233194    0.563714    0.144723    11.00000    0.06125    0.05799 =
         0.04004    0.00498    0.01089    0.01954
AFIX  43
H28   2    0.325097    0.507534    0.186121    11.00000   -1.20000
AFIX   0
H1WA  2   -0.069962    0.759368    0.647457    11.00000    0.07720
H1WB  2   -0.134983    0.649709    0.704578    11.00000    0.18432
HKLF 4
REM  jack323a in P2(1)
REM R1 =  0.0304 for    2973 Fo > 4sig(Fo)  and  0.0311 for all    3072 data
REM    234 parameters refined using      1 restraints
END
WGHT      0.0539      0.0790
REM Highest difference peak  0.195,  deepest hole -0.156,  1-sigma level  0.034
Q1    1  -0.0429  0.6975  0.5980  11.00000  0.05    0.20
Q2    1  -0.0796  0.6010  0.1094  11.00000  0.05    0.15
Q3    1  -0.0155  0.6441  0.0059  11.00000  0.05    0.13
Q4    1  -0.0148  0.7827  0.5438  11.00000  0.05    0.13
Q5    1   0.1395  0.5134  0.1270  11.00000  0.05    0.12
Q6    1   0.1359  0.7112  0.5782  11.00000  0.05    0.11
Q7    1   0.7749  0.6220  0.4769  11.00000  0.05    0.11
Q8    1   0.9253  0.5223  0.5020  11.00000  0.05    0.11
Q9    1   0.0142  0.8119  0.4900  11.00000  0.05    0.11
Q10   1   0.5128  0.4657  0.5151  11.00000  0.05    0.10
Q11   1   0.4086  0.5400  0.3989  11.00000  0.05    0.10
Q12   1   0.0190  0.6629  0.2994  11.00000  0.05    0.10
Q13   1  -0.0128  0.8775  0.3988  11.00000  0.05    0.10
Q14   1   0.0930  0.4736  0.5262  11.00000  0.05    0.09
Q15   1  -0.0783  0.6074 -0.1422  11.00000  0.05    0.09
Q16   1   0.1755  0.5467  0.0191  11.00000  0.05    0.09
Q17   1   0.5051  0.2398  0.5026  11.00000  0.05    0.09
Q18   1   0.1370  0.6843  0.6588  11.00000  0.05    0.09
Q19   1   0.4898  0.6406  0.3948  11.00000  0.05    0.09
Q20   1   0.0425  0.5142 -0.0220  11.00000  0.05    0.09
;
_shelx_res_checksum              5902
loop_
_space_group_symop_operation_xyz
'x, y, z'
'-x, y+1/2, -z'
loop_
_atom_site_type_symbol
_atom_site_label
_atom_site_fract_x
_atom_site_fract_y
_atom_site_fract_z
_atom_site_U_iso_or_equiv
_atom_site_adp_type
_atom_site_calc_flag
_atom_site_occupancy
Li Li1 -0.0036(5) 0.4996(4) 0.5805(3) 0.0340(7) Uani d 1
O O1W -0.0466(3) 0.6672(2) 0.66410(17) 0.0483(4) Uani d 1
B B1 0.2474(3) 0.5397(2) 0.41033(16) 0.0273(4) Uani d 1
O O10 0.7637(2) 0.49959(18) 0.48259(11) 0.0352(3) Uani d 1
O O11 0.47179(19) 0.54561(16) 0.39532(10) 0.0297(3) Uani d 1
C C11 0.5786(3) 0.4969(2) 0.47287(14) 0.0269(4) Uani d 1
O O12 0.23557(19) 0.46606(16) 0.50320(10) 0.0284(3) Uani d 1
C C12 0.4344(3) 0.4376(2) 0.54731(14) 0.0266(4) Uani d 1
H H12 0.4544 0.3295 0.5546 0.032 Uiso calc 1
C C13 0.4728(3) 0.5104(2) 0.64566(14) 0.0298(4) Uani d 1
C C14 0.5576(3) 0.4314(3) 0.72492(16) 0.0404(5) Uani d 1
H H14 0.5859 0.3300 0.7183 0.048 Uiso calc 1
C C15 0.6009(4) 0.5016(4) 0.81406(18) 0.0549(7) Uani d 1
H H15 0.6608 0.4484 0.8682 0.066 Uiso calc 1
C C16 0.5567(5) 0.6488(4) 0.82375(19) 0.0569(7) Uani d 1
H H16 0.5875 0.6965 0.8845 0.068 Uiso calc 1
C C17 0.4683(4) 0.7264(3) 0.74596(19) 0.0482(6) Uani d 1
H H17 0.4352 0.8269 0.7534 0.058 Uiso calc 1
C C18 0.4277(3) 0.6577(3) 0.65660(16) 0.0359(5) Uani d 1
H H18 0.3686 0.7117 0.6026 0.043 Uiso calc 1
O O20 -0.0524(2) 0.83500(17) 0.32964(11) 0.0352(3) Uani d 1
O O21 0.1715(2) 0.69350(15) 0.41542(9) 0.0286(3) Uani d 1
C C21 0.0315(3) 0.7180(2) 0.34423(14) 0.0279(4) Uani d 1
O O22 0.1281(2) 0.47416(15) 0.33006(10) 0.0302(3) Uani d 1
C C22 -0.0011(3) 0.5804(2) 0.28236(14) 0.0298(4) Uani d 1
H H22 -0.1467 0.5482 0.2828 0.036 Uiso calc 1
C C23 0.0514(3) 0.6111(3) 0.17801(15) 0.0356(5) Uani d 1
C C24 -0.0785(5) 0.6976(4) 0.1179(2) 0.0590(8) Uani d 1
H H24 -0.2028 0.7329 0.1409 0.071 Uiso calc 1
C C25 -0.0266(6) 0.7324(5) 0.0243(2) 0.0748(10) Uani d 1
H H25 -0.1141 0.7931 -0.0162 0.090 Uiso calc 1
C C26 0.1512(6) 0.6794(5) -0.0101(2) 0.0740(10) Uani d 1
H H26 0.1828 0.6991 -0.0754 0.089 Uiso calc 1
C C27 0.2825(6) 0.5983(5) 0.0499(2) 0.0736(10) Uani d 1
H H27 0.4080 0.5653 0.0269 0.088 Uiso calc 1
C C28 0.2332(5) 0.5637(3) 0.14472(19) 0.0528(7) Uani d 1
H H28 0.3251 0.5075 0.1861 0.063 Uiso calc 1
H H1WA -0.070(6) 0.759(6) 0.647(3) 0.077(12) Uiso d 1
H H1WB -0.135(12) 0.650(9) 0.705(5) 0.18(3) Uiso d 1
loop_
_atom_site_aniso_label
_atom_site_aniso_U_11
_atom_site_aniso_U_22
_atom_site_aniso_U_33
_atom_site_aniso_U_12
_atom_site_aniso_U_13
_atom_site_aniso_U_23
Li1 0.0258(15) 0.0407(19) 0.0357(17) 0.0001(14) 0.0036(13) 0.0032(15)
O1W 0.0363(9) 0.0363(9) 0.0728(12) 0.0001(7) 0.0086(8) -0.0037(8)
B1 0.0232(10) 0.0296(11) 0.0290(10) 0.0000(8) 0.0021(8) -0.0004(8)
O10 0.0215(6) 0.0454(9) 0.0390(8) 0.0023(6) 0.0045(5) 0.0047(7)
O11 0.0236(7) 0.0372(8) 0.0285(7) 0.0007(5) 0.0033(5) 0.0042(6)
C11 0.0242(9) 0.0274(9) 0.0295(9) 0.0018(7) 0.0041(7) -0.0002(7)
O12 0.0192(6) 0.0362(7) 0.0297(6) -0.0009(5) 0.0004(5) 0.0052(5)
C12 0.0191(9) 0.0302(10) 0.0306(9) 0.0009(7) 0.0018(7) 0.0045(7)
C13 0.0194(8) 0.0399(11) 0.0303(10) -0.0015(7) 0.0041(7) 0.0030(8)
C14 0.0337(11) 0.0543(14) 0.0331(10) 0.0034(9) 0.0019(8) 0.0072(10)
C15 0.0480(14) 0.085(2) 0.0305(12) -0.0026(14) -0.0041(10) 0.0072(12)
C16 0.0537(15) 0.080(2) 0.0369(13) -0.0147(14) 0.0029(11) -0.0148(13)
C17 0.0443(13) 0.0515(14) 0.0495(13) -0.0113(12) 0.0097(10) -0.0141(12)
C18 0.0303(10) 0.0405(12) 0.0371(11) -0.0056(9) 0.0034(8) -0.0021(9)
O20 0.0321(7) 0.0365(8) 0.0365(8) 0.0091(6) -0.0005(6) -0.0037(6)
O21 0.0263(7) 0.0298(8) 0.0290(6) 0.0013(5) -0.0029(5) -0.0023(5)
C21 0.0230(9) 0.0325(10) 0.0283(8) 0.0016(7) 0.0023(7) -0.0008(8)
O22 0.0319(7) 0.0271(7) 0.0307(7) 0.0020(6) -0.0035(5) -0.0028(5)
C22 0.0261(9) 0.0312(10) 0.0313(10) 0.0017(7) -0.0036(7) -0.0031(8)
C23 0.0389(11) 0.0395(11) 0.0275(9) -0.0013(8) -0.0050(8) -0.0065(8)
C24 0.0480(14) 0.087(2) 0.0405(13) 0.0131(14) -0.0109(11) 0.0067(13)
C25 0.078(2) 0.102(3) 0.0411(14) 0.008(2) -0.0206(14) 0.0172(17)
C26 0.093(3) 0.098(3) 0.0311(12) 0.001(2) 0.0051(14) 0.0040(15)
C27 0.089(2) 0.087(2) 0.0475(15) 0.024(2) 0.0276(16) 0.0083(16)
C28 0.0613(16) 0.0580(16) 0.0400(13) 0.0195(13) 0.0109(11) 0.0050(11)
loop_
_atom_type_symbol
_atom_type_description
_atom_type_scat_dispersion_real
_atom_type_scat_dispersion_imag
_atom_type_scat_source
C C 0.0181 0.0091 'International Tables Vol C Tables 4.2.6.8 and 6.1.1.4'
H H 0.0000 0.0000 'International Tables Vol C Tables 4.2.6.8 and 6.1.1.4'
Li Li 0.0008 0.0003 'International Tables Vol C Tables 4.2.6.8 and 6.1.1.4'
B B 0.0090 0.0039 'International Tables Vol C Tables 4.2.6.8 and 6.1.1.4'
O O 0.0492 0.0322 'International Tables Vol C Tables 4.2.6.8 and 6.1.1.4'
loop_
_geom_angle_atom_site_label_1
_geom_angle_atom_site_label_2
_geom_angle_atom_site_label_3
_geom_angle_site_symmetry_1
_geom_angle_site_symmetry_3
_geom_angle
O1W Li1 O10 . 1_455 105.43(18)
O1W Li1 O12 . . 126.2(2)
O1W Li1 O20 . 2_546 105.10(18)
O1W Li1 C21 . 2_546 119.51(17)
O10 Li1 O12 1_455 . 104.00(17)
O10 Li1 C21 1_455 2_546 100.72(16)
O12 Li1 C21 . 2_546 97.49(15)
O20 Li1 O10 2_546 1_455 122.2(2)
O20 Li1 O12 2_546 . 95.56(17)
O20 Li1 C21 2_546 2_546 22.04(8)
Li1 O1W H1WA . . 129(3)
Li1 O1W H1WB . . 112(6)
H1WA O1W H1WB . . 104(6)
O12 B1 O11 . . 104.45(15)
O12 B1 O21 . . 110.95(16)
O21 B1 O11 . . 107.79(15)
O22 B1 O11 . . 113.46(16)
O22 B1 O12 . . 114.96(17)
O22 B1 O21 . . 105.15(15)
C11 O10 Li1 . 1_655 143.27(17)
C11 O11 B1 . . 110.58(14)
O10 C11 O11 . . 123.94(18)
O10 C11 C12 . . 126.22(18)
O11 C11 C12 . . 109.84(15)
B1 O12 Li1 . . 119.50(15)
C12 O12 Li1 . . 122.55(15)
C12 O12 B1 . . 110.87(14)
C11 C12 H12 . . 109.4
O12 C12 C11 . . 103.93(14)
O12 C12 H12 . . 109.4
O12 C12 C13 . . 113.06(16)
C13 C12 C11 . . 111.45(16)
C13 C12 H12 . . 109.4
C14 C13 C12 . . 120.3(2)
C18 C13 C12 . . 119.98(18)
C18 C13 C14 . . 119.7(2)
C13 C14 H14 . . 120.2
C13 C14 C15 . . 119.7(3)
C15 C14 H14 . . 120.2
C14 C15 H15 . . 120.0
C16 C15 C14 . . 120.0(3)
C16 C15 H15 . . 120.0
C15 C16 H16 . . 119.8
C17 C16 C15 . . 120.4(2)
C17 C16 H16 . . 119.8
C16 C17 H17 . . 120.1
C16 C17 C18 . . 119.9(3)
C18 C17 H17 . . 120.1
C13 C18 H18 . . 119.8
C17 C18 C13 . . 120.3(2)
C17 C18 H18 . . 119.8
C21 O20 Li1 . 2_556 120.54(17)
C21 O21 B1 . . 110.11(15)
O20 C21 Li1 . 2_556 37.42(12)
O20 C21 O21 . . 123.99(19)
O20 C21 C22 . . 126.19(17)
O21 C21 Li1 . 2_556 86.65(13)
O21 C21 C22 . . 109.78(17)
C22 C21 Li1 . 2_556 163.57(15)
C22 O22 B1 . . 110.23(15)
C21 C22 H22 . . 109.7
O22 C22 C21 . . 104.51(15)
O22 C22 H22 . . 109.7
O22 C22 C23 . . 113.21(17)
C23 C22 C21 . . 109.89(18)
C23 C22 H22 . . 109.7
C24 C23 C22 . . 119.6(2)
C28 C23 C22 . . 120.7(2)
C28 C23 C24 . . 119.5(2)
C23 C24 H24 . . 120.0
C25 C24 C23 . . 120.0(3)
C25 C24 H24 . . 120.0
C24 C25 H25 . . 119.9
C26 C25 C24 . . 120.3(3)
C26 C25 H25 . . 119.9
C25 C26 H26 . . 120.1
C27 C26 C25 . . 119.9(3)
C27 C26 H26 . . 120.1
C26 C27 H27 . . 119.8
C26 C27 C28 . . 120.4(3)
C28 C27 H27 . . 119.8
C23 C28 C27 . . 119.9(3)
C23 C28 H28 . . 120.1
C27 C28 H28 . . 120.1
loop_
_geom_bond_atom_site_label_1
_geom_bond_atom_site_label_2
_geom_bond_site_symmetry_2
_geom_bond_distance
Li1 O1W . 1.945(4)
Li1 O10 1_455 1.963(4)
Li1 O12 . 1.976(4)
Li1 O20 2_546 1.963(4)
Li1 C21 2_546 2.783(4)
O1W H1WA . 0.88(5)
O1W H1WB . 0.84(8)
B1 O11 . 1.501(2)
B1 O12 . 1.447(3)
B1 O21 . 1.494(3)
B1 O22 . 1.437(3)
O10 Li1 1_655 1.963(4)
O10 C11 . 1.212(2)
O11 C11 . 1.311(2)
C11 C12 . 1.537(2)
O12 C12 . 1.424(2)
C12 H12 . 1.0000
C12 C13 . 1.510(3)
C13 C14 . 1.389(3)
C13 C18 . 1.388(3)
C14 H14 . 0.9500
C14 C15 . 1.392(4)
C15 H15 . 0.9500
C15 C16 . 1.384(5)
C16 H16 . 0.9500
C16 C17 . 1.376(4)
C17 H17 . 0.9500
C17 C18 . 1.387(3)
C18 H18 . 0.9500
O20 Li1 2_556 1.963(4)
O20 C21 . 1.212(3)
O21 C21 . 1.313(2)
C21 Li1 2_556 2.783(4)
C21 C22 . 1.523(3)
O22 C22 . 1.419(2)
C22 H22 . 1.0000
C22 C23 . 1.521(3)
C23 C24 . 1.391(4)
C23 C28 . 1.376(4)
C24 H24 . 0.9500
C24 C25 . 1.387(4)
C25 H25 . 0.9500
C25 C26 . 1.375(6)
C26 H26 . 0.9500
C26 C27 . 1.368(5)
C27 H27 . 0.9500
C27 C28 . 1.398(4)
C28 H28 . 0.9500
loop_
_geom_hbond_atom_site_label_D
_geom_hbond_atom_site_label_H
_geom_hbond_atom_site_label_A
_geom_hbond_site_symmetry_A
_geom_hbond_distance_DH
_geom_hbond_distance_HA
_geom_hbond_distance_DA
_geom_hbond_angle_DHA
O1W H1WA O22 2_556 0.88(5) 2.03(5) 2.856(2) 156(4)
loop_
_geom_torsion_atom_site_label_1
_geom_torsion_atom_site_label_2
_geom_torsion_atom_site_label_3
_geom_torsion_atom_site_label_4
_geom_torsion_site_symmetry_1
_geom_torsion_site_symmetry_4
_geom_torsion
Li1 O10 C11 O11 1_655 . 156.5(3)
Li1 O10 C11 C12 1_655 . -23.4(4)
Li1 O12 C12 C11 . . -151.52(18)
Li1 O12 C12 C13 . . -30.5(3)
Li1 O20 C21 O21 2_556 . -4.1(3)
Li1 O20 C21 C22 2_556 . 178.40(19)
Li1 C21 C22 O22 2_556 . -175.7(5)
Li1 C21 C22 C23 2_556 . 62.5(6)
B1 O11 C11 O10 . . -174.60(19)
B1 O11 C11 C12 . . 5.4(2)
B1 O12 C12 C11 . . -1.2(2)
B1 O12 C12 C13 . . 119.77(18)
B1 O21 C21 Li1 . 2_556 179.38(14)
B1 O21 C21 O20 . . -178.10(19)
B1 O21 C21 C22 . . -0.3(2)
B1 O22 C22 C21 . . -4.8(2)
B1 O22 C22 C23 . . 114.80(18)
O10 C11 C12 O12 . . 177.3(2)
O10 C11 C12 C13 . . 55.2(3)
O11 B1 O12 Li1 . . 155.47(17)
O11 B1 O12 C12 . . 4.2(2)
O11 B1 O21 C21 . . 118.71(16)
O11 B1 O22 C22 . . -112.89(18)
O11 C11 C12 O12 . . -2.7(2)
O11 C11 C12 C13 . . -124.75(17)
C11 C12 C13 C14 . . -110.9(2)
C11 C12 C13 C18 . . 67.6(2)
O12 B1 O11 C11 . . -6.0(2)
O12 B1 O21 C21 . . -127.50(16)
O12 B1 O22 C22 . . 126.98(17)
O12 C12 C13 C14 . . 132.4(2)
O12 C12 C13 C18 . . -49.0(2)
C12 C13 C14 C15 . . 177.0(2)
C12 C13 C18 C17 . . -178.0(2)
C13 C14 C15 C16 . . 1.0(4)
C14 C13 C18 C17 . . 0.5(3)
C14 C15 C16 C17 . . 0.6(4)
C15 C16 C17 C18 . . -1.5(4)
C16 C17 C18 C13 . . 1.0(4)
C18 C13 C14 C15 . . -1.5(3)
O20 C21 C22 O22 . . -179.14(19)
O20 C21 C22 C23 . . 59.1(3)
O21 B1 O11 C11 . . 112.09(17)
O21 B1 O12 Li1 . . 39.6(2)
O21 B1 O12 C12 . . -111.73(17)
O21 B1 O22 C22 . . 4.7(2)
O21 C21 C22 O22 . . 3.1(2)
O21 C21 C22 C23 . . -118.67(17)
C21 C22 C23 C24 . . -72.2(3)
C21 C22 C23 C28 . . 102.8(3)
O22 B1 O11 C11 . . -131.91(17)
O22 B1 O12 Li1 . . -79.5(2)
O22 B1 O12 C12 . . 129.14(17)
O22 B1 O21 C21 . . -2.6(2)
O22 C22 C23 C24 . . 171.3(2)
O22 C22 C23 C28 . . -13.6(3)
C22 C23 C24 C25 . . 176.7(3)
C22 C23 C28 C27 . . -177.3(3)
C23 C24 C25 C26 . . 1.3(6)
C24 C23 C28 C27 . . -2.3(5)
C24 C25 C26 C27 . . -3.4(7)
C25 C26 C27 C28 . . 2.7(7)
C26 C27 C28 C23 . . 0.1(6)
C28 C23 C24 C25 . . 1.6(5)

_cod_database_fobs_code 2020758
