#------------------------------------------------------------------------------
#$Date: 2016-02-17 15:53:33 +0200 (Wed, 17 Feb 2016) $
#$Revision: 176618 $
#$URL: svn://www.crystallography.net/cod/cif/2/02/03/2020311.cif $
#------------------------------------------------------------------------------
#
# This file is available in the Crystallography Open Database (COD),
# http://www.crystallography.net/. The original data for this entry
# were provided by IUCr Journals, http://journals.iucr.org/.
#
# The file may be used within the scientific community so long as
# proper attribution is given to the journal article from which the
# data were obtained.
#
data_2020311
loop_
_publ_author_name
'Myers, Joshua P.'
'Fronczek, Frank R.'
'Junk, Thomas'
_publ_section_title
;
 The first crystal structures of six- and seven-membered tellurium- and
 nitrogen-containing (Te---N) heterocycles:
 2<i>H</i>-1,4-benzotellurazin-3(4<i>H</i>)-one and
 2,3-dihydro-1,5-benzotellurazepin-4(5<i>H</i>)-one
;
_journal_issue                   1
_journal_name_full               'Acta Crystallographica Section C'
_journal_page_first              1
_journal_page_last               5
_journal_paper_doi               10.1107/S2053229615022378
_journal_volume                  72
_journal_year                    2016
_chemical_formula_iupac          'C8 H7 N O Te'
_chemical_formula_moiety         'C8 H7 N O Te'
_chemical_formula_sum            'C8 H7 N O Te'
_chemical_formula_weight         260.75
_chemical_name_systematic
;
2<i>H</i>-1,4-Benzotellurazin-3(4<i>H</i>)-one
;
_space_group_crystal_system      triclinic
_space_group_IT_number           2
_space_group_name_Hall           '-P 1'
_space_group_name_H-M_alt        'P -1'
_symmetry_space_group_name_Hall  '-P 1'
_symmetry_space_group_name_H-M   'P -1'
_atom_sites_solution_hydrogens   mixed
_audit_creation_method           SHELXL-2014/7
_cell_angle_alpha                87.291(9)
_cell_angle_beta                 86.833(5)
_cell_angle_gamma                65.990(6)
_cell_formula_units_Z            4
_cell_length_a                   6.5667(9)
_cell_length_b                   7.8920(10)
_cell_length_c                   17.2051(15)
_cell_measurement_reflns_used    4598
_cell_measurement_temperature    180.0(5)
_cell_measurement_theta_max      30.5
_cell_measurement_theta_min      2.5
_cell_volume                     812.95(17)
_computing_cell_refinement
;
DENZO and SCALEPACK (Otwinowski & Minor, 1997)
;
_computing_data_collection
;
COLLECT (Nonius, 2000)
;
_computing_data_reduction
;
DENZO and SCALEPACK (Otwinowski & Minor, 1997)
;
_computing_molecular_graphics
;
ORTEP-3 for Windows (Farrugia, 2012)
;
_computing_publication_material
;
SHELXL2014 (Sheldrick, 2015)
;
_computing_structure_refinement
;
SHELXL2014 (Sheldrick, 2015)
;
_computing_structure_solution
;
SIR97 (Altomare <i>et al.</i>,  1999)
;
_diffrn_ambient_temperature      180.0(5)
_diffrn_measured_fraction_theta_full 0.995
_diffrn_measured_fraction_theta_max 0.986
_diffrn_measurement_device_type  'Nonius KappaCCD'
_diffrn_measurement_method       '\w and \f scans '
_diffrn_radiation_type           MoK\a
_diffrn_radiation_wavelength     0.71073
_diffrn_reflns_av_R_equivalents  0.021
_diffrn_reflns_limit_h_max       9
_diffrn_reflns_limit_h_min       -9
_diffrn_reflns_limit_k_max       11
_diffrn_reflns_limit_k_min       -11
_diffrn_reflns_limit_l_max       24
_diffrn_reflns_limit_l_min       -24
_diffrn_reflns_number            8596
_diffrn_reflns_theta_full        25.000
_diffrn_reflns_theta_max         30.529
_diffrn_reflns_theta_min         2.827
_exptl_absorpt_coefficient_mu    3.596
_exptl_absorpt_correction_T_max  0.841
_exptl_absorpt_correction_T_min  0.580
_exptl_absorpt_correction_type   multi-scan
_exptl_absorpt_process_details
;
(HKL SCALEPACK; Otwinowski & Minor, 1997)
;
_exptl_crystal_colour            yellow
_exptl_crystal_density_diffrn    2.130
_exptl_crystal_description       fragment
_exptl_crystal_F_000             488
_exptl_crystal_size_max          0.170
_exptl_crystal_size_mid          0.120
_exptl_crystal_size_min          0.050
_refine_diff_density_max         0.778
_refine_diff_density_min         -0.918
_refine_ls_extinction_coef       0.0070(4)
_refine_ls_extinction_expression Fc^*^=kFc[1+0.001xFc^2^\l^3^/sin(2\q)]^-1/4^
_refine_ls_extinction_method
;
SHELXL2014 (Sheldrick 2015)
;
_refine_ls_goodness_of_fit_ref   1.186
_refine_ls_hydrogen_treatment    mixed
_refine_ls_matrix_type           full
_refine_ls_number_parameters     207
_refine_ls_number_reflns         8596
_refine_ls_number_restraints     0
_refine_ls_restrained_S_all      1.186
_refine_ls_R_factor_all          0.0426
_refine_ls_R_factor_gt           0.0335
_refine_ls_shift/su_max          0.001
_refine_ls_shift/su_mean         0.000
_refine_ls_structure_factor_coef Fsqd
_refine_ls_weighting_details
'w=1/[\s^2^(Fo^2^)+(0.0142P)^2^+2.9489P] where P=(Fo^2^+2Fc^2^)/3'
_refine_ls_weighting_scheme      calc
_refine_ls_wR_factor_gt          0.0733
_refine_ls_wR_factor_ref         0.0767
_reflns_number_gt                7392
_reflns_number_total             8596
_reflns_threshold_expression     'I > 2\s(I)'
_cod_data_source_file            sk3604sup1.cif
_cod_data_source_block           Junk58
_cod_depositor_comments
;Adding full bibliography for 2020311--2020312.cif.

 Adding full bibliography for 2020311--2020312.cif.
;
_cod_database_code               2020311
_cod_database_fobs_code          2020311
_shelx_space_group_comment
;
The symmetry employed for this shelxl refinement is uniquely defined
by the following loop, which should always be used as a source of
symmetry information in preference to the above space-group names.
They are only intended as comments.
;
_shelx_estimated_absorpt_t_min   0.580
_shelx_estimated_absorpt_t_max   0.841
_shelx_hkl_file
;
   9   7  -1   32.38    3.30  -2
  -9  -7  -4   32.38    3.30   1
   9   7   0   23.91    2.64  -2
  -9  -7  -3   23.91    2.64   1
   9   7   1   98.41   10.52  -2
  -9  -7  -2   98.41   10.52   1
   9   7   2   12.53    5.73  -2
  -9  -7  -1   12.53    5.73   1
   9   7   3   72.08    8.83  -2
  -9  -7   0   72.08    8.83   1
  -9  -6  -7    1.90    2.29   1
  -9  -6  -6  151.78    6.65   1
  -9  -6  -5   11.49    2.51   1
  -9  -6  -4  114.70    5.57   1
  -9  -6  -3    2.69    2.59   1
  -9  -6  -2    3.88    1.89   1
  -9  -6  -1   -1.00    1.80   1
  -9  -6   0   46.10    3.80   1
  -9  -6   1    8.01    1.98   1
  -9  -6   2  159.01    6.30   1
  -9  -6   3    7.02    5.30   1
  -9  -5  -8   56.25    5.10   1
  -9  -5  -7   18.06    3.82   1
  -9  -5  -6   13.10    3.40   1
  -9  -5  -5   62.88    3.81   1
  -9  -5  -4   10.69    2.29   1
  -9  -5  -3   37.58    2.82   1
  -9  -5  -2  110.88    5.26   1
  -9  -5  -1    8.18    2.57   1
  -9  -5   0   68.06    3.96   1
  -9  -5   1   57.61    3.64   1
  -9  -5   2    1.10    1.91   1
  -9  -5   3   31.25    2.91   1
  -9  -5   4   26.83    2.90   1
  -9  -5   5    1.99    2.20   1
  -9  -4  -8    1.69    3.20   1
  -9  -4  -7   81.72    6.15   1
  -9  -4  -6    1.00    3.30   1
  -9  -4  -5    1.39    3.09   1
  -9  -4  -4    3.88    1.89   1
  -9  -4  -3  113.42    5.32   1
  -9  -4  -2    1.90    1.79   1
  -9  -4  -1  169.78    7.56   1
  -9  -4   0    4.88    1.90   1
  -9  -4   1   75.52    4.17   1
  -9  -4   2    7.29    2.32   1
  -9  -4   3    5.90    1.90   1
  -9  -4   4    0.30    2.51   1
  -9  -4   5  103.02    5.07   1
  -9  -3  -7   24.70    3.48   1
  -9  -3  -6    6.81    2.61   1
  -9  -3  -5  120.12    7.23   1
  -9  -3  -4    0.30    2.31   1
  -9  -3  -3   62.25    4.58   1
  -9  -3  -2   33.52    3.24   1
  -9  -3  -1    1.00    2.00   1
  -9  -3   0   16.97    2.47   1
  -9  -3   1   89.49    4.54   1
  -9  -3   2    4.71    2.52   1
  -9  -3   3  104.04    4.90   1
  -9  -3   4    4.58    2.10   1
  -9  -2  -4   75.34    5.38   1
  -9  -2  -3    7.02    2.38   1
  -9  -2  -2   10.18    2.42   1
  -9  -2  -1   35.40    3.81   1
  -9  -2   0    9.12    2.30   1
  -9  -2   1    3.61    2.01   1
  -9  -2   2   75.34    5.03   1
   8   9  -1   32.38    6.15  -2
  -8  -9  -4   32.38    6.15   1
   8   9   0   57.91    7.15  -2
  -8  -9  -3   57.91    7.15   1
   8   9   1    5.52    3.62  -2
  -8  -9  -2    5.52    3.62   1
   8   9   2   54.61    6.65  -2
  -8  -9  -1   54.61    6.65   1
   8   9   3   25.50    5.25  -2
  -8  -9   0   25.50    5.25   1
  -8  -8  -9    1.59    3.48   1
  -8  -8  -8  101.40    9.47   1
  -8  -8  -7   18.84    4.43   1
  -8  -8  -6   19.54    5.13   1
  -8  -8  -5   18.92    5.39   1
  -8  -8  -4   53.44    5.70   1
  -8  -8  -3   21.90    5.43   1
  -8  -8  -2  295.50   19.60   1
  -8  -8  -1   14.90    5.48   1
  -8  -8   0  153.26   10.65   1
  -8  -8   1   12.32    4.28   1
  -8  -8   2   -1.30    3.31   1
  -8  -8   3   19.98    4.56   1
  -8  -8   4   60.06    6.51   1
  -8  -8   5   13.91    3.88   1
  -8  -7 -11    4.49    2.80   1
  -8  -7 -10   18.66    2.42   1
  -8  -7  -9   17.39    2.34   1
  -8  -7  -8   20.88    2.19   1
  -8  -7  -7   10.69    2.29   1
  -8  -7  -6  188.51    7.14   1
  -8  -7  -5    6.20    1.99   1
  -8  -7  -4  167.18    6.47   1
  -8  -7  -3    6.71    2.28   1
  -8  -7  -2    4.41    1.60   1
  -8  -7  -1    0.71    1.81   1
  -8  -7   0   79.57    6.96   1
  -8  -7   1    8.01    3.51   1
  -8  -7   2  237.16   14.48   1
  -8  -7   3    1.21    3.32   1
  -8  -7   4   99.80    8.19   1
  -8  -7   5    8.58    3.57   1
  -8  -7   6    1.00    2.80   1
  -8  -7   7    4.80    3.50   1
  -8  -7   8   61.94    6.61   1
  -8  -6 -13   70.73    5.05   1
  -8  -6 -12    1.39    2.19   1
  -8  -6 -11   69.89    5.18   1
  -8  -6 -10   31.14    3.24   1
  -8  -6  -9    1.69    2.11   1
  -8  -6  -8   36.72    2.91   1
  -8  -6  -7   77.44    4.22   1
  -8  -6  -6    5.11    1.72   1
  -8  -6  -5  111.72    4.44   1
  -8  -6  -4   14.98    2.63   1
  -8  -6  -3   25.91    2.34   1
  -8  -6  -2   85.01    3.50   1
  -8  -6  -1    3.10    2.01   1
  -8  -6   0   51.84    3.31   1
  -8  -6   1   51.55    3.16   1
  -8  -6   2    5.90    1.99   1
  -8  -6   3   96.83    4.53   1
  -8  -6   4   11.97    1.80   1
  -8  -6   5   14.52    2.44   1
  -8  -6   6   64.16    6.89   1
  -8  -6   7   13.40    3.88   1
  -8  -6   8   26.83    5.39   1
  -8  -6   9   61.94    7.56   1
  -8  -5 -13    9.00    3.60   1
  -8  -5 -12   20.88    3.47   1
  -8  -5 -11   52.13    4.04   1
  -8  -5 -10    3.10    2.11   1
  -8  -5  -9  173.98    8.18   1
  -8  -5  -8    0.50    1.60   1
  -8  -5  -7  112.36    4.45   1
  -8  -5  -6    0.40    1.89   1
  -8  -5  -5   -0.20    1.71   1
  -8  -5  -4    9.12    1.81   1
  -8  -5  -3   97.42    3.75   1
  -8  -5  -2    6.50    1.99   1
  -8  -5  -1  188.79    5.77   1
  -8  -5   0   12.60    2.27   1
  -8  -5   1   47.61    2.62   1
  -8  -5   2    0.00    1.00   1
  -8  -5   3   17.22    2.08   1
  -8  -5   4   -0.10    1.41   1
  -8  -5   5  143.28    5.51   1
  -8  -5   6    2.69    2.49   1
  -8  -5   7  149.57    6.11   1
  -8  -5   8    2.40    2.29   1
  -8  -5   9   18.58    2.67   1
  -8  -5  10    7.78    4.91   1
  -8  -4 -13   61.62    5.49   1
  -8  -4 -12    3.20    3.40   1
  -8  -4 -11   68.56    4.47   1
  -8  -4 -10   67.73    4.44   1
  -8  -4  -9    1.99    1.89   1
  -8  -4  -8  130.87    6.64   1
  -8  -4  -7   36.24    2.65   1
  -8  -4  -6   29.48    2.50   1
  -8  -4  -5   90.82    4.19   1
  -8  -4  -4   14.29    1.89   1
  -8  -4  -3   73.44    3.26   1
  -8  -4  -2   76.56    3.85   1
  -8  -4  -1    0.79    1.30   1
  -8  -4   0   71.57    3.38   1
  -8  -4   1   91.39    3.82   1
  -8  -4   2    6.40    1.82   1
  -8  -4   3   85.01    3.87   1
  -8  -4   4   40.45    2.80   1
  -8  -4   5   25.50    2.22   1
  -8  -4   6  107.33    4.56   1
  -8  -4   7   10.89    2.38   1
  -8  -4   8   36.24    2.65   1
  -8  -4   9   92.35    4.42   1
  -8  -4  10   -1.10    1.81   1
  -8  -4  11   49.70    3.38   1
  -8  -3 -13    1.39    2.38   1
  -8  -3 -12  123.65    6.45   1
  -8  -3 -11    0.00    1.00   1
  -8  -3 -10   45.16    4.17   1
  -8  -3  -9    0.00    1.00   1
  -8  -3  -8   -1.59    2.39   1
  -8  -3  -7    1.59    2.49   1
  -8  -3  -6  153.02    6.43   1
  -8  -3  -5    0.40    1.30   1
  -8  -3  -4  217.86    6.49   1
  -8  -3  -3    4.28    1.99   1
  -8  -3  -2   22.56    1.90   1
  -8  -3  -1   -0.10    1.52   1
  -8  -3   0   32.60    2.40   1
  -8  -3   1   -0.20    1.51   1
  -8  -3   2  209.67    7.24   1
  -8  -3   3    1.30    1.50   1
  -8  -3   4  135.72    5.13   1
  -8  -3   5   12.18    1.68   1
  -8  -3   6   -1.49    1.68   1
  -8  -3   7    0.10    1.72   1
  -8  -3   8   48.16    3.33   1
  -8  -3   9   -0.10    1.82   1
  -8  -3  10  114.49    5.35   1
  -8  -3  11    0.20    1.91   1
   8   2 -10    3.31    3.02  -2
  -8  -2 -12    3.31    3.02   1
   8   2  -9   79.74    4.82  -2
  -8  -2 -11   79.74    4.82   1
   8   2  -8   60.37    4.04  -2
  -8  -2 -10   60.37    4.04   1
   8   2  -7   -1.59    1.69  -2
  -8  -2  -9   -1.59    1.69   1
   8   2  -6  136.42    6.31  -2
  -8  -2  -8  136.42    6.31   1
   8   2  -5   62.73    3.96  -2
  -8  -2  -7   62.73    3.96   1
   8   2  -4   43.16    3.29  -2
  -8  -2  -6   43.16    3.29   1
   8   2  -3   74.82    4.67  -2
  -8  -2  -5   74.82    4.67   1
   8   2  -2    5.90    1.80  -2
  -8  -2  -4    5.90    1.80   1
   8   2  -1   36.72    2.55  -2
  -8  -2  -3   36.72    2.55   1
   8   2   0  117.51    4.34  -2
  -8  -2  -2  117.51    4.34   1
   8   2   1   -0.71    1.61  -2
  -8  -2  -1   -0.71    1.61   1
   8   2   2  110.67    4.42  -2
  -8  -2   0  110.67    4.42   1
   8   2   3   32.49    2.85  -2
  -8  -2   1   32.49    2.85   1
   8   2   4    7.62    1.60  -2
  -8  -2   2    7.62    1.60   1
   8   2   5   52.85    3.49  -2
  -8  -2   3   52.85    3.49   1
   8   2   6   36.00    2.76  -2
  -8  -2   4   36.00    2.76   1
   8   2   7   50.41    2.98  -2
  -8  -2   5   50.41    2.98   1
   8   2   8  137.36    5.39  -2
  -8  -2   6  137.36    5.39   1
   8   2   9    0.59    1.69  -2
  -8  -2   7    0.59    1.69   1
   8   2  10   62.57    3.80  -2
  -8  -2   8   62.57    3.80   1
   8   2  11   42.90    3.54  -2
  -8  -2   9   42.90    3.54   1
   8   2  12    2.69    2.39  -2
  -8  -2  10    2.69    2.39   1
   8   1  -9   38.44    3.35  -2
  -8  -1 -11   38.44    3.35   1
   8   1  -8    4.00    3.08  -2
  -8  -1 -10    4.00    3.08   1
   8   1  -7  140.90    6.88  -2
  -8  -1  -9  140.90    6.88   1
   8   1  -6    4.08    2.10  -2
  -8  -1  -8    4.08    2.10   1
   8   1  -5  104.24    5.51  -2
  -8  -1  -7  104.24    5.51   1
   8   1  -4   11.09    3.13  -2
  -8  -1  -6   11.09    3.13   1
   8   1  -3   -0.90    2.51  -2
  -8  -1  -5   -0.90    2.51   1
   8   1  -2    9.42    3.01  -2
  -8  -1  -4    9.42    3.01   1
   8   1  -1  104.65    5.32  -2
  -8  -1  -3  104.65    5.32   1
   8   1   0    1.59    1.49  -2
  -8  -1  -2    1.59    1.49   1
   8   1   1  200.22    7.07  -2
  -8  -1  -1  200.22    7.07   1
   8   1   2    1.59    1.39  -2
  -8  -1   0    1.59    1.39   1
   8   1   3  132.71    5.30  -2
  -8  -1   1  132.71    5.30   1
   8   1   4   25.00    2.70  -2
  -8  -1   2   25.00    2.70   1
   8   1   5    1.59    1.69  -2
  -8  -1   3    1.59    1.69   1
   8   1   6   21.53    2.41  -2
  -8  -1   4   21.53    2.41   1
   8   1   7   75.86    4.01  -2
  -8  -1   5   75.86    4.01   1
   8   1   8    1.90    1.71  -2
  -8  -1   6    1.90    1.71   1
   8   1   9  144.72    6.26  -2
  -8  -1   7  144.72    6.26   1
   8   1  10    8.01    1.98  -2
  -8  -1   8    8.01    1.98   1
   8   1  11   44.62    3.74  -2
  -8  -1   9   44.62    3.74   1
  -8   0  -9   16.48    2.27   1
  -8   0  -8    3.61    2.32   1
  -8   0  -7   31.81    2.71   1
  -8   0  -6    5.20    1.92   1
  -8   0  -5  124.10    6.46   1
  -8   0  -4    0.50    2.10   1
  -8   0  -3   98.21    5.35   1
  -8   0  -2   15.68    3.01   1
  -8   0  -1   -0.50    1.80   1
  -8   0   0   13.10    1.81   1
  -8   0   1   76.91    3.86   1
  -8   0   2    1.00    1.90   1
  -8   0   3  125.89    5.61   1
  -8   0   4    7.02    2.01   1
  -8   0   5   65.45    4.05   1
  -8   0   6   -0.50    1.80   1
  -8   0   7    3.39    2.10   1
  -8   1  -6   22.47    3.22   1
  -8   1  -5    4.28    1.99   1
  -8   1  -4   58.68    3.68   1
  -8   1  -3   18.40    2.49   1
  -8   1  -2   21.34    2.40   1
  -8   1  -1   40.83    3.07   1
  -8   1   0    5.38    2.18   1
  -8   1   1   31.36    2.58   1
  -8   1   2   51.41    3.44   1
  -8   1   3    1.10    1.81   1
   7  10  -2   10.37    4.77  -2
  -7 -10  -5   10.37    4.77   1
   7  10  -1   36.72    5.94  -2
  -7 -10  -4   36.72    5.94   1
   7  10   0   75.69    9.40  -2
  -7 -10  -3   75.69    9.40   1
   7  10   1   10.30    4.82  -2
  -7 -10  -2   10.30    4.82   1
   7  10   3   33.99    5.25  -2
  -7 -10   0   33.99    5.25   1
   7  10   4   19.89    4.46  -2
  -7 -10   1   19.89    4.46   1
  -7  -9 -10  171.61   13.89   1
  -7  -9  -9    4.58    3.89   1
  -7  -9  -8  186.32   13.10   1
  -7  -9  -7    9.49    4.99   1
  -7  -9  -6   17.81    3.80   1
  -7  -9  -5    1.30    4.40   1
  -7  -9  -4   48.30    6.25   1
  -7  -9  -3    5.29    3.17   1
  -7  -9  -2  152.77    9.39   1
  -7  -9  -1    4.28    3.11   1
  -7  -9   0   91.58    7.46   1
  -7  -9   1   -0.59    2.48   1
  -7  -9   2    2.19    2.90   1
  -7  -9   3    5.11    2.89   1
  -7  -9   4  117.29    8.66   1
  -7  -9   5    8.82    4.69   1
  -7  -9   6  206.78   14.67   1
  -7  -9   7    8.88    3.52   1
  -7  -8 -13   -5.20    4.29   1
  -7  -8 -12  117.94   10.21   1
  -7  -8 -11   -0.59    4.08   1
  -7  -8 -10   44.09    5.05   1
  -7  -8  -9   58.22    5.49   1
  -7  -8  -8   14.06    3.60   1
  -7  -8  -7   62.57    6.33   1
  -7  -8  -6  175.56   11.40   1
  -7  -8  -5    5.52    3.52   1
  -7  -8  -4  162.05    9.42   1
  -7  -8  -3   56.70    5.57   1
  -7  -8  -2   12.60    3.98   1
  -7  -8  -1   98.60    6.95   1
  -7  -8   0   87.42    6.73   1
  -7  -8   1    9.18    3.51   1
  -7  -8   2  216.09   10.88   1
  -7  -8   3   22.00    4.97   1
  -7  -8   4   81.72    7.77   1
  -7  -8   5   63.04    6.03   1
  -7  -8   6    2.31    2.80   1
  -7  -8   7   17.64    4.03   1
  -7  -8   8  112.15    8.90   1
  -7  -8   9   -0.90    4.41   1
  -7  -8  10  115.13   10.94   1
  -7  -7 -15    9.99    2.78   1
  -7  -7 -14    3.80    3.20   1
  -7  -7 -13  110.04    4.62   1
  -7  -7 -12    0.40    1.89   1
  -7  -7 -11  117.07    5.19   1
  -7  -7 -10   12.39    2.32   1
  -7  -7  -9    3.31    1.82   1
  -7  -7  -8   37.45    2.94   1
  -7  -7  -7   73.79    3.44   1
  -7  -7  -6   13.18    1.67   1
  -7  -7  -5  244.92    7.51   1
  -7  -7  -4    5.02    1.52   1
  -7  -7  -3  112.78    3.82   1
  -7  -7  -2   13.40    1.83   1
  -7  -7  -1    6.20    1.49   1
  -7  -7   0    7.29    1.40   1
  -7  -7   1  199.09   10.44   1
  -7  -7   2    0.59    2.09   1
  -7  -7   3  201.64   10.79   1
  -7  -7   4   29.59    3.81   1
  -7  -7   5   13.03    4.33   1
  -7  -7   6   45.02    5.37   1
  -7  -7   7   41.73    4.52   1
  -7  -7   8    9.12    2.90   1
  -7  -7   9  135.26    9.54   1
  -7  -7  10    2.79    4.01   1
  -7  -7  11   63.20    5.88   1
  -7  -7  12    8.29    3.51   1
  -7  -6 -16   -0.30    3.31   1
  -7  -6 -15   87.98    5.63   1
  -7  -6 -14    9.42    3.32   1
  -7  -6 -13   10.82    2.11   1
  -7  -6 -12   30.36    2.31   1
  -7  -6 -11   62.25    3.00   1
  -7  -6 -10   32.60    2.86   1
  -7  -6  -9  175.56    6.10   1
  -7  -6  -8    4.80    1.40   1
  -7  -6  -7  120.78    4.40   1
  -7  -6  -6   91.58    3.45   1
  -7  -6  -5    1.30    1.21   1
  -7  -6  -4   66.59    2.94   1
  -7  -6  -3  132.02    4.14   1
  -7  -6  -2   10.11    1.78   1
  -7  -6  -1  300.68    7.63   1
  -7  -6   0   16.40    1.54   1
  -7  -6   1   56.10    2.55   1
  -7  -6   2   73.62    2.92   1
  -7  -6   3   24.80    2.19   1
  -7  -6   4   52.13    2.74   1
  -7  -6   5  163.07    5.11   1
  -7  -6   6    3.50    1.61   1
  -7  -6   7  179.29    9.11   1
  -7  -6   8   16.89    3.21   1
  -7  -6   9   15.29    4.61   1
  -7  -6  10    5.02    4.12   1
  -7  -6  11   49.56    5.49   1
  -7  -6  12    1.49    2.88   1
  -7  -6  13  114.06    9.83   1
  -7  -5 -17   -1.69    3.30   1
  -7  -5 -16  142.56    7.88   1
  -7  -5 -15   11.29    3.09   1
  -7  -5 -14   82.81    4.91   1
  -7  -5 -13   23.43    3.58   1
  -7  -5 -12   -0.50    2.41   1
  -7  -5 -11   33.52    2.43   1
  -7  -5 -10  148.84    5.12   1
  -7  -5  -9   11.09    1.73   1
  -7  -5  -8  307.30    8.41   1
  -7  -5  -7   39.44    2.51   1
  -7  -5  -6   62.25    2.84   1
  -7  -5  -5   91.39    3.25   1
  -7  -5  -4   90.06    3.42   1
  -7  -5  -3   26.32    1.95   1
  -7  -5  -2  405.22    9.66   1
  -7  -5  -1    8.41    1.62   1
  -7  -5   0  358.34    8.33   1
  -7  -5   1   44.89    2.28   1
  -7  -5   2   31.36    1.90   1
  -7  -5   3  100.60    3.61   1
  -7  -5   4   96.43    3.54   1
  -7  -5   5   20.79    2.10   1
  -7  -5   6  263.74    7.80   1
  -7  -5   7   28.30    2.34   1
  -7  -5   8   75.86    3.48   1
  -7  -5   9   47.33    2.48   1
  -7  -5  10    3.10    1.41   1
  -7  -5  11   47.06    5.35   1
  -7  -5  12   77.26    7.03   1
  -7  -5  13    8.01    4.81   1
  -7  -5  14   88.55    8.66   1
   7   4 -15   -0.79    2.19  -2
  -7  -4 -17   -0.79    2.19   1
   7   4 -14    2.50    2.09  -2
  -7  -4 -16    2.50    2.09   1
   7   4 -13   -1.69    1.79  -2
  -7  -4 -15   -1.69    1.79   1
   7   4 -12   84.82    4.79  -2
  -7  -4 -14   84.82    4.79   1
   7   4 -11    1.59    2.70  -2
  -7  -4 -13    1.59    2.70   1
   7   4 -10  286.96    9.83  -2
  -7  -4 -12  286.96    9.83   1
   7   4  -9    2.50    1.71  -2
  -7  -4 -11    2.50    1.71   1
   7   4  -8   89.30    3.59  -2
  -7  -4 -10   89.30    3.59   1
   7   4  -7    5.38    1.30  -2
  -7  -4  -9    5.38    1.30   1
   7   4  -6   27.56    1.89  -2
  -7  -4  -8   27.56    1.89   1
   7   4  -5    8.88    1.79  -2
  -7  -4  -7    8.88    1.79   1
   7   4  -4  315.77    8.17  -2
  -7  -4  -6  315.77    8.17   1
   7   4  -3    5.81    1.30  -2
  -7  -4  -5    5.81    1.30   1
   7   4  -2  387.30    9.45  -2
  -7  -4  -4  387.30    9.45   1
   7   4  -1    4.08    1.29  -2
  -7  -4  -3    4.08    1.29   1
   7   4   0   54.76    2.66  -2
  -7  -4  -2   54.76    2.66   1
   7   4   1   19.71    1.60  -2
  -7  -4  -1   19.71    1.60   1
   7   4   2   76.56    2.98  -2
  -7  -4   0   76.56    2.98   1
   7   4   3    4.80    1.31  -2
  -7  -4   1    4.80    1.31   1
   7   4   4  416.98   10.21  -2
  -7  -4   2  416.98   10.21   1
   7   4   5    5.90    1.70  -2
  -7  -4   3    5.90    1.70   1
   7   4   6  287.64    8.14  -2
  -7  -4   4  287.64    8.14   1
   7   4   7    3.61    1.29  -2
  -7  -4   5    3.61    1.29   1
   7   4   8   13.62    1.70  -2
  -7  -4   6   13.62    1.70   1
   7   4   9    2.79    1.70  -2
  -7  -4   7    2.79    1.70   1
   7   4  10  109.20    4.18  -2
  -7  -4   8  109.20    4.18   1
   7   4  11    3.50    1.38  -2
  -7  -4   9    3.50    1.38   1
   7   4  12  259.21    8.37  -2
  -7  -4  10  259.21    8.37   1
   7   4  13    2.89    2.11  -2
  -7  -4  11    2.89    2.11   1
   7   4  14   41.73    3.36  -2
  -7  -4  12   41.73    3.36   1
   7   4  15    0.59    1.59  -2
  -7  -4  13    0.59    1.59   1
   7   4  16    8.88    3.52  -2
  -7  -4  14    8.88    3.52   1
   7   3 -15   12.39    3.31  -2
  -7  -3 -17   12.39    3.31   1
   7   3 -14   60.84    4.37  -2
  -7  -3 -16   60.84    4.37   1
   7   3 -13   11.83    3.51  -2
  -7  -3 -15   11.83    3.51   1
   7   3 -12   20.61    2.63  -2
  -7  -3 -14   20.61    2.63   1
   7   3 -11   68.72    3.98  -2
  -7  -3 -13   68.72    3.98   1
   7   3 -10    0.79    2.19  -2
  -7  -3 -12    0.79    2.19   1
   7   3  -9   94.09    5.24  -2
  -7  -3 -11   94.09    5.24   1
   7   3  -8   66.26    4.07  -2
  -7  -3 -10   66.26    4.07   1
   7   3  -7   23.04    2.59  -2
  -7  -3  -9   23.04    2.59   1
   7   3  -6  106.50    3.92  -2
  -7  -3  -8  106.50    3.92   1
   7   3  -5   36.84    1.94  -2
  -7  -3  -7   36.84    1.94   1
   7   3  -4    7.78    1.39  -2
  -7  -3  -6    7.78    1.39   1
   7   3  -3  242.42    6.54  -2
  -7  -3  -5  242.42    6.54   1
   7   3  -2   20.52    1.90  -2
  -7  -3  -4   20.52    1.90   1
   7   3  -1  212.28    5.54  -2
  -7  -3  -3  212.28    5.54   1
   7   3   0  210.83    5.81  -2
  -7  -3  -2  210.83    5.81   1
   7   3   1    2.40    1.21  -2
  -7  -3  -1    2.40    1.21   1
   7   3   2  203.06    5.41  -2
  -7  -3   0  203.06    5.41   1
   7   3   3  196.56    5.61  -2
  -7  -3   1  196.56    5.61   1
   7   3   4   23.52    2.04  -2
  -7  -3   2   23.52    2.04   1
   7   3   5  201.64    5.68  -2
  -7  -3   3  201.64    5.68   1
   7   3   6    8.88    1.31  -2
  -7  -3   4    8.88    1.31   1
   7   3   7   31.25    2.12  -2
  -7  -3   5   31.25    2.12   1
   7   3   8  117.29    4.55  -2
  -7  -3   6  117.29    4.55   1
   7   3   9   17.64    1.60  -2
  -7  -3   7   17.64    1.60   1
   7   3  10   75.34    3.47  -2
  -7  -3   8   75.34    3.47   1
   7   3  11   64.32    3.37  -2
  -7  -3   9   64.32    3.37   1
   7   3  12   -0.50    1.80  -2
  -7  -3  10   -0.50    1.80   1
   7   3  13   57.00    3.32  -2
  -7  -3  11   57.00    3.32   1
   7   3  14   30.69    2.77  -2
  -7  -3  12   30.69    2.77   1
   7   3  15    8.29    1.79  -2
  -7  -3  13    8.29    1.79   1
   7   3  16   83.72    4.57  -2
  -7  -3  14   83.72    4.57   1
   7   3  17    9.61    3.10  -2
  -7  -3  15    9.61    3.10   1
  -7  -2 -16    6.10    2.91   1
  -7  -2 -15  137.36    7.03   1
  -7  -2 -14    3.50    1.98   1
  -7  -2 -13   27.04    3.43   1
  -7  -2 -12   -0.10    2.43   1
  -7  -2 -11   34.69    2.94   1
  -7  -2 -10   19.80    2.22   1
  -7  -2  -9  242.42    8.10   1
  -7  -2  -8    2.19    1.51   1
  -7  -2  -7  339.30    9.21   1
  -7  -2  -6    0.10    1.11   1
  -7  -2  -5   10.50    1.49   1
  -7  -2  -4    7.62    1.38   1
  -7  -2  -3  196.28    5.60   1
  -7  -2  -2    1.00    1.40   1
  -7  -2  -1  333.43    8.03   1
  -7  -2   0    6.30    1.71   1
  -7  -2   1  225.90    5.71   1
  -7  -2   2    9.67    1.31   1
  -7  -2   3    3.10    1.51   1
  -7  -2   4   -0.30    1.10   1
  -7  -2   5  274.23    7.62   1
  -7  -2   6    1.49    1.68   1
  -7  -2   7  231.65    6.39   1
  -7  -2   8    9.92    1.51   1
  -7  -2   9   49.00    3.22   1
  -7  -2  10   -0.59    1.39   1
  -7  -2  11   24.21    2.66   1
  -7  -2  12    8.18    2.00   1
  -7  -2  13  131.79    5.51   1
  -7  -2  14    5.38    2.09   1
  -7  -2  15   72.59    4.94   1
  -7  -1 -16    7.18    3.11   1
  -7  -1 -15    0.90    1.71   1
  -7  -1 -14   59.14    3.54   1
  -7  -1 -13   88.17    4.32   1
  -7  -1 -12    4.41    2.31   1
  -7  -1 -11  140.42    6.40   1
  -7  -1 -10   55.95    3.44   1
  -7  -1  -9   11.70    2.53   1
  -7  -1  -8   80.64    4.49   1
  -7  -1  -7  112.78    4.89   1
  -7  -1  -6   65.12    3.55   1
  -7  -1  -5  146.41    4.60   1
  -7  -1  -4    3.10    1.30   1
  -7  -1  -3   97.22    3.55   1
  -7  -1  -2   41.60    2.45   1
  -7  -1  -1    1.39    1.09   1
  -7  -1   0   55.35    2.53   1
  -7  -1   1   77.26    3.16   1
  -7  -1   2    2.59    1.51   1
  -7  -1   3  152.28    4.69   1
  -7  -1   4   32.95    2.18   1
  -7  -1   5  153.51    5.45   1
  -7  -1   6   48.16    2.78   1
  -7  -1   7    1.30    1.60   1
  -7  -1   8   61.62    2.98   1
  -7  -1   9  142.56    5.25   1
  -7  -1  10    0.90    1.41   1
  -7  -1  11  126.56    5.18   1
  -7  -1  12   31.70    2.70   1
  -7  -1  13    8.18    2.57   1
  -7  -1  14    2.31    2.10   1
  -7   0 -14   24.11    2.95   1
  -7   0 -13    5.38    2.00   1
  -7   0 -12   83.17    4.01   1
  -7   0 -11   13.10    1.81   1
  -7   0 -10   96.43    4.32   1
  -7   0  -9    8.58    1.70   1
  -7   0  -8    3.20    1.50   1
  -7   0  -7    1.00    1.60   1
  -7   0  -6   84.82    4.61   1
  -7   0  -5    1.30    1.60   1
  -7   0  -4  206.50    7.47   1
  -7   0  -3    6.10    1.78   1
  -7   0  -2   78.32    3.19   1
  -7   0  -1    0.10    1.41   1
  -7   0   0   19.54    1.68   1
  -7   0   1    5.29    1.79   1
  -7   0   2  176.62    5.58   1
  -7   0   3    1.80    1.69   1
  -7   0   4  129.96    4.33   1
  -7   0   5    1.10    1.81   1
  -7   0   6    4.28    1.28   1
  -7   0   7    7.18    1.61   1
  -7   0   8   45.83    2.84   1
  -7   0   9   29.92    2.41   1
  -7   0  10   75.34    4.17   1
  -7   0  11    1.69    1.69   1
  -7   0  12   40.20    3.55   1
  -7   0  13   11.22    2.41   1
  -7   1 -13   25.91    3.66   1
  -7   1 -12    2.99    1.70   1
  -7   1 -11   51.84    3.17   1
  -7   1 -10   42.38    2.86   1
  -7   1  -9    4.58    1.71   1
  -7   1  -8  118.37    4.79   1
  -7   1  -7    2.79    1.60   1
  -7   1  -6   86.30    4.09   1
  -7   1  -5   72.42    3.57   1
  -7   1  -4   -0.71    1.21   1
  -7   1  -3   34.46    2.58   1
  -7   1  -2   94.28    3.88   1
  -7   1  -1    1.39    1.09   1
  -7   1   0  125.89    4.26   1
  -7   1   1   13.62    1.62   1
  -7   1   2   16.32    1.70   1
  -7   1   3   69.72    3.01   1
  -7   1   4   35.76    2.27   1
  -7   1   5    9.67    1.80   1
  -7   1   6  138.77    4.71   1
  -7   1   7    1.00    1.30   1
  -7   1   8   82.26    3.81   1
  -7   1   9   20.61    2.09   1
  -7   1  10    9.67    2.30   1
  -7   1  11   31.25    3.02   1
  -7   2 -10    6.92    2.21   1
  -7   2  -9  117.29    5.41   1
  -7   2  -8    3.88    2.21   1
  -7   2  -7   99.80    4.80   1
  -7   2  -6   10.37    1.80   1
  -7   2  -5    5.71    1.63   1
  -7   2  -4   23.91    2.44   1
  -7   2  -3   23.43    2.52   1
  -7   2  -2    2.40    1.61   1
  -7   2  -1  137.83    5.40   1
  -7   2   0    0.10    1.82   1
  -7   2   1   78.32    3.19   1
  -7   2   2   12.67    1.71   1
  -7   2   3    5.20    1.69   1
  -7   2   4   31.25    2.35   1
  -7   2   5   39.56    2.52   1
  -7   2   6    7.90    1.80   1
  -7   2   7  138.77    5.65   1
  -7   2   8    2.69    1.90   1
  -7   2   9   34.46    2.70   1
  -7   3  -6   10.37    2.13   1
  -7   3  -5   65.12    4.52   1
  -7   3  -4    5.29    1.70   1
  -7   3  -3   78.50    4.61   1
  -7   3  -2   16.16    2.41   1
  -7   3  -1    7.67    2.27   1
  -7   3   0   11.09    1.80   1
  -7   3   1   30.91    2.45   1
  -7   3   2   11.49    1.90   1
  -7   3   3   86.68    4.66   1
  -7   3   4    2.50    2.21   1
  -7   3   5   44.76    4.15   1
  -6 -10  -9    6.40    5.31   1
  -6 -10  -8   95.65    8.41   1
  -6 -10  -7    8.01    3.40   1
  -6 -10  -6   11.09    4.93   1
  -6 -10  -5    0.59    2.68   1
  -6 -10  -4   48.02    5.41   1
  -6 -10  -3    1.99    3.19   1
  -6 -10  -2  186.05   10.91   1
  -6 -10  -1    2.31    3.10   1
  -6 -10   0  108.37    8.54   1
  -6 -10   1    0.30    3.11   1
  -6 -10   2    3.31    3.31   1
  -6 -10   3    4.58    2.91   1
  -6 -10   4   88.74    8.10   1
  -6 -10   5   -0.59    4.37   1
  -6 -10   6   81.54    7.40   1
  -6  -9 -13    4.08    3.60   1
  -6  -9 -12   55.35    7.14   1
  -6  -9 -11   48.16    5.97   1
  -6  -9 -10   29.70    5.45   1
  -6  -9  -9  148.60   10.73   1
  -6  -9  -8    3.20    3.90   1
  -6  -9  -7   44.49    5.74   1
  -6  -9  -6   92.54    7.12   1
  -6  -9  -5   15.21    4.68   1
  -6  -9  -4   82.08    6.16   1
  -6  -9  -3  122.77    8.64   1
  -6  -9  -2    6.50    2.91   1
  -6  -9  -1  152.03    9.12   1
  -6  -9   0   57.91    6.24   1
  -6  -9   1   38.44    5.33   1
  -6  -9   2  126.56    7.65   1
  -6  -9   3    5.62    2.80   1
  -6  -9   4   58.68    5.52   1
  -6  -9   5   89.11    7.36   1
  -6  -9   6    7.02    3.82   1
  -6  -9   7   94.48    6.80   1
  -6  -9   8   80.64    7.72   1
  -6  -9   9    2.89    2.99   1
  -6  -9  10   65.77    7.46   1
  -6  -8 -15   15.68    4.20   1
  -6  -8 -14    4.00    4.48   1
  -6  -8 -13  192.93   12.78   1
  -6  -8 -12    9.18    2.91   1
  -6  -8 -11  139.71    9.93   1
  -6  -8 -10    1.69    2.39   1
  -6  -8  -9   -2.19    3.40   1
  -6  -8  -8   -6.81    2.82   1
  -6  -8  -7  132.94    8.07   1
  -6  -8  -6   12.39    3.59   1
  -6  -8  -5  341.88   15.16   1
  -6  -8  -4    3.80    2.89   1
  -6  -8  -3  180.63   10.21   1
  -6  -8  -2    9.80    2.69   1
  -6  -8  -1   18.49    3.27   1
  -6  -8   0    7.62    2.48   1
  -6  -8   1  299.98   14.55   1
  -6  -8   2    1.99    3.78   1
  -6  -8   3  278.22   13.34   1
  -6  -8   4    5.20    2.51   1
  -6  -8   5   41.60    4.90   1
  -6  -8   6    8.01    2.49   1
  -6  -8   7   34.57    3.76   1
  -6  -8   8   -2.10    3.92   1
  -6  -8   9  184.42   11.14   1
  -6  -8  10   11.63    4.30   1
  -6  -8  11  100.80    7.63   1
  -6  -8  12   12.89    5.17   1
  -6  -8  13   -1.21    3.10   1
  -6  -7 -17   47.61    4.14   1
  -6  -7 -16    2.69    2.20   1
  -6  -7 -15   66.26    3.74   1
  -6  -7 -14   60.06    3.72   1
  -6  -7 -13   11.90    1.93   1
  -6  -7 -12   88.92    3.77   1
  -6  -7 -11   15.13    2.18   1
  -6  -7 -10   20.98    2.02   1
  -6  -7  -9  159.01    4.79   1
  -6  -7  -8   22.18    1.79   1
  -6  -7  -7  148.11    4.87   1
  -6  -7  -6  140.66    4.27   1
  -6  -7  -5    3.80    1.48   1
  -6  -7  -4  119.90    3.72   1
  -6  -7  -3  192.65    5.55   1
  -6  -7  -2   12.60    1.42   1
  -6  -7  -1  284.26    7.42   1
  -6  -7   0   33.87    1.75   1
  -6  -7   1  135.02    4.18   1
  -6  -7   2  124.32    6.69   1
  -6  -7   3   14.67    3.52   1
  -6  -7   4   82.81    5.64   1
  -6  -7   5  215.21   10.56   1
  -6  -7   6    4.58    3.08   1
  -6  -7   7  113.42    6.60   1
  -6  -7   8   30.25    3.63   1
  -6  -7   9    4.88    3.80   1
  -6  -7  10   51.27    4.73   1
  -6  -7  11   34.22    5.38   1
  -6  -7  12   27.77    4.32   1
  -6  -7  13  115.56   10.10   1
  -6  -7  14    3.31    3.82   1
   6   6 -16   43.03    4.85  -2
  -6  -6 -18   43.03    4.85   1
   6   6 -15    0.00    1.00  -2
  -6  -6 -17    0.00    1.00   1
   6   6 -14  155.00    7.72  -2
  -6  -6 -16  155.00    7.72   1
   6   6 -13    1.21    1.50  -2
  -6  -6 -15    1.21    1.50   1
   6   6 -12   97.81    3.96  -2
  -6  -6 -14   97.81    3.96   1
   6   6 -11    7.02    1.59  -2
  -6  -6 -13    7.02    1.59   1
   6   6 -10    7.78    1.62  -2
  -6  -6 -12    7.78    1.62   1
   6   6  -9    9.49    1.72  -2
  -6  -6 -11    9.49    1.72   1
   6   6  -8  325.80    8.30  -2
  -6  -6 -10  325.80    8.30   1
   6   6  -7    5.20    1.69  -2
  -6  -6  -9    5.20    1.69   1
   6   6  -6  460.53   10.73  -2
  -6  -6  -8  460.53   10.73   1
   6   6  -5   15.68    1.50  -2
  -6  -6  -7   15.68    1.50   1
   6   6  -4  135.49    4.19  -2
  -6  -6  -6  135.49    4.19   1
   6   6  -3   36.97    1.95  -2
  -6  -6  -5   36.97    1.95   1
   6   6  -2   37.09    1.95  -2
  -6  -6  -4   37.09    1.95   1
   6   6  -1   36.84    2.19  -2
  -6  -6  -3   36.84    2.19   1
   6   6   0  590.49   13.12  -2
  -6  -6  -2  590.49   13.12   1
   6   6   1   10.63    1.63  -2
  -6  -6  -1   10.63    1.63   1
   6   6   2  465.70    9.93  -2
  -6  -6   0  465.70    9.93   1
   6   6   3   49.00    2.10  -2
  -6  -6   1   49.00    2.10   1
   6   6   4    6.50    1.02  -2
  -6  -6   2    6.50    1.02   1
   6   6   5   52.42    2.46  -2
  -6  -6   3   52.42    2.46   1
   6   6   6  189.61    5.23  -2
  -6  -6   4  189.61    5.23   1
   6   6   7   11.09    1.20  -2
  -6  -6   5   11.09    1.20   1
   6   6   8  444.79   10.97  -2
  -6  -6   6  444.79   10.97   1
   6   6   9    6.40    1.72  -2
  -6  -6   7    6.40    1.72   1
   6   6  10  221.71   11.91  -2
  -6  -6   8  221.71   11.91   1
   6   6  11   25.81    4.27  -2
  -6  -6   9   25.81    4.27   1
   6   6  12   -1.00    2.00  -2
  -6  -6  10   -1.00    2.00   1
   6   6  13   19.27    4.21  -2
  -6  -6  11   19.27    4.21   1
   6   6  14  119.90    8.32  -2
  -6  -6  12  119.90    8.32   1
   6   6  15    6.30    3.82  -2
  -6  -6  13    6.30    3.82   1
   6   6  16  109.20    8.99  -2
  -6  -6  14  109.20    8.99   1
   6   6  17   10.11    3.37  -2
  -6  -6  15   10.11    3.37   1
   6   6  18   18.66    5.27  -2
  -6  -6  16   18.66    5.27   1
   6   5 -17    0.20    2.72  -2
  -6  -5 -19    0.20    2.72   1
   6   5 -16   48.86    4.05  -2
  -6  -5 -18   48.86    4.05   1
   6   5 -15   11.42    2.30  -2
  -6  -5 -17   11.42    2.30   1
   6   5 -14    0.90    2.70  -2
  -6  -5 -16    0.90    2.70   1
   6   5 -13   40.58    3.44  -2
  -6  -5 -15   40.58    3.44   1
   6   5 -12   84.82    3.87  -2
  -6  -5 -14   84.82    3.87   1
   6   5 -11    7.08    1.81  -2
  -6  -5 -13    7.08    1.81   1
   6   5 -10  288.66    7.48  -2
  -6  -5 -12  288.66    7.48   1
   6   5  -9   16.16    1.69  -2
  -6  -5 -11   16.16    1.69   1
   6   5  -8  151.54    4.68  -2
  -6  -5 -10  151.54    4.68   1
   6   5  -7   88.17    3.00  -2
  -6  -5  -9   88.17    3.00   1
   6   5  -6    4.58    0.98  -2
  -6  -5  -8    4.58    0.98   1
   6   5  -5   61.62    2.67  -2
  -6  -5  -7   61.62    2.67   1
   6   5  -4  423.95    9.47  -2
  -6  -5  -6  423.95    9.47   1
   6   5  -3    9.92    1.58  -2
  -6  -5  -5    9.92    1.58   1
   6   5  -2  626.50   13.52  -2
  -6  -5  -4  626.50   13.52   1
   6   5  -1   12.18    1.33  -2
  -6  -5  -3   12.18    1.33   1
   6   5   0  101.61    3.02  -2
  -6  -5  -2  101.61    3.02   1
   6   5   1   17.39    1.42  -2
  -6  -5  -1   17.39    1.42   1
   6   5   2  131.56    3.67  -2
  -6  -5   0  131.56    3.67   1
   6   5   3    7.62    1.10  -2
  -6  -5   1    7.62    1.10   1
   6   5   4  645.16   13.72  -2
  -6  -5   2  645.16   13.72   1
   6   5   5    9.80    1.50  -2
  -6  -5   3    9.80    1.50   1
   6   5   6  374.81    8.91  -2
  -6  -5   4  374.81    8.91   1
   6   5   7   44.76    2.01  -2
  -6  -5   5   44.76    2.01   1
   6   5   8    0.79    0.89  -2
  -6  -5   6    0.79    0.89   1
   6   5   9   54.17    2.36  -2
  -6  -5   7   54.17    2.36   1
   6   5  10  183.33    5.15  -2
  -6  -5   8  183.33    5.15   1
   6   5  11    7.78    1.39  -2
  -6  -5   9    7.78    1.39   1
   6   5  12  303.46    8.36  -2
  -6  -5  10  303.46    8.36   1
   6   5  13    1.59    1.79  -2
  -6  -5  11    1.59    1.79   1
   6   5  14   70.56    5.71  -2
  -6  -5  12   70.56    5.71   1
   6   5  15    6.50    3.98  -2
  -6  -5  13    6.50    3.98   1
   6   5  16    0.50    2.61  -2
  -6  -5  14    0.50    2.61   1
   6   5  17    1.69    3.48  -2
  -6  -5  15    1.69    3.48   1
   6   5  18   78.32    7.79  -2
  -6  -5  16   78.32    7.79   1
   6   5  19    0.00    1.00  -2
  -6  -5  17    0.00    1.00   1
   6   4 -17   79.03    5.69  -2
  -6  -4 -19   79.03    5.69   1
   6   4 -16    1.00    2.70  -2
  -6  -4 -18    1.00    2.70   1
   6   4 -15   46.65    3.96  -2
  -6  -4 -17   46.65    3.96   1
   6   4 -14   22.18    3.39  -2
  -6  -4 -16   22.18    3.39   1
   6   4 -13    4.28    1.70  -2
  -6  -4 -15    4.28    1.70   1
   6   4 -12   15.76    2.78  -2
  -6  -4 -14   15.76    2.78   1
   6   4 -11  193.77    6.68  -2
  -6  -4 -13  193.77    6.68   1
   6   4 -10    1.80    1.21  -2
  -6  -4 -12    1.80    1.21   1
   6   4  -9  265.69    6.85  -2
  -6  -4 -11  265.69    6.85   1
   6   4  -8   73.27    2.91  -2
  -6  -4 -10   73.27    2.91   1
   6   4  -7   50.84    2.14  -2
  -6  -4  -9   50.84    2.14   1
   6   4  -6  147.38    4.37  -2
  -6  -4  -8  147.38    4.37   1
   6   4  -5  108.78    3.75  -2
  -6  -4  -7  108.78    3.75   1
   6   4  -4   26.94    1.56  -2
  -6  -4  -6   26.94    1.56   1
   6   4  -3  403.21    8.84  -2
  -6  -4  -5  403.21    8.84   1
   6   4  -2    2.59    0.81  -2
  -6  -4  -4    2.59    0.81   1
   6   4  -1  169.00    4.42  -2
  -6  -4  -3  169.00    4.42   1
   6   4   0  114.70    3.21  -2
  -6  -4  -2  114.70    3.21   1
   6   4   1    3.20    1.00  -2
  -6  -4  -1    3.20    1.00   1
   6   4   2  116.64    3.24  -2
  -6  -4   0  116.64    3.24   1
   6   4   3  154.01    3.97  -2
  -6  -4   1  154.01    3.97   1
   6   4   4    5.62    1.18  -2
  -6  -4   2    5.62    1.18   1
   6   4   5  367.11    7.66  -2
  -6  -4   3  367.11    7.66   1
   6   4   6   31.02    1.67  -2
  -6  -4   4   31.02    1.67   1
   6   4   7   95.84    3.33  -2
  -6  -4   5   95.84    3.33   1
   6   4   8  186.60    5.19  -2
  -6  -4   6  186.60    5.19   1
   6   4   9   32.04    1.81  -2
  -6  -4   7   32.04    1.81   1
   6   4  10   82.99    3.10  -2
  -6  -4   8   82.99    3.10   1
   6   4  11  221.41    5.95  -2
  -6  -4   9  221.41    5.95   1
   6   4  12    1.10    1.20  -2
  -6  -4  10    1.10    1.20   1
   6   4  13  149.57    4.65  -2
  -6  -4  11  149.57    4.65   1
   6   4  14   29.48    2.06  -2
  -6  -4  12   29.48    2.06   1
   6   4  15    5.52    1.41  -2
  -6  -4  13    5.52    1.41   1
   6   4  16   41.22    2.95  -2
  -6  -4  14   41.22    2.95   1
   6   4  17   37.21    5.25  -2
  -6  -4  15   37.21    5.25   1
   6   4  18    7.62    3.09  -2
  -6  -4  16    7.62    3.09   1
   6   4  19   51.84    6.34  -2
  -6  -4  17   51.84    6.34   1
  -6  -3 -19    1.69    2.70   1
  -6  -3 -18   22.28    3.30   1
  -6  -3 -17   84.82    4.97   1
  -6  -3 -16    1.80    2.39   1
  -6  -3 -15  167.96    6.22   1
  -6  -3 -14   16.32    2.59   1
  -6  -3 -13   50.27    2.98   1
  -6  -3 -12   20.70    2.09   1
  -6  -3 -11   40.96    2.05   1
  -6  -3 -10   21.07    1.47   1
  -6  -3  -9  359.48    9.10   1
  -6  -3  -8    2.31    1.00   1
  -6  -3  -7  472.19   10.86   1
  -6  -3  -6    4.88    1.11   1
  -6  -3  -5   78.85    2.84   1
  -6  -3  -4   49.56    1.97   1
  -6  -3  -3  170.04    4.43   1
  -6  -3  -2   70.73    2.52   1
  -6  -3  -1  588.06   11.64   1
  -6  -3   0   60.06    2.33   1
  -6  -3   1  231.65    5.48   1
  -6  -3   2   35.64    1.67   1
  -6  -3   3   40.32    1.78   1
  -6  -3   4    0.30    1.00   1
  -6  -3   5  409.25    8.90   1
  -6  -3   6    3.61    0.99   1
  -6  -3   7  379.08    9.35   1
  -6  -3   8    6.20    1.39   1
  -6  -3   9   65.93    2.76   1
  -6  -3  10    4.20    1.52   1
  -6  -3  11   35.05    2.25   1
  -6  -3  12    3.80    1.29   1
  -6  -3  13  157.50    5.52   1
  -6  -3  14   -0.10    1.72   1
  -6  -3  15   87.98    4.50   1
  -6  -3  16    1.80    1.69   1
  -6  -3  17    3.10    4.79   1
  -6  -2 -19   32.49    3.65   1
  -6  -2 -18   20.52    2.81   1
  -6  -2 -17   11.42    2.91   1
  -6  -2 -16  111.51    5.70   1
  -6  -2 -15    1.39    2.29   1
  -6  -2 -14  155.00    6.22   1
  -6  -2 -13   65.93    3.74   1
  -6  -2 -12    7.78    1.62   1
  -6  -2 -11  113.42    4.69   1
  -6  -2 -10   87.98    4.13   1
  -6  -2  -9   36.60    1.94   1
  -6  -2  -8  253.76    6.69   1
  -6  -2  -7   10.82    1.51   1
  -6  -2  -6  161.80    4.32   1
  -6  -2  -5  146.65    4.12   1
  -6  -2  -4   53.58    2.05   1
  -6  -2  -3  345.22    7.43   1
  -6  -2  -2  283.25    6.73   1
  -6  -2  -1    9.99    1.33   1
  -6  -2   0  284.93    6.41   1
  -6  -2   1  302.06    6.60   1
  -6  -2   2  119.68    3.28   1
  -6  -2   3  188.24    4.66   1
  -6  -2   4   75.17    2.43   1
  -6  -2   5   30.47    1.55   1
  -6  -2   6  215.21    5.57   1
  -6  -2   7   20.79    1.82   1
  -6  -2   8  101.20    3.62   1
  -6  -2   9  131.79    4.36   1
  -6  -2  10   -0.59    1.00   1
  -6  -2  11  104.45    3.68   1
  -6  -2  12   83.17    3.65   1
  -6  -2  13   14.29    1.66   1
  -6  -2  14   72.93    3.59   1
  -6  -2  15    8.88    2.38   1
  -6  -2  16   24.11    2.26   1
  -6  -2  17   51.84    3.60   1
  -6  -1 -19    1.59    2.09   1
  -6  -1 -18   86.68    5.59   1
  -6  -1 -17   -4.08    2.30   1
  -6  -1 -16   22.94    2.20   1
  -6  -1 -15    2.79    1.60   1
  -6  -1 -14   48.86    2.94   1
  -6  -1 -13    1.00    1.40   1
  -6  -1 -12  228.31    7.55   1
  -6  -1 -11    0.71    1.41   1
  -6  -1 -10  247.75    8.18   1
  -6  -1  -9    1.90    1.21   1
  -6  -1  -8    0.10    1.11   1
  -6  -1  -7    4.80    1.10   1
  -6  -1  -6  294.47    7.21   1
  -6  -1  -5    2.99    1.11   1
  -6  -1  -4  382.98    8.22   1
  -6  -1  -3    1.69    0.91   1
  -6  -1  -2  117.51    3.47   1
  -6  -1  -1   22.09    1.60   1
  -6  -1   0   30.25    1.65   1
  -6  -1   1    1.69    0.81   1
  -6  -1   2  302.06    6.60   1
  -6  -1   3    2.79    0.90   1
  -6  -1   4  397.20    9.57   1
  -6  -1   5   20.88    2.10   1
  -6  -1   6   48.58    2.23   1
  -6  -1   7    1.10    1.01   1
  -6  -1   8  143.04    4.31   1
  -6  -1   9   -0.50    1.31   1
  -6  -1  10  244.61    7.19   1
  -6  -1  11    0.20    1.31   1
  -6  -1  12   91.20    3.82   1
  -6  -1  13    0.71    1.41   1
  -6  -1  14    1.99    1.89   1
  -6  -1  15    1.59    1.59   1
  -6  -1  16   67.24    3.94   1
  -6  -1  17    0.50    1.90   1
  -6   0 -18    5.11    2.98   1
  -6   0 -17   11.70    2.33   1
  -6   0 -16   40.96    3.20   1
  -6   0 -15    0.79    1.50   1
  -6   0 -14   82.81    3.64   1
  -6   0 -13   65.12    3.23   1
  -6   0 -12    9.18    1.70   1
  -6   0 -11  124.32    4.91   1
  -6   0 -10   55.65    2.69   1
  -6   0  -9   25.40    2.12   1
  -6   0  -8  157.25    5.52   1
  -6   0  -7   19.36    2.38   1
  -6   0  -6   98.41    3.17   1
  -6   0  -5  257.28    6.42   1
  -6   0  -4   11.42    1.28   1
  -6   0  -3  244.30    6.88   1
  -6   0  -2  205.06    5.44   1
  -6   0  -1   10.69    1.18   1
  -6   0   0  274.56    6.96   1
  -6   0   1  117.07    3.90   1
  -6   0   2   75.86    2.96   1
  -6   0   3  282.24    7.39   1
  -6   0   4   31.25    2.12   1
  -6   0   5   51.84    2.59   1
  -6   0   6  160.28    4.56   1
  -6   0   7    3.50    1.61   1
  -6   0   8  131.79    4.36   1
  -6   0   9   54.17    2.80   1
  -6   0  10    3.10    1.58   1
  -6   0  11   72.76    3.24   1
  -6   0  12   76.74    3.85   1
  -6   0  13   10.63    2.02   1
  -6   0  14   84.46    4.04   1
  -6   0  15    2.40    1.61   1
  -6   0  16   24.90    2.69   1
  -6   1 -16    2.50    1.90   1
  -6   1 -15  160.53    6.08   1
  -6   1 -14    5.52    1.69   1
  -6   1 -13   56.55    3.16   1
  -6   1 -12    2.10    1.71   1
  -6   1 -11    1.80    1.69   1
  -6   1 -10    4.58    1.41   1
  -6   1  -9  203.35    6.27   1
  -6   1  -8    6.40    1.52   1
  -6   1  -7  256.00    7.36   1
  -6   1  -6    9.12    1.39   1
  -6   1  -5   55.50    2.68   1
  -6   1  -4   24.21    1.38   1
  -6   1  -3   96.63    3.34   1
  -6   1  -2   33.29    2.42   1
  -6   1  -1  613.06   13.37   1
  -6   1   0   40.58    4.20   1
  -6   1   1  352.31    8.63   1
  -6   1   2   43.69    2.25   1
  -6   1   3    2.89    1.39   1
  -6   1   4   18.06    1.62   1
  -6   1   5  148.60    4.88   1
  -6   1   6   11.63    1.98   1
  -6   1   7  284.60    7.76   1
  -6   1   8    5.71    1.39   1
  -6   1   9   59.14    2.92   1
  -6   1  10   15.13    1.63   1
  -6   1  11    8.18    1.72   1
  -6   1  12   12.32    1.90   1
  -6   1  13  105.27    4.92   1
  -6   1  14    1.90    1.79   1
  -6   1  15  108.37    5.62   1
   6  -2 -14   -0.40    1.50  -2
  -6   2 -15   -0.40    1.50   1
   6  -2 -13   14.90    2.16  -2
  -6   2 -14   14.90    2.16   1
   6  -2 -12   60.84    3.43  -2
  -6   2 -13   60.84    3.43   1
   6  -2 -11   14.82    2.08  -2
  -6   2 -12   14.82    2.08   1
   6  -2 -10   97.61    4.74  -2
  -6   2 -11   97.61    4.74   1
   6  -2  -9    8.12    1.88  -2
  -6   2 -10    8.12    1.88   1
   6  -2  -8   46.65    2.46  -2
  -6   2  -9   46.65    2.46   1
   6  -2  -7   50.55    2.42  -2
  -6   2  -8   50.55    2.42   1
   6  -2  -6   14.98    1.70  -2
  -6   2  -7   14.98    1.70   1
   6  -2  -5   55.35    2.68  -2
  -6   2  -6   55.35    2.68   1
   6  -2  -4  248.38    6.93  -2
  -6   2  -5  248.38    6.93   1
   6  -2  -3   14.29    2.12  -2
  -6   2  -4   14.29    2.12   1
   6  -2  -2  185.23    5.44  -2
  -6   2  -3  185.23    5.44   1
   6  -2  -1   16.97    1.48  -2
  -6   2  -2   16.97    1.48   1
   6  -2   0   14.06    1.27  -2
  -6   2  -1   14.06    1.27   1
   6  -2   1   17.98    1.61  -2
  -6   2   0   17.98    1.61   1
   6  -2   2   51.41    2.15  -2
  -6   2   1   51.41    2.15   1
   6  -2   3   20.07    1.70  -2
  -6   2   2   20.07    1.70   1
   6  -2   4  291.38    7.17  -2
  -6   2   3  291.38    7.17   1
   6  -2   5   15.92    1.84  -2
  -6   2   4   15.92    1.84   1
   6  -2   6  157.00    4.76  -2
  -6   2   5  157.00    4.76   1
   6  -2   7   38.19    2.22  -2
  -6   2   6   38.19    2.22   1
   6  -2   8    3.69    1.19  -2
  -6   2   7    3.69    1.19   1
   6  -2   9   19.10    2.10  -2
  -6   2   8   19.10    2.10   1
   6  -2  10   72.25    3.40  -2
  -6   2   9   72.25    3.40   1
   6  -2  11    2.99    1.31  -2
  -6   2  10    2.99    1.31   1
   6  -2  12  106.71    5.16  -2
  -6   2  11  106.71    5.16   1
   6  -2  13    8.82    2.02  -2
  -6   2  12    8.82    2.02   1
   6  -2  14   30.91    2.78  -2
  -6   2  13   30.91    2.78   1
   6  -3 -11   87.05    4.66  -2
  -6   3 -12   87.05    4.66   1
   6  -3 -10    6.00    1.72  -2
  -6   3 -11    6.00    1.72   1
   6  -3  -9   99.00    4.18  -2
  -6   3 -10   99.00    4.18   1
   6  -3  -8    5.02    1.88  -2
  -6   3  -9    5.02    1.88   1
   6  -3  -7    5.71    1.82  -2
  -6   3  -8    5.71    1.82   1
   6  -3  -6   13.10    1.81  -2
  -6   3  -7   13.10    1.81   1
   6  -3  -5   41.22    2.44  -2
  -6   3  -6   41.22    2.44   1
   6  -3  -4    9.99    1.71  -2
  -6   3  -5    9.99    1.71   1
   6  -3  -3  161.29    5.33  -2
  -6   3  -4  161.29    5.33   1
   6  -3  -2   21.34    1.94  -2
  -6   3  -3   21.34    1.94   1
   6  -3  -1  124.10    4.90  -2
  -6   3  -2  124.10    4.90   1
   6  -3   0   45.29    2.69  -2
  -6   3  -1   45.29    2.69   1
   6  -3   1    6.40    1.62  -2
  -6   3   0    6.40    1.62   1
   6  -3   2   44.49    2.53  -2
  -6   3   1   44.49    2.53   1
   6  -3   3  148.11    4.87  -2
  -6   3   2  148.11    4.87   1
   6  -3   4   13.47    1.91  -2
  -6   3   3   13.47    1.91   1
   6  -3   5  106.30    4.33  -2
  -6   3   4  106.30    4.33   1
   6  -3   6    4.49    1.48  -2
  -6   3   5    4.49    1.48   1
   6  -3   7   20.34    2.07  -2
  -6   3   6   20.34    2.07   1
   6  -3   8   16.08    2.33  -2
  -6   3   7   16.08    2.33   1
   6  -3   9   17.22    1.91  -2
  -6   3   8   17.22    1.91   1
   6  -3  10   16.08    2.17  -2
  -6   3   9   16.08    2.17   1
   6  -3  11  111.72    6.76  -2
  -6   3  10  111.72    6.76   1
   6  -3  12    7.62    2.93  -2
  -6   3  11    7.62    2.93   1
  -6   4  -9    9.99    2.09   1
  -6   4  -8  128.37    5.44   1
  -6   4  -7    8.41    2.09   1
  -6   4  -6   86.12    3.71   1
  -6   4  -5   13.47    2.13   1
  -6   4  -4   -0.40    1.79   1
  -6   4  -3   10.63    2.09   1
  -6   4  -2   52.13    2.74   1
  -6   4  -1    3.10    1.58   1
  -6   4   0  126.79    5.18   1
  -6   4   1    0.10    1.72   1
  -6   4   2   47.89    3.04   1
  -6   4   3   11.49    1.70   1
  -6   4   4    5.90    1.51   1
  -6   4   5    1.21    2.20   1
  -6   4   6  129.50    5.92   1
  -6   4   7    6.50    2.60   1
  -6   4   8  108.78    5.42   1
  -5 -11  -2   72.93    9.22   1
  -5 -11  -1    2.89    4.90   1
  -5 -11   0   54.76    5.92   1
  -5 -11   1   23.91    4.69   1
  -5 -10 -11   74.13    7.58   1
  -5 -10 -10   -1.39    4.48   1
  -5 -10  -9  174.50   12.68   1
  -5 -10  -8    0.40    4.59   1
  -5 -10  -7   77.26    7.03   1
  -5 -10  -6   18.49    3.70   1
  -5 -10  -5   -5.81    3.52   1
  -5 -10  -4   26.73    5.38   1
  -5 -10  -3  118.37    8.70   1
  -5 -10  -2    2.69    3.90   1
  -5 -10  -1  191.27   11.89   1
  -5 -10   0   22.66    5.24   1
  -5 -10   1   26.32    4.72   1
  -5 -10   2   31.92    4.07   1
  -5 -10   3   24.90    3.79   1
  -5 -10   4   18.40    4.63   1
  -5 -10   5  138.06    9.40   1
  -5 -10   6    2.40    4.00   1
  -5 -10   7  121.22    8.81   1
  -5 -10   8    9.18    4.91   1
  -5  -9 -14    4.80    4.99   1
  -5  -9 -13  187.69   12.60   1
  -5  -9 -12    1.90    3.20   1
  -5  -9 -11  151.29   10.33   1
  -5  -9 -10    6.81    3.08   1
  -5  -9  -9    1.39    3.28   1
  -5  -9  -8   13.76    3.12   1
  -5  -9  -7  179.56   10.18   1
  -5  -9  -6    0.59    3.37   1
  -5  -9  -5  350.44   19.84   1
  -5  -9  -4    0.90    3.50   1
  -5  -9  -3   81.18    6.13   1
  -5  -9  -2    3.20    3.11   1
  -5  -9  -1    6.20    3.19   1
  -5  -9   0    2.10    2.81   1
  -5  -9   1  170.56    8.62   1
  -5  -9   2    0.00    1.00   1
  -5  -9   3  357.59   19.29   1
  -5  -9   4    3.39    2.61   1
  -5  -9   5   59.60    5.25   1
  -5  -9   6    7.29    2.81   1
  -5  -9   7   35.64    3.94   1
  -5  -9   8    4.20    2.58   1
  -5  -9   9  190.16   12.41   1
  -5  -9  10    1.99    2.90   1
  -5  -9  11  122.77    9.31   1
  -5  -9  12    0.90    4.01   1
  -5  -8 -16   -2.19    2.90   1
  -5  -8 -15   32.38    4.55   1
  -5  -8 -14   81.18    7.93   1
  -5  -8 -13   -1.21    2.20   1
  -5  -8 -12  176.09    9.55   1
  -5  -8 -11   61.94    5.82   1
  -5  -8 -10   28.30    3.83   1
  -5  -8  -9  152.77    8.40   1
  -5  -8  -8   26.21    4.40   1
  -5  -8  -7   86.12    6.31   1
  -5  -8  -6  126.56    6.97   1
  -5  -8  -5    4.49    2.08   1
  -5  -8  -4  147.87    8.03   1
  -5  -8  -3   82.08    5.44   1
  -5  -8  -2   25.20    2.91   1
  -5  -8  -1  141.61    7.62   1
  -5  -8   0   76.39    5.24   1
  -5  -8   1   40.45    4.20   1
  -5  -8   2  144.48    7.93   1
  -5  -8   3   21.62    3.07   1
  -5  -8   4   73.62    5.49   1
  -5  -8   5  137.59    7.27   1
  -5  -8   6    9.49    3.20   1
  -5  -8   7  157.50    8.28   1
  -5  -8   8   47.06    4.66   1
  -5  -8   9   32.95    5.05   1
  -5  -8  10  133.40    8.32   1
  -5  -8  11   16.40    3.81   1
  -5  -8  12   30.25    5.17   1
  -5  -8  13   60.37    5.44   1
  -5  -8  14    1.59    3.10   1
   5   7 -16   48.44    3.34  -2
  -5  -7 -18   48.44    3.34   1
   5   7 -15   -0.50    2.10  -2
  -5  -7 -17   -0.50    2.10   1
   5   7 -14  211.70    7.57  -2
  -5  -7 -16  211.70    7.57   1
   5   7 -13   -1.30    1.50  -2
  -5  -7 -15   -1.30    1.50   1
   5   7 -12  106.92    4.34  -2
  -5  -7 -14  106.92    4.34   1
   5   7 -11    1.10    1.30  -2
  -5  -7 -13    1.10    1.30   1
   5   7 -10    5.71    1.72  -2
  -5  -7 -12    5.71    1.72   1
   5   7  -9   -0.59    1.39  -2
  -5  -7 -11   -0.59    1.39   1
   5   7  -8  312.58    8.13  -2
  -5  -7 -10  312.58    8.13   1
   5   7  -7    1.99    1.30  -2
  -5  -7  -9    1.99    1.30   1
   5   7  -6  465.70   10.36  -2
  -5  -7  -8  465.70   10.36   1
   5   7  -5    2.69    1.08  -2
  -5  -7  -7    2.69    1.08   1
   5   7  -4   75.52    2.78  -2
  -5  -7  -6   75.52    2.78   1
   5   7  -3    3.10    1.20  -2
  -5  -7  -5    3.10    1.20   1
   5   7  -2   88.74    3.01  -2
  -5  -7  -4   88.74    3.01   1
   5   7  -1    2.89    0.88  -2
  -5  -7  -3    2.89    0.88   1
   5   7   0  385.73    9.03  -2
  -5  -7  -2  385.73    9.03   1
   5   7   1    3.20    1.00  -2
  -5  -7  -1    3.20    1.00   1
   5   7   2  325.08    7.57  -2
  -5  -7   0  325.08    7.57   1
   5   7   3    1.21    0.70  -2
  -5  -7   1    1.21    0.70   1
   5   7   4   29.05    3.02  -2
  -5  -7   2   29.05    3.02   1
   5   7   5    1.99    2.20  -2
  -5  -7   3    1.99    2.20   1
   5   7   6  137.59    6.80  -2
  -5  -7   4  137.59    6.80   1
   5   7   7    5.71    3.01  -2
  -5  -7   5    5.71    3.01   1
   5   7   8  478.30   18.37  -2
  -5  -7   6  478.30   18.37   1
   5   7   9    2.89    1.90  -2
  -5  -7   7    2.89    1.90   1
   5   7  10  209.67   10.14  -2
  -5  -7   8  209.67   10.14   1
   5   7  11    6.00    2.30  -2
  -5  -7   9    6.00    2.30   1
   5   7  12   -2.40    2.70  -2
  -5  -7  10   -2.40    2.70   1
   5   7  13    3.61    3.31  -2
  -5  -7  11    3.61    3.31   1
   5   7  14  123.21    8.44  -2
  -5  -7  12  123.21    8.44   1
   5   7  15    1.69    3.20  -2
  -5  -7  13    1.69    3.20   1
   5   7  16  168.48   10.90  -2
  -5  -7  14  168.48   10.90   1
   5   7  17   -0.40    2.89  -2
  -5  -7  15   -0.40    2.89   1
   5   7  18   31.47    5.05  -2
  -5  -7  16   31.47    5.05   1
   5   6 -17    1.90    3.20  -2
  -5  -6 -19    1.90    3.20   1
   5   6 -16   64.48    4.98  -2
  -5  -6 -18   64.48    4.98   1
   5   6 -15  104.04    4.69  -2
  -5  -6 -17  104.04    4.69   1
   5   6 -14    1.69    1.59  -2
  -5  -6 -16    1.69    1.59   1
   5   6 -13  130.19    5.25  -2
  -5  -6 -15  130.19    5.25   1
   5   6 -12  120.12    4.16  -2
  -5  -6 -14  120.12    4.16   1
   5   6 -11   16.48    1.87  -2
  -5  -6 -13   16.48    1.87   1
   5   6 -10  276.56    7.32  -2
  -5  -6 -12  276.56    7.32   1
   5   6  -9    7.18    1.29  -2
  -5  -6 -11    7.18    1.29   1
   5   6  -8   92.16    3.07  -2
  -5  -6 -10   92.16    3.07   1
   5   6  -7  113.00    3.40  -2
  -5  -6  -9  113.00    3.40   1
   5   6  -6    7.51    1.32  -2
  -5  -6  -8    7.51    1.32   1
   5   6  -5   98.21    3.17  -2
  -5  -6  -7   98.21    3.17   1
   5   6  -4  296.53    6.89  -2
  -5  -6  -6  296.53    6.89   1
   5   6  -3    3.88    0.91  -2
  -5  -6  -5    3.88    0.91   1
   5   6  -2  388.09    8.27  -2
  -5  -6  -4  388.09    8.27   1
   5   6  -1  137.36    3.75  -2
  -5  -6  -3  137.36    3.75   1
   5   6   0   62.09    2.21  -2
  -5  -6  -2   62.09    2.21   1
   5   6   1  318.62    6.43  -2
  -5  -6  -1  318.62    6.43   1
   5   6   2   87.80    2.62  -2
  -5  -6   0   87.80    2.62   1
   5   6   3   96.63    2.75  -2
  -5  -6   1   96.63    2.75   1
   5   6   4  430.56    8.30  -2
  -5  -6   2  430.56    8.30   1
   5   6   5    9.18    1.09  -2
  -5  -6   3    9.18    1.09   1
   5   6   6  274.90    5.64  -2
  -5  -6   4  274.90    5.64   1
   5   6   7   73.44    2.23  -2
  -5  -6   5   73.44    2.23   1
   5   6   8    2.31    0.70  -2
  -5  -6   6    2.31    0.70   1
   5   6   9   66.26    2.44  -2
  -5  -6   7   66.26    2.44   1
   5   6  10  138.77    7.54  -2
  -5  -6   8  138.77    7.54   1
   5   6  11    4.41    2.02  -2
  -5  -6   9    4.41    2.02   1
   5   6  12  298.25   13.13  -2
  -5  -6  10  298.25   13.13   1
   5   6  13   18.40    3.17  -2
  -5  -6  11   18.40    3.17   1
   5   6  14  115.35    6.66  -2
  -5  -6  12  115.35    6.66   1
   5   6  15   90.82    6.48  -2
  -5  -6  13   90.82    6.48   1
   5   6  16    1.90    2.51  -2
  -5  -6  14    1.90    2.51   1
   5   6  17   63.84    6.39  -2
  -5  -6  15   63.84    6.39   1
   5   6  18   99.20    8.17  -2
  -5  -6  16   99.20    8.17   1
   5   6  19    0.59    2.79  -2
  -5  -6  17    0.59    2.79   1
  -5  -5 -20    5.11    3.21   1
  -5  -5 -19  168.48    9.61   1
  -5  -5 -18    2.10    2.81   1
  -5  -5 -17   36.84    3.28   1
  -5  -5 -16   11.02    1.59   1
  -5  -5 -15   11.97    1.87   1
  -5  -5 -14    1.59    1.29   1
  -5  -5 -13  255.68    7.04   1
  -5  -5 -12    0.20    1.31   1
  -5  -5 -11  297.56    7.59   1
  -5  -5 -10    1.10    1.09   1
  -5  -5  -9   20.16    1.62   1
  -5  -5  -8   36.48    1.93   1
  -5  -5  -7  132.71    3.46   1
  -5  -5  -6   27.35    1.57   1
  -5  -5  -5  532.69   10.62   1
  -5  -5  -4    5.20    0.91   1
  -5  -5  -3  293.44    6.51   1
  -5  -5  -2   42.90    1.70   1
  -5  -5  -1    0.50    0.60   1
  -5  -5   0   49.56    1.69   1
  -5  -5   1  273.90    5.63   1
  -5  -5   2    2.31    0.91   1
  -5  -5   3  505.80    9.90   1
  -5  -5   4   37.21    1.46   1
  -5  -5   5  119.46    3.28   1
  -5  -5   6   69.89    2.17   1
  -5  -5   7   19.01    1.31   1
  -5  -5   8    3.39    0.99   1
  -5  -5   9  264.06    7.15   1
  -5  -5  10    1.21    0.81   1
  -5  -5  11  211.99    5.82   1
  -5  -5  12    3.20    2.51   1
  -5  -5  13   13.03    2.53   1
  -5  -5  14   44.36    4.80   1
  -5  -5  15   33.52    4.05   1
  -5  -5  16    7.02    3.92   1
  -5  -5  17  144.96   10.11   1
  -5  -5  18   12.67    5.27   1
  -5  -4 -21    9.61    2.60   1
  -5  -4 -20   28.09    3.39   1
  -5  -4 -19   -0.59    1.99   1
  -5  -4 -18   82.08    4.53   1
  -5  -4 -17   80.28    4.66   1
  -5  -4 -16    6.50    1.99   1
  -5  -4 -15  265.36    7.17   1
  -5  -4 -14   76.39    3.15   1
  -5  -4 -13  127.46    4.06   1
  -5  -4 -12  107.74    3.53   1
  -5  -4 -11   48.58    2.37   1
  -5  -4 -10  109.41    3.14   1
  -5  -4  -9  406.02    9.27   1
  -5  -4  -8   23.23    1.45   1
  -5  -4  -7  179.02    4.55   1
  -5  -4  -6  237.47    5.55   1
  -5  -4  -5    1.00    0.60   1
  -5  -4  -4  133.86    3.47   1
  -5  -4  -3  211.12    4.65   1
  -5  -4  -2   31.70    1.35   1
  -5  -4  -1  653.31   12.78   1
  -5  -4   0   27.04    1.35   1
  -5  -4   1  279.89    6.36   1
  -5  -4   2   91.01    2.48   1
  -5  -4   3    3.69    0.81   1
  -5  -4   4  180.90    4.04   1
  -5  -4   5  150.31    3.68   1
  -5  -4   6   33.87    1.51   1
  -5  -4   7  428.08    8.28   1
  -5  -4   8   58.37    2.14   1
  -5  -4   9   74.82    2.42   1
  -5  -4  10   48.86    2.10   1
  -5  -4  11   95.84    3.52   1
  -5  -4  12   56.10    2.55   1
  -5  -4  13  286.62    8.13   1
  -5  -4  14    1.59    1.49   1
  -5  -4  15   98.21    7.33   1
  -5  -4  16   41.47    4.25   1
  -5  -4  17    2.69    3.80   1
  -5  -4  18    5.29    3.08   1
  -5  -4  19   15.52    3.78   1
  -5  -3 -21    1.69    2.39   1
  -5  -3 -20   14.29    2.57   1
  -5  -3 -19   16.40    2.59   1
  -5  -3 -18   83.91    4.40   1
  -5  -3 -17   17.47    3.01   1
  -5  -3 -16  266.34    9.14   1
  -5  -3 -15   -0.20    1.41   1
  -5  -3 -14  205.06    6.87   1
  -5  -3 -13   34.81    2.01   1
  -5  -3 -12    1.39    0.90   1
  -5  -3 -11   74.65    2.42   1
  -5  -3 -10  245.55    5.95   1
  -5  -3  -9   31.36    1.57   1
  -5  -3  -8  530.84   11.52   1
  -5  -3  -7   61.47    2.04   1
  -5  -3  -6  401.60    8.42   1
  -5  -3  -5  176.62    4.25   1
  -5  -3  -4   88.92    2.45   1
  -5  -3  -3   40.20    1.65   1
  -5  -3  -2  717.70   13.93   1
  -5  -3  -1    4.00    0.80   1
  -5  -3   0  773.40   13.90   1
  -5  -3   1   29.59    1.52   1
  -5  -3   2  192.38    4.44   1
  -5  -3   3  196.28    4.20   1
  -5  -3   4  215.80    4.70   1
  -5  -3   5  109.62    2.93   1
  -5  -3   6  484.44    8.80   1
  -5  -3   7   17.89    1.27   1
  -5  -3   8  244.61    5.63   1
  -5  -3   9  111.94    3.17   1
  -5  -3  10   23.43    1.84   1
  -5  -3  11   67.57    2.63   1
  -5  -3  12  119.03    3.93   1
  -5  -3  13    4.41    1.22   1
  -5  -3  14  219.34    6.52   1
  -5  -3  15   32.95    2.41   1
  -5  -3  16  117.94    4.78   1
  -5  -3  17   55.65    2.98   1
  -5  -3  18    2.31    2.71   1
  -5  -3  19   17.98    4.66   1
  -5  -2 -21    7.51    2.19   1
  -5  -2 -20  108.78    6.05   1
  -5  -2 -19    0.71    1.71   1
  -5  -2 -18  131.79    6.20   1
  -5  -2 -17    5.81    1.88   1
  -5  -2 -16    4.00    1.60   1
  -5  -2 -15   20.43    2.17   1
  -5  -2 -14  146.41    5.08   1
  -5  -2 -13    6.30    1.41   1
  -5  -2 -12  310.82    7.40   1
  -5  -2 -11   13.69    1.33   1
  -5  -2 -10  248.38    5.67   1
  -5  -2  -9  107.95    2.91   1
  -5  -2  -8    7.67    1.00   1
  -5  -2  -7   47.33    1.79   1
  -5  -2  -6  369.02    7.68   1
  -5  -2  -5    4.08    0.89   1
  -5  -2  -4  778.97   14.51   1
  -5  -2  -3    5.62    1.00   1
  -5  -2  -2  460.10    9.01   1
  -5  -2  -1    1.59    1.01   1
  -5  -2   0  167.18    3.88   1
  -5  -2   1    1.69    0.60   1
  -5  -2   2  811.11   13.67   1
  -5  -2   3    1.59    0.71   1
  -5  -2   4  480.49    8.77   1
  -5  -2   5    7.51    1.10   1
  -5  -2   6   87.61    2.62   1
  -5  -2   7   58.37    2.14   1
  -5  -2   8  124.32    3.35   1
  -5  -2   9   23.91    1.47   1
  -5  -2  10  334.52    8.05   1
  -5  -2  11    7.90    1.91   1
  -5  -2  12  228.61    6.65   1
  -5  -2  13    1.99    1.30   1
  -5  -2  14    5.62    1.18   1
  -5  -2  15    2.59    1.71   1
  -5  -2  16  102.41    4.45   1
  -5  -2  17   -0.79    1.50   1
  -5  -2  18  149.33    5.87   1
  -5  -2  19   -0.71    1.81   1
  -5  -1 -21   15.29    3.36   1
  -5  -1 -20    2.99    2.01   1
  -5  -1 -19  102.41    5.67   1
  -5  -1 -18   20.61    2.36   1
  -5  -1 -17   66.59    4.08   1
  -5  -1 -16   41.73    2.45   1
  -5  -1 -15   -0.50    1.41   1
  -5  -1 -14   60.22    2.48   1
  -5  -1 -13  243.05    7.48   1
  -5  -1 -12    2.19    1.60   1
  -5  -1 -11  367.11    9.96   1
  -5  -1 -10   90.82    3.05   1
  -5  -1  -9   47.06    2.06   1
  -5  -1  -8  157.00    4.01   1
  -5  -1  -7  100.60    3.21   1
  -5  -1  -6   88.74    2.64   1
  -5  -1  -5  498.63    9.83   1
  -5  -1  -4   31.47    2.24   1
  -5  -1  -3  251.22    5.71   1
  -5  -1  -2  209.09    4.92   1
  -5  -1  -1   11.83    1.51   1
  -5  -1   0  259.85    5.48   1
  -5  -1   1   88.17    2.44   1
  -5  -1   2  116.42    3.24   1
  -5  -1   3  432.22    7.90   1
  -5  -1   4   33.64    1.62   1
  -5  -1   5  238.39    4.94   1
  -5  -1   6  164.35    4.10   1
  -5  -1   7    2.19    0.80   1
  -5  -1   8  162.82    4.08   1
  -5  -1   9  185.23    4.90   1
  -5  -1  10   27.67    2.10   1
  -5  -1  11  292.41    7.18   1
  -5  -1  12   64.64    3.06   1
  -5  -1  13   29.70    2.07   1
  -5  -1  14   78.68    3.37   1
  -5  -1  15   11.97    1.73   1
  -5  -1  16   45.70    2.97   1
  -5  -1  17   64.32    3.37   1
  -5  -1  18    0.90    2.39   1
  -5  -1  19   29.70    3.05   1
   5   0 -19    4.80    2.19  -2
  -5   0 -20    4.80    2.19   1
   5   0 -18    4.71    2.00  -2
  -5   0 -19    4.71    2.00   1
   5   0 -17   11.42    2.77  -2
  -5   0 -18   11.42    2.77   1
   5   0 -16   97.02    5.12  -2
  -5   0 -17   97.02    5.12   1
   5   0 -15   11.09    2.13  -2
  -5   0 -16   11.09    2.13   1
   5   0 -14  265.69    7.50  -2
  -5   0 -15  265.69    7.50   1
   5   0 -13    4.71    1.52  -2
  -5   0 -14    4.71    1.52   1
   5   0 -12   63.20    2.86  -2
  -5   0 -13   63.20    2.86   1
   5   0 -11    5.62    1.42  -2
  -5   0 -12    5.62    1.42   1
   5   0 -10   31.25    2.01  -2
  -5   0 -11   31.25    2.01   1
   5   0  -9    8.41    1.80  -2
  -5   0 -10    8.41    1.80   1
   5   0  -8  496.40   12.03  -2
  -5   0  -9  496.40   12.03   1
   5   0  -7   42.25    2.99  -2
  -5   0  -8   42.25    2.99   1
   5   0  -6  726.30   14.01  -2
  -5   0  -7  726.30   14.01   1
   5   0  -5   11.70    1.78  -2
  -5   0  -6   11.70    1.78   1
   5   0  -4  102.21    2.83  -2
  -5   0  -5  102.21    2.83   1
   5   0  -3    0.40    0.79  -2
  -5   0  -4    0.40    0.79   1
   5   0  -2  128.60    3.40  -2
  -5   0  -3  128.60    3.40   1
   5   0  -1   21.62    1.67  -2
  -5   0  -2   21.62    1.67   1
   5   0   0  576.96   11.53  -2
  -5   0  -1  576.96   11.53   1
   5   0   1   31.36    2.24  -2
  -5   0   0   31.36    2.24   1
   5   0   2  376.36    6.98  -2
  -5   0   1  376.36    6.98   1
   5   0   3    2.69    0.69  -2
  -5   0   2    2.69    0.69   1
   5   0   4    3.39    0.81  -2
  -5   0   3    3.39    0.81   1
   5   0   5    4.49    0.89  -2
  -5   0   4    4.49    0.89   1
   5   0   6  374.81    8.13  -2
  -5   0   5  374.81    8.13   1
   5   0   7   33.99    2.33  -2
  -5   0   6   33.99    2.33   1
   5   0   8  696.96   14.26  -2
  -5   0   7  696.96   14.26   1
   5   0   9   21.90    2.25  -2
  -5   0   8   21.90    2.25   1
   5   0  10  187.42    5.20  -2
  -5   0   9  187.42    5.20   1
   5   0  11    2.69    0.89  -2
  -5   0  10    2.69    0.89   1
   5   0  12    2.31    1.31  -2
  -5   0  11    2.31    1.31   1
   5   0  13    4.71    1.30  -2
  -5   0  12    4.71    1.30   1
   5   0  14  169.78    5.21  -2
  -5   0  13  169.78    5.21   1
   5   0  15    6.30    1.91  -2
  -5   0  14    6.30    1.91   1
   5   0  16  212.28    6.41  -2
  -5   0  15  212.28    6.41   1
   5   0  17    2.10    1.51  -2
  -5   0  16    2.10    1.51   1
   5   0  18   11.02    2.39  -2
  -5   0  17   11.02    2.39   1
   5   0  19    1.49    1.68  -2
  -5   0  18    1.49    1.68   1
   5   0  20   16.40    2.43  -2
  -5   0  19   16.40    2.43   1
   5  -1 -18   42.64    3.79  -2
  -5   1 -19   42.64    3.79   1
   5  -1 -17    4.80    2.50  -2
  -5   1 -18    4.80    2.50   1
   5  -1 -16   28.09    2.65  -2
  -5   1 -17   28.09    2.65   1
   5  -1 -15   66.42    3.59  -2
  -5   1 -16   66.42    3.59   1
   5  -1 -14    1.80    1.10  -2
  -5   1 -15    1.80    1.10   1
   5  -1 -13  116.86    3.89  -2
  -5   1 -14  116.86    3.89   1
   5  -1 -12   93.32    3.48  -2
  -5   1 -13   93.32    3.48   1
   5  -1 -11   33.18    1.96  -2
  -5   1 -12   33.18    1.96   1
   5  -1 -10  185.50    5.72  -2
  -5   1 -11  185.50    5.72   1
   5  -1  -9   82.63    3.09  -2
  -5   1 -10   82.63    3.09   1
   5  -1  -8   64.16    2.72  -2
  -5   1  -9   64.16    2.72   1
   5  -1  -7  123.65    3.78  -2
  -5   1  -8  123.65    3.78   1
   5  -1  -6   26.42    1.34  -2
  -5   1  -7   26.42    1.34   1
   5  -1  -5   73.10    2.05  -2
  -5   1  -6   73.10    2.05   1
   5  -1  -4  271.92    5.94  -2
  -5   1  -5  271.92    5.94   1
   5  -1  -3   35.52    1.55  -2
  -5   1  -4   35.52    1.55   1
   5  -1  -2  290.02    6.13  -2
  -5   1  -3  290.02    6.13   1
   5  -1  -1   77.62    2.64  -2
  -5   1  -2   77.62    2.64   1
   5  -1   0   38.44    1.61  -2
  -5   1  -1   38.44    1.61   1
   5  -1   1  163.84    4.10  -2
  -5   1   0  163.84    4.10   1
   5  -1   2  117.29    3.03  -2
  -5   1   1  117.29    3.03   1
   5  -1   3   32.72    1.72  -2
  -5   1   2   32.72    1.72   1
   5  -1   4  353.06    7.14  -2
  -5   1   3  353.06    7.14   1
   5  -1   5   31.47    1.68  -2
  -5   1   4   31.47    1.68   1
   5  -1   6  165.38    4.37  -2
  -5   1   5  165.38    4.37   1
   5  -1   7   56.85    2.26  -2
  -5   1   6   56.85    2.26   1
   5  -1   8    5.11    1.31  -2
  -5   1   7    5.11    1.31   1
   5  -1   9  108.16    3.54  -2
  -5   1   8  108.16    3.54   1
   5  -1  10  139.95    4.50  -2
  -5   1   9  139.95    4.50   1
   5  -1  11   21.72    1.68  -2
  -5   1  10   21.72    1.68   1
   5  -1  12  211.99    5.53  -2
  -5   1  11  211.99    5.53   1
   5  -1  13   41.09    2.56  -2
  -5   1  12   41.09    2.56   1
   5  -1  14   49.56    2.68  -2
  -5   1  13   49.56    2.68   1
   5  -1  15   54.46    3.25  -2
  -5   1  14   54.46    3.25   1
   5  -1  16    7.90    1.80  -2
  -5   1  15    7.90    1.80   1
   5  -1  17   16.00    2.08  -2
  -5   1  16   16.00    2.08   1
   5  -1  18   61.62    4.24  -2
  -5   1  17   61.62    4.24   1
   5  -1  19    3.31    1.82  -2
  -5   1  18    3.31    1.82   1
   5  -2 -17   98.60    5.96  -2
  -5   2 -18   98.60    5.96   1
   5  -2 -16    8.82    2.32  -2
  -5   2 -17    8.82    2.32   1
   5  -2 -15   20.43    2.26  -2
  -5   2 -16   20.43    2.26   1
   5  -2 -14    1.21    1.21  -2
  -5   2 -15    1.21    1.21   1
   5  -2 -13   37.70    2.46  -2
  -5   2 -14   37.70    2.46   1
   5  -2 -12    5.90    1.51  -2
  -5   2 -13    5.90    1.51   1
   5  -2 -11  165.89    5.15  -2
  -5   2 -12  165.89    5.15   1
   5  -2 -10   11.70    1.57  -2
  -5   2 -11   11.70    1.57   1
   5  -2  -9  175.56    5.03  -2
  -5   2 -10  175.56    5.03   1
   5  -2  -8   14.59    1.60  -2
  -5   2  -9   14.59    1.60   1
   5  -2  -7   21.90    1.59  -2
  -5   2  -8   21.90    1.59   1
   5  -2  -6    4.08    1.21  -2
  -5   2  -7    4.08    1.21   1
   5  -2  -5  119.03    3.93  -2
  -5   2  -6  119.03    3.93   1
   5  -2  -4   26.21    1.84  -2
  -5   2  -5   26.21    1.84   1
   5  -2  -3  286.62    7.11  -2
  -5   2  -4  286.62    7.11   1
   5  -2  -2   15.29    1.33  -2
  -5   2  -3   15.29    1.33   1
   5  -2  -1  134.79    3.48  -2
  -5   2  -2  134.79    3.48   1
   5  -2   0    5.20    0.91  -2
  -5   2  -1    5.20    0.91   1
   5  -2   1    1.21    0.70  -2
  -5   2   0    1.21    0.70   1
   5  -2   2    7.62    0.99  -2
  -5   2   1    7.62    0.99   1
   5  -2   3  183.06    4.60  -2
  -5   2   2  183.06    4.60   1
   5  -2   4   21.34    1.85  -2
  -5   2   3   21.34    1.85   1
   5  -2   5  274.90    6.30  -2
  -5   2   4  274.90    6.30   1
   5  -2   6   12.89    1.29  -2
  -5   2   5   12.89    1.29   1
   5  -2   7   45.56    1.89  -2
  -5   2   6   45.56    1.89   1
   5  -2   8   13.47    1.17  -2
  -5   2   7   13.47    1.17   1
   5  -2   9   52.13    2.31  -2
  -5   2   8   52.13    2.31   1
   5  -2  10   32.04    1.92  -2
  -5   2   9   32.04    1.92   1
   5  -2  11  157.50    5.02  -2
  -5   2  10  157.50    5.02   1
   5  -2  12    4.08    1.29  -2
  -5   2  11    4.08    1.29   1
   5  -2  13  119.90    4.60  -2
  -5   2  12  119.90    4.60   1
   5  -2  14    7.62    2.10  -2
  -5   2  13    7.62    2.10   1
   5  -2  15   11.97    1.80  -2
  -5   2  14   11.97    1.80   1
   5  -2  16   -1.90    1.71  -2
  -5   2  15   -1.90    1.71   1
   5  -2  17   40.32    4.19  -2
  -5   2  16   40.32    4.19   1
   5  -2  18    2.19    2.78  -2
  -5   2  17    2.19    2.78   1
  -5   3 -16   61.94    3.78   1
  -5   3 -15    5.71    1.91   1
  -5   3 -14   76.39    4.02   1
  -5   3 -13   42.12    2.86   1
  -5   3 -12    8.82    1.78   1
  -5   3 -11  103.23    3.86   1
  -5   3 -10   19.62    1.59   1
  -5   3  -9   11.63    1.57   1
  -5   3  -8  153.51    4.71   1
  -5   3  -7   11.22    1.67   1
  -5   3  -6  164.10    4.87   1
  -5   3  -5   84.82    2.95   1
  -5   3  -4    7.40    1.41   1
  -5   3  -3   82.08    2.90   1
  -5   3  -2  116.86    3.89   1
  -5   3  -1    8.58    1.70   1
  -5   3   0  243.36    6.55   1
  -5   3   1   16.97    1.81   1
  -5   3   2   84.09    3.48   1
  -5   3   3   85.01    3.13   1
  -5   3   4   17.98    1.70   1
  -5   3   5   50.84    2.57   1
  -5   3   6  190.16    5.79   1
  -5   3   7    5.02    1.70   1
  -5   3   8  130.87    4.58   1
  -5   3   9   18.84    2.08   1
  -5   3  10   12.89    1.58   1
  -5   3  11   73.96    3.96   1
  -5   3  12   20.70    3.00   1
  -5   3  13    2.89    2.69   1
  -5   3  14   90.06    5.69   1
  -5   3  15    8.41    2.78   1
  -5   4 -14   -3.61    4.90   1
  -5   4 -13   65.12    7.75   1
  -5   4 -12   19.98    2.41   1
  -5   4 -11    4.00    1.52   1
  -5   4 -10   19.54    1.77   1
  -5   4  -9  122.32    4.87   1
  -5   4  -8    6.40    1.52   1
  -5   4  -7  163.33    4.86   1
  -5   4  -6   10.63    1.50   1
  -5   4  -5    6.00    1.18   1
  -5   4  -4   50.84    2.57   1
  -5   4  -3   27.88    1.69   1
  -5   4  -2   13.03    1.59   1
  -5   4  -1  174.77    5.29   1
  -5   4   0    0.20    1.51   1
  -5   4   1  184.42    5.43   1
  -5   4   2   23.14    2.12   1
  -5   4   3   31.02    2.12   1
  -5   4   4   50.98    2.43   1
  -5   4   5   10.30    1.61   1
  -5   4   6    4.71    1.61   1
  -5   4   7  190.99    6.08   1
  -5   4   8    4.41    1.60   1
  -5   4   9   80.10    3.94   1
  -5   4  10   37.70    3.56   1
  -5   4  11    3.69    2.61   1
  -5   4  12   20.43    3.16   1
  -5   4  13   59.75    5.10   1
  -5   5 -10    9.92    5.42   1
  -5   5  -9   16.81    4.51   1
  -5   5  -8    8.01    3.40   1
  -5   5  -7    3.61    3.19   1
  -5   5  -6   19.89    2.32   1
  -5   5  -5   85.19    3.69   1
  -5   5  -4    0.79    1.30   1
  -5   5  -3  159.77    5.81   1
  -5   5  -2   18.49    1.72   1
  -5   5  -1   27.67    2.21   1
  -5   5   0   15.21    2.03   1
  -5   5   1   26.11    2.35   1
  -5   5   2   13.47    1.91   1
  -5   5   3  155.75    5.99   1
  -5   5   4    4.20    1.39   1
  -5   5   5   89.11    3.96   1
  -5   5   6    5.11    1.81   1
  -5   5   7    5.38    1.58   1
  -5   5   8   -0.50    1.41   1
  -5   5   9   20.98    2.84   1
  -5   5  10    4.28    2.28   1
  -5   6  -3    2.40    3.69   1
  -5   6  -2   51.84    7.34   1
  -5   6  -1   39.44    7.03   1
  -5   6   0    0.30    4.52   1
  -5   6   1   53.73    3.37   1
  -5   6   2   39.82    3.15   1
  -5   6   3    3.61    1.90   1
  -5   6   4   69.39    4.16   1
  -4 -11  -5    3.61    3.42   1
  -4 -11  -4    0.59    3.08   1
  -4 -11  -3  121.00    9.46   1
  -4 -11  -2    1.99    3.38   1
  -4 -11  -1  156.25   11.75   1
  -4 -11   0    5.20    3.19   1
  -4 -11   1   39.94    5.06   1
  -4 -11   2    4.00    4.00   1
  -4 -11   3   13.32    4.67   1
  -4 -10 -11   97.61    9.68   1
  -4 -10 -10   17.81    4.14   1
  -4 -10  -9    0.59    4.17   1
  -4 -10  -8    9.61    3.29   1
  -4 -10  -7   88.36    8.08   1
  -4 -10  -6   -2.31    4.41   1
  -4 -10  -5  238.08   13.58   1
  -4 -10  -4    9.61    3.22   1
  -4 -10  -3  121.88    9.49   1
  -4 -10  -2   71.23    6.25   1
  -4 -10  -1    3.80    2.69   1
  -4 -10   0   46.92    5.75   1
  -4 -10   1  209.38   13.60   1
  -4 -10   2    1.21    2.51   1
  -4 -10   3  209.09   12.44   1
  -4 -10   4    9.61    4.03   1
  -4 -10   5   35.64    4.54   1
  -4 -10   6   10.11    4.20   1
  -4 -10   7   33.06    4.95   1
  -4 -10   8    7.29    3.02   1
  -4 -10   9  119.90    8.98   1
   4   9 -13   15.76    5.32  -2
  -4  -9 -15   15.76    5.32   1
   4   9 -12   55.20    7.43  -2
  -4  -9 -14   55.20    7.43   1
   4   9 -11    5.11    3.30  -2
  -4  -9 -13    5.11    3.30   1
   4   9 -10   91.97    8.06  -2
  -4  -9 -12   91.97    8.06   1
   4   9  -9   13.40    4.68  -2
  -4  -9 -11   13.40    4.68   1
   4   9  -8   58.52    5.36  -2
  -4  -9 -10   58.52    5.36   1
   4   9  -7   43.82    5.69  -2
  -4  -9  -9   43.82    5.69   1
   4   9  -6    2.31    2.80  -2
  -4  -9  -8    2.31    2.80   1
   4   9  -5   21.34    3.88  -2
  -4  -9  -7   21.34    3.88   1
   4   9  -4  186.87   10.12  -2
  -4  -9  -6  186.87   10.12   1
   4   9  -3   -3.88    3.19  -2
  -4  -9  -5   -3.88    3.19   1
   4   9  -2  209.67   11.58  -2
  -4  -9  -4  209.67   11.58   1
   4   9  -1   45.43    4.45  -2
  -4  -9  -3   45.43    4.45   1
   4   9   0   14.52    3.51  -2
  -4  -9  -2   14.52    3.51   1
   4   9   1   98.80    5.96  -2
  -4  -9  -1   98.80    5.96   1
   4   9   2   53.00    4.51  -2
  -4  -9   0   53.00    4.51   1
   4   9   3   26.32    3.80  -2
  -4  -9   1   26.32    3.80   1
   4   9   4  233.78   10.40  -2
  -4  -9   2  233.78   10.40   1
   4   9   5    7.29    2.32  -2
  -4  -9   3    7.29    2.32   1
   4   9   6  124.55    7.59  -2
  -4  -9   4  124.55    7.59   1
   4   9   7   36.72    4.24  -2
  -4  -9   5   36.72    4.24   1
   4   9   8    3.50    2.21  -2
  -4  -9   6    3.50    2.21   1
   4   9   9   53.00    5.97  -2
  -4  -9   7   53.00    5.97   1
   4   9  10   82.45    6.17  -2
  -4  -9   8   82.45    6.17   1
   4   9  11    7.51    2.52  -2
  -4  -9   9    7.51    2.52   1
   4   9  12   76.21    6.46  -2
  -4  -9  10   76.21    6.46   1
   4   9  13   22.56    3.70  -2
  -4  -9  11   22.56    3.70   1
   4   9  14    7.90    2.92  -2
  -4  -9  12    7.90    2.92   1
   4   8 -15    5.81    5.11  -2
  -4  -8 -17    5.81    5.11   1
   4   8 -14  128.82    9.76  -2
  -4  -8 -16  128.82    9.76   1
   4   8 -13    0.71    3.01  -2
  -4  -8 -15    0.71    3.01   1
   4   8 -12   95.45    7.23  -2
  -4  -8 -14   95.45    7.23   1
   4   8 -11   27.67    4.10  -2
  -4  -8 -13   27.67    4.10   1
   4   8 -10   -1.80    3.30  -2
  -4  -8 -12   -1.80    3.30   1
   4   8  -9   36.84    4.01  -2
  -4  -8 -11   36.84    4.01   1
   4   8  -8  120.56    7.91  -2
  -4  -8 -10  120.56    7.91   1
   4   8  -7    1.90    2.10  -2
  -4  -8  -9    1.90    2.10   1
   4   8  -6  231.65   11.26  -2
  -4  -8  -8  231.65   11.26   1
   4   8  -5   10.18    2.81  -2
  -4  -8  -7   10.18    2.81   1
   4   8  -4   78.85    5.33  -2
  -4  -8  -6   78.85    5.33   1
   4   8  -3   33.76    3.83  -2
  -4  -8  -5   33.76    3.83   1
   4   8  -2   51.84    4.46  -2
  -4  -8  -4   51.84    4.46   1
   4   8  -1   26.63    3.72  -2
  -4  -8  -3   26.63    3.72   1
   4   8   0  394.02   15.88  -2
  -4  -8  -2  394.02   15.88   1
   4   8   1    5.90    2.09  -2
  -4  -8  -1    5.90    2.09   1
   4   8   2  336.72   13.21  -2
  -4  -8   0  336.72   13.21   1
   4   8   3   24.01    3.23  -2
  -4  -8   1   24.01    3.23   1
   4   8   4   21.81    2.62  -2
  -4  -8   2   21.81    2.62   1
   4   8   5   24.80    3.19  -2
  -4  -8   3   24.80    3.19   1
   4   8   6  138.77    7.30  -2
  -4  -8   4  138.77    7.30   1
   4   8   7    1.21    1.72  -2
  -4  -8   5    1.21    1.72   1
   4   8   8  239.94   10.84  -2
  -4  -8   6  239.94   10.84   1
   4   8   9    1.69    2.60  -2
  -4  -8   7    1.69    2.60   1
   4   8  10   79.03    5.87  -2
  -4  -8   8   79.03    5.87   1
   4   8  11   15.76    3.02  -2
  -4  -8   9   15.76    3.02   1
   4   8  12   12.32    2.39  -2
  -4  -8  10   12.32    2.39   1
   4   8  13    4.00    2.20  -2
  -4  -8  11    4.00    2.20   1
   4   8  14  131.10    9.62  -2
  -4  -8  12  131.10    9.62   1
   4   8  15    6.81    3.29  -2
  -4  -8  13    6.81    3.29   1
   4   8  16  124.32    9.37  -2
  -4  -8  14  124.32    9.37   1
  -4  -7 -19    0.79    2.08   1
  -4  -7 -18   37.70    2.95   1
  -4  -7 -17   78.68    3.90   1
  -4  -7 -16    8.88    2.21   1
  -4  -7 -15  146.89    5.58   1
  -4  -7 -14   23.81    2.24   1
  -4  -7 -13   47.47    2.62   1
  -4  -7 -12  117.07    3.90   1
  -4  -7 -11   44.89    2.28   1
  -4  -7 -10   68.23    2.81   1
  -4  -7  -9  452.84   10.21   1
  -4  -7  -8    7.02    1.33   1
  -4  -7  -7  282.24    6.72   1
  -4  -7  -6  184.42    4.89   1
  -4  -7  -5    4.08    1.01   1
  -4  -7  -4  164.35    4.10   1
  -4  -7  -3  173.45    4.48   1
  -4  -7  -2   18.84    1.22   1
  -4  -7  -1  441.00    9.24   1
  -4  -7   0   31.14    1.45   1
  -4  -7   1  118.37    3.92   1
  -4  -7   2  188.79    7.42   1
  -4  -7   3   12.39    2.11   1
  -4  -7   4  170.04    6.78   1
  -4  -7   5  271.26   11.53   1
  -4  -7   6    2.99    1.70   1
  -4  -7   7  372.49   15.44   1
  -4  -7   8  110.25    6.72   1
  -4  -7   9   17.89    3.21   1
  -4  -7  10  155.50    7.98   1
  -4  -7  11   48.16    3.75   1
  -4  -7  12   32.15    3.74   1
  -4  -7  13   88.74    7.54   1
  -4  -7  14   15.68    3.33   1
  -4  -7  15   43.82    5.03   1
  -4  -6 -20    0.90    3.00   1
  -4  -6 -19  128.37    5.89   1
  -4  -6 -18    3.80    2.18   1
  -4  -6 -17   38.94    2.87   1
  -4  -6 -16    0.71    1.31   1
  -4  -6 -15    9.99    1.71   1
  -4  -6 -14    9.18    1.58   1
  -4  -6 -13  348.57    8.59   1
  -4  -6 -12   11.29    1.68   1
  -4  -6 -11  345.22    8.55   1
  -4  -6 -10   -0.40    0.89   1
  -4  -6  -9   21.81    1.59   1
  -4  -6  -8    4.80    1.10   1
  -4  -6  -7  108.78    2.92   1
  -4  -6  -6   43.96    1.86   1
  -4  -6  -5  759.55   14.88   1
  -4  -6  -4    4.80    0.70   1
  -4  -6  -3  534.07    9.24   1
  -4  -6  -2    1.30    0.50   1
  -4  -6  -1   -0.40    0.50   1
  -4  -6   0   -0.20    0.50   1
  -4  -6   1  536.85   10.19   1
  -4  -6   2    4.49    0.68   1
  -4  -6   3  749.66   12.59   1
  -4  -6   4   28.84    1.29   1
  -4  -6   5  101.00    2.41   1
  -4  -6   6    0.20    0.60   1
  -4  -6   7   26.83    1.45   1
  -4  -6   8    6.00    1.81   1
  -4  -6   9  329.42   13.79   1
  -4  -6  10   13.40    3.22   1
  -4  -6  11  329.42   14.16   1
  -4  -6  12   27.14    2.92   1
  -4  -6  13   11.02    2.32   1
  -4  -6  14    6.00    2.30   1
  -4  -6  15   27.46    4.30   1
  -4  -6  16   -3.69    3.30   1
  -4  -6  17  128.37    8.84   1
  -4  -5 -21   26.63    4.02   1
  -4  -5 -20   31.81    3.27   1
  -4  -5 -19    0.71    2.30   1
  -4  -5 -18   72.42    3.57   1
  -4  -5 -17  138.06    4.93   1
  -4  -5 -16    1.39    1.49   1
  -4  -5 -15  100.00    3.40   1
  -4  -5 -14  104.45    3.88   1
  -4  -5 -13    0.71    0.91   1
  -4  -5 -12  217.86    5.90   1
  -4  -5 -11   13.40    1.32   1
  -4  -5 -10  216.97    5.01   1
  -4  -5  -9  231.04    5.47   1
  -4  -5  -8    5.52    1.08   1
  -4  -5  -7  374.04    6.58   1
  -4  -5  -6  374.42    8.13   1
  -4  -5  -5   25.91    1.32   1
  -4  -5  -4  465.70    8.63   1
  -4  -5  -3  154.26    3.48   1
  -4  -5  -2  133.63    3.24   1
  -4  -5  -1  499.52    9.39   1
  -4  -5   0   87.98    2.44   1
  -4  -5   1  196.56    4.21   1
  -4  -5   2  398.80    7.99   1
  -4  -5   3   10.89    0.92   1
  -4  -5   4  335.99    6.23   1
  -4  -5   5  368.64    6.91   1
  -4  -5   6   21.16    1.10   1
  -4  -5   7  327.97    6.16   1
  -4  -5   8  144.96    3.37   1
  -4  -5   9   18.58    1.21   1
  -4  -5  10  144.72    3.85   1
  -4  -5  11    1.99    0.90   1
  -4  -5  12   69.22    4.83   1
  -4  -5  13  116.64    6.48   1
  -4  -5  14    3.80    1.99   1
  -4  -5  15  196.56    9.81   1
  -4  -5  16   26.42    3.80   1
  -4  -5  17    0.20    3.32   1
  -4  -5  18   23.91    3.91   1
  -4  -5  19   28.09    5.41   1
  -4  -4 -22   83.36    6.03   1
  -4  -4 -21   -1.59    2.80   1
  -4  -4 -20   13.32    2.99   1
  -4  -4 -19    4.00    2.72   1
  -4  -4 -18   39.69    3.40   1
  -4  -4 -17   -0.50    1.31   1
  -4  -4 -16  207.94    5.77   1
  -4  -4 -15    1.10    0.90   1
  -4  -4 -14  457.10   10.69   1
  -4  -4 -13   20.34    1.53   1
  -4  -4 -12   -1.10    0.69   1
  -4  -4 -11    1.39    0.80   1
  -4  -4 -10  794.68   15.22   1
  -4  -4  -9    8.18    1.32   1
  -4  -4  -8 1092.30   19.17   1
  -4  -4  -7    5.90    1.31   1
  -4  -4  -6  509.40    9.48   1
  -4  -4  -5   25.50    1.31   1
  -4  -4  -4   48.30    1.67   1
  -4  -4  -3   10.89    0.92   1
  -4  -4  -2  809.97   14.80   1
  -4  -4  -1    3.61    0.68   1
  -4  -4   0  886.25   15.48   1
  -4  -4   1    9.80    1.00   1
  -4  -4   2  158.76    3.78   1
  -4  -4   3   41.47    1.55   1
  -4  -4   4  298.25    5.53   1
  -4  -4   5    9.67    0.81   1
  -4  -4   6  961.00   14.88   1
  -4  -4   7    2.40    0.71   1
  -4  -4   8  871.43   15.94   1
  -4  -4   9    9.30    1.10   1
  -4  -4  10   34.46    1.53   1
  -4  -4  11   44.76    1.74   1
  -4  -4  12  350.06    8.23   1
  -4  -4  13    7.90    1.29   1
  -4  -4  14  222.90    6.27   1
  -4  -4  15    1.90    2.59   1
  -4  -4  16   41.60    4.00   1
  -4  -4  17   20.16    3.05   1
  -4  -4  18   -0.10    3.44   1
  -4  -4  19   13.99    3.22   1
  -4  -4  20   64.32    6.58   1
  -4  -3 -22    7.78    3.07   1
  -4  -3 -21   25.60    3.44   1
  -4  -3 -20   72.59    4.26   1
  -4  -3 -19    0.90    1.71   1
  -4  -3 -18  125.66    5.38   1
  -4  -3 -17   51.55    3.45   1
  -4  -3 -16    3.50    1.31   1
  -4  -3 -15   88.36    3.01   1
  -4  -3 -14  168.48    4.67   1
  -4  -3 -13   27.77    1.90   1
  -4  -3 -12  460.53    9.87   1
  -4  -3 -11    0.59    0.29   1
  -4  -3 -10  464.40    9.05   1
  -4  -3  -9   40.20    2.03   1
  -4  -3  -8   15.29    1.02   1
  -4  -3  -7  189.06    4.40   1
  -4  -3  -6  697.49   13.20   1
  -4  -3  -5   75.34    3.12   1
  -4  -3  -4  751.31   13.70   1
  -4  -3  -3  104.65    3.07   1
  -4  -3  -2  334.16    6.95   1
  -4  -3  -1  343.73    6.67   1
  -4  -3   0  118.59    3.05   1
  -4  -3   1  192.93    4.17   1
  -4  -3   2  717.17   13.39   1
  -4  -3   3   45.16    3.63   1
  -4  -3   4  832.90   13.28   1
  -4  -3   5  160.28    3.80   1
  -4  -3   6  169.78    3.91   1
  -4  -3   7   36.00    1.44   1
  -4  -3   8  296.87    6.55   1
  -4  -3   9    1.99    0.70   1
  -4  -3  10  526.70   10.10   1
  -4  -3  11    6.81    1.62   1
  -4  -3  12  291.73    6.83   1
  -4  -3  13   26.42    1.95   1
  -4  -3  14    5.20    1.32   1
  -4  -3  15   39.31    2.26   1
  -4  -3  16  135.02    4.18   1
  -4  -3  17    4.49    1.78   1
  -4  -3  18  122.99    8.21   1
  -4  -3  19   -0.40    3.39   1
  -4  -3  20   30.25    4.29   1
  -4  -3  21    8.88    4.17   1
  -4  -2 -22   11.90    3.17   1
  -4  -2 -21   28.62    3.64   1
  -4  -2 -20    3.10    1.80   1
  -4  -2 -19  192.10    7.48   1
  -4  -2 -18   15.92    2.71   1
  -4  -2 -17  139.71    5.91   1
  -4  -2 -16   17.39    1.83   1
  -4  -2 -15    7.29    1.40   1
  -4  -2 -14   13.10    1.30   1
  -4  -2 -13  265.36    5.21   1
  -4  -2 -12   32.38    1.71   1
  -4  -2 -11  410.87    7.30   1
  -4  -2 -10   96.83    2.56   1
  -4  -2  -9  151.54    3.69   1
  -4  -2  -8   68.23    2.15   1
  -4  -2  -7   54.76    1.92   1
  -4  -2  -6  154.26    3.48   1
  -4  -2  -5  732.24   12.99   1
  -4  -2  -4   46.24    3.26   1
  -4  -2  -3  671.33   12.44   1
  -4  -2  -2   83.72    2.74   1
  -4  -2  -1   34.46    1.29   1
  -4  -2   0   59.44    1.70   1
  -4  -2   1  353.82    6.77   1
  -4  -2   2   35.05    1.54   1
  -4  -2   3  808.83   13.08   1
  -4  -2   4  108.99    2.92   1
  -4  -2   5  262.44    5.51   1
  -4  -2   6  140.90    3.32   1
  -4  -2   7   21.90    1.31   1
  -4  -2   8  121.44    3.31   1
  -4  -2   9  254.08    5.42   1
  -4  -2  10   87.42    3.18   1
  -4  -2  11  307.65    7.02   1
  -4  -2  12   17.81    1.77   1
  -4  -2  13   62.57    2.53   1
  -4  -2  14   53.58    2.34   1
  -4  -2  15   23.14    1.83   1
  -4  -2  16   38.56    2.48   1
  -4  -2  17  157.00    4.76   1
  -4  -2  18    3.61    2.01   1
  -4  -2  19   78.15    3.54   1
  -4  -2  20   27.35    4.60   1
  -4  -2  21   -4.00    4.00   1
   4   1 -21    8.41    2.09  -2
  -4  -1 -22    8.41    2.09   1
   4   1 -20   81.36    4.87  -2
  -4  -1 -21   81.36    4.87   1
   4   1 -19   25.00    2.60  -2
  -4  -1 -20   25.00    2.60   1
   4   1 -18   -1.30    1.39  -2
  -4  -1 -19   -1.30    1.39   1
   4   1 -17   23.52    2.33  -2
  -4  -1 -18   23.52    2.33   1
   4   1 -16  121.00    5.28  -2
  -4  -1 -17  121.00    5.28   1
   4   1 -15   52.27    2.60  -2
  -4  -1 -16   52.27    2.60   1
   4   1 -14  381.03    9.37  -2
  -4  -1 -15  381.03    9.37   1
   4   1 -13   20.43    1.54  -2
  -4  -1 -14   20.43    1.54   1
   4   1 -12  183.87    4.61  -2
  -4  -1 -13  183.87    4.61   1
   4   1 -11  119.90    2.85  -2
  -4  -1 -12  119.90    2.85   1
   4   1 -10   19.36    0.88  -2
  -4  -1 -11   19.36    0.88   1
   4   1  -9  100.00    2.20  -2
  -4  -1 -10  100.00    2.20   1
   4   1  -8  544.29   10.27  -2
  -4  -1  -9  544.29   10.27   1
   4   1  -7   49.98    1.98  -2
  -4  -1  -8   49.98    1.98   1
   4   1  -6  597.31   11.24  -2
  -4  -1  -7  597.31   11.24   1
   4   1  -5   61.31    2.04  -2
  -4  -1  -6   61.31    2.04   1
   4   1  -4   54.61    1.77  -2
  -4  -1  -5   54.61    1.77   1
   4   1  -3  185.78    3.82  -2
  -4  -1  -4  185.78    3.82   1
   4   1  -2  251.22    5.07  -2
  -4  -1  -3  251.22    5.07   1
   4   1  -1  129.28    3.18  -2
  -4  -1  -2  129.28    3.18   1
   4   1   0  924.16   16.42  -2
  -4  -1  -1  924.16   16.42   1
   4   1   1   78.85    2.66  -2
  -4  -1   0   78.85    2.66   1
   4   1   2  679.64   12.51  -2
  -4  -1   1  679.64   12.51   1
   4   1   3  158.00    3.27  -2
  -4  -1   2  158.00    3.27   1
   4   1   4   31.14    1.23  -2
  -4  -1   3   31.14    1.23   1
   4   1   5   74.48    2.24  -2
  -4  -1   4   74.48    2.24   1
   4   1   6  291.73    6.15  -2
  -4  -1   5  291.73    6.15   1
   4   1   7   44.62    1.87  -2
  -4  -1   6   44.62    1.87   1
   4   1   8  727.38   13.48  -2
  -4  -1   7  727.38   13.48   1
   4   1   9   42.64    1.96  -2
  -4  -1   8   42.64    1.96   1
   4   1  10  212.58    4.67  -2
  -4  -1   9  212.58    4.67   1
   4   1  11   74.82    2.42  -2
  -4  -1  10   74.82    2.42   1
   4   1  12   46.10    2.04  -2
  -4  -1  11   46.10    2.04   1
   4   1  13   16.89    1.48  -2
  -4  -1  12   16.89    1.48   1
   4   1  14  334.16    8.41  -2
  -4  -1  13  334.16    8.41   1
   4   1  15   46.65    2.46  -2
  -4  -1  14   46.65    2.46   1
   4   1  16  280.23    7.03  -2
  -4  -1  15  280.23    7.03   1
   4   1  17    7.67    1.72  -2
  -4  -1  16    7.67    1.72   1
   4   1  18   30.47    1.99  -2
  -4  -1  17   30.47    1.99   1
   4   1  19    5.11    1.90  -2
  -4  -1  18    5.11    1.90   1
   4   1  20   37.21    2.68  -2
  -4  -1  19   37.21    2.68   1
   4   1  21    4.58    2.01  -2
  -4  -1  20    4.58    2.01   1
   4   1  22   94.28    4.66  -2
  -4  -1  21   94.28    4.66   1
   4   0 -21   57.15    4.84  -2
  -4   0 -22   57.15    4.84   1
   4   0 -20   17.64    2.69  -2
  -4   0 -21   17.64    2.69   1
   4   0 -19   25.20    2.71  -2
  -4   0 -20   25.20    2.71   1
   4   0 -18   61.94    3.62  -2
  -4   0 -19   61.94    3.62   1
   4   0 -17   21.62    2.14  -2
  -4   0 -18   21.62    2.14   1
   4   0 -16   34.46    2.82  -2
  -4   0 -17   34.46    2.82   1
   4   0 -15  203.63    5.99  -2
  -4   0 -16  203.63    5.99   1
   4   0 -14   11.49    1.29  -2
  -4   0 -15   11.49    1.29   1
   4   0 -13  241.18    5.59  -2
  -4   0 -14  241.18    5.59   1
   4   0 -12  100.20    2.60  -2
  -4   0 -13  100.20    2.60   1
   4   0 -11   74.30    2.41  -2
  -4   0 -12   74.30    2.41   1
   4   0 -10  219.04    4.44  -2
  -4   0 -11  219.04    4.44   1
   4   0  -9   68.23    1.65  -2
  -4   0 -10   68.23    1.65   1
   4   0  -8   33.76    1.63  -2
  -4   0  -9   33.76    1.63   1
   4   0  -7  451.99    8.50  -2
  -4   0  -8  451.99    8.50   1
   4   0  -6   65.61    2.27  -2
  -4   0  -7   65.61    2.27   1
   4   0  -5  338.93    6.63  -2
  -4   0  -6  338.93    6.63   1
   4   0  -4  166.41    3.61  -2
  -4   0  -5  166.41    3.61   1
   4   0  -3   37.45    1.35  -2
  -4   0  -4   37.45    1.35   1
   4   0  -2  291.04    5.80  -2
  -4   0  -3  291.04    5.80   1
   4   0  -1  552.72    9.87  -2
  -4   0  -2  552.72    9.87   1
   4   0   0   77.97    2.83  -2
  -4   0  -1   77.97    2.83   1
   4   0   1  732.24   13.53  -2
  -4   0   0  732.24   13.53   1
   4   0   2  191.27    3.87  -2
  -4   0   1  191.27    3.87   1
   4   0   3  330.15    6.18  -2
  -4   0   2  330.15    6.18   1
   4   0   4  265.04    5.54  -2
  -4   0   3  265.04    5.54   1
   4   0   5   32.04    1.47  -2
  -4   0   4   32.04    1.47   1
   4   0   6  155.25    3.99  -2
  -4   0   5  155.25    3.99   1
   4   0   7  396.01    7.56  -2
  -4   0   6  396.01    7.56   1
   4   0   8   29.16    1.94  -2
  -4   0   7   29.16    1.94   1
   4   0   9  219.93    5.04  -2
  -4   0   8  219.93    5.04   1
   4   0  10  143.04    3.83  -2
  -4   0   9  143.04    3.83   1
   4   0  11   11.70    1.37  -2
  -4   0  10   11.70    1.37   1
   4   0  12  278.56    6.34  -2
  -4   0  11  278.56    6.34   1
   4   0  13   92.54    3.27  -2
  -4   0  12   92.54    3.27   1
   4   0  14   47.06    2.47  -2
  -4   0  13   47.06    2.47   1
   4   0  15  204.78    5.72  -2
  -4   0  14  204.78    5.72   1
   4   0  16   24.40    2.07  -2
  -4   0  15   24.40    2.07   1
   4   0  17   90.06    3.80  -2
  -4   0  16   90.06    3.80   1
   4   0  18   79.57    3.39  -2
  -4   0  17   79.57    3.39   1
   4   0  19    1.99    2.00  -2
  -4   0  18    1.99    2.00   1
   4   0  20   77.44    3.87  -2
  -4   0  19   77.44    3.87   1
   4   0  21   26.83    2.49  -2
  -4   0  20   26.83    2.49   1
   4   0  22    1.39    2.38  -2
  -4   0  21    1.39    2.38   1
  -4   1 -21    1.80    2.49   1
  -4   1 -20   72.08    5.09   1
  -4   1 -19   -0.20    2.11   1
  -4   1 -18  148.60    6.09   1
  -4   1 -17    0.79    1.39   1
  -4   1 -16   60.53    2.33   1
  -4   1 -15    6.71    1.19   1
  -4   1 -14   57.46    1.97   1
  -4   1 -13   13.18    1.52   1
  -4   1 -12  304.15    6.28   1
  -4   1 -11    6.00    0.98   1
  -4   1 -10  307.30    6.31   1
  -4   1  -9   33.52    1.51   1
  -4   1  -8   15.37    1.02   1
  -4   1  -7   18.66    1.12   1
  -4   1  -6  345.59    5.95   1
  -4   1  -5   51.84    3.17   1
  -4   1  -4  624.50   11.50   1
  -4   1  -3   26.94    2.18   1
  -4   1  -2  222.90    4.78   1
  -4   1  -1   56.70    1.96   1
  -4   1   0    4.71    0.69   1
  -4   1   1   16.48    1.38   1
  -4   1   2  334.89    6.22   1
  -4   1   3   17.14    1.41   1
  -4   1   4  639.08   12.13   1
  -4   1   5    9.49    1.60   1
  -4   1   6  165.38    4.37   1
  -4   1   7    4.41    1.01   1
  -4   1   8   75.17    2.60   1
  -4   1   9   13.91    1.79   1
  -4   1  10  305.55    6.99   1
  -4   1  11    5.02    1.30   1
  -4   1  12  249.64    5.69   1
  -4   1  13    1.21    1.30   1
  -4   1  14   10.18    1.60   1
  -4   1  15    3.10    1.51   1
  -4   1  16  101.81    4.04   1
  -4   1  17    3.80    1.40   1
  -4   1  18  132.02    5.29   1
  -4   1  19    5.29    2.99   1
  -4   1  20   39.19    3.76   1
  -4   2 -20    5.02    1.79   1
  -4   2 -19  116.21    6.04   1
  -4   2 -18   12.39    2.39   1
  -4   2 -17   40.45    2.29   1
  -4   2 -16   91.01    3.24   1
  -4   2 -15    0.00    1.00   1
  -4   2 -14  126.11    3.59   1
  -4   2 -13   95.26    2.73   1
  -4   2 -12   15.37    1.18   1
  -4   2 -11  256.96    5.45   1
  -4   2 -10   68.56    2.48   1
  -4   2  -9   87.24    3.18   1
  -4   2  -8  145.68    3.86   1
  -4   2  -7    7.40    0.98   1
  -4   2  -6   62.88    2.22   1
  -4   2  -5  378.69    6.62   1
  -4   2  -4    3.10    0.60   1
  -4   2  -3  518.47    7.74   1
  -4   2  -2  201.64    3.41   1
  -4   2  -1   63.52    2.07   1
  -4   2   0  365.19    6.50   1
  -4   2   1  115.99    2.58   1
  -4   2   2  154.75    3.48   1
  -4   2   3  512.57    9.96   1
  -4   2   4    1.30    0.80   1
  -4   2   5  191.27    4.43   1
  -4   2   6   94.28    2.52   1
  -4   2   7    0.79    0.80   1
  -4   2   8  204.20    4.57   1
  -4   2   9   81.54    2.53   1
  -4   2  10   47.61    1.93   1
  -4   2  11  176.62    4.52   1
  -4   2  12   56.25    2.25   1
  -4   2  13   47.06    2.47   1
  -4   2  14  157.25    5.02   1
  -4   2  15   -1.00    2.20   1
  -4   2  16   85.75    4.63   1
  -4   2  17   43.96    3.45   1
  -4   2  18    2.50    1.99   1
  -4   2  19   59.75    4.79   1
  -4   3 -19    3.10    2.29   1
  -4   3 -18    2.99    1.49   1
  -4   3 -17   61.78    3.77   1
  -4   3 -16    1.90    1.21   1
  -4   3 -15  229.52    6.06   1
  -4   3 -14    6.60    1.08   1
  -4   3 -13   69.56    2.34   1
  -4   3 -12   -0.30    0.90   1
  -4   3 -11    4.28    1.20   1
  -4   3 -10   -0.40    1.00   1
  -4   3  -9  280.56    6.70   1
  -4   3  -8    2.19    0.71   1
  -4   3  -7  499.52   11.18   1
  -4   3  -6    2.40    0.81   1
  -4   3  -5  123.21    3.33   1
  -4   3  -4    8.58    0.88   1
  -4   3  -3   21.81    1.21   1
  -4   3  -2   10.82    1.12   1
  -4   3  -1  618.02   10.94   1
  -4   3   0    1.39    1.20   1
  -4   3   1  484.44    9.24   1
  -4   3   2   22.00    1.31   1
  -4   3   3   11.09    1.00   1
  -4   3   4   15.37    1.33   1
  -4   3   5  134.10    3.71   1
  -4   3   6    2.79    0.80   1
  -4   3   7  524.87   12.37   1
  -4   3   8    0.79    0.80   1
  -4   3   9  222.01    5.96   1
  -4   3  10    2.31    0.91   1
  -4   3  11    1.21    0.90   1
  -4   3  12    7.62    2.21   1
  -4   3  13   75.17    4.34   1
  -4   3  14    6.30    1.91   1
  -4   3  15  211.12    9.01   1
  -4   3  16    3.61    2.01   1
  -4   3  17   38.19    3.96   1
  -4   3  18   21.81    3.74   1
  -4   4 -17   31.25    4.70   1
  -4   4 -16   11.42    2.50   1
  -4   4 -15    1.21    1.41   1
  -4   4 -14   42.64    2.22   1
  -4   4 -13   80.10    3.76   1
  -4   4 -12   21.44    1.67   1
  -4   4 -11  182.25    5.13   1
  -4   4 -10   14.90    1.24   1
  -4   4  -9   36.00    2.04   1
  -4   4  -8  112.36    3.60   1
  -4   4  -7   10.63    1.17   1
  -4   4  -6  100.20    3.40   1
  -4   4  -5  262.44    6.48   1
  -4   4  -4    1.99    0.70   1
  -4   4  -3  173.19    4.74   1
  -4   4  -2   21.34    1.39   1
  -4   4  -1    7.02    1.11   1
  -4   4   0   15.60    1.26   1
  -4   4   1    0.30    0.70   1
  -4   4   2   37.95    2.09   1
  -4   4   3  205.06    6.01   1
  -4   4   4    1.69    1.20   1
  -4   4   5  257.28    6.74   1
  -4   4   6   78.32    3.01   1
  -4   4   7    9.67    1.49   1
  -4   4   8   74.82    3.11   1
  -4   4   9   48.16    2.36   1
  -4   4  10   10.89    1.78   1
  -4   4  11  234.09    9.79   1
  -4   4  12    4.80    2.41   1
  -4   4  13   78.15    4.77   1
  -4   4  14   13.40    2.27   1
  -4   4  15    1.59    2.09   1
  -4   4  16    2.31    2.22   1
  -4   5 -14    3.20    5.30   1
  -4   5 -13   -3.31    4.51   1
  -4   5 -12  107.54    9.96   1
  -4   5 -11    3.61    3.31   1
  -4   5 -10  150.80   11.54   1
  -4   5  -9   36.00    5.52   1
  -4   5  -8   15.60    1.26   1
  -4   5  -7   29.38    1.73   1
  -4   5  -6   38.81    1.99   1
  -4   5  -5    2.59    1.00   1
  -4   5  -4  144.48    4.57   1
  -4   5  -3    0.79    1.00   1
  -4   5  -2  242.42    6.54   1
  -4   5  -1    2.40    1.12   1
  -4   5   0    0.79    1.09   1
  -4   5   1    5.71    1.10   1
  -4   5   2  183.33    5.42   1
  -4   5   3    7.78    1.51   1
  -4   5   4  118.16    4.57   1
  -4   5   5    1.69    1.40   1
  -4   5   6   58.83    2.76   1
  -4   5   7   51.27    2.58   1
  -4   5   8    3.88    1.38   1
  -4   5   9   45.56    2.57   1
  -4   5  10  113.64    5.76   1
  -4   5  11    4.49    1.78   1
  -4   5  12  115.99    6.03   1
  -4   5  13    2.99    1.90   1
  -4   5  14    9.80    2.50   1
   4  -6 -11    7.18    5.47  -2
  -4   6 -11    7.18    5.47   1
   4  -6 -10   21.34    5.17  -2
  -4   6 -10   21.34    5.17   1
   4  -6  -8   84.82    8.29  -2
  -4   6  -8   84.82    8.29   1
   4  -6  -7    3.10    3.80  -2
  -4   6  -7    3.10    3.80   1
   4  -6  -6  154.75   11.94  -2
  -4   6  -6  154.75   11.94   1
   4  -6  -5   19.01    3.84  -2
  -4   6  -5   19.01    3.84   1
   4  -6  -4   21.34    4.62  -2
  -4   6  -4   21.34    4.62   1
   4  -6  -3    8.88    4.71  -2
  -4   6  -3    8.88    4.71   1
   4  -6  -2   47.89    5.54  -2
  -4   6  -2   47.89    5.54   1
   4  -6  -1    2.10    1.19  -2
  -4   6  -1    2.10    1.19   1
   4  -6   0  114.06    4.49  -2
  -4   6   0  114.06    4.49   1
   4  -6   1    1.00    1.40  -2
  -4   6   1    1.00    1.40   1
   4  -6   2  101.81    4.24  -2
  -4   6   2  101.81    4.24   1
   4  -6   3   10.37    1.80  -2
  -4   6   3   10.37    1.80   1
   4  -6   4    9.12    1.69  -2
  -4   6   4    9.12    1.69   1
   4  -6   5   15.60    1.74  -2
  -4   6   5   15.60    1.74   1
   4  -6   6  124.32    4.91  -2
  -4   6   6  124.32    4.91   1
   4  -6   7   -1.49    1.39  -2
  -4   6   7   -1.49    1.39   1
   4  -6   8   96.63    4.52  -2
  -4   6   8   96.63    4.52   1
   4  -6   9   15.37    2.51  -2
  -4   6   9   15.37    2.51   1
   4  -6  10   45.56    3.91  -2
  -4   6  10   45.56    3.91   1
   4  -6  11   -0.40    1.99  -2
  -4   6  11   -0.40    1.99   1
   4  -7  -4    5.62    4.79  -2
  -4   7  -4    5.62    4.79   1
   4  -7  -3    5.81    5.11  -2
  -4   7  -3    5.81    5.11   1
   4  -7  -2   24.11    6.09  -2
  -4   7  -2   24.11    6.09   1
   4  -7  -1   28.94    6.35  -2
  -4   7  -1   28.94    6.35   1
   4  -7   0    4.41    4.91  -2
  -4   7   0    4.41    4.91   1
   4  -7   1   38.44    6.94  -2
  -4   7   1   38.44    6.94   1
   4  -7   2   10.30    5.01  -2
  -4   7   2   10.30    5.01   1
   4  -7   3   15.52    4.18  -2
  -4   7   3   15.52    4.18   1
   4  -7   4   12.32    3.79  -2
  -4   7   4   12.32    3.79   1
   4  -7   5    1.00    1.40  -2
  -4   7   5    1.00    1.40   1
   4  -7   6   19.62    2.92  -2
  -4   7   6   19.62    2.92   1
   3  11  -2   15.92    4.23  -2
  -3 -11  -4   15.92    4.23   1
   3  11  -1   56.55    7.37  -2
  -3 -11  -3   56.55    7.37   1
   3  11   0   37.33    4.64  -2
  -3 -11  -2   37.33    4.64   1
   3  11   1    2.79    3.11  -2
  -3 -11  -1    2.79    3.11   1
   3  11   2   18.66    5.53  -2
  -3 -11   0   18.66    5.53   1
   3  11   3   88.17    8.26  -2
  -3 -11   1   88.17    8.26   1
   3  11   4    8.29    3.69  -2
  -3 -11   2    8.29    3.69   1
   3  11   5   65.45    6.47  -2
  -3 -11   3   65.45    6.47   1
   3  10  -9   -0.20    4.12  -2
  -3 -10 -11   -0.20    4.12   1
   3  10  -8   43.56    5.54  -2
  -3 -10 -10   43.56    5.54   1
   3  10  -7    2.59    3.09  -2
  -3 -10  -9    2.59    3.09   1
   3  10  -6   12.18    3.49  -2
  -3 -10  -8   12.18    3.49   1
   3  10  -5   34.46    5.75  -2
  -3 -10  -7   34.46    5.75   1
   3  10  -4  146.41    9.44  -2
  -3 -10  -6  146.41    9.44   1
   3  10  -3    1.10    3.11  -2
  -3 -10  -5    1.10    3.11   1
   3  10  -2  143.76    9.83  -2
  -3 -10  -4  143.76    9.83   1
   3  10  -1   18.06    3.48  -2
  -3 -10  -3   18.06    3.48   1
   3  10   0   12.32    3.23  -2
  -3 -10  -2   12.32    3.23   1
   3  10   1   14.67    3.22  -2
  -3 -10  -1   14.67    3.22   1
   3  10   2   54.46    5.61  -2
  -3 -10   0   54.46    5.61   1
   3  10   3   13.76    4.08  -2
  -3 -10   1   13.76    4.08   1
   3  10   4  174.77   10.31  -2
  -3 -10   2  174.77   10.31   1
   3  10   5   -0.20    3.52  -2
  -3 -10   3   -0.20    3.52   1
   3  10   6   91.01    6.68  -2
  -3 -10   4   91.01    6.68   1
   3  10   7   23.72    4.38  -2
  -3 -10   5   23.72    4.38   1
   3  10   8    2.10    3.80  -2
  -3 -10   6    2.10    3.80   1
   3  10   9    7.08    3.09  -2
  -3 -10   7    7.08    3.09   1
   3  10  10   78.50    6.38  -2
  -3 -10   8   78.50    6.38   1
  -3  -9 -15   18.66    3.97   1
  -3  -9 -14   52.27    6.07   1
  -3  -9 -13   55.65    6.71   1
  -3  -9 -12   -4.08    3.68   1
  -3  -9 -11   22.75    3.82   1
  -3  -9 -10  107.12    8.49   1
  -3  -9  -9    0.00    1.00   1
  -3  -9  -8  195.44   10.62   1
  -3  -9  -7   15.76    3.81   1
  -3  -9  -6   78.68    6.39   1
  -3  -9  -5   91.39    6.69   1
  -3  -9  -4   13.32    2.70   1
  -3  -9  -3   26.63    3.72   1
  -3  -9  -2  172.92    8.42   1
  -3  -9  -1    3.10    2.29   1
  -3  -9   0  135.02    7.67   1
  -3  -9   1   49.56    4.36   1
  -3  -9   2    1.10    2.60   1
  -3  -9   3   71.57    5.41   1
  -3  -9   4  106.09    6.80   1
  -3  -9   5   11.83    3.10   1
  -3  -9   6  179.29    9.37   1
  -3  -9   7    1.39    2.38   1
  -3  -9   8   78.85    5.68   1
  -3  -9   9   13.62    2.73   1
  -3  -9  10    2.40    2.11   1
  -3  -8 -17   93.12    8.88   1
  -3  -8 -16   -1.30    2.80   1
  -3  -8 -15  142.80    9.32   1
  -3  -8 -14    3.88    2.88   1
  -3  -8 -13   17.31    3.49   1
  -3  -8 -12    9.61    3.60   1
  -3  -8 -11   72.08    5.09   1
  -3  -8 -10   29.05    3.88   1
  -3  -8  -9  394.42   17.08   1
  -3  -8  -8    3.39    2.80   1
  -3  -8  -7  257.28   12.51   1
  -3  -8  -6   16.56    2.69   1
  -3  -8  -5   14.52    2.67   1
  -3  -8  -4   74.48    4.66   1
  -3  -8  -3  177.96    8.27   1
  -3  -8  -2   30.03    3.95   1
  -3  -8  -1  607.62   23.66   1
  -3  -8   0   31.81    3.05   1
  -3  -8   1  145.68    7.97   1
  -3  -8   2   96.24    5.69   1
  -3  -8   3   36.12    3.61   1
  -3  -8   4   20.70    2.28   1
  -3  -8   5  295.50   12.72   1
  -3  -8   6    8.29    2.71   1
  -3  -8   7  367.87   17.26   1
  -3  -8   8   42.38    4.04   1
  -3  -8   9   40.45    3.94   1
  -3  -8  10   26.63    2.99   1
  -3  -8  11   15.92    2.63   1
  -3  -8  12    2.99    3.18   1
  -3  -7 -19   69.22    4.83   1
  -3  -7 -18    9.61    2.29   1
  -3  -7 -17   39.06    3.38   1
  -3  -7 -16   28.94    3.01   1
  -3  -7 -15    7.40    2.39   1
  -3  -7 -14   17.64    2.60   1
  -3  -7 -13  278.89    9.02   1
  -3  -7 -12    0.71    1.71   1
  -3  -7 -11  357.59    8.70   1
  -3  -7 -10   26.83    1.76   1
  -3  -7  -9   52.56    2.18   1
  -3  -7  -8   28.41    1.60   1
  -3  -7  -7  183.60    4.61   1
  -3  -7  -6    2.19    0.89   1
  -3  -7  -5  885.66   16.07   1
  -3  -7  -4   45.97    1.76   1
  -3  -7  -3  258.57    5.79   1
  -3  -7  -2   28.84    1.40   1
  -3  -7  -1    0.30    0.51   1
  -3  -7   0   21.34    2.03   1
  -3  -7   1  246.80    7.86   1
  -3  -7   2   28.30    2.45   1
  -3  -7   3  856.73   23.42   1
  -3  -7   4   11.09    1.80   1
  -3  -7   5  183.60    7.05   1
  -3  -7   6   11.70    1.78   1
  -3  -7   7   61.62    4.55   1
  -3  -7   8   12.67    2.49   1
  -3  -7   9  365.57   14.15   1
  -3  -7  10    5.38    2.00   1
  -3  -7  11  306.60   13.31   1
  -3  -7  12    4.41    2.60   1
  -3  -7  13   11.83    2.27   1
  -3  -7  14    5.62    2.18   1
  -3  -6 -21   -0.20    2.21   1
  -3  -6 -20   90.44    5.71   1
  -3  -6 -19    0.30    2.71   1
  -3  -6 -18   71.40    4.73   1
  -3  -6 -17   11.83    2.89   1
  -3  -6 -16    1.90    2.10   1
  -3  -6 -15   53.44    3.51   1
  -3  -6 -14   87.42    4.11   1
  -3  -6 -13   20.98    2.02   1
  -3  -6 -12  300.68    9.36   1
  -3  -6 -11   11.70    1.57   1
  -3  -6 -10  113.21    3.19   1
  -3  -6  -9  302.76    6.61   1
  -3  -6  -8   20.61    1.27   1
  -3  -6  -7  181.71    4.31   1
  -3  -6  -6  229.83    4.85   1
  -3  -6  -5    4.28    0.70   1
  -3  -6  -4  554.13   10.83   1
  -3  -6  -3   58.37    1.83   1
  -3  -6  -2  233.17    4.89   1
  -3  -6  -1  339.66    6.63   1
  -3  -6   0  165.89    3.61   1
  -3  -6   1   93.51    2.13   1
  -3  -6   2  572.64   10.53   1
  -3  -6   3    5.20    0.59   1
  -3  -6   4  199.94    4.24   1
  -3  -6   5  157.00    3.26   1
  -3  -6   6   17.14    0.91   1
  -3  -6   7  402.80   10.03   1
  -3  -6   8   70.22    3.69   1
  -3  -6   9   35.28    2.49   1
  -3  -6  10  216.38    9.12   1
  -3  -6  11   36.24    3.25   1
  -3  -6  12   77.44    5.10   1
  -3  -6  13  109.62    5.86   1
  -3  -6  14    0.50    1.60   1
  -3  -6  15   43.69    3.83   1
  -3  -5 -22   88.55    6.02   1
  -3  -5 -21    2.89    2.99   1
  -3  -5 -20   13.91    2.54   1
  -3  -5 -19    9.92    2.39   1
  -3  -5 -18  106.71    4.96   1
  -3  -5 -17   32.60    2.86   1
  -3  -5 -16  317.55    9.98   1
  -3  -5 -15    1.59    1.39   1
  -3  -5 -14  223.50    7.18   1
  -3  -5 -13    6.10    1.68   1
  -3  -5 -12    9.80    1.31   1
  -3  -5 -11   11.97    1.52   1
  -3  -5 -10  181.71    4.58   1
  -3  -5  -9   11.70    1.03   1
  -3  -5  -8  674.44   11.43   1
  -3  -5  -7   32.83    1.15   1
  -3  -5  -6  536.39    9.26   1
  -3  -5  -5    6.20    0.80   1
  -3  -5  -4   84.09    2.02   1
  -3  -5  -3    3.39    0.59   1
  -3  -5  -2 1318.42   22.51   1
  -3  -5  -1   11.63    1.02   1
  -3  -5   0 1480.71   24.63   1
  -3  -5   1    4.88    0.71   1
  -3  -5   2  260.18    4.84   1
  -3  -5   3    1.80    0.40   1
  -3  -5   4  325.44    6.13   1
  -3  -5   5   20.70    1.00   1
  -3  -5   6  748.57   12.04   1
  -3  -5   7    4.41    0.71   1
  -3  -5   8  252.49    4.77   1
  -3  -5   9    1.90    0.61   1
  -3  -5  10   -0.50    0.60   1
  -3  -5  11    1.30    1.30   1
  -3  -5  12  177.96    8.27   1
  -3  -5  13    4.58    2.18   1
  -3  -5  14  328.70   15.23   1
  -3  -5  15   11.83    3.03   1
  -3  -5  16  147.14    8.01   1
  -3  -5  17    0.79    2.58   1
  -3  -4 -23   44.62    4.54   1
  -3  -4 -22    5.20    3.19   1
  -3  -4 -21   31.81    3.38   1
  -3  -4 -20   33.64    2.90   1
  -3  -4 -19    1.30    1.71   1
  -3  -4 -18  107.54    4.77   1
  -3  -4 -17   51.55    3.45   1
  -3  -4 -16   41.86    2.98   1
  -3  -4 -15  239.01    8.04   1
  -3  -4 -14   76.04    4.01   1
  -3  -4 -13  201.92    6.25   1
  -3  -4 -12  279.56    7.36   1
  -3  -4 -11   39.06    2.50   1
  -3  -4 -10  321.48    6.81   1
  -3  -4  -9  362.14    7.99   1
  -3  -4  -8    1.90    0.61   1
  -3  -4  -7  336.72    5.87   1
  -3  -4  -6  482.68    7.91   1
  -3  -4  -5   21.07    2.30   1
  -3  -4  -4  849.72   13.41   1
  -3  -4  -3  306.95    6.66   1
  -3  -4  -2  447.32    7.19   1
  -3  -4  -1  386.91    7.47   1
  -3  -4   0  150.80    3.44   1
  -3  -4   1  340.03    6.64   1
  -3  -4   2  864.95   15.29   1
  -3  -4   3   16.81    0.98   1
  -3  -4   4  662.55   10.81   1
  -3  -4   5  207.94    4.04   1
  -3  -4   6   62.57    1.74   1
  -3  -4   7  284.60    5.74   1
  -3  -4   8  272.58    5.28   1
  -3  -4   9  110.04    2.94   1
  -3  -4  10  409.66    8.10   1
  -3  -4  11   85.75    2.78   1
  -3  -4  12  176.89    4.26   1
  -3  -4  13  227.10    5.73   1
  -3  -4  14    9.42    1.47   1
  -3  -4  15   50.98    3.86   1
  -3  -4  16  170.04    9.13   1
  -3  -4  17    2.40    1.80   1
  -3  -4  18   95.06    6.44   1
  -3  -4  19    8.70    2.71   1
   3   3 -22   -1.49    2.68  -2
  -3  -3 -23   -1.49    2.68   1
   3   3 -21    6.00    2.20  -2
  -3  -3 -22    6.00    2.20   1
   3   3 -20   54.02    3.67  -2
  -3  -3 -21   54.02    3.67   1
   3   3 -19    8.88    2.50  -2
  -3  -3 -20    8.88    2.50   1
   3   3 -18  198.53    7.89  -2
  -3  -3 -19  198.53    7.89   1
   3   3 -17    7.29    2.38  -2
  -3  -3 -18    7.29    2.38   1
   3   3 -16  115.99    5.39  -2
  -3  -3 -17  115.99    5.39   1
   3   3 -15    1.21    1.01  -2
  -3  -3 -16    1.21    1.01   1
   3   3 -14    2.59    1.00  -2
  -3  -3 -15    2.59    1.00   1
   3   3 -13   17.39    1.17  -2
  -3  -3 -14   17.39    1.17   1
   3   3 -12  226.50    5.12  -2
  -3  -3 -13  226.50    5.12   1
   3   3 -11   37.95    2.34  -2
  -3  -3 -12   37.95    2.34   1
   3   3 -10  658.44   12.83  -2
  -3  -3 -11  658.44   12.83   1
   3   3  -9   35.88    2.64  -2
  -3  -3 -10   35.88    2.64   1
   3   3  -8  245.24    5.32  -2
  -3  -3  -9  245.24    5.32   1
   3   3  -7    2.59    0.61  -2
  -3  -3  -8    2.59    0.61   1
   3   3  -6  150.31    2.45  -2
  -3  -3  -7  150.31    2.45   1
   3   3  -5   33.76    1.98  -2
  -3  -3  -6   33.76    1.98   1
   3   3  -4  950.49   16.65  -2
  -3  -3  -5  950.49   16.65   1
   3   3  -3  162.56    4.34  -2
  -3  -3  -4  162.56    4.34   1
   3   3  -2  994.77   17.03  -2
  -3  -3  -3  994.77   17.03   1
   3   3  -1  116.64    2.81  -2
  -3  -3  -2  116.64    2.81   1
   3   3   0   59.44    1.54  -2
  -3  -3  -1   59.44    1.54   1
   3   3   1   26.11    0.92  -2
  -3  -3   0   26.11    0.92   1
   3   3   2  597.80   10.76  -2
  -3  -3   1  597.80   10.76   1
   3   3   3  232.87    5.19  -2
  -3  -3   2  232.87    5.19   1
   3   3   4 1064.72   16.97  -2
  -3  -3   3 1064.72   16.97   1
   3   3   5   59.75    1.70  -2
  -3  -3   4   59.75    1.70   1
   3   3   6  433.06    7.91  -2
  -3  -3   5  433.06    7.91   1
   3   3   7   33.87    1.05  -2
  -3  -3   6   33.87    1.05   1
   3   3   8   23.52    0.97  -2
  -3  -3   7   23.52    0.97   1
   3   3   9   25.60    1.32  -2
  -3  -3   8   25.60    1.32   1
   3   3  10  565.96   10.47  -2
  -3  -3   9  565.96   10.47   1
   3   3  11   39.94    2.40  -2
  -3  -3  10   39.94    2.40   1
   3   3  12  393.63    7.94  -2
  -3  -3  11  393.63    7.94   1
   3   3  13   84.27    2.57  -2
  -3  -3  12   84.27    2.57   1
   3   3  14   28.84    1.50  -2
  -3  -3  13   28.84    1.50   1
   3   3  15   27.88    1.48  -2
  -3  -3  14   27.88    1.48   1
   3   3  16   46.24    2.04  -2
  -3  -3  15   46.24    2.04   1
   3   3  17    9.99    1.52  -2
  -3  -3  16    9.99    1.52   1
   3   3  18  186.87    5.47  -2
  -3  -3  17  186.87    5.47   1
   3   3  19   13.47    3.38  -2
  -3  -3  18   13.47    3.38   1
   3   3  20  115.99    7.11  -2
  -3  -3  19  115.99    7.11   1
   3   3  21    2.89    2.48  -2
  -3  -3  20    2.89    2.48   1
   3   2 -22   64.96    4.67  -2
  -3  -2 -23   64.96    4.67   1
   3   2 -21    4.20    2.01  -2
  -3  -2 -22    4.20    2.01   1
   3   2 -20   47.89    4.01  -2
  -3  -2 -21   47.89    4.01   1
   3   2 -19   52.56    3.77  -2
  -3  -2 -20   52.56    3.77   1
   3   2 -18    2.50    1.49  -2
  -3  -2 -19    2.50    1.49   1
   3   2 -17  119.68    5.25  -2
  -3  -2 -18  119.68    5.25   1
   3   2 -16   61.47    2.51  -2
  -3  -2 -17   61.47    2.51   1
   3   2 -15   32.15    1.47  -2
  -3  -2 -16   32.15    1.47   1
   3   2 -14  265.04    4.88  -2
  -3  -2 -15  265.04    4.88   1
   3   2 -13  113.00    2.76  -2
  -3  -2 -14  113.00    2.76   1
   3   2 -12  228.92    4.54  -2
  -3  -2 -13  228.92    4.54   1
   3   2 -11  322.20    6.10  -2
  -3  -2 -12  322.20    6.10   1
   3   2 -10   17.31    0.92  -2
  -3  -2 -11   17.31    0.92   1
   3   2  -9  246.18    4.39  -2
  -3  -2 -10  246.18    4.39   1
   3   2  -8  372.49    6.56  -2
  -3  -2  -9  372.49    6.56   1
   3   2  -7   56.70    1.66  -2
  -3  -2  -8   56.70    1.66   1
   3   2  -6  505.80    8.10  -2
  -3  -2  -7  505.80    8.10   1
   3   2  -5  312.94    6.01  -2
  -3  -2  -6  312.94    6.01   1
   3   2  -4  253.76    5.10  -2
  -3  -2  -5  253.76    5.10   1
   3   2  -3  876.75   15.40  -2
  -3  -2  -4  876.75   15.40   1
   3   2  -2  220.82    3.57  -2
  -3  -2  -3  220.82    3.57   1
   3   2  -1  234.40    3.98  -2
  -3  -2  -2  234.40    3.98   1
   3   2   0 1642.68   22.70  -2
  -3  -2  -1 1642.68   22.70   1
   3   2   1  123.88    2.45  -2
  -3  -2   0  123.88    2.45   1
   3   2   2  951.11   14.19  -2
  -3  -2   1  951.11   14.19   1
   3   2   3  519.84    9.58  -2
  -3  -2   2  519.84    9.58   1
   3   2   4   64.80    1.93  -2
  -3  -2   3   64.80    1.93   1
   3   2   5  619.01   11.44  -2
  -3  -2   4  619.01   11.44   1
   3   2   6  428.49    8.28  -2
  -3  -2   5  428.49    8.28   1
   3   2   7   44.62    1.74  -2
  -3  -2   6   44.62    1.74   1
   3   2   8  529.92   10.13  -2
  -3  -2   7  529.92   10.13   1
   3   2   9   89.68    2.27  -2
  -3  -2   8   89.68    2.27   1
   3   2  10  171.35    3.93  -2
  -3  -2   9  171.35    3.93   1
   3   2  11  193.77    4.45  -2
  -3  -2  10  193.77    4.45   1
   3   2  12   79.57    2.68  -2
  -3  -2  11   79.57    2.68   1
   3   2  13  149.82    3.92  -2
  -3  -2  12  149.82    3.92   1
   3   2  14  370.95    7.70  -2
  -3  -2  13  370.95    7.70   1
   3   2  15   18.66    1.56  -2
  -3  -2  14   18.66    1.56   1
   3   2  16  204.78    5.44  -2
  -3  -2  15  204.78    5.44   1
   3   2  17   33.06    1.96  -2
  -3  -2  16   33.06    1.96   1
   3   2  18   24.21    1.77  -2
  -3  -2  17   24.21    1.77   1
   3   2  19   48.30    2.64  -2
  -3  -2  18   48.30    2.64   1
   3   2  20   18.06    1.87  -2
  -3  -2  19   18.06    1.87   1
   3   2  21    3.61    1.79  -2
  -3  -2  20    3.61    1.79   1
   3   2  22  102.01    8.48  -2
  -3  -2  21  102.01    8.48   1
  -3  -1 -23   -1.21    2.51   1
  -3  -1 -22  111.51    5.70   1
  -3  -1 -21    0.40    1.59   1
  -3  -1 -20   56.55    4.06   1
  -3  -1 -19   22.56    2.57   1
  -3  -1 -18   23.33    1.93   1
  -3  -1 -17   35.64    2.39   1
  -3  -1 -16  312.23    6.36   1
  -3  -1 -15    8.88    1.61   1
  -3  -1 -14  364.43    6.11   1
  -3  -1 -13   21.90    1.03   1
  -3  -1 -12   24.80    1.00   1
  -3  -1 -11   33.76    1.05   1
  -3  -1 -10  371.72    6.56   1
  -3  -1  -9   96.63    3.74   1
  -3  -1  -8 1557.09   23.68   1
  -3  -1  -7   97.22    6.51   1
  -3  -1  -6 1341.02   19.77   1
  -3  -1  -5  278.22    4.67   1
  -3  -1  -4    8.88    0.60   1
  -3  -1  -3  135.26    2.33   1
  -3  -1  -2 1032.34   14.78   1
  -3  -1  -1    7.29    0.59   1
  -3  -1   0 1685.92   23.81   1
  -3  -1   1   31.47    1.46   1
  -3  -1   2  423.54    6.17   1
  -3  -1   3  282.58    5.72   1
  -3  -1   4  302.76    5.92   1
  -3  -1   5  254.40    7.02   1
  -3  -1   6 1568.16   26.93   1
  -3  -1   7   86.86    5.41   1
  -3  -1   8  959.76   17.35   1
  -3  -1   9  108.78    3.34   1
  -3  -1  10   70.22    2.18   1
  -3  -1  11   66.42    2.12   1
  -3  -1  12  116.86    3.03   1
  -3  -1  13   37.45    2.33   1
  -3  -1  14  355.32    7.54   1
  -3  -1  15   19.27    2.11   1
  -3  -1  16  146.41    4.36   1
  -3  -1  17  105.68    3.70   1
  -3  -1  18    0.90    1.20   1
  -3  -1  19   29.16    2.38   1
  -3  -1  20   66.91    3.93   1
  -3  -1  21    3.10    1.69   1
  -3  -1  22   62.88    3.49   1
  -3   0 -23    6.92    2.21   1
  -3   0 -22    7.51    2.08   1
  -3   0 -21   13.18    2.69   1
  -3   0 -20  103.02    6.09   1
  -3   0 -19    1.10    1.20   1
  -3   0 -18  105.27    4.10   1
  -3   0 -17   15.52    1.50   1
  -3   0 -16   31.70    1.46   1
  -3   0 -15   36.36    1.45   1
  -3   0 -14   68.56    2.15   1
  -3   0 -13   31.02    1.56   1
  -3   0 -12  507.60    9.01   1
  -3   0 -11    2.10    1.39   1
  -3   0 -10  566.92    8.57   1
  -3   0  -9  149.82    3.18   1
  -3   0  -8   15.92    0.64   1
  -3   0  -7  190.99    3.04   1
  -3   0  -6  337.09    5.14   1
  -3   0  -5   26.63    0.93   1
  -3   0  -4 1236.93   16.88   1
  -3   0  -3    4.88    0.40   1
  -3   0  -2 1303.93   18.06   1
  -3   0  -1   91.58    1.72   1
  -3   0   0   69.06    1.50   1
  -3   0   1   53.44    1.32   1
  -3   0   2 1477.63   23.06   1
  -3   0   3    1.21    0.51   1
  -3   0   4  847.39   15.14   1
  -3   0   5   41.34    1.67   1
  -3   0   6  181.44    4.04   1
  -3   0   7  126.34    3.15   1
  -3   0   8  125.89    3.37   1
  -3   0   9   41.99    2.33   1
  -3   0  10  685.39   13.09   1
  -3   0  11    1.00    1.40   1
  -3   0  12  378.69    7.78   1
  -3   0  13    5.02    0.99   1
  -3   0  14    8.58    1.41   1
  -3   0  15    4.08    1.29   1
  -3   0  16   73.27    3.25   1
  -3   0  17    4.20    1.60   1
  -3   0  18  143.28    4.79   1
  -3   0  19    1.90    1.71   1
  -3   0  20   86.68    4.47   1
  -3   0  21    1.30    2.10   1
  -3   0  22   -1.21    2.31   1
  -3   1 -22    4.58    2.01   1
  -3   1 -21   16.48    2.19   1
  -3   1 -20    3.50    1.80   1
  -3   1 -19  105.68    4.11   1
  -3   1 -18   11.83    1.38   1
  -3   1 -17  116.86    3.89   1
  -3   1 -16   15.92    1.28   1
  -3   1 -15   11.49    1.02   1
  -3   1 -14   20.07    1.16   1
  -3   1 -13  226.80    4.82   1
  -3   1 -12    5.62    0.81   1
  -3   1 -11  690.11   11.56   1
  -3   1 -10   95.84    2.15   1
  -3   1  -9  254.72    4.15   1
  -3   1  -8  274.56    4.31   1
  -3   1  -7   26.32    0.92   1
  -3   1  -6  258.57    3.86   1
  -3   1  -5 1016.33   14.03   1
  -3   1  -4    7.02    0.48   1
  -3   1  -3  874.38   11.83   1
  -3   1  -2   98.01    1.98   1
  -3   1  -1   58.98    1.23   1
  -3   1   0  133.17    2.31   1
  -3   1   1  107.12    2.07   1
  -3   1   2  115.99    2.37   1
  -3   1   3 1006.16   15.86   1
  -3   1   4   40.58    1.53   1
  -3   1   5  633.53   11.58   1
  -3   1   6  333.06    6.57   1
  -3   1   7   -0.50    0.81   1
  -3   1   8  301.37    6.60   1
  -3   1   9  286.29    6.09   1
  -3   1  10   68.56    1.82   1
  -3   1  11  504.90    8.99   1
  -3   1  12   23.04    1.25   1
  -3   1  13   97.42    2.76   1
  -3   1  14   51.84    2.45   1
  -3   1  15   16.73    1.64   1
  -3   1  16   50.84    2.57   1
  -3   1  17   87.24    3.55   1
  -3   1  18    3.10    2.29   1
  -3   1  19   52.85    4.36   1
  -3   1  20   19.89    2.59   1
  -3   1  21    2.99    2.28   1
  -3   1  22   17.14    2.90   1
  -3   2 -21   50.84    3.85   1
  -3   2 -20    9.49    1.72   1
  -3   2 -19   13.91    1.72   1
  -3   2 -18   33.41    2.20   1
  -3   2 -17   61.62    2.36   1
  -3   2 -16    2.99    0.90   1
  -3   2 -15  396.01    8.36   1
  -3   2 -14   -0.30    0.70   1
  -3   2 -13  154.26    3.97   1
  -3   2 -12   -0.20    0.70   1
  -3   2 -11    0.40    0.50   1
  -3   2 -10    5.81    0.82   1
  -3   2  -9  462.25    7.31   1
  -3   2  -8   24.40    0.89   1
  -3   2  -7 1168.27   15.72   1
  -3   2  -6    6.40    0.61   1
  -3   2  -5  325.08    5.05   1
  -3   2  -4   40.20    1.01   1
  -3   2  -3   62.57    1.42   1
  -3   2  -2   26.01    0.82   1
  -3   2  -1 1213.13   16.02   1
  -3   2   0    0.10    0.40   1
  -3   2   1 1035.55   13.52   1
  -3   2   2   30.91    1.00   1
  -3   2   3   30.36    0.99   1
  -3   2   4   13.47    0.88   1
  -3   2   5  354.95    6.41   1
  -3   2   6   18.49    1.03   1
  -3   2   7 1105.56   17.95   1
  -3   2   8    5.02    0.81   1
  -3   2   9  342.62    6.29   1
  -3   2  10    1.69    0.81   1
  -3   2  11    2.40    0.71   1
  -3   2  12    5.38    1.02   1
  -3   2  13  184.42    5.70   1
  -3   2  14    2.79    1.30   1
  -3   2  15  357.97   11.73   1
  -3   2  16   -0.71    1.31   1
  -3   2  17   30.25    2.64   1
  -3   2  18    2.31    1.70   1
  -3   2  19   12.67    2.92   1
  -3   2  20    2.40    3.19   1
  -3   2  21   67.24    5.74   1
  -3   3 -20   15.29    1.80   1
  -3   3 -19   90.63    3.81   1
  -3   3 -18    0.10    1.32   1
  -3   3 -17   19.98    1.61   1
  -3   3 -16   51.98    2.16   1
  -3   3 -15    1.30    1.00   1
  -3   3 -14  164.87    4.37   1
  -3   3 -13   63.52    2.23   1
  -3   3 -12  112.15    2.97   1
  -3   3 -11  170.30    4.18   1
  -3   3 -10    9.61    0.93   1
  -3   3  -9   55.06    1.63   1
  -3   3  -8  154.26    3.48   1
  -3   3  -7   11.83    0.83   1
  -3   3  -6  135.96    2.57   1
  -3   3  -5  244.92    4.07   1
  -3   3  -4   32.38    1.02   1
  -3   3  -3  604.67    8.36   1
  -3   3  -2  162.05    2.80   1
  -3   3  -1   79.74    1.79   1
  -3   3   0  643.13   10.14   1
  -3   3   1   71.74    1.52   1
  -3   3   2  142.32    3.10   1
  -3   3   3  621.01   11.96   1
  -3   3   4   14.67    1.07   1
  -3   3   5  225.30    5.40   1
  -3   3   6   82.81    2.55   1
  -3   3   7    3.20    0.89   1
  -3   3   8  121.88    3.53   1
  -3   3   9   59.14    2.15   1
  -3   3  10    6.60    0.98   1
  -3   3  11  243.98    6.56   1
  -3   3  12   77.44    2.99   1
  -3   3  13   88.17    4.13   1
  -3   3  14   91.97    4.22   1
  -3   3  15    0.30    1.31   1
  -3   3  16   28.09    2.65   1
  -3   3  17   46.10    3.26   1
  -3   3  18   -0.10    1.92   1
  -3   3  19  128.60    7.03   1
  -3   3  20    7.62    3.59   1
  -3   4 -19    4.08    4.28   1
  -3   4 -18   88.55    7.34   1
  -3   4 -17    0.10    0.91   1
  -3   4 -16   84.64    3.31   1
  -3   4 -15    1.59    0.91   1
  -3   4 -14    1.69    0.99   1
  -3   4 -13   12.82    1.29   1
  -3   4 -12  169.00    4.42   1
  -3   4 -11    0.00    1.00   1
  -3   4 -10  362.14    7.61   1
  -3   4  -9    2.59    0.71   1
  -3   4  -8   81.18    2.52   1
  -3   4  -7    1.49    0.71   1
  -3   4  -6  166.93    4.13   1
  -3   4  -5    6.71    0.78   1
  -3   4  -4  480.49    8.77   1
  -3   4  -3   49.14    1.54   1
  -3   4  -2  248.69    4.73   1
  -3   4  -1    6.10    0.79   1
  -3   4   0    4.58    0.81   1
  -3   4   1    6.20    0.70   1
  -3   4   2  176.62    4.25   1
  -3   4   3   33.64    1.74   1
  -3   4   4  482.24    9.66   1
  -3   4   5    5.29    1.10   1
  -3   4   6  214.04    5.27   1
  -3   4   7    4.20    1.11   1
  -3   4   8   45.16    2.15   1
  -3   4   9    7.29    1.08   1
  -3   4  10  293.44    7.88   1
  -3   4  11    0.40    1.00   1
  -3   4  12  169.78    6.25   1
  -3   4  13    0.00    1.00   1
  -3   4  14    4.08    2.50   1
  -3   4  15    3.69    2.38   1
  -3   4  16   72.59    4.94   1
  -3   4  17    0.10    2.63   1
  -3   4  18   74.48    5.87   1
  -3   4  19    3.88    3.07   1
   3  -5 -17   46.92    4.25  -2
  -3   5 -17   46.92    4.25   1
   3  -5 -16   42.64    3.66  -2
  -3   5 -16   42.64    3.66   1
   3  -5 -15    7.78    2.68  -2
  -3   5 -15    7.78    2.68   1
   3  -5 -14  130.19    6.39  -2
  -3   5 -14  130.19    6.39   1
   3  -5 -13   23.43    2.90  -2
  -3   5 -13   23.43    2.90   1
   3  -5 -12   68.89    4.32  -2
  -3   5 -12   68.89    4.32   1
   3  -5 -11   75.52    4.34  -2
  -3   5 -11   75.52    4.34   1
   3  -5 -10   12.39    1.97  -2
  -3   5 -10   12.39    1.97   1
   3  -5  -9   98.21    3.17  -2
  -3   5  -9   98.21    3.17   1
   3  -5  -8  141.13    4.51  -2
  -3   5  -8  141.13    4.51   1
   3  -5  -7    1.49    0.71  -2
  -3   5  -7    1.49    0.71   1
   3  -5  -6  183.87    5.15  -2
  -3   5  -6  183.87    5.15   1
   3  -5  -5   64.96    2.26  -2
  -3   5  -5   64.96    2.26   1
   3  -5  -4    2.99    0.80  -2
  -3   5  -4    2.99    0.80   1
   3  -5  -3  249.64    6.32  -2
  -3   5  -3  249.64    6.32   1
   3  -5  -2  168.22    4.67  -2
  -3   5  -2  168.22    4.67   1
   3  -5  -1  145.20    4.34  -2
  -3   5  -1  145.20    4.34   1
   3  -5   0  228.01    5.74  -2
  -3   5   0  228.01    5.74   1
   3  -5   1  101.81    3.03  -2
  -3   5   1  101.81    3.03   1
   3  -5   2  228.92    6.05  -2
  -3   5   2  228.92    6.05   1
   3  -5   3  206.21    5.46  -2
  -3   5   3  206.21    5.46   1
   3  -5   4    2.79    1.00  -2
  -3   5   4    2.79    1.00   1
   3  -5   5   68.06    2.81  -2
  -3   5   5   68.06    2.81   1
   3  -5   6  147.38    4.61  -2
  -3   5   6  147.38    4.61   1
   3  -5   7    3.20    1.11  -2
  -3   5   7    3.20    1.11   1
   3  -5   8  183.87    5.42  -2
  -3   5   8  183.87    5.42   1
   3  -5   9   55.80    2.54  -2
  -3   5   9   55.80    2.54   1
   3  -5  10   37.21    2.07  -2
  -3   5  10   37.21    2.07   1
   3  -5  11   49.84    2.97  -2
  -3   5  11   49.84    2.97   1
   3  -5  12   40.32    3.05  -2
  -3   5  12   40.32    3.05   1
   3  -5  13   24.01    2.55  -2
  -3   5  13   24.01    2.55   1
   3  -5  14  142.09    6.91  -2
  -3   5  14  142.09    6.91   1
   3  -5  15    1.00    2.70  -2
  -3   5  15    1.00    2.70   1
   3  -5  16   77.26    5.80  -2
  -3   5  16   77.26    5.80   1
   3  -5  17   23.04    3.84  -2
  -3   5  17   23.04    3.84   1
   3  -6 -14    0.71    3.11  -2
  -3   6 -14    0.71    3.11   1
   3  -6 -13   75.34    5.03  -2
  -3   6 -13   75.34    5.03   1
   3  -6 -12    2.89    2.99  -2
  -3   6 -12    2.89    2.99   1
   3  -6 -11   -1.69    2.50  -2
  -3   6 -11   -1.69    2.50   1
   3  -6 -10    8.01    3.68  -2
  -3   6 -10    8.01    3.68   1
   3  -6  -9   57.76    5.32  -2
  -3   6  -9   57.76    5.32   1
   3  -6  -8   -0.50    3.72  -2
  -3   6  -8   -0.50    3.72   1
   3  -6  -7  202.49   12.52  -2
  -3   6  -7  202.49   12.52   1
   3  -6  -6    0.30    3.21  -2
  -3   6  -6    0.30    3.21   1
   3  -6  -5  152.77    9.89  -2
  -3   6  -5  152.77    9.89   1
   3  -6  -4    4.71    2.69  -2
  -3   6  -4    4.71    2.69   1
   3  -6  -3    8.18    3.32  -2
  -3   6  -3    8.18    3.32   1
   3  -6  -2   27.88    1.58  -2
  -3   6  -2   27.88    1.58   1
   3  -6  -1  257.60    6.74  -2
  -3   6  -1  257.60    6.74   1
   3  -6   0    1.10    0.90  -2
  -3   6   0    1.10    0.90   1
   3  -6   1  309.06    8.44  -2
  -3   6   1  309.06    8.44   1
   3  -6   2   27.25    1.77  -2
  -3   6   2   27.25    1.77   1
   3  -6   3   55.95    2.54  -2
  -3   6   3   55.95    2.54   1
   3  -6   4   11.49    1.49  -2
  -3   6   4   11.49    1.49   1
   3  -6   5   87.98    3.38  -2
  -3   6   5   87.98    3.38   1
   3  -6   6   13.69    1.48  -2
  -3   6   6   13.69    1.48   1
   3  -6   7  165.64    5.15  -2
  -3   6   7  165.64    5.15   1
   3  -6   8    1.30    1.50  -2
  -3   6   8    1.30    1.50   1
   3  -6   9   82.81    3.46  -2
  -3   6   9   82.81    3.46   1
   3  -6  10    9.67    1.68  -2
  -3   6  10    9.67    1.68   1
   3  -6  11    3.88    2.21  -2
  -3   6  11    3.88    2.21   1
   3  -6  12   13.69    2.66  -2
  -3   6  12   13.69    2.66   1
   3  -6  13   46.79    4.24  -2
  -3   6  13   46.79    4.24   1
   3  -6  14    5.29    2.21  -2
  -3   6  14    5.29    2.21   1
  -3   7 -11   87.05    9.70   1
  -3   7 -10   -2.79    3.41   1
  -3   7  -8   58.22    6.56   1
  -3   7  -7    3.69    4.49   1
  -3   7  -6   50.27    6.52   1
  -3   7  -5   61.15    6.73   1
  -3   7  -4    2.79    2.91   1
  -3   7  -3  132.48   10.59   1
  -3   7  -2    2.19    3.70   1
  -3   7  -1   69.22    7.49   1
  -3   7   0   43.03    5.25   1
  -3   7   1   11.70    4.31   1
  -3   7   2   11.02    2.79   1
  -3   7   3  113.21    4.47   1
  -3   7   4   -0.30    1.41   1
  -3   7   5   99.00    4.38   1
  -3   7   6   25.70    2.33   1
  -3   7   7   27.25    2.19   1
  -3   7   8   51.70    3.16   1
  -3   7   9   16.00    2.08   1
  -3   7  10    4.00    2.60   1
  -3   7  11   83.17    5.29   1
  -3   8  -3   -0.90    4.50   1
  -3   8  -2   84.09    9.54   1
  -3   8  -1   11.70    5.27   1
  -3   8   0    8.41    5.51   1
  -3   8   1    7.67    5.26   1
  -3   8   2   27.25    4.91   1
  -3   8   3   22.28    4.34   1
  -3   8   4  135.72   10.95   1
  -3   8   5    1.10    3.40   1
  -2 -10 -10   46.10    5.70   1
  -2 -10  -9   -4.08    4.28   1
  -2 -10  -8   76.56    7.53   1
  -2 -10  -7   57.15    6.05   1
  -2 -10  -6    9.12    4.41   1
  -2 -10  -5   86.68    7.45   1
  -2 -10  -4   24.50    3.66   1
  -2 -10  -3   18.32    3.51   1
  -2 -10  -2   78.15    6.54   1
  -2 -10  -1    0.90    3.40   1
  -2 -10   0   50.27    5.53   1
  -2 -10   1   24.40    3.36   1
  -2 -10   2    9.92    3.59   1
  -2 -10   3   87.98    6.75   1
  -2 -10   4   29.05    4.42   1
  -2 -10   5   24.11    4.81   1
  -2 -10   6   71.23    6.25   1
  -2  -9  -9  222.90   11.65   1
  -2  -9  -8    5.71    3.49   1
  -2  -9  -7  132.48    8.29   1
  -2  -9  -6   -0.90    1.90   1
  -2  -9  -5    4.58    2.91   1
  -2  -9  -4   -3.69    2.69   1
  -2  -9  -3  172.92    9.47   1
  -2  -9  -2    0.50    1.70   1
  -2  -9  -1  375.20   16.66   1
  -2  -9   0    2.40    2.79   1
  -2  -9   1  145.44    7.72   1
  -2  -9   2    2.10    2.70   1
  -2  -9   3   -0.40    1.59   1
  -2  -9   4    3.31    2.22   1
  -2  -9   5  148.35    8.77   1
  -2  -9   6    5.62    2.99   1
  -2  -9   7  195.16   10.34   1
  -2  -9   8    3.20    2.00   1
  -2  -8  -6    6.50    2.70   1
  -2  -8  -5  410.47   17.42   1
  -2  -8  -4   -0.10    1.72   1
  -2  -8  -3  262.76   12.32   1
  -2  -8  -2   76.74    5.08   1
  -2  -8  -1    1.00    1.50   1
  -2  -8   0  100.40    5.61   1
  -2  -8   1  251.22   10.78   1
  -2  -8   2    1.00    2.10   1
  -2  -8   3  466.13   19.43   1
  -2  -8   4   13.91    2.61   1
  -2  -8   5   60.84    4.21   1
  -2  -8   6   46.24    4.08   1
  -2  -8   7   18.40    3.00   1
  -2  -8   8   47.20    3.57   1
  -2  -8   9  148.11    8.28   1
  -2  -8  10    1.39    1.60   1
  -2  -7 -18   92.54    6.54   1
  -2  -7 -17    8.70    2.89   1
  -2  -7 -16    6.71    2.38   1
  -2  -7 -15   22.47    2.84   1
  -2  -7 -14   82.08    4.17   1
  -2  -7 -13    7.62    2.10   1
  -2  -7 -12  296.53    9.64   1
  -2  -7 -11    0.00    1.00   1
  -2  -7 -10  143.76    5.28   1
  -2  -7  -9   41.86    2.46   1
  -2  -7  -8   16.08    1.60   1
  -2  -7  -7   12.39    1.27   1
  -2  -7  -6  397.60    9.57   1
  -2  -7  -5    1.49    0.81   1
  -2  -7  -4  290.02    6.47   1
  -2  -7  -3   22.09    2.44   1
  -2  -7  -2   12.82    1.79   1
  -2  -7  -1  289.00    9.18   1
  -2  -7   0   17.22    1.58   1
  -2  -7   1   62.73    2.85   1
  -2  -7   2  201.92    9.09   1
  -2  -7   3    8.12    2.39   1
  -2  -7   4  349.32   14.58   1
  -2  -7   5   17.22    2.82   1
  -2  -7   6   26.01    2.45   1
  -2  -7   7   72.08    4.58   1
  -2  -7   8  116.21    5.82   1
  -2  -7   9    7.29    2.11   1
  -2  -7  10  257.92   10.92   1
  -2  -7  11   16.00    2.88   1
  -2  -7  12   98.01    5.94   1
  -2  -6 -21   16.89    2.79   1
  -2  -6 -20   12.53    2.62   1
  -2  -6 -19   37.95    3.94   1
  -2  -6 -18   22.75    2.96   1
  -2  -6 -17   16.81    2.38   1
  -2  -6 -16  189.06    6.88   1
  -2  -6 -15   17.64    2.44   1
  -2  -6 -14  194.32    6.41   1
  -2  -6 -13   60.84    3.28   1
  -2  -6 -12    2.10    1.51   1
  -2  -6 -11   60.22    2.64   1
  -2  -6 -10  244.61    6.88   1
  -2  -6  -9   20.98    2.29   1
  -2  -6  -8  537.31   12.05   1
  -2  -6  -7   24.30    2.46   1
  -2  -6  -6  186.87    5.19   1
  -2  -6  -5   39.06    2.00   1
  -2  -6  -4   55.06    1.63   1
  -2  -6  -3  154.26    3.48   1
  -2  -6  -2  407.64    7.67   1
  -2  -6  -1    9.30    0.67   1
  -2  -6   0  418.61    7.77   1
  -2  -6   1  169.52    2.86   1
  -2  -6   2   94.28    1.55   1
  -2  -6   3   35.52    0.83   1
  -2  -6   4  105.06    1.64   1
  -2  -6   5   10.63    0.39   1
  -2  -6   6  544.29   11.66   1
  -2  -6   7    2.19    0.80   1
  -2  -6   8  337.46    9.55   1
  -2  -6   9   31.14    2.46   1
  -2  -6  10    4.28    1.41   1
  -2  -6  11   18.66    2.42   1
  -2  -6  12  187.69    8.22   1
  -2  -6  13   18.58    2.67   1
  -2  -6  14  249.96   12.02   1
   2   5 -21    1.80    2.20  -2
  -2  -5 -22    1.80    2.20   1
   2   5 -20  125.89    7.41  -2
  -2  -5 -21  125.89    7.41   1
   2   5 -19   39.94    3.41  -2
  -2  -5 -20   39.94    3.41   1
   2   5 -18    0.90    1.60  -2
  -2  -5 -19    0.90    1.60   1
   2   5 -17   55.06    3.86  -2
  -2  -5 -18   55.06    3.86   1
   2   5 -16  176.89    7.18  -2
  -2  -5 -17  176.89    7.18   1
   2   5 -15    7.18    2.41  -2
  -2  -5 -16    7.18    2.41   1
   2   5 -14  250.91    7.92  -2
  -2  -5 -15  250.91    7.92   1
   2   5 -13   35.05    2.49  -2
  -2  -5 -14   35.05    2.49   1
   2   5 -12   80.64    3.59  -2
  -2  -5 -13   80.64    3.59   1
   2   5 -11   99.60    4.19  -2
  -2  -5 -12   99.60    4.19   1
   2   5 -10  124.77    4.24  -2
  -2  -5 -11  124.77    4.24   1
   2   5  -9  119.68    4.16  -2
  -2  -5 -10  119.68    4.16   1
   2   5  -8  575.04   12.47  -2
  -2  -5  -9  575.04   12.47   1
   2   5  -7   30.58    3.10  -2
  -2  -5  -8   30.58    3.10   1
   2   5  -6  731.16   13.52  -2
  -2  -5  -7  731.16   13.52   1
   2   5  -5  149.82    4.65  -2
  -2  -5  -6  149.82    4.65   1
   2   5  -4  190.16    4.41  -2
  -2  -5  -5  190.16    4.41   1
   2   5  -3  307.65    5.61  -2
  -2  -5  -4  307.65    5.61   1
   2   5  -2  266.34    5.22  -2
  -2  -5  -3  266.34    5.22   1
   2   5  -1  187.69    3.84  -2
  -2  -5  -2  187.69    3.84   1
   2   5   0  611.08   10.88  -2
  -2  -5  -1  611.08   10.88   1
   2   5   1   98.21    2.38  -2
  -2  -5   0   98.21    2.38   1
   2   5   2  382.59    5.87  -2
  -2  -5   1  382.59    5.87   1
   2   5   3  385.34    5.89  -2
  -2  -5   2  385.34    5.89   1
   2   5   4   30.36    0.77  -2
  -2  -5   3   30.36    0.77   1
   2   5   5  229.83    3.34  -2
  -2  -5   4  229.83    3.34   1
   2   5   6  653.31    9.20  -2
  -2  -5   5  653.31    9.20   1
   2   5   7   45.83    2.17  -2
  -2  -5   6   45.83    2.17   1
   2   5   8  548.03    8.90  -2
  -2  -5   7  548.03    8.90   1
   2   5   9  157.25    3.51  -2
  -2  -5   8  157.25    3.51   1
   2   5  10  216.38    4.41  -2
  -2  -5   9  216.38    4.41   1
   2   5  11  191.55    4.15  -2
  -2  -5  10  191.55    4.15   1
   2   5  12   11.97    1.87  -2
  -2  -5  11   11.97    1.87   1
   2   5  13   75.00    4.50  -2
  -2  -5  12   75.00    4.50   1
   2   5  14  173.98    7.91  -2
  -2  -5  13  173.98    7.91   1
   2   5  15   11.42    2.77  -2
  -2  -5  14   11.42    2.77   1
   2   5  16  162.82    7.91  -2
  -2  -5  15  162.82    7.91   1
   2   4 -22    0.30    2.11  -2
  -2  -4 -23    0.30    2.11   1
   2   4 -21   -0.71    1.71  -2
  -2  -4 -22   -0.71    1.71   1
   2   4 -20   48.16    4.16  -2
  -2  -4 -21   48.16    4.16   1
   2   4 -19    6.92    2.00  -2
  -2  -4 -20    6.92    2.00   1
   2   4 -18  180.63    7.26  -2
  -2  -4 -19  180.63    7.26   1
   2   4 -17   15.68    2.53  -2
  -2  -4 -18   15.68    2.53   1
   2   4 -16  137.59    5.40  -2
  -2  -4 -17  137.59    5.40   1
   2   4 -15   28.52    2.35  -2
  -2  -4 -16   28.52    2.35   1
   2   4 -14    6.40    1.32  -2
  -2  -4 -15    6.40    1.32   1
   2   4 -13   15.21    1.64  -2
  -2  -4 -14   15.21    1.64   1
   2   4 -12  458.39   10.70  -2
  -2  -4 -13  458.39   10.70   1
   2   4 -11   53.58    2.05  -2
  -2  -4 -12   53.58    2.05   1
   2   4 -10  797.50   15.25  -2
  -2  -4 -11  797.50   15.25   1
   2   4  -9   58.98    1.84  -2
  -2  -4 -10   58.98    1.84   1
   2   4  -8  135.49    3.49  -2
  -2  -4  -9  135.49    3.49   1
   2   4  -7   53.14    1.75  -2
  -2  -4  -8   53.14    1.75   1
   2   4  -6  262.44    5.83  -2
  -2  -4  -7  262.44    5.83   1
   2   4  -5   41.34    1.16  -2
  -2  -4  -6   41.34    1.16   1
   2   4  -4  864.36   14.11  -2
  -2  -4  -5  864.36   14.11   1
   2   4  -3  117.72    2.17  -2
  -2  -4  -4  117.72    2.17   1
   2   4  -2  857.32   13.47  -2
  -2  -4  -3  857.32   13.47   1
   2   4  -1   45.70    0.95  -2
  -2  -4  -2   45.70    0.95   1
   2   4   0   51.55    1.15  -2
  -2  -4  -1   51.55    1.15   1
   2   4   1    4.00    0.32  -2
  -2  -4   0    4.00    0.32   1
   2   4   2  604.18    8.36  -2
  -2  -4   1  604.18    8.36   1
   2   4   3   71.57    1.18  -2
  -2  -4   2   71.57    1.18   1
   2   4   4  913.25   12.09  -2
  -2  -4   3  913.25   12.09   1
   2   4   5  105.47    1.64  -2
  -2  -4   4  105.47    1.64   1
   2   4   6  508.05    7.21  -2
  -2  -4   5  508.05    7.21   1
   2   4   7   19.36    0.88  -2
  -2  -4   6   19.36    0.88   1
   2   4   8    3.50    0.49  -2
  -2  -4   7    3.50    0.49   1
   2   4   9   15.52    0.79  -2
  -2  -4   8   15.52    0.79   1
   2   4  10  589.52   10.68  -2
  -2  -4   9  589.52   10.68   1
   2   4  11   54.46    1.77  -2
  -2  -4  10   54.46    1.77   1
   2   4  12  671.33   12.44  -2
  -2  -4  11  671.33   12.44   1
   2   4  13   34.57    1.53  -2
  -2  -4  12   34.57    1.53   1
   2   4  14  136.89    3.51  -2
  -2  -4  13  136.89    3.51   1
   2   4  15    0.71    1.81  -2
  -2  -4  14    0.71    1.81   1
   2   4  16   58.37    3.67  -2
  -2  -4  15   58.37    3.67   1
   2   4  17    7.62    2.21  -2
  -2  -4  16    7.62    2.21   1
   2   4  18  227.71    9.96  -2
  -2  -4  17  227.71    9.96   1
  -2  -3 -23   21.90    3.56   1
  -2  -3 -22    7.40    2.28   1
  -2  -3 -21   38.44    3.84   1
  -2  -3 -20  124.77    5.81   1
  -2  -3 -19    4.58    1.80   1
  -2  -3 -18  186.60    7.10   1
  -2  -3 -17   48.86    2.94   1
  -2  -3 -16    9.80    1.82   1
  -2  -3 -15  134.56    4.41   1
  -2  -3 -14  149.82    4.90   1
  -2  -3 -13   29.38    1.95   1
  -2  -3 -12  447.32   10.57   1
  -2  -3 -11   51.55    3.16   1
  -2  -3 -10  369.02    8.45   1
  -2  -3  -9  374.42    9.68   1
  -2  -3  -8   27.77    3.48   1
  -2  -3  -7  788.49   17.41   1
  -2  -3  -6  677.04   14.05   1
  -2  -3  -5  170.30    5.22   1
  -2  -3  -4 1191.63   15.19   1
  -2  -3  -3  190.99    3.87   1
  -2  -3  -2  190.16    2.76   1
  -2  -3  -1  150.55    2.45   1
  -2  -3   0   17.47    0.50   1
  -2  -3   1  197.96    3.10   1
  -2  -3   2  579.85    9.15   1
  -2  -3   3   50.84    1.71   1
  -2  -3   4  982.20   13.79   1
  -2  -3   5  633.53    8.56   1
  -2  -3   6  193.21    3.89   1
  -2  -3   7  782.88   12.31   1
  -2  -3   8  100.80    2.41   1
  -2  -3   9  203.35    4.28   1
  -2  -3  10  367.87    7.29   1
  -2  -3  11   26.32    1.74   1
  -2  -3  12  216.09    4.70   1
  -2  -3  13  169.26    3.90   1
  -2  -3  14   30.14    1.65   1
  -2  -3  15  171.61    4.45   1
  -2  -3  16   44.89    2.28   1
  -2  -3  17    7.78    1.51   1
  -2  -3  18  132.02    7.35   1
  -2  -3  19   43.69    4.76   1
  -2  -2 -23    2.89    2.21   1
  -2  -2 -22  176.36    8.23   1
  -2  -2 -21   -0.40    1.40   1
  -2  -2 -20   39.82    2.52   1
  -2  -2 -19    1.90    1.21   1
  -2  -2 -18   67.08    2.78   1
  -2  -2 -17    5.81    1.21   1
  -2  -2 -16  393.23   11.50   1
  -2  -2 -15    2.89    0.71   1
  -2  -2 -14  701.72   13.77   1
  -2  -2 -13    1.69    1.51   1
  -2  -2 -12   57.00    2.27   1
  -2  -2 -11    2.89    0.78   1
  -2  -2 -10  772.28   16.67   1
  -2  -2  -9   10.18    1.98   1
  -2  -2  -8 1550.00   29.92   1
  -2  -2  -7   16.56    3.91   1
  -2  -2  -6  721.46   10.74   1
  -2  -2  -5    3.80    0.51   1
  -2  -2  -4    2.31    0.21   1
  -2  -2  -3   37.95    0.74   1
  -2  -2  -2 1789.29   23.69   1
  -2  -2  -1   10.89    0.40   1
  -2  -2   0 3347.78   53.23   1
  -2  -2   1   33.18    0.81   1
  -2  -2   2  586.61    9.20   1
  -2  -2   3   48.16    0.97   1
  -2  -2   4  141.61    2.38   1
  -2  -2   5    5.71    0.48   1
  -2  -2   6 1090.32   18.49   1
  -2  -2   7   11.97    2.91   1
  -2  -2   8 1401.00   23.96   1
  -2  -2   9   47.33    1.93   1
  -2  -2  10  207.07    3.74   1
  -2  -2  11   28.20    1.06   1
  -2  -2  12  334.89    5.86   1
  -2  -2  13    4.80    1.10   1
  -2  -2  14  590.00   11.17   1
  -2  -2  15    1.39    1.39   1
  -2  -2  16  234.09    6.12   1
  -2  -2  17    4.49    1.31   1
  -2  -2  18    4.80    1.40   1
  -2  -2  19    1.49    1.29   1
  -2  -2  20  105.27    6.77   1
  -2  -1 -24    6.50    3.11   1
  -2  -1 -23   46.38    3.81   1
  -2  -1 -22    2.19    2.40   1
  -2  -1 -21   55.35    2.83   1
  -2  -1 -20   84.09    3.67   1
  -2  -1 -19    5.52    1.22   1
  -2  -1 -18  186.87    5.74   1
  -2  -1 -17  113.42    3.62   1
  -2  -1 -16   40.20    1.90   1
  -2  -1 -15  274.56    5.63   1
  -2  -1 -14  148.60    2.93   1
  -2  -1 -13   75.17    1.91   1
  -2  -1 -12  510.76    8.14   1
  -2  -1 -11    0.79    0.61   1
  -2  -1 -10  654.85   12.28   1
  -2  -1  -9   53.14    1.75   1
  -2  -1  -8   14.82    0.62   1
  -2  -1  -7  199.37    3.39   1
  -2  -1  -6 1017.61   12.76   1
  -2  -1  -5    6.92    0.32   1
  -2  -1  -4 1663.82   22.03   1
  -2  -1  -3  333.06    5.11   1
  -2  -1  -2  859.08   12.31   1
  -2  -1  -1  413.31    6.10   1
  -2  -1   0   37.58    0.86   1
  -2  -1   1  416.98    6.13   1
  -2  -1   2 1299.60   18.02   1
  -2  -1   3  198.25    3.66   1
  -2  -1   4 1764.84   26.05   1
  -2  -1   5   42.64    1.04   1
  -2  -1   6  541.03    8.37   1
  -2  -1   7  100.40    2.61   1
  -2  -1   8  224.10    5.09   1
  -2  -1   9    8.70    0.89   1
  -2  -1  10  782.32   14.54   1
  -2  -1  11    1.59    0.60   1
  -2  -1  12  472.63    8.26   1
  -2  -1  13   59.75    1.70   1
  -2  -1  14   44.22    2.00   1
  -2  -1  15  171.87    4.20   1
  -2  -1  16  158.76    4.28   1
  -2  -1  17   31.81    2.03   1
  -2  -1  18  253.45    7.00   1
  -2  -1  19   11.63    1.57   1
  -2  -1  20   56.85    2.87   1
  -2  -1  21   13.47    2.50   1
  -2   0 -24   -0.59    2.68   1
  -2   0 -23   13.10    2.32   1
  -2   0 -22    1.39    1.49   1
  -2   0 -21   44.09    2.79   1
  -2   0 -20   -2.59    1.19   1
  -2   0 -19  273.90    7.61   1
  -2   0 -18   11.29    1.48   1
  -2   0 -17  210.54    6.09   1
  -2   0 -16   10.89    0.92   1
  -2   0 -15    4.41    0.80   1
  -2   0 -14   13.47    0.88   1
  -2   0 -13  324.36    5.40   1
  -2   0 -12    0.20    0.40   1
  -2   0 -11  673.92    9.35   1
  -2   0 -10   24.11    0.59   1
  -2   0  -9  215.21    2.93   1
  -2   0  -8    0.71    0.20   1
  -2   0  -7   20.79    0.64   1
  -2   0  -6  175.83    2.65   1
  -2   0  -5  970.32   12.46   1
  -2   0  -4   21.16    0.46   1
  -2   0  -3 1377.15   18.56   1
  -2   0  -2  333.06    4.74   1
  -2   0  -1  178.49    2.67   1
  -2   0   0  315.06    4.97   1
  -2   0   1  363.28    6.10   1
  -2   0   2  285.61    4.39   1
  -2   0   3 1355.71   20.62   1
  -2   0   4  105.27    1.85   1
  -2   0   5  616.03    9.93   1
  -2   0   6  150.31    3.19   1
  -2   0   7    3.69    0.61   1
  -2   0   8   16.32    0.89   1
  -2   0   9  246.49    5.02   1
  -2   0  10   40.45    1.53   1
  -2   0  11  581.29   11.09   1
  -2   0  12   11.70    1.03   1
  -2   0  13  171.09    3.40   1
  -2   0  14   55.95    2.09   1
  -2   0  15   15.37    1.49   1
  -2   0  16   40.96    2.05   1
  -2   0  17  195.72    5.32   1
  -2   0  18    6.00    1.32   1
  -2   0  19  209.38    8.10   1
  -2   0  20   11.22    2.81   1
  -2   0  21   17.72    2.27   1
  -2   0  22    9.42    2.39   1
  -2   0  23   21.16    3.22   1
  -2   1 -23   70.06    4.52   1
  -2   1 -22    2.59    1.61   1
  -2   1 -21   76.74    3.85   1
  -2   1 -20   35.52    2.15   1
  -2   1 -19    7.18    1.39   1
  -2   1 -18   63.04    2.54   1
  -2   1 -17   89.68    3.03   1
  -2   1 -16   45.43    1.75   1
  -2   1 -15  453.69    9.37   1
  -2   1 -14    2.89    0.78   1
  -2   1 -13  352.69    6.76   1
  -2   1 -12  309.41    5.63   1
  -2   1 -11   34.46    1.06   1
  -2   1 -10  268.63    4.26   1
  -2   1  -9  604.67    8.36   1
  -2   1  -8    5.20    0.41   1
  -2   1  -7 1112.22   14.67   1
  -2   1  -6   85.56    1.67   1
  -2   1  -5   49.00    0.98   1
  -2   1  -4  301.37    4.17   1
  -2   1  -3  284.60    4.05   1
  -2   1  -2   23.91    0.59   1
  -2   1  -1 1720.59   24.89   1
  -2   1   0    1.30    0.30   1
  -2   1   1 1572.92   21.42   1
  -2   1   2   33.64    0.93   1
  -2   1   3  238.39    4.32   1
  -2   1   4  238.08    4.32   1
  -2   1   5  103.23    2.24   1
  -2   1   6   50.84    1.28   1
  -2   1   7 1160.08   20.44   1
  -2   1   8    2.40    0.59   1
  -2   1   9  443.10    7.58   1
  -2   1  10  189.34    3.58   1
  -2   1  11   49.28    1.40   1
  -2   1  12  130.42    2.97   1
  -2   1  13  407.23    7.26   1
  -2   1  14    6.60    1.28   1
  -2   1  15  456.68    9.83   1
  -2   1  16   14.90    1.47   1
  -2   1  17   72.25    3.74   1
  -2   1  18   25.20    3.01   1
  -2   1  19   14.82    2.62   1
  -2   1  20    3.69    2.69   1
  -2   1  21   96.63    6.09   1
  -2   1  22    2.69    2.30   1
  -2   1  23   64.96    5.16   1
  -2   2 -22  107.95    5.20   1
  -2   2 -21    3.88    1.62   1
  -2   2 -20   80.82    3.78   1
  -2   2 -19   29.59    1.85   1
  -2   2 -18    0.50    0.91   1
  -2   2 -17   13.18    1.31   1
  -2   2 -16  273.24    6.28   1
  -2   2 -15   57.15    2.12   1
  -2   2 -14  335.26    6.59   1
  -2   2 -13   13.03    1.01   1
  -2   2 -12   34.46    1.17   1
  -2   2 -11  404.81    6.84   1
  -2   2 -10   49.84    1.13   1
  -2   2  -9   39.69    1.13   1
  -2   2  -8  738.75    9.78   1
  -2   2  -7   18.84    0.69   1
  -2   2  -6  724.69    9.69   1
  -2   2  -5  221.41    3.27   1
  -2   2  -4   28.84    0.75   1
  -2   2  -3  384.16    5.88   1
  -2   2  -2  304.85    4.89   1
  -2   2  -1   48.02    0.97   1
  -2   2   0  940.04   12.88   1
  -2   2   1   49.84    1.13   1
  -2   2   2  295.50    4.47   1
  -2   2   3  444.37    7.17   1
  -2   2   4   13.69    0.59   1
  -2   2   5  264.71    4.56   1
  -2   2   6  618.02    9.45   1
  -2   2   7   30.25    1.10   1
  -2   2   8  596.82   10.75   1
  -2   2   9   79.03    1.96   1
  -2   2  10   48.58    1.53   1
  -2   2  11  512.12    9.50   1
  -2   2  12   15.13    1.01   1
  -2   2  13   18.84    1.13   1
  -2   2  14  279.89    8.36   1
  -2   2  15   52.42    3.33   1
  -2   2  16  238.70    7.72   1
  -2   2  17   43.82    2.78   1
  -2   2  18   -0.40    1.50   1
  -2   2  19   66.42    3.75   1
  -2   2  20   50.13    3.68   1
  -2   2  21    7.67    2.60   1
  -2   2  22   73.79    5.15   1
   2  -3 -22    1.00    1.90  -2
  -2   3 -22    1.00    1.90   1
   2  -3 -21   21.07    2.11  -2
  -2   3 -21   21.07    2.11   1
   2  -3 -20   77.26    3.69  -2
  -2   3 -20   77.26    3.69   1
   2  -3 -19    1.80    1.50  -2
  -2   3 -19    1.80    1.50   1
   2  -3 -18  218.45    6.50  -2
  -2   3 -18  218.45    6.50   1
   2  -3 -17    5.11    0.90  -2
  -2   3 -17    5.11    0.90   1
   2  -3 -16   60.06    2.17  -2
  -2   3 -16   60.06    2.17   1
   2  -3 -15    5.29    0.78  -2
  -2   3 -15    5.29    0.78   1
   2  -3 -14   55.35    1.79  -2
  -2   3 -14   55.35    1.79   1
   2  -3 -13   58.83    1.84  -2
  -2   3 -13   58.83    1.84   1
   2  -3 -12  281.23    6.04  -2
  -2   3 -12  281.23    6.04   1
   2  -3 -11   30.25    1.21  -2
  -2   3 -11   30.25    1.21   1
   2  -3 -10  276.56    5.32  -2
  -2   3 -10  276.56    5.32   1
   2  -3  -9  150.55    2.45  -2
  -2   3  -9  150.55    2.45   1
   2  -3  -8  130.42    2.28  -2
  -2   3  -8  130.42    2.28   1
   2  -3  -7   34.11    0.93  -2
  -2   3  -7   34.11    0.93   1
   2  -3  -6   80.10    1.43  -2
  -2   3  -6   80.10    1.43   1
   2  -3  -5   72.42    1.36  -2
  -2   3  -5   72.42    1.36   1
   2  -3  -4 1023.36   13.44  -2
  -2   3  -4 1023.36   13.44   1
   2  -3  -3    0.40    0.30  -2
  -2   3  -3    0.40    0.30   1
   2  -3  -2  646.18    8.64  -2
  -2   3  -2  646.18    8.64   1
   2  -3  -1    7.78    0.39  -2
  -2   3  -1    7.78    0.39   1
   2  -3   0    5.52    0.42  -2
  -2   3   0    5.52    0.42   1
   2  -3   1    7.18    0.48  -2
  -2   3   1    7.18    0.48   1
   2  -3   2  508.50    8.57  -2
  -2   3   2  508.50    8.57   1
   2  -3   3    0.30    0.41  -2
  -2   3   3    0.30    0.41   1
   2  -3   4 1036.20   16.74  -2
  -2   3   4 1036.20   16.74   1
   2  -3   5   44.76    1.34  -2
  -2   3   5   44.76    1.34   1
   2  -3   6  131.33    2.98  -2
  -2   3   6  131.33    2.98   1
   2  -3   7    6.92    0.68  -2
  -2   3   7    6.92    0.68   1
   2  -3   8   76.56    2.27  -2
  -2   3   8   76.56    2.27   1
   2  -3   9  103.63    3.05  -2
  -2   3   9  103.63    3.05   1
   2  -3  10  254.72    5.75  -2
  -2   3  10  254.72    5.75   1
   2  -3  11   30.03    1.53  -2
  -2   3  11   30.03    1.53   1
   2  -3  12  307.30    7.01  -2
  -2   3  12  307.30    7.01   1
   2  -3  13   17.72    2.02  -2
  -2   3  13   17.72    2.02   1
   2  -3  14   85.38    4.62  -2
  -2   3  14   85.38    4.62   1
   2  -3  15    3.88    1.89  -2
  -2   3  15    3.88    1.89   1
   2  -3  16   41.86    3.11  -2
  -2   3  16   41.86    3.11   1
   2  -3  17    0.40    2.19  -2
  -2   3  17    0.40    2.19   1
   2  -3  18  231.95    8.22  -2
  -2   3  18  231.95    8.22   1
   2  -3  19   -4.49    2.80  -2
  -2   3  19   -4.49    2.80   1
   2  -3  20   93.51    5.61  -2
  -2   3  20   93.51    5.61   1
   2  -3  21    5.90    3.11  -2
  -2   3  21    5.90    3.11   1
   2  -4 -20    6.60    1.80  -2
  -2   4 -20    6.60    1.80   1
   2  -4 -19   53.00    3.06  -2
  -2   4 -19   53.00    3.06   1
   2  -4 -18    0.40    1.30  -2
  -2   4 -18    0.40    1.30   1
   2  -4 -17  133.86    3.70  -2
  -2   4 -17  133.86    3.70   1
   2  -4 -16   39.56    1.89  -2
  -2   4 -16   39.56    1.89   1
   2  -4 -15    7.40    0.92  -2
  -2   4 -15    7.40    0.92   1
   2  -4 -14   77.09    2.46  -2
  -2   4 -14   77.09    2.46   1
   2  -4 -13  121.88    3.09  -2
  -2   4 -13  121.88    3.09   1
   2  -4 -12   35.76    1.55  -2
  -2   4 -12   35.76    1.55   1
   2  -4 -11  405.22    8.05  -2
  -2   4 -11  405.22    8.05   1
   2  -4 -10   43.03    1.44  -2
  -2   4 -10   43.03    1.44   1
   2  -4  -9  386.91    7.08  -2
  -2   4  -9  386.91    7.08   1
   2  -4  -8  201.36    3.97  -2
  -2   4  -8  201.36    3.97   1
   2  -4  -7   69.22    1.50  -2
  -2   4  -7   69.22    1.50   1
   2  -4  -6  189.34    3.03  -2
  -2   4  -6  189.34    3.03   1
   2  -4  -5  505.80    7.20  -2
  -2   4  -5  505.80    7.20   1
   2  -4  -4   57.76    1.22  -2
  -2   4  -4   57.76    1.22   1
   2  -4  -3  381.42    5.47  -2
  -2   4  -3  381.42    5.47   1
   2  -4  -2   87.98    1.69  -2
  -2   4  -2   87.98    1.69   1
   2  -4  -1  160.28    2.79  -2
  -2   4  -1  160.28    2.79   1
   2  -4   0  467.42    6.92  -2
  -2   4   0  467.42    6.92   1
   2  -4   1   80.82    1.98  -2
  -2   4   1   80.82    1.98   1
   2  -4   2  166.15    3.09  -2
  -2   4   2  166.15    3.09   1
   2  -4   3  320.77    5.73  -2
  -2   4   3  320.77    5.73   1
   2  -4   4   19.62    0.89  -2
  -2   4   4   19.62    0.89   1
   2  -4   5  475.68    8.29  -2
  -2   4   5  475.68    8.29   1
   2  -4   6  161.29    4.06  -2
  -2   4   6  161.29    4.06   1
   2  -4   7  123.43    3.33  -2
  -2   4   7  123.43    3.33   1
   2  -4   8  254.72    5.75  -2
  -2   4   8  254.72    5.75   1
   2  -4   9  220.52    5.35  -2
  -2   4   9  220.52    5.35   1
   2  -4  10   84.27    2.57  -2
  -2   4  10   84.27    2.57   1
   2  -4  11  335.26    7.69  -2
  -2   4  11  335.26    7.69   1
   2  -4  12   26.83    1.45  -2
  -2   4  12   26.83    1.45   1
   2  -4  13  132.25    5.06  -2
  -2   4  13  132.25    5.06   1
   2  -4  14  111.94    5.08  -2
  -2   4  14  111.94    5.08   1
   2  -4  15   -0.40    1.30  -2
  -2   4  15   -0.40    1.30   1
   2  -4  16   58.37    3.82  -2
  -2   4  16   58.37    3.82   1
   2  -4  17   77.09    4.21  -2
  -2   4  17   77.09    4.21   1
   2  -4  18    8.12    2.11  -2
  -2   4  18    8.12    2.11   1
   2  -4  19   36.84    3.28  -2
  -2   4  19   36.84    3.28   1
   2  -4  20   11.29    3.29  -2
  -2   4  20   11.29    3.29   1
  -2   5 -18    2.50    2.69   1
  -2   5 -17   26.11    2.86   1
  -2   5 -16   -0.10    2.23   1
  -2   5 -15  131.33    5.73   1
  -2   5 -14    1.10    1.70   1
  -2   5 -13  207.94    7.50   1
  -2   5 -12    1.30    1.39   1
  -2   5 -11    0.79    0.61   1
  -2   5 -10    4.80    0.61   1
  -2   5  -9  313.64    6.73   1
  -2   5  -8    1.80    0.40   1
  -2   5  -7  576.00   10.08   1
  -2   5  -6   11.97    0.62   1
  -2   5  -5  362.14    7.23   1
  -2   5  -4    2.10    0.49   1
  -2   5  -3   21.16    1.10   1
  -2   5  -2    0.30    0.51   1
  -2   5  -1  428.08    8.28   1
  -2   5   0    0.50    0.60   1
  -2   5   1  494.62    9.34   1
  -2   5   2    2.10    0.61   1
  -2   5   3  122.77    3.32   1
  -2   5   4    4.08    0.69   1
  -2   5   5  175.30    5.03   1
  -2   5   6   18.23    1.20   1
  -2   5   7  552.25   11.28   1
  -2   5   8    1.00    0.90   1
  -2   5   9  424.77   10.31   1
  -2   5  10   15.29    1.56   1
  -2   5  11   34.69    2.12   1
  -2   5  12    3.61    1.90   1
  -2   5  13  136.19    5.60   1
  -2   5  14    3.50    1.61   1
  -2   5  15  164.35    6.41   1
  -2   5  16    1.10    2.50   1
  -2   5  17   65.12    5.00   1
  -2   5  18    1.30    3.01   1
  -2   5  19    0.71    2.10   1
  -2   6 -16   32.26    3.75   1
  -2   6 -15   -1.39    1.79   1
  -2   6 -14   84.46    4.96   1
  -2   6 -13   39.94    3.16   1
  -2   6 -12   12.60    2.27   1
  -2   6 -11   67.24    4.26   1
  -2   6 -10   -0.10    1.52   1
  -2   6  -9   98.80    4.77   1
  -2   6  -8   64.64    3.86   1
  -2   6  -7    0.71    1.92   1
  -2   6  -6   90.82    7.24   1
  -2   6  -5  121.00    7.92   1
  -2   6  -4    2.99    1.80   1
  -2   6  -3  275.56    6.31   1
  -2   6  -2   31.14    1.34   1
  -2   6  -1  112.57    3.40   1
  -2   6   0  109.83    3.35   1
  -2   6   1   22.37    1.32   1
  -2   6   2   72.93    2.73   1
  -2   6   3  231.04    6.08   1
  -2   6   4    1.99    0.79   1
  -2   6   5  235.32    6.44   1
  -2   6   6   40.70    1.91   1
  -2   6   7   21.81    1.77   1
  -2   6   8   75.86    2.96   1
  -2   6   9   64.64    2.57   1
  -2   6  10    7.29    1.62   1
  -2   6  11  102.01    4.24   1
  -2   6  12    1.99    1.49   1
  -2   6  13   82.45    5.27   1
  -2   6  14   30.14    2.85   1
  -2   6  15    9.00    2.22   1
  -2   6  16   45.56    4.46   1
  -2   6  17   22.18    3.86   1
  -2   7 -14   -1.39    2.38   1
  -2   7 -13    2.50    2.81   1
  -2   7 -12   95.84    5.48   1
  -2   7 -11    2.69    2.39   1
  -2   7 -10  216.97   12.67   1
  -2   7  -9    3.69    4.11   1
  -2   7  -8   24.11    4.03   1
  -2   7  -7   10.63    3.78   1
  -2   7  -6   18.49    3.53   1
  -2   7  -5   11.22    3.22   1
  -2   7  -4  159.01    9.58   1
  -2   7  -3   -1.90    3.31   1
  -2   7  -2  221.41   11.61   1
  -2   7  -1    4.71    3.21   1
  -2   7   0   13.69    3.33   1
  -2   7   1    6.40    2.99   1
  -2   7   2  119.46    3.93   1
  -2   7   3    2.99    1.00   1
  -2   7   4  227.71    6.64   1
  -2   7   5   10.30    1.41   1
  -2   7   6   95.45    3.71   1
  -2   7   7   24.01    1.96   1
  -2   7   8   -0.30    1.00   1
  -2   7   9   15.37    1.88   1
  -2   7  10  106.92    4.14   1
  -2   7  11    4.49    2.29   1
  -2   7  12  160.78    7.61   1
  -2   7  13   -3.50    2.51   1
  -2   7  14   10.82    2.43   1
  -2   8 -10   -0.59    3.19   1
  -2   8  -9   18.40    4.89   1
  -2   8  -8   78.32    9.03   1
  -2   8  -7    4.08    3.27   1
  -2   8  -6  139.48   10.87   1
  -2   8  -5   20.07    5.38   1
  -2   8  -4   21.90    4.02   1
  -2   8  -3   19.10    4.11   1
  -2   8  -2   41.86    5.18   1
  -2   8  -1    4.80    3.20   1
  -2   8   0  164.87   11.56   1
  -2   8   1    1.30    2.51   1
  -2   8   2  134.33   10.89   1
  -2   8   3   11.70    3.28   1
  -2   8   4    7.78    3.68   1
  -2   8   5   30.03    4.93   1
  -2   8   6   79.92    3.58   1
  -2   8   7   -1.80    1.39   1
  -2   8   8  129.73    5.24   1
  -2   8   9    9.67    2.61   1
  -2   8  10   21.81    2.99   1
  -2   8  11    7.18    2.09   1
  -2   9   0   -0.59    5.17   1
  -2   9   1   61.15    6.73   1
  -2   9   2    3.10    3.20   1
  -1 -10  -8   -1.21    3.72   1
  -1 -10  -7   89.68    8.14   1
  -1 -10  -6    3.61    3.72   1
  -1 -10  -5    3.20    2.79   1
  -1 -10  -4    0.79    3.88   1
  -1 -10  -3   50.84    5.99   1
  -1 -10  -2    3.50    4.00   1
  -1 -10  -1  105.88    7.61   1
  -1 -10   0    0.30    2.31   1
  -1 -10   1   33.06    4.83   1
  -1 -10   2    5.62    2.99   1
  -1 -10   3    6.71    3.68   1
  -1  -9  -5  117.72    7.16   1
  -1  -9  -4    2.89    2.89   1
  -1  -9  -3   49.28    5.19   1
  -1  -9  -2  118.16    6.74   1
  -1  -9  -1    1.59    2.09   1
  -1  -9   0  102.41    6.68   1
  -1  -9   1   52.42    4.63   1
  -1  -9   2    3.10    2.82   1
  -1  -9   3  135.96    8.63   1
  -1  -9   4   62.25    4.26   1
  -1  -9   5   36.84    3.64   1
  -1  -9   6  144.72    8.66   1
  -1  -8  -3    1.59    1.89   1
  -1  -8  -2   72.93    4.78   1
  -1  -8  -1    1.30    2.19   1
  -1  -8   0   56.10    4.19   1
  -1  -8   1    0.20    2.11   1
  -1  -8   2  381.03   15.62   1
  -1  -8   3    3.61    2.51   1
  -1  -8   4  206.50    9.77   1
  -1  -8   5   18.49    2.49   1
  -1  -8   6    2.10    2.09   1
  -1  -8   7   24.50    2.57   1
  -1  -8   8   81.72    5.42   1
   1   7  -5   80.82    7.91  -2
  -1  -7  -6   80.82    7.91   1
   1   7  -4  206.50   13.22  -2
  -1  -7  -5  206.50   13.22   1
   1   7  -3    7.40    3.48  -2
  -1  -7  -4    7.40    3.48   1
   1   7  -2   85.38    6.28  -2
  -1  -7  -3   85.38    6.28   1
   1   7  -1  181.44   10.78  -2
  -1  -7  -2  181.44   10.78   1
   1   7   0    3.80    1.29  -2
  -1  -7  -1    3.80    1.29   1
   1   7   1  248.38   10.40  -2
  -1  -7   0  248.38   10.40   1
   1   7   2   86.49    4.84  -2
  -1  -7   1   86.49    4.84   1
   1   7   3    9.00    2.22  -2
  -1  -7   2    9.00    2.22   1
   1   7   4  126.79    6.31  -2
  -1  -7   3  126.79    6.31   1
   1   7   5   80.64    4.49  -2
  -1  -7   4   80.64    4.49   1
   1   7   6  126.34    6.29  -2
  -1  -7   5  126.34    6.29   1
   1   7   7  232.26    9.75  -2
  -1  -7   6  232.26    9.75   1
   1   7   8    8.01    2.60  -2
  -1  -7   7    8.01    2.60   1
   1   7   9  192.10    8.87  -2
  -1  -7   8  192.10    8.87   1
   1   7  10  121.22    6.61  -2
  -1  -7   9  121.22    6.61   1
   1   7  11    4.58    2.01  -2
  -1  -7  10    4.58    2.01   1
   1   6 -20   25.30    3.32  -2
  -1  -6 -21   25.30    3.32   1
   1   6 -19    3.20    2.79  -2
  -1  -6 -20    3.20    2.79   1
   1   6 -18    5.90    2.48  -2
  -1  -6 -19    5.90    2.48   1
   1   6 -17    6.10    2.82  -2
  -1  -6 -18    6.10    2.82   1
   1   6 -16  124.10    6.02  -2
  -1  -6 -17  124.10    6.02   1
   1   6 -15   13.32    1.97  -2
  -1  -6 -16   13.32    1.97   1
   1   6 -14  267.65    8.83  -2
  -1  -6 -15  267.65    8.83   1
   1   6 -13   14.98    2.48  -2
  -1  -6 -14   14.98    2.48   1
   1   6 -12  168.48    6.49  -2
  -1  -6 -13  168.48    6.49   1
   1   6 -11   44.36    3.06  -2
  -1  -6 -12   44.36    3.06   1
   1   6 -10   64.32    3.21  -2
  -1  -6 -11   64.32    3.21   1
   1   6  -9   39.31    2.26  -2
  -1  -6 -10   39.31    2.26   1
   1   6  -8  457.10   10.69  -2
  -1  -6  -9  457.10   10.69   1
   1   6  -7   34.46    2.23  -2
  -1  -6  -8   34.46    2.23   1
   1   6  -6  569.78   12.89  -2
  -1  -6  -7  569.78   12.89   1
   1   6  -5   63.68    2.71  -2
  -1  -6  -6   63.68    2.71   1
   1   6  -4   58.06    2.13  -2
  -1  -6  -5   58.06    2.13   1
   1   6  -3   20.34    1.08  -2
  -1  -6  -4   20.34    1.08   1
   1   6  -2  463.54    9.90  -2
  -1  -6  -3  463.54    9.90   1
   1   6  -1   43.56    2.11  -2
  -1  -6  -2   43.56    2.11   1
   1   6   0 1023.36   17.27  -2
  -1  -6  -1 1023.36   17.27   1
   1   6   1   64.00    1.44  -2
  -1  -6   0   64.00    1.44   1
   1   6   2  663.58   23.70  -2
  -1  -6   1  663.58   23.70   1
   1   6   3   34.46    2.82  -2
  -1  -6   2   34.46    2.82   1
   1   6   4    5.71    1.10  -2
  -1  -6   3    5.71    1.10   1
   1   6   5   57.76    3.34  -2
  -1  -6   4   57.76    3.34   1
   1   6   6  456.25   17.94  -2
  -1  -6   5  456.25   17.94   1
   1   6   7   49.56    3.24  -2
  -1  -6   6   49.56    3.24   1
   1   6   8  491.51   17.74  -2
  -1  -6   7  491.51   17.74   1
   1   6   9   52.85    3.05  -2
  -1  -6   8   52.85    3.05   1
   1   6  10  146.41    6.29  -2
  -1  -6   9  146.41    6.29   1
   1   6  11   90.63    4.38  -2
  -1  -6  10   90.63    4.38   1
   1   6  12   47.75    3.32  -2
  -1  -6  11   47.75    3.32   1
   1   6  13   33.99    2.57  -2
  -1  -6  12   33.99    2.57   1
   1   5 -21    3.39    3.20  -2
  -1  -5 -22    3.39    3.20   1
   1   5 -20   35.05    3.43  -2
  -1  -5 -21   35.05    3.43   1
   1   5 -19    9.12    3.02  -2
  -1  -5 -20    9.12    3.02   1
   1   5 -18  135.96    6.76  -2
  -1  -5 -19  135.96    6.76   1
   1   5 -17   23.91    3.42  -2
  -1  -5 -18   23.91    3.42   1
   1   5 -16  115.35    4.73  -2
  -1  -5 -17  115.35    4.73   1
   1   5 -15   55.06    2.97  -2
  -1  -5 -16   55.06    2.97   1
   1   5 -14   28.30    2.45  -2
  -1  -5 -15   28.30    2.45   1
   1   5 -13   35.40    2.62  -2
  -1  -5 -14   35.40    2.62   1
   1   5 -12  253.13    7.64  -2
  -1  -5 -13  253.13    7.64   1
   1   5 -11   16.56    2.36  -2
  -1  -5 -12   16.56    2.36   1
   1   5 -10  359.86    9.11  -2
  -1  -5 -11  359.86    9.11   1
   1   5  -9   32.49    2.85  -2
  -1  -5 -10   32.49    2.85   1
   1   5  -8  155.75    4.74  -2
  -1  -5  -9  155.75    4.74   1
   1   5  -7   83.36    2.74  -2
  -1  -5  -8   83.36    2.74   1
   1   5  -6  161.80    4.58  -2
  -1  -5  -7  161.80    4.58   1
   1   5  -5   71.23    3.38  -2
  -1  -5  -6   71.23    3.38   1
   1   5  -4 1065.37   21.54  -2
  -1  -5  -5 1065.37   21.54   1
   1   5  -3   77.62    4.93  -2
  -1  -5  -4   77.62    4.93   1
   1   5  -2  877.94   18.37  -2
  -1  -5  -3  877.94   18.37   1
   1   5  -1  221.41    5.95  -2
  -1  -5  -2  221.41    5.95   1
   1   5   0   47.75    1.24  -2
  -1  -5  -1   47.75    1.24   1
   1   5   1  235.93    3.69  -2
  -1  -5   0  235.93    3.69   1
   1   5   2  512.57    7.24  -2
  -1  -5   1  512.57    7.24   1
   1   5   3   98.41    6.15  -2
  -1  -5   2   98.41    6.15   1
   1   5   4 1130.98   37.67  -2
  -1  -5   3 1130.98   37.67   1
   1   5   5   61.94    5.82  -2
  -1  -5   4   61.94    5.82   1
   1   5   6  500.86   17.90  -2
  -1  -5   5  500.86   17.90   1
   1   5   7   62.09    3.15  -2
  -1  -5   6   62.09    3.15   1
   1   5   8   19.98    0.36  -2
  -1  -5   7   19.98    0.36   1
   1   5   9   16.48    0.57  -2
  -1  -5   8   16.48    0.57   1
   1   5  10  435.14    7.93  -2
  -1  -5   9  435.14    7.93   1
   1   5  11    6.20    3.19  -2
  -1  -5  10    6.20    3.19   1
   1   5  12  388.88   14.99  -2
  -1  -5  11  388.88   14.99   1
   1   5  13   16.89    2.38  -2
  -1  -5  12   16.89    2.38   1
   1   5  14  123.65    6.00  -2
  -1  -5  13  123.65    6.00   1
  -1  -4 -23   15.21    3.59   1
  -1  -4 -22    9.99    2.53   1
  -1  -4 -21   12.82    2.94   1
  -1  -4 -20  123.65    5.56   1
  -1  -4 -19    3.20    2.40   1
  -1  -4 -18  137.36    5.39   1
  -1  -4 -17   43.96    3.18   1
  -1  -4 -16   32.38    2.39   1
  -1  -4 -15   96.63    3.93   1
  -1  -4 -14   58.06    3.35   1
  -1  -4 -13   29.59    2.83   1
  -1  -4 -12  545.22   13.08   1
  -1  -4 -11   24.11    1.77   1
  -1  -4 -10  406.83    8.47   1
  -1  -4  -9  121.44    3.31   1
  -1  -4  -8   19.01    1.40   1
  -1  -4  -7  107.12    2.90   1
  -1  -4  -6  400.40    8.00   1
  -1  -4  -5    6.60    1.59   1
  -1  -4  -4 1075.18   17.05   1
  -1  -4  -3  208.22    4.33   1
  -1  -4  -2  651.78    8.68   1
  -1  -4  -1  495.95    7.13   1
  -1  -4   0   93.32    1.74   1
  -1  -4   1  368.64    5.38   1
  -1  -4   2 1054.30   14.29   1
  -1  -4   3   47.06    0.82   1
  -1  -4   4  633.03    8.05   1
  -1  -4   5   69.22    1.33   1
  -1  -4   6  135.02    2.09   1
  -1  -4   7  199.94    3.11   1
  -1  -4   8   53.14    1.31   1
  -1  -4   9  101.40    2.62   1
  -1  -4  10  573.60   10.54   1
  -1  -4  11    6.20    1.20   1
  -1  -4  12  234.09    4.90   1
  -1  -4  13  143.52    4.07   1
  -1  -4  14    4.71    1.69   1
  -1  -4  15  136.19    6.77   1
  -1  -3 -23   -2.31    2.71   1
  -1  -3 -22  117.94    6.08   1
  -1  -3 -21    2.19    2.49   1
  -1  -3 -20   54.02    3.23   1
  -1  -3 -19   10.18    1.72   1
  -1  -3 -18   56.40    3.15   1
  -1  -3 -17   25.50    2.12   1
  -1  -3 -16  433.89   12.50   1
  -1  -3 -15    0.40    1.59   1
  -1  -3 -14  463.97   11.20   1
  -1  -3 -13   17.14    1.49   1
  -1  -3 -12   40.32    2.16   1
  -1  -3 -11   33.06    1.84   1
  -1  -3 -10  225.00    4.80   1
  -1  -3  -9  155.00    3.74   1
  -1  -3  -8 1085.04   22.40   1
  -1  -3  -7    4.80    1.01   1
  -1  -3  -6 1018.25   18.51   1
  -1  -3  -5  183.87    3.25   1
  -1  -3  -4   93.90    1.74   1
  -1  -3  -3   77.62    1.23   1
  -1  -3  -2 1788.44   21.99   1
  -1  -3  -1    2.31    0.21   1
  -1  -3   0 2191.18   31.83   1
  -1  -3   1    8.88    0.30   1
  -1  -3   2 1010.60   12.72   1
  -1  -3   3  111.72    1.48   1
  -1  -3   4   79.03    1.24   1
  -1  -3   5   71.57    1.18   1
  -1  -3   6 1460.00   22.16   1
  -1  -3   7   73.44    1.37   1
  -1  -3   8  768.95   12.76   1
  -1  -3   9   56.55    1.50   1
  -1  -3  10   34.57    1.06   1
  -1  -3  11    0.59    0.49   1
  -1  -3  12  222.90    4.78   1
  -1  -3  13    1.00    0.70   1
  -1  -3  14  608.61   11.84   1
  -1  -3  15    0.50    0.81   1
  -1  -3  16  277.89    7.00   1
  -1  -3  17   -1.21    1.50   1
  -1  -2 -24   17.14    3.73   1
  -1  -2 -23   71.57    3.72   1
  -1  -2 -22   10.18    1.98   1
  -1  -2 -21   78.15    4.77   1
  -1  -2 -20   55.20    3.27   1
  -1  -2 -19   12.32    2.18   1
  -1  -2 -18  136.19    5.60   1
  -1  -2 -17   34.93    2.60   1
  -1  -2 -16   46.92    2.33   1
  -1  -2 -15  254.40    7.66   1
  -1  -2 -14   88.36    3.20   1
  -1  -2 -13  303.46    7.66   1
  -1  -2 -12  292.41    7.18   1
  -1  -2 -11   17.72    0.84   1
  -1  -2 -10  398.80    7.99   1
  -1  -2  -9  827.71   14.39   1
  -1  -2  -8    9.18    0.61   1
  -1  -2  -7  872.61   13.59   1
  -1  -2  -6  718.78   11.80   1
  -1  -2  -5  394.42    6.75   1
  -1  -2  -4 1079.12   17.08   1
  -1  -2  -3   37.82    0.98   1
  -1  -2  -2  520.30    7.30   1
  -1  -2  -1  771.73   10.00   1
  -1  -2   0   23.62    0.39   1
  -1  -2   1  550.37    6.57   1
  -1  -2   2  800.32    9.05   1
  -1  -2   3   17.98    0.42   1
  -1  -2   4 1266.65   15.66   1
  -1  -2   5  539.63    7.43   1
  -1  -2   6  425.18    6.19   1
  -1  -2   7  815.67   10.85   1
  -1  -2   8  159.01    3.03   1
  -1  -2   9  456.68    8.98   1
  -1  -2  10  533.61    8.78   1
  -1  -2  11   16.00    0.80   1
  -1  -2  12  344.47    5.94   1
  -1  -2  13  284.93    5.40   1
  -1  -2  14   23.52    1.36   1
  -1  -2  15  112.15    3.39   1
  -1  -2  16  173.45    4.48   1
  -1  -2  17    6.50    1.27   1
  -1  -2  18  206.21    5.74   1
  -1  -2  19   15.37    2.51   1
  -1  -1 -24   -1.49    1.39   1
  -1  -1 -23   19.80    2.40   1
  -1  -1 -22    7.02    1.59   1
  -1  -1 -21   28.30    2.13   1
  -1  -1 -20    1.90    1.30   1
  -1  -1 -19  251.86    7.30   1
  -1  -1 -18    2.89    1.60   1
  -1  -1 -17  206.78    6.61   1
  -1  -1 -16    4.71    1.39   1
  -1  -1 -15    1.49    0.90   1
  -1  -1 -14    4.08    1.09   1
  -1  -1 -13  316.13    8.18   1
  -1  -1 -12   12.39    0.63   1
  -1  -1 -11  882.09   16.04   1
  -1  -1 -10   22.37    0.76   1
  -1  -1  -9  502.66    8.07   1
  -1  -1  -8   19.18    0.70   1
  -1  -1  -7   74.48    1.55   1
  -1  -1  -6   34.81    0.94   1
  -1  -1  -5 1053.00   16.23   1
  -1  -1  -4  269.29    4.59   1
  -1  -1  -3 1133.00   16.83   1
  -1  -1  -2   65.45    1.13   1
  -1  -1  -1  213.45    2.92   1
  -1  -1   0  290.02    4.09   1
  -1  -1   1  421.07    6.57   1
  -1  -1   2  222.31    3.28   1
  -1  -1   3 1149.89   15.60   1
  -1  -1   4  145.68    2.41   1
  -1  -1   5  841.58   12.18   1
  -1  -1   6   11.83    0.48   1
  -1  -1   7    3.61    0.30   1
  -1  -1   8    6.50    0.41   1
  -1  -1   9  626.50   10.01   1
  -1  -1  10   29.16    0.97   1
  -1  -1  11  802.02   13.03   1
  -1  -1  12   61.00    1.56   1
  -1  -1  13  216.38    4.12   1
  -1  -1  14   31.25    1.45   1
  -1  -1  15   19.62    1.33   1
  -1  -1  16    4.58    0.98   1
  -1  -1  17  261.47    6.47   1
  -1  -1  18    2.50    1.11   1
  -1  -1  19  220.52    8.32   1
  -1  -1  20    5.38    1.90   1
  -1  -1  21    9.42    2.03   1
  -1   0 -24   15.92    2.00   1
  -1   0 -23   88.36    4.89   1
  -1   0 -22    1.30    1.50   1
  -1   0 -21  130.42    5.02   1
  -1   0 -20   73.44    3.09   1
  -1   0 -19    8.70    1.30   1
  -1   0 -18  169.00    5.20   1
  -1   0 -17   83.54    2.92   1
  -1   0 -16   34.34    1.64   1
  -1   0 -15  296.18    6.20   1
  -1   0 -14   30.03    0.99   1
  -1   0 -13  119.25    3.06   1
  -1   0 -12  530.84    9.22   1
  -1   0 -11   28.62    0.86   1
  -1   0 -10  422.30    6.58   1
  -1   0  -9  488.85    6.63   1
  -1   0  -8  107.95    1.66   1
  -1   0  -7  635.04    9.07   1
  -1   0  -6   99.80    1.60   1
  -1   0  -5  633.53    8.56   1
  -1   0  -4 2768.86   36.83   1
  -1   0  -3   88.92    1.32   1
  -1   0  -2  531.30    6.91   1
  -1   0  -1 1101.58   14.60   1
  -1   0   0    0.30    0.20   1
  -1   0   1  897.00   12.58   1
  -1   0   2  777.29   11.15   1
  -1   0   3  139.00    2.59   1
  -1   0   4 2297.28   31.63   1
  -1   0   5  606.64    9.36   1
  -1   0   6   18.49    0.77   1
  -1   0   7  693.27   11.06   1
  -1   0   8   71.23    1.86   1
  -1   0   9  481.80    8.34   1
  -1   0  10  329.06    6.17   1
  -1   0  11    9.18    0.91   1
  -1   0  12  337.82    7.35   1
  -1   0  13  190.72    4.42   1
  -1   0  14    9.61    0.99   1
  -1   0  15  378.30    7.78   1
  -1   0  16   16.73    1.39   1
  -1   0  17   85.38    3.88   1
  -1   0  18   97.61    4.74   1
  -1   0  19   28.94    2.80   1
  -1   0  20   31.70    3.15   1
  -1   0  21  174.24    7.39   1
  -1   0  22   -1.99    2.68   1
  -1   0  23   87.05    5.97   1
   1  -1 -24   56.25    3.60  -2
  -1   1 -24   56.25    3.60   1
   1  -1 -23    0.20    1.61  -2
  -1   1 -23    0.20    1.61   1
   1  -1 -22  126.56    5.40  -2
  -1   1 -22  126.56    5.40   1
   1  -1 -21    1.69    1.30  -2
  -1   1 -21    1.69    1.30   1
   1  -1 -20   62.57    3.16  -2
  -1   1 -20   62.57    3.16   1
   1  -1 -19   33.52    1.85  -2
  -1   1 -19   33.52    1.85   1
   1  -1 -18    1.49    1.20  -2
  -1   1 -18    1.49    1.20   1
   1  -1 -17   21.90    1.59  -2
  -1   1 -17   21.90    1.59   1
   1  -1 -16  379.08    7.40  -2
  -1   1 -16  379.08    7.40   1
   1  -1 -15   10.11    0.89  -2
  -1   1 -15   10.11    0.89   1
   1  -1 -14  650.76   11.22  -2
  -1   1 -14  650.76   11.22   1
   1  -1 -13   46.10    1.36  -2
  -1   1 -13   46.10    1.36   1
   1  -1 -12   95.65    1.76  -2
  -1   1 -12   95.65    1.76   1
   1  -1 -11   15.21    0.62  -2
  -1   1 -11   15.21    0.62   1
   1  -1 -10  194.32    2.79  -2
  -1   1 -10  194.32    2.79   1
   1  -1  -9   15.37    0.47  -2
  -1   1  -9   15.37    0.47   1
   1  -1  -8 2768.86   33.68  -2
  -1   1  -8 2768.86   33.68   1
   1  -1  -7   68.89    1.16  -2
  -1   1  -7   68.89    1.16   1
   1  -1  -6 1731.39   21.64  -2
  -1   1  -6 1731.39   21.64   1
   1  -1  -5  231.65    3.35  -2
  -1   1  -5  231.65    3.35   1
   1  -1  -4   18.84    0.52  -2
  -1   1  -4   18.84    0.52   1
   1  -1  -3  148.11    2.19  -2
  -1   1  -3  148.11    2.19   1
   1  -1  -2  585.16    7.74  -2
  -1   1  -2  585.16    7.74   1
   1  -1  -1   35.28    0.71  -2
  -1   1  -1   35.28    0.71   1
   1  -1   0 1753.10   21.77  -2
  -1   1   0 1753.10   21.77   1
   1  -1   1   39.44    0.75  -2
  -1   1   1   39.44    0.75   1
   1  -1   2  614.54    7.93  -2
  -1   1   2  614.54    7.93   1
   1  -1   3  211.12    3.20  -2
  -1   1   3  211.12    3.20   1
   1  -1   4   25.50    0.71  -2
  -1   1   4   25.50    0.71   1
   1  -1   5  264.06    3.90  -2
  -1   1   5  264.06    3.90   1
   1  -1   6 1628.93   22.60  -2
  -1   1   6 1628.93   22.60   1
   1  -1   7   63.04    1.27  -2
  -1   1   7   63.04    1.27   1
   1  -1   8 2386.32   40.06  -2
  -1   1   8 2386.32   40.06   1
   1  -1   9   35.88    0.96  -2
  -1   1   9   35.88    0.96   1
   1  -1  10  176.36    3.19  -2
  -1   1  10  176.36    3.19   1
   1  -1  11   62.57    2.37  -2
  -1   1  11   62.57    2.37   1
   1  -1  12   76.91    2.28  -2
  -1   1  12   76.91    2.28   1
   1  -1  13   81.00    2.52  -2
  -1   1  13   81.00    2.52   1
   1  -1  14  580.81   13.50  -2
  -1   1  14  580.81   13.50   1
   1  -1  15    1.59    1.08  -2
  -1   1  15    1.59    1.08   1
   1  -1  16  339.66    9.58  -2
  -1   1  16  339.66    9.58   1
   1  -1  17   65.61    3.24  -2
  -1   1  17   65.61    3.24   1
   1  -1  18    0.30    1.21  -2
  -1   1  18    0.30    1.21   1
   1  -1  19   80.28    4.12  -2
  -1   1  19   80.28    4.12   1
   1  -1  20   41.73    3.23  -2
  -1   1  20   41.73    3.23   1
   1  -1  21    0.71    1.81  -2
  -1   1  21    0.71    1.81   1
   1  -1  22  111.72    6.13  -2
  -1   1  22  111.72    6.13   1
   1  -1  23    4.08    2.30  -2
  -1   1  23    4.08    2.30   1
   1  -1  24   45.16    4.17  -2
  -1   1  24   45.16    4.17   1
   1  -2 -23    4.49    1.91  -2
  -1   2 -23    4.49    1.91   1
   1  -2 -22    0.90    1.41  -2
  -1   2 -22    0.90    1.41   1
   1  -2 -21   41.34    2.83  -2
  -1   2 -21   41.34    2.83   1
   1  -2 -20   98.01    3.76  -2
  -1   2 -20   98.01    3.76   1
   1  -2 -19   -1.49    1.20  -2
  -1   2 -19   -1.49    1.20   1
   1  -2 -18  131.79    4.13  -2
  -1   2 -18  131.79    4.13   1
   1  -2 -17   63.36    2.55  -2
  -1   2 -17   63.36    2.55   1
   1  -2 -16   53.00    1.89  -2
  -1   2 -16   53.00    1.89   1
   1  -2 -15   73.10    2.22  -2
  -1   2 -15   73.10    2.22   1
   1  -2 -14    3.88    0.71  -2
  -1   2 -14    3.88    0.71   1
   1  -2 -13  109.20    1.88  -2
  -1   2 -13  109.20    1.88   1
   1  -2 -12  789.05   11.80  -2
  -1   2 -12  789.05   11.80   1
   1  -2 -11    1.69    0.39  -2
  -1   2 -11    1.69    0.39   1
   1  -2 -10  862.01   12.92  -2
  -1   2 -10  862.01   12.92   1
   1  -2  -9   39.31    1.00  -2
  -1   2  -9   39.31    1.00   1
   1  -2  -8    1.49    0.39  -2
  -1   2  -8    1.49    0.39   1
   1  -2  -7   80.46    1.44  -2
  -1   2  -7   80.46    1.44   1
   1  -2  -6  349.32    4.86  -2
  -1   2  -6  349.32    4.86   1
   1  -2  -5  187.69    2.74  -2
  -1   2  -5  187.69    2.74   1
   1  -2  -4 1175.12   15.08  -2
  -1   2  -4 1175.12   15.08   1
   1  -2  -3  101.40    1.61  -2
  -1   2  -3  101.40    1.61   1
   1  -2  -2  613.06    7.92  -2
  -1   2  -2  613.06    7.92   1
   1  -2  -1  656.38    8.71  -2
  -1   2  -1  656.38    8.71   1
   1  -2   0    4.49    0.30  -2
  -1   2   0    4.49    0.30   1
   1  -2   1  668.22    9.31  -2
  -1   2   1  668.22    9.31   1
   1  -2   2  515.29    7.72  -2
  -1   2   2  515.29    7.72   1
   1  -2   3  139.48    2.36  -2
  -1   2   3  139.48    2.36   1
   1  -2   4 1243.27   16.92  -2
  -1   2   4 1243.27   16.92   1
   1  -2   5  129.50    2.50  -2
  -1   2   5  129.50    2.50   1
   1  -2   6  439.32    7.55  -2
  -1   2   6  439.32    7.55   1
   1  -2   7   29.81    0.87  -2
  -1   2   7   29.81    0.87   1
   1  -2   8   12.18    0.77  -2
  -1   2   8   12.18    0.77   1
   1  -2   9   15.52    1.02  -2
  -1   2   9   15.52    1.02   1
   1  -2  10  860.84   15.84  -2
  -1   2  10  860.84   15.84   1
   1  -2  11    1.80    0.40  -2
  -1   2  11    1.80    0.40   1
   1  -2  12  961.00   19.84  -2
  -1   2  12  961.00   19.84   1
   1  -2  13   39.82    2.15  -2
  -1   2  13   39.82    2.15   1
   1  -2  14   15.68    2.30  -2
  -1   2  14   15.68    2.30   1
   1  -2  15   24.80    2.19  -2
  -1   2  15   24.80    2.19   1
   1  -2  16   49.14    3.08  -2
  -1   2  16   49.14    3.08   1
   1  -2  17   47.61    3.17  -2
  -1   2  17   47.61    3.17   1
   1  -2  18  162.56    6.38  -2
  -1   2  18  162.56    6.38   1
   1  -2  19    2.10    1.51  -2
  -1   2  19    2.10    1.51   1
   1  -2  20  123.21    6.44  -2
  -1   2  20  123.21    6.44   1
   1  -2  21   11.83    2.27  -2
  -1   2  21   11.83    2.27   1
   1  -2  22    1.21    1.91  -2
  -1   2  22    1.21    1.91   1
   1  -2  23    2.10    2.20  -2
  -1   2  23    2.10    2.20   1
  -1   3 -22   12.67    1.78   1
  -1   3 -21   24.50    2.28   1
  -1   3 -20    6.92    1.42   1
  -1   3 -19  169.26    5.46   1
  -1   3 -18    7.08    1.38   1
  -1   3 -17  289.34    8.16   1
  -1   3 -16   65.93    2.27   1
  -1   3 -15    4.28    0.79   1
  -1   3 -14   13.91    0.97   1
  -1   3 -13  288.66    5.78   1
  -1   3 -12    2.59    0.61   1
  -1   3 -11  415.75    6.12   1
  -1   3 -10   26.73    0.93   1
  -1   3  -9  454.54    6.40   1
  -1   3  -8  216.38    3.53   1
  -1   3  -7    5.81    0.39   1
  -1   3  -6  138.30    2.12   1
  -1   3  -5  803.16   14.17   1
  -1   3  -4    6.20    0.40   1
  -1   3  -3 1387.56   20.86   1
  -1   3  -2   17.72    0.59   1
  -1   3  -1  609.60    8.39   1
  -1   3   0  189.61    3.03   1
  -1   3   1  343.36    5.56   1
  -1   3   2   60.53    1.24   1
  -1   3   3 1319.14   19.61   1
  -1   3   4    0.00    1.00   1
  -1   3   5  934.52   15.28   1
  -1   3   6  139.24    2.60   1
  -1   3   7   64.32    1.60   1
  -1   3   8  285.95    5.75   1
  -1   3   9  296.18    6.20   1
  -1   3  10   65.61    1.94   1
  -1   3  11  318.27    6.78   1
  -1   3  12    1.80    0.51   1
  -1   3  13  306.25    8.05   1
  -1   3  14   34.57    2.12   1
  -1   3  15   17.64    2.18   1
  -1   3  16  127.69    4.97   1
  -1   3  17  218.45    8.28   1
  -1   3  18    7.90    1.80   1
  -1   3  19  163.58    6.91   1
  -1   3  20   14.36    3.03   1
  -1   3  21   31.25    4.02   1
  -1   3  22   27.77    3.48   1
  -1   4 -21   81.18    4.14   1
  -1   4 -20    1.80    1.39   1
  -1   4 -19   24.70    1.99   1
  -1   4 -18   25.20    1.91   1
  -1   4 -17   73.10    2.74   1
  -1   4 -16   28.73    1.50   1
  -1   4 -15  376.36    8.15   1
  -1   4 -14    8.53    0.99   1
  -1   4 -13  403.21    8.03   1
  -1   4 -12    4.08    0.69   1
  -1   4 -11    1.30    0.50   1
  -1   4 -10   88.36    1.88   1
  -1   4  -9   -0.79    0.39   1
  -1   4  -8   28.41    0.85   1
  -1   4  -7  707.03   10.10   1
  -1   4  -6   20.98    0.46   1
  -1   4  -5  406.43    5.24   1
  -1   4  -4   43.16    0.79   1
  -1   4  -3  170.82    2.61   1
  -1   4  -2   10.11    0.32   1
  -1   4  -1   -0.79    0.20   1
  -1   4   0    1.00    0.30   1
  -1   4   1 1113.56   18.02   1
  -1   4   2    2.79    0.40   1
  -1   4   3  491.95    8.43   1
  -1   4   4   23.81    0.78   1
  -1   4   5  153.26    3.22   1
  -1   4   6   24.21    0.89   1
  -1   4   7  694.85   11.60   1
  -1   4   8    2.89    0.71   1
  -1   4   9  532.22   10.15   1
  -1   4  10   39.82    1.64   1
  -1   4  11   34.22    1.52   1
  -1   4  12    1.69    0.70   1
  -1   4  13  286.96    9.15   1
  -1   4  14    2.69    1.80   1
  -1   4  15  411.28   12.17   1
  -1   4  16    6.81    1.62   1
  -1   4  17  156.50    6.26   1
  -1   4  18    3.31    2.29   1
  -1   4  19    0.71    2.50   1
  -1   4  20   -0.10    1.72   1
  -1   4  21   92.54    5.77   1
  -1   4  22    1.39    2.60   1
  -1   5 -20   36.72    6.18   1
  -1   5 -19   29.48    5.21   1
  -1   5 -18    8.18    4.00   1
  -1   5 -17   58.98    4.15   1
  -1   5 -16   43.03    3.15   1
  -1   5 -15    1.39    0.80   1
  -1   5 -14  185.50    4.63   1
  -1   5 -13   46.65    1.64   1
  -1   5 -12  131.56    3.21   1
  -1   5 -11  121.88    3.09   1
  -1   5 -10    8.18    0.51   1
  -1   5  -9  109.20    1.88   1
  -1   5  -8  179.83    6.17   1
  -1   5  -7    9.12    1.39   1
  -1   5  -6  176.36    5.58   1
  -1   5  -5  196.56    5.89   1
  -1   5  -4   33.06    2.18   1
  -1   5  -3  165.38    5.40   1
  -1   5  -2   79.92    1.43   1
  -1   5  -1   84.64    1.66   1
  -1   5   0  456.25    8.97   1
  -1   5   1   14.52    0.61   1
  -1   5   2  238.39    4.32   1
  -1   5   3  164.10    3.59   1
  -1   5   4    0.50    0.40   1
  -1   5   5  308.35    5.62   1
  -1   5   6   84.46    1.84   1
  -1   5   7  107.74    2.70   1
  -1   5   8  194.60    4.46   1
  -1   5   9   52.13    2.02   1
  -1   5  10   59.44    2.16   1
  -1   5  11  186.05    5.18   1
  -1   5  12   29.59    1.74   1
  -1   5  13  118.16    5.00   1
  -1   5  14  135.02    5.35   1
  -1   5  15    3.39    1.58   1
  -1   5  16   60.84    4.06   1
  -1   5  17   62.57    3.95   1
  -1   5  18    6.00    2.30   1
  -1   5  19   71.40    5.07   1
  -1   5  20    5.81    3.18   1
  -1   6 -18  112.15   10.59   1
  -1   6 -17    2.59    2.51   1
  -1   6 -16   90.63    5.14   1
  -1   6 -15    5.02    2.42   1
  -1   6 -14    0.50    1.51   1
  -1   6 -13    0.20    1.61   1
  -1   6 -12  127.69    5.20   1
  -1   6 -11    0.10    1.62   1
  -1   6 -10  256.64    8.65   1
  -1   6  -9   -0.71    1.41   1
  -1   6  -8   85.01    4.24   1
  -1   6  -7   30.03    2.19   1
  -1   6  -6   43.56    2.51   1
  -1   6  -5   21.16    2.39   1
  -1   6  -4  355.70   15.47   1
  -1   6  -3   -1.39    1.39   1
  -1   6  -2  274.56   11.93   1
  -1   6  -1    0.30    0.20   1
  -1   6   0   24.01    0.88   1
  -1   6   1    0.90    0.49   1
  -1   6   2  120.34    3.07   1
  -1   6   3   -0.10    0.51   1
  -1   6   4  407.64    8.88   1
  -1   6   5    5.90    0.92   1
  -1   6   6  214.62    5.27   1
  -1   6   7   22.09    1.41   1
  -1   6   8    0.50    1.11   1
  -1   6   9    0.50    1.11   1
  -1   6  10  168.48    5.19   1
  -1   6  11    0.40    1.30   1
  -1   6  12  193.77    6.68   1
  -1   6  13    3.39    1.99   1
  -1   6  14   50.55    3.56   1
  -1   6  15    0.79    2.19   1
  -1   6  16   11.42    2.30   1
  -1   6  17   -0.40    1.89   1
  -1   6  18  136.89    7.72   1
  -1   6  19    6.20    2.49   1
  -1   7 -16   32.04    4.08   1
  -1   7 -15   18.06    3.57   1
  -1   7 -14  106.50    6.19   1
  -1   7 -13   20.07    2.78   1
  -1   7 -12   43.16    3.55   1
  -1   7 -11  116.21    5.39   1
  -1   7 -10    7.18    2.30   1
  -1   7  -9   87.98    4.69   1
  -1   7  -8   85.75    4.63   1
  -1   7  -7    1.80    1.80   1
  -1   7  -6  137.12    8.20   1
  -1   7  -5   46.38    5.31   1
  -1   7  -4   17.47    3.93   1
  -1   7  -3  151.78    8.62   1
  -1   7  -2   53.73    4.25   1
  -1   7  -1   91.01    5.91   1
  -1   7   0  117.94    6.73   1
  -1   7   1   12.60    0.78   1
  -1   7   2  165.89    4.38   1
  -1   7   3  155.50    4.49   1
  -1   7   4   26.42    1.54   1
  -1   7   5   94.67    2.92   1
  -1   7   6   68.06    2.64   1
  -1   7   7   15.52    1.58   1
  -1   7   8  155.25    4.73   1
  -1   7   9   14.36    1.52   1
  -1   7  10   62.41    2.69   1
  -1   7  11  102.82    4.87   1
  -1   7  12    1.30    2.10   1
  -1   7  13   58.06    3.51   1
  -1   7  14   96.63    5.50   1
  -1   7  15    0.90    1.90   1
  -1   7  16  106.50    6.40   1
  -1   8 -12   -1.10    2.10   1
  -1   8 -11    2.89    2.58   1
  -1   8 -10    1.69    3.30   1
  -1   8  -9   45.83    3.79   1
  -1   8  -8    0.71    4.12   1
  -1   8  -7  174.77   10.31   1
  -1   8  -6    1.59    2.70   1
  -1   8  -5  132.48    9.44   1
  -1   8  -4    0.00    1.00   1
  -1   8  -3    0.79    3.38   1
  -1   8  -2    6.71    3.63   1
  -1   8  -1   87.05    6.90   1
  -1   8   0    6.92    4.00   1
  -1   8   1  168.48   10.12   1
  -1   8   2    7.18    2.68   1
  -1   8   3   48.86    4.75   1
  -1   8   4    4.20    3.32   1
  -1   8   5   21.16    1.56   1
  -1   8   6    8.18    1.49   1
  -1   8   7  160.02    5.06   1
  -1   8   8    4.49    1.61   1
  -1   8   9  140.19    5.21   1
  -1   8  10    2.79    1.90   1
  -1   8  11   27.04    3.12   1
  -1   8  12    8.18    2.40   1
  -1   8  13   10.11    2.23   1
  -1   8  14    4.88    2.21   1
   1  -9  -9   45.29    7.81  -2
  -1   9  -8   45.29    7.81   1
   1  -9  -8    5.38    3.57  -2
  -1   9  -7    5.38    3.57   1
   1  -9  -7   48.44    6.26  -2
  -1   9  -6   48.44    6.26   1
   1  -9  -6   36.48    5.68  -2
  -1   9  -5   36.48    5.68   1
   1  -9  -5    4.71    4.60  -2
  -1   9  -4    4.71    4.60   1
   1  -9  -4   49.00    6.86  -2
  -1   9  -3   49.00    6.86   1
   1  -9  -3    4.80    3.99  -2
  -1   9  -2    4.80    3.99   1
   1  -9  -2   41.22    6.16  -2
  -1   9  -1   41.22    6.16   1
   1  -9  -1   35.88    6.11  -2
  -1   9   0   35.88    6.11   1
   1  -9   0   -1.00    3.10  -2
  -1   9   1   -1.00    3.10   1
   1  -9   1   20.79    4.74  -2
  -1   9   2   20.79    4.74   1
   1  -9   2   43.56    5.94  -2
  -1   9   3   43.56    5.94   1
   1  -9   3    3.20    3.01  -2
  -1   9   4    3.20    3.01   1
   1  -9   4   78.68    7.98  -2
  -1   9   5   78.68    7.98   1
   1  -9   5    5.29    2.99  -2
  -1   9   6    5.29    2.99   1
   1  -9   6   35.40    5.59  -2
  -1   9   7   35.40    5.59   1
   1  -9   7   48.44    7.24  -2
  -1   9   8   48.44    7.24   1
   0 -10  -5   26.32    5.23   1
   0 -10  -4   11.90    4.90   1
   0 -10  -3   22.09    5.73   1
   0 -10  -2   74.13    7.23   1
   0 -10  -1    3.10    2.82   1
   0 -10   0   75.52    6.60   1
   0 -10   1   11.09    4.00   1
   0  -9  -2   32.04    3.85   1
   0  -9  -1    1.21    3.21   1
   0  -9   0   24.80    3.19   1
   0  -9   2  182.79   10.28   1
   0  -9   3    1.39    2.38   1
   0   8   1  229.52   10.60  -2
   0  -8   0  229.52   10.60   1
   0   8   2  132.71    7.60  -2
   0  -8   1  132.71    7.60   1
   0   8   3   22.18    2.83  -2
   0  -8   2   22.18    2.83   1
   0   8   4  143.04    6.94  -2
   0  -8   3  143.04    6.94   1
   0   8   5   34.22    3.63  -2
   0  -8   4   34.22    3.63   1
   0   8   6   45.83    3.93  -2
   0  -8   5   45.83    3.93   1
   0   7  -1    9.61    3.10  -2
   0  -7  -2    9.61    3.10   1
   0   7   2  359.48   14.79  -2
   0  -7   1  359.48   14.79   1
   0   7   3   33.99    3.15  -2
   0  -7   2   33.99    3.15   1
   0   7   4    0.59    1.49  -2
   0  -7   3    0.59    1.49   1
   0   7   5    3.39    1.29  -2
   0  -7   4    3.39    1.29   1
   0   7   6  294.47   12.01  -2
   0  -7   5  294.47   12.01   1
   0   7   7   31.58    3.26  -2
   0  -7   6   31.58    3.26   1
   0   7   8  383.38   15.27  -2
   0  -7   7  383.38   15.27   1
   0   7   9   14.52    2.29  -2
   0  -7   8   14.52    2.29   1
   0  -6 -20    3.20    3.01   1
   0  -6 -19   43.16    3.42   1
   0  -6 -18    2.50    3.00   1
   0  -6 -17   41.09    3.46   1
   0  -6 -16   37.58    3.19   1
   0  -6 -15   -1.21    1.41   1
   0  -6 -14   70.56    4.03   1
   0  -6 -13  117.07    4.76   1
   0  -6 -12    1.10    1.60   1
   0  -6 -11  287.98    8.82   1
   0  -6 -10  136.42    5.61   1
   0  -6  -9  102.41    3.85   1
   0  -6  -8  210.25    5.80   1
   0  -6  -7   87.98    3.38   1
   0  -6  -6  115.99    4.31   1
   0  -6  -5  534.53   12.02   1
   0  -6  -4    7.18    2.09   1
   0  -6  -3  496.40   11.59   1
   0  -6  -2  113.00    3.40   1
   0  -6  -1   24.40    0.99   1
   0  -6   0  161.80    3.05   1
   0  -6   2   18.49    3.87   1
   0  -6   3  615.04   23.31   1
   0  -6   4   65.93    3.41   1
   0  -6   5  289.34   11.91   1
   0  -6   6  146.17    6.29   1
   0  -6   7    5.90    1.12   1
   0  -6   8  129.50    5.69   1
   0  -6   9  356.08   13.21   1
   0  -5 -21   -1.21    2.00   1
   0  -5 -20   58.52    4.28   1
   0  -5 -19    1.99    2.48   1
   0  -5 -18  150.06    6.12   1
   0  -5 -17   -1.00    2.10   1
   0  -5 -16   16.40    1.86   1
   0  -5 -15    3.50    1.91   1
   0  -5 -14   79.92    3.58   1
   0  -5 -13   16.08    1.92   1
   0  -5 -12  289.68    8.51   1
   0  -5 -11    2.40    1.49   1
   0  -5 -10  321.48    6.45   1
   0  -5  -9   42.64    1.44   1
   0  -5  -8   18.06    0.94   1
   0  -5  -7   36.84    1.34   1
   0  -5  -6  330.15    6.18   1
   0  -5  -5   17.47    0.92   1
   0  -5  -4  760.10   15.99   1
   0  -5  -3    5.38    0.70   1
   0  -5  -2  220.82    5.35   1
   0  -5  -1  228.61    4.23   1
   0  -5   0   36.00    0.84   1
   0  -5   2  551.78   20.20   1
   0  -5   3    6.00    1.32   1
   0  -5   4  622.00   20.95   1
   0  -5   5   49.42    2.67   1
   0  -5   6   40.32    2.16   1
   0  -5   7   86.86    3.91   1
   0  -5   8  179.02    7.23   1
   0  -5   9   38.94    2.37   1
   0  -5  10  353.44   13.16   1
   0  -5  11   12.32    1.33   1
   0  -4 -22   62.25    4.58   1
   0  -4 -21   16.48    2.52   1
   0  -4 -20   32.95    3.44   1
   0  -4 -19   55.06    3.56   1
   0  -4 -18    0.79    1.39   1
   0  -4 -17   45.83    2.98   1
   0  -4 -16  118.59    4.57   1
   0  -4 -15   -0.40    1.10   1
   0  -4 -14  238.39    7.72   1
   0  -4 -13   89.87    2.46   1
   0  -4 -12   19.10    1.84   1
   0  -4 -11  204.78    5.15   1
   0  -4 -10  184.42    4.35   1
   0  -4  -9   39.44    2.01   1
   0  -4  -8  765.63   16.05   1
   0  -4  -7   32.49    1.37   1
   0  -4  -6  761.21   14.35   1
   0  -4  -5   96.83    2.56   1
   0  -4  -4    7.62    0.83   1
   0  -4  -3  305.55    5.59   1
   0  -4  -2  435.14    7.09   1
   0  -4  -1   88.74    1.70   1
   0  -4   0  700.13   10.58   1
   0  -4   1  296.87    4.82   1
   0  -4   3  180.36    7.79   1
   0  -4   4  220.52    8.91   1
   0  -4   5   33.41    1.85   1
   0  -4   6 1030.41   33.38   1
   0  -4   7    1.99    0.20   1
   0  -4   8  585.64    8.71   1
   0  -4   9   64.48    1.61   1
   0  -4  10   35.76    1.08   1
   0  -4  11  106.50    2.68   1
   0  -4  12  119.90    5.47   1
   0  -4  13   12.60    1.28   1
   0  -3 -23   72.25    4.93   1
   0  -3 -22   -2.10    2.81   1
   0  -3 -21  127.69    6.55   1
   0  -3 -20   11.29    2.02   1
   0  -3 -19    0.30    1.41   1
   0  -3 -18   44.49    3.07   1
   0  -3 -17  157.75    5.78   1
   0  -3 -16   11.90    1.59   1
   0  -3 -15  298.25    8.64   1
   0  -3 -14   10.37    0.90   1
   0  -3 -13  274.23    7.62   1
   0  -3 -12   85.38    3.33   1
   0  -3 -11    5.20    0.91   1
   0  -3 -10  194.32    5.30   1
   0  -3  -9  530.38   11.52   1
   0  -3  -8   39.56    1.38   1
   0  -3  -7 1062.11   21.51   1
   0  -3  -6   30.58    1.22   1
   0  -3  -5  517.56    9.10   1
   0  -3  -4  279.22    4.34   1
   0  -3  -3  315.06    4.97   1
   0  -3  -2  646.68    8.65   1
   0  -3  -1 1655.68   22.79   1
   0  -3   0   34.22    0.58   1
   0  -3   1 1486.10   36.24   1
   0  -3   2  876.16   20.72   1
   0  -3   3   23.52    0.97   1
   0  -3   4  225.60    2.70   1
   0  -3   5  917.48   11.51   1
   0  -3   6   14.21    0.38   1
   0  -3   7  979.69   13.77   1
   0  -3   8  113.21    2.13   1
   0  -3   9  293.44    5.82   1
   0  -3  10  333.79    6.58   1
   0  -3  11   25.00    1.00   1
   0  -3  12  115.35    2.79   1
   0  -3  13  295.50    6.19   1
   0  -3  14   -0.50    0.70   1
   0  -3  15  226.50    6.02   1
   0  -2 -24   14.36    2.58   1
   0  -2 -23    2.59    2.09   1
   0  -2 -22    0.00    1.00   1
   0  -2 -21   47.33    4.27   1
   0  -2 -20    3.39    1.58   1
   0  -2 -19  103.43    4.68   1
   0  -2 -18    0.00    1.00   1
   0  -2 -17  189.61    7.71   1
   0  -2 -16   55.80    2.69   1
   0  -2 -15   15.68    1.11   1
   0  -2 -14   77.97    3.18   1
   0  -2 -13  269.29    7.22   1
   0  -2 -12    6.00    0.98   1
   0  -2 -11  856.73   19.90   1
   0  -2 -10    1.80    0.99   1
   0  -2  -9  541.03   14.42   1
   0  -2  -8  119.46    2.84   1
   0  -2  -7  118.37    2.39   1
   0  -2  -6   18.84    0.61   1
   0  -2  -5 1229.90   17.53   1
   0  -2  -4  230.43    3.95   1
   0  -2  -3 1651.61   22.76   1
   0  -2  -2   85.93    1.67   1
   0  -2  -1  438.06    6.28   1
   0  -2   0  246.80    3.46   1
   0  -2   1  900.00   21.00   1
   0  -2   2   62.25    1.74   1
   0  -2   3 1699.91   32.16   1
   0  -2   4  241.18    3.11   1
   0  -2   5 1106.89   13.31   1
   0  -2   6   15.13    0.39   1
   0  -2   7    5.71    0.38   1
   0  -2   8   33.06    0.81   1
   0  -2   9  774.51   13.91   1
   0  -2  10    0.20    0.40   1
   0  -2  11  852.64   14.02   1
   0  -2  12    0.50    0.50   1
   0  -2  13  183.60    4.34   1
   0  -2  14   24.60    1.19   1
   0  -2  15   66.75    2.12   1
   0  -2  16    5.20    1.00   1
   0  -2  17  228.61    7.56   1
   0  -2  18    1.49    1.68   1
   0   1 -24    9.80    2.00  -2
   0  -1 -24    9.80    2.00   1
   0   1 -23    9.49    2.09  -2
   0  -1 -23    9.49    2.09   1
   0   1 -22    1.10    2.31  -2
   0  -1 -22    1.10    2.31   1
   0   1 -21    5.90    1.60  -2
   0  -1 -21    5.90    1.60   1
   0   1 -20  132.71    5.53  -2
   0  -1 -20  132.71    5.53   1
   0   1 -19    8.82    1.60  -2
   0  -1 -19    8.82    1.60   1
   0   1 -18  307.65   11.23  -2
   0  -1 -18  307.65   11.23   1
   0   1 -17    9.99    1.39  -2
   0  -1 -17    9.99    1.39   1
   0   1 -16   39.94    2.28  -2
   0  -1 -16   39.94    2.28   1
   0   1 -15  130.19    3.42  -2
   0  -1 -15  130.19    3.42   1
   0   1 -14   37.82    2.21  -2
   0  -1 -14   37.82    2.21   1
   0   1 -13  179.29    5.89  -2
   0  -1 -13  179.29    5.89   1
   0   1 -12  622.00   13.97  -2
   0  -1 -12  622.00   13.97   1
   0   1 -11    2.69    0.89  -2
   0  -1 -11    2.69    0.89   1
   0   1 -10  612.56   11.88  -2
   0  -1 -10  612.56   11.88   1
   0   1  -9  230.74    5.16  -2
   0  -1  -9  230.74    5.16   1
   0   1  -8   68.06    1.65  -2
   0  -1  -8   68.06    1.65   1
   0   1  -7  861.42   12.91  -2
   0  -1  -7  861.42   12.91   1
   0   1  -6  364.05    5.34  -2
   0  -1  -6  364.05    5.34   1
   0   1  -5  176.62    2.92  -2
   0  -1  -5  176.62    2.92   1
   0   1  -4 3555.74   51.28  -2
   0  -1  -4 3555.74   51.28   1
   0   1  -3  600.74    8.82  -2
   0  -1  -3  600.74    8.82   1
   0   1  -2  992.88   13.86  -2
   0  -1  -2  992.88   13.86   1
   0   1  -1  194.32    3.90  -2
   0  -1  -1  194.32    3.90   1
   0   1   0    1.90    0.19  -2
   0  -1   0    1.90    0.19   1
   0   1   1  219.63    3.26  -2
   0  -1   1  219.63    3.26   1
   0   1   2 1231.31   18.25  -2
   0  -1   2 1231.31   18.25   1
   0   1   3  499.97    6.26  -2
   0  -1   3  499.97    6.26   1
   0   1   4 3193.38  107.37  -2
   0  -1   4 3193.38  107.37   1
   0   1   5  313.29    4.25  -2
   0  -1   5  313.29    4.25   1
   0   1   6  192.93    3.06  -2
   0  -1   6  192.93    3.06   1
   0   1   7  995.40   12.62  -2
   0  -1   7  995.40   12.62   1
   0   1   8   74.48    1.38  -2
   0  -1   8   74.48    1.38   1
   0   1   9  261.47    4.85  -2
   0  -1   9  261.47    4.85   1
   0   1  10  562.64    9.49  -2
   0  -1  10  562.64    9.49   1
   0   1  11   11.02    0.80  -2
   0  -1  11   11.02    0.80   1
   0   1  12  436.81    9.20  -2
   0  -1  12  436.81    9.20   1
   0   1  13  288.32    5.77  -2
   0  -1  13  288.32    5.77   1
   0   1  14   16.32    1.13  -2
   0  -1  14   16.32    1.13   1
   0   1  15  204.20    6.29  -2
   0  -1  15  204.20    6.29   1
   0   1  16   29.59    1.85  -2
   0  -1  16   29.59    1.85   1
   0   1  17   15.21    1.48  -2
   0  -1  17   15.21    1.48   1
   0   1  18  221.71    7.74  -2
   0  -1  18  221.71    7.74   1
   0   1  19   21.72    2.52  -2
   0  -1  19   21.72    2.52   1
   0   1  20   73.96    3.96  -2
   0  -1  20   73.96    3.96   1
   0   0 -24   27.77    2.53  -2
   0   0 -24   27.77    2.53   1
   0   0 -22  220.23    7.72  -2
   0   0 -22  220.23    7.72   1
   0   0 -20   53.14    2.62  -2
   0   0 -20   53.14    2.62   1
   0   0 -18   29.05    2.05  -2
   0   0 -18   29.05    2.05   1
   0   0 -16  484.88   12.33  -2
   0   0 -16  484.88   12.33   1
   0   0 -14  769.51   12.76  -2
   0   0 -14  769.51   12.76   1
   0   0 -12  202.49    4.84  -2
   0   0 -12  202.49    4.84   1
   0   0 -10  126.56    2.70  -2
   0   0 -10  126.56    2.70   1
   0   0  -8 1930.72   26.36  -2
   0   0  -8 1930.72   26.36   1
   0   0  -6 1164.86   17.07  -2
   0   0  -6 1164.86   17.07   1
   0   0  -4  420.66    5.74  -2
   0   0  -4  420.66    5.74   1
   0   0   4  414.94    5.70  -2
   0   0   4  414.94    5.70   1
   0   0   6 1138.39   16.20  -2
   0   0   6 1138.39   16.20   1
   0   0   8 1837.84   25.72  -2
   0   0   8 1837.84   25.72   1
   0   0  10  117.29    2.82  -2
   0   0  10  117.29    2.82   1
   0   0  12  194.60    5.02  -2
   0   0  12  194.60    5.02   1
   0   0  14  780.08   16.76  -2
   0   0  14  780.08   16.76   1
   0   0  16  501.31   12.54  -2
   0   0  16  501.31   12.54   1
   0   0  18   24.50    2.38  -2
   0   0  18   24.50    2.38   1
   0   0  20   50.41    3.27  -2
   0   0  20   50.41    3.27   1
   0   0  22  200.51    9.91  -2
   0   0  22  200.51    9.91   1
   0  -1 -24    2.79    1.80  -2
   0   1 -24    2.79    1.80   1
   0  -1 -23   32.83    2.75  -2
   0   1 -23   32.83    2.75   1
   0  -1 -22    0.30    1.51  -2
   0   1 -22    0.30    1.51   1
   0  -1 -21   30.03    2.30  -2
   0   1 -21   30.03    2.30   1
   0  -1 -20   80.64    3.23  -2
   0   1 -20   80.64    3.23   1
   0  -1 -19   22.47    1.90  -2
   0   1 -19   22.47    1.90   1
   0  -1 -18  233.78    7.34  -2
   0   1 -18  233.78    7.34   1
   0  -1 -17   13.03    1.30  -2
   0   1 -17   13.03    1.30   1
   0  -1 -16   29.05    1.72  -2
   0   1 -16   29.05    1.72   1
   0  -1 -15  196.56    4.77  -2
   0   1 -15  196.56    4.77   1
   0  -1 -14   12.67    1.21  -2
   0   1 -14   12.67    1.21   1
   0  -1 -13  289.34    5.44  -2
   0   1 -13  289.34    5.44   1
   0  -1 -12  412.50    8.12  -2
   0   1 -12  412.50    8.12   1
   0  -1 -11   13.18    0.51  -2
   0   1 -11   13.18    0.51   1
   0  -1 -10  581.29    7.72  -2
   0   1 -10  581.29    7.72   1
   0  -1  -9  265.36    3.91  -2
   0   1  -9  265.36    3.91   1
   0  -1  -8   77.97    1.24  -2
   0   1  -8   77.97    1.24   1
   0  -1  -7  989.73   12.58  -2
   0   1  -7  989.73   12.58   1
   0  -1  -6  196.28    2.80  -2
   0   1  -6  196.28    2.80   1
   0  -1  -5  304.85    3.84  -2
   0   1  -5  304.85    3.84   1
   0  -1  -4 3218.29   73.75  -2
   0   1  -4 3218.29   73.75   1
   0  -1  -3  495.51    6.23  -2
   0   1  -3  495.51    6.23   1
   0  -1  -2 1209.65   17.39  -2
   0   1  -2 1209.65   17.39   1
   0  -1  -1  229.22    3.03  -2
   0   1  -1  229.22    3.03   1
   0  -1   0    1.90    0.11  -2
   0   1   0    1.90    0.11   1
   0  -1   1  180.90    2.69  -2
   0   1   1  180.90    2.69   1
   0  -1   2  972.82   13.10  -2
   0   1   2  972.82   13.10   1
   0  -1   3  580.81    8.19  -2
   0   1   3  580.81    8.19   1
   0  -1   4 3590.41   51.53  -2
   0   1   4 3590.41   51.53   1
   0  -1   5  169.52    3.39  -2
   0   1   5  169.52    3.39   1
   0  -1   6  350.44    5.99  -2
   0   1   6  350.44    5.99   1
   0  -1   7  838.68   13.32  -2
   0   1   7  838.68   13.32   1
   0  -1   8   65.12    1.78  -2
   0   1   8   65.12    1.78   1
   0  -1   9  226.50    5.72  -2
   0   1   9  226.50    5.72   1
   0  -1  10  599.76   12.73  -2
   0   1  10  599.76   12.73   1
   0  -1  11    3.20    1.00  -2
   0   1  11    3.20    1.00   1
   0  -1  12  615.04   13.39  -2
   0   1  12  615.04   13.39   1
   0  -1  13  165.12    4.88  -2
   0   1  13  165.12    4.88   1
   0  -1  14   34.69    2.12  -2
   0   1  14   34.69    2.12   1
   0  -1  15  131.10    4.58  -2
   0   1  15  131.10    4.58   1
   0  -1  16   44.09    2.39  -2
   0   1  16   44.09    2.39   1
   0  -1  17   11.97    1.59  -2
   0   1  17   11.97    1.59   1
   0  -1  18  324.72   10.81  -2
   0   1  18  324.72   10.81   1
   0  -1  19   10.37    2.19  -2
   0   1  19   10.37    2.19   1
   0  -1  20  148.60    6.09  -2
   0   1  20  148.60    6.09   1
   0  -1  21    2.69    1.80  -2
   0   1  21    2.69    1.80   1
   0  -1  22    2.40    2.70  -2
   0   1  22    2.40    2.70   1
   0  -1  23    8.12    3.19  -2
   0   1  23    8.12    3.19   1
   0  -1  24    9.80    2.69  -2
   0   1  24    9.80    2.69   1
   0   2 -23   17.47    2.09   1
   0   2 -22    4.00    1.88   1
   0   2 -21   32.83    2.52   1
   0   2 -20   19.36    1.76   1
   0   2 -19  114.70    4.07   1
   0   2 -18    1.39    1.09   1
   0   2 -17  228.92    6.05   1
   0   2 -16    5.52    1.08   1
   0   2 -15   62.88    2.06   1
   0   2 -14   24.70    1.09   1
   0   2 -13  186.32    3.55   1
   0   2 -12    1.10    0.40   1
   0   2 -11  859.08   11.72   1
   0   2 -10    0.90    0.30   1
   0   2  -9  791.86   10.69   1
   0   2  -8   35.88    0.96   1
   0   2  -7    7.29    0.38   1
   0   2  -6   15.92    0.40   1
   0   2  -5 1068.64   13.73   1
   0   2  -4  233.17    3.97   1
   0   2  -3 1634.58   27.49   1
   0   2  -2   54.91    1.93   1
   0   2  -1  789.61   12.93   1
   0   2   0  226.50    3.91   1
   0   2   1  423.12    6.58   1
   0   2   2   87.24    1.68   1
   0   2   3 1591.21   22.34   1
   0   2   4  222.61    3.88   1
   0   2   5 1202.01   17.33   1
   0   2   6   16.81    0.57   1
   0   2   7  113.21    2.13   1
   0   2   8  115.35    2.79   1
   0   2   9  511.66   12.21   1
   0   2  10    1.21    0.90   1
   0   2  11  863.18   18.80   1
   0   2  12    4.58    0.98   1
   0   2  13  254.72    7.02   1
   0   2  14   72.76    3.07   1
   0   2  15   14.98    1.63   1
   0   2  16   53.88    2.79   1
   0   2  17  190.44    7.18   1
   0   2  18   -1.10    1.30   1
   0   2  19  120.78    5.06   1
   0   2  20    1.80    1.80   1
   0   2  21   49.14    4.07   1
   0   2  22    6.40    2.88   1
   0   2  23    1.80    2.49   1
   0   2  24   11.29    2.49   1
   0   3 -23   34.11    3.04   1
   0   3 -22    5.62    1.42   1
   0   3 -21  119.46    4.81   1
   0   3 -20   15.68    1.82   1
   0   3 -19   25.70    1.83   1
   0   3 -18   83.54    3.47   1
   0   3 -17   71.23    2.53   1
   0   3 -16   63.68    2.55   1
   0   3 -15  219.63    5.04   1
   0   3 -14    0.00    1.00   1
   0   3 -13  286.96    5.76   1
   0   3 -12  118.59    2.18   1
   0   3 -11   27.46    0.84   1
   0   3 -10  343.73    4.82   1
   0   3  -9  298.94    4.50   1
   0   3  -8  115.56    1.72   1
   0   3  -7  940.65   12.27   1
   0   3  -6   13.40    0.59   1
   0   3  -5  879.12   11.27   1
   0   3  -4  212.87    2.92   1
   0   3  -3   21.72    1.40   1
   0   3  -1 1282.36   20.77   1
   0   3   0   30.91    0.78   1
   0   3   1 1585.63   23.89   1
   0   3   2  606.14    8.86   1
   0   3   3  304.15    4.88   1
   0   3   4  267.32    4.91   1
   0   3   5  510.76    8.59   1
   0   3   6   31.81    0.90   1
   0   3   7 1047.17   16.18   1
   0   3   8   36.24    1.08   1
   0   3   9  537.78   12.06   1
   0   3  10  200.79    5.38   1
   0   3  11    5.52    0.99   1
   0   3  12   84.09    3.30   1
   0   3  13  267.65    7.20   1
   0   3  14    9.42    1.41   1
   0   3  15  304.15    8.72   1
   0   3  16   14.21    1.73   1
   0   3  17  163.84    6.40   1
   0   3  18   43.82    3.57   1
   0   3  19    1.49    1.49   1
   0   3  20    9.61    2.11   1
   0   3  21  155.25    7.48   1
   0   3  22    1.21    2.90   1
   0   3  23   68.72    5.14   1
   0   4 -22   63.52    3.83   1
   0   4 -21    4.28    1.41   1
   0   4 -20   87.05    3.92   1
   0   4 -19   19.62    1.59   1
   0   4 -18    6.20    1.29   1
   0   4 -17   20.79    1.46   1
   0   4 -16   75.17    2.77   1
   0   4 -15    7.02    0.90   1
   0   4 -14  329.42    6.90   1
   0   4 -13   16.48    0.97   1
   0   4 -12  130.19    2.74   1
   0   4 -11  113.64    2.13   1
   0   4 -10   37.45    0.86   1
   0   4  -9   65.93    1.62   1
   0   4  -8  575.52    7.68   1
   0   4  -7    2.10    0.20   1
   0   4  -6  991.62   23.93   1
   0   4  -5   36.00    1.80   1
   0   4  -4  213.74    6.14   1
   0   4  -3  174.50    5.02   1
   0   4  -2  145.68    4.35   1
   0   4  -1  277.22    3.66   1
   0   4   0  661.00   11.83   1
   0   4   1   87.98    1.69   1
   0   4   2  432.22    6.65   1
   0   4   3  312.94    4.95   1
   0   4   4    9.42    0.49   1
   0   4   5   99.00    1.99   1
   0   4   6  737.12   12.49   1
   0   4   7   35.05    1.18   1
   0   4   8  750.76   13.70   1
   0   4   9   38.94    1.50   1
   0   4  10  169.52    5.21   1
   0   4  11  186.05    5.73   1
   0   4  12   13.18    1.67   1
   0   4  13   86.68    3.54   1
   0   4  14  249.64    7.58   1
   0   4  15   -0.79    1.19   1
   0   4  16  134.10    5.33   1
   0   4  17   49.56    3.24   1
   0   4  18    2.31    1.70   1
   0   4  19   64.96    3.87   1
   0   4  20   42.64    3.66   1
   0   4  21   20.61    2.81   1
   0   4  22   64.16    4.97   1
   0   5 -20   18.84    5.47   1
   0   5 -19   -2.40    3.19   1
   0   5 -18  110.46    4.20   1
   0   5 -17    2.40    1.12   1
   0   5 -16   86.12    2.97   1
   0   5 -15   10.63    0.98   1
   0   5 -14    8.01    0.91   1
   0   5 -13   59.91    1.86   1
   0   5 -12  172.66    3.94   1
   0   5 -11   14.98    0.77   1
   0   5 -10  374.04    6.58   1
   0   5  -9   40.45    2.29   1
   0   5  -8  174.50    5.55   1
   0   5  -7   82.08    3.08   1
   0   5  -6   37.70    2.09   1
   0   5  -5   52.56    2.46   1
   0   5  -4  590.98   15.07   1
   0   5  -3    4.80    1.01   1
   0   5  -2  532.22   13.38   1
   0   5  -1  113.85    4.05   1
   0   5   0   39.44    0.88   1
   0   5   1  220.23    4.75   1
   0   5   2  225.00    3.90   1
   0   5   3    5.29    0.41   1
   0   5   4  753.50   12.63   1
   0   5   5   20.52    0.91   1
   0   5   6  335.26    5.49   1
   0   5   7   34.93    1.18   1
   0   5   8   19.71    1.07   1
   0   5   9   41.09    1.67   1
   0   5  10  315.42    8.52   1
   0   5  11    0.50    1.31   1
   0   5  12  285.27    9.46   1
   0   5  13   17.64    2.18   1
   0   5  14   76.74    3.68   1
   0   5  15    0.71    1.81   1
   0   5  16   15.37    2.12   1
   0   5  17    1.21    2.31   1
   0   5  18  142.32    6.20   1
   0   5  19    3.31    2.80   1
   0   5  20   65.77    4.54   1
   0   5  21   -2.89    2.11   1
   0   6 -19   41.99    5.44   1
   0   6 -18    2.69    2.69   1
   0   6 -17  100.80    8.03   1
   0   6 -16    2.40    2.70   1
   0   6 -15   35.52    3.46   1
   0   6 -14   38.94    3.00   1
   0   6 -13   37.82    3.20   1
   0   6 -12   31.47    2.81   1
   0   6 -11  272.58    8.92   1
   0   6 -10   26.01    3.06   1
   0   6  -9  351.94   10.13   1
   0   6  -8  128.82    4.99   1
   0   6  -7    4.41    1.72   1
   0   6  -6  143.52    4.79   1
   0   6  -5  292.41    8.89   1
   0   6  -4   72.76    3.58   1
   0   6  -3  574.08   15.33   1
   0   6  -2   19.27    2.90   1
   0   6  -1  266.34   11.42   1
   0   6   0  175.83    2.92   1
   0   6   1   25.91    0.81   1
   0   6   2  121.66    2.43   1
   0   6   3  507.15    8.11   1
   0   6   4    7.90    1.18   1
   0   6   5  527.62   10.57   1
   0   6   6  118.81    3.71   1
   0   6   7   93.32    2.90   1
   0   6   8  208.51    5.20   1
   0   6   9  106.71    3.10   1
   0   6  10  146.89    6.30   1
   0   6  11  292.75    9.58   1
   0   6  12    1.59    1.69   1
   0   6  13  115.35    5.16   1
   0   6  14   80.64    4.67   1
   0   6  15   -1.49    1.39   1
   0   6  16   39.82    3.28   1
   0   6  17   37.70    2.95   1
   0   6  18   11.22    3.08   1
   0   6  19   55.95    4.19   1
   0   6  20    5.81    3.52   1
   0  -7 -18    3.31    3.02  -2
   0   7 -17    3.31    3.02   1
   0  -7 -17    9.92    4.91  -2
   0   7 -16    9.92    4.91   1
   0  -7 -16  122.32    6.41  -2
   0   7 -15  122.32    6.41   1
   0  -7 -15   10.89    2.31  -2
   0   7 -14   10.89    2.31   1
   0  -7 -14  199.09    7.90  -2
   0   7 -13  199.09    7.90   1
   0  -7 -13    2.99    2.28  -2
   0   7 -12    2.99    2.28   1
   0  -7 -12   23.14    2.31  -2
   0   7 -11   23.14    2.31   1
   0  -7 -11    1.80    1.50  -2
   0   7 -10    1.80    1.50   1
   0  -7 -10  115.99    5.39  -2
   0   7  -9  115.99    5.39   1
   0  -7  -9   15.52    2.36  -2
   0   7  -8   15.52    2.36   1
   0  -7  -8  379.47   11.69  -2
   0   7  -7  379.47   11.69   1
   0  -7  -7   39.31    3.26  -2
   0   7  -6   39.31    3.26   1
   0  -7  -6  288.32    9.17  -2
   0   7  -5  288.32    9.17   1
   0  -7  -5    3.88    1.50  -2
   0   7  -4    3.88    1.50   1
   0  -7  -4    2.19    1.81  -2
   0   7  -3    2.19    1.81   1
   0  -7  -3   27.04    3.43  -2
   0   7  -2   27.04    3.43   1
   0  -7  -2  319.34   13.94  -2
   0   7  -1  319.34   13.94   1
   0  -7  -1   30.03    4.27  -2
   0   7   0   30.03    4.27   1
   0  -7   0  588.55   10.67  -2
   0   7   1  588.55   10.67   1
   0  -7   1   23.52    1.65  -2
   0   7   2   23.52    1.65   1
   0  -7   2  241.49    5.91  -2
   0   7   3  241.49    5.91   1
   0  -7   3   10.50    0.97  -2
   0   7   4   10.50    0.97   1
   0  -7   4   35.88    1.68  -2
   0   7   5   35.88    1.68   1
   0  -7   5   20.34    1.80  -2
   0   7   6   20.34    1.80   1
   0  -7   6  395.21    9.54  -2
   0   7   7  395.21    9.54   1
   0  -7   7   19.89    1.96  -2
   0   7   8   19.89    1.96   1
   0  -7   8  325.08    8.29  -2
   0   7   9  325.08    8.29   1
   0  -7   9    7.62    1.49  -2
   0   7  10    7.62    1.49   1
   0  -7  10   39.31    2.38  -2
   0   7  11   39.31    2.38   1
   0  -7  11    3.10    1.30  -2
   0   7  12    3.10    1.30   1
   0  -7  12   68.72    4.14  -2
   0   7  13   68.72    4.14   1
   0  -7  13   13.40    2.93  -2
   0   7  14   13.40    2.93   1
   0  -7  14  186.60    8.47  -2
   0   7  15  186.60    8.47   1
   0  -7  15    4.71    1.91  -2
   0   7  16    4.71    1.91   1
   0  -7  16   79.74    5.72  -2
   0   7  17   79.74    5.72   1
   0  -7  17    2.99    2.21  -2
   0   7  18    2.99    2.21   1
   0  -8 -15   61.31    5.17  -2
   0   8 -14   61.31    5.17   1
   0  -8 -14   37.95    3.94  -2
   0   8 -13   37.95    3.94   1
   0  -8 -13   28.62    3.53  -2
   0   8 -12   28.62    3.53   1
   0  -8 -12   38.69    3.36  -2
   0   8 -11   38.69    3.36   1
   0  -8 -11   15.60    2.77  -2
   0   8 -10   15.60    2.77   1
   0  -8 -10   38.56    3.35  -2
   0   8  -9   38.56    3.35   1
   0  -8  -9   34.34    3.28  -2
   0   8  -8   34.34    3.28   1
   0  -8  -8    9.30    2.20  -2
   0   8  -7    9.30    2.20   1
   0  -8  -7  130.64    5.49  -2
   0   8  -6  130.64    5.49   1
   0  -8  -6   43.03    4.72  -2
   0   8  -5   43.03    4.72   1
   0  -8  -5   36.12    4.45  -2
   0   8  -4   36.12    4.45   1
   0  -8  -4  149.82    9.55  -2
   0   8  -3  149.82    9.55   1
   0  -8  -3   20.79    3.92  -2
   0   8  -2   20.79    3.92   1
   0  -8  -2  121.66    8.82  -2
   0   8  -1  121.66    8.82   1
   0  -8  -1  209.67   11.87  -2
   0   8   0  209.67   11.87   1
   0  -8   0   14.82    3.70  -2
   0   8   1   14.82    3.70   1
   0  -8   1  156.00    8.74  -2
   0   8   2  156.00    8.74   1
   0  -8   2  142.56    4.54  -2
   0   8   3  142.56    4.54   1
   0  -8   3   13.03    1.23  -2
   0   8   4   13.03    1.23   1
   0  -8   4  171.87    4.98  -2
   0   8   5  171.87    4.98   1
   0  -8   5   44.36    2.00  -2
   0   8   6   44.36    2.00   1
   0  -8   6   49.00    2.24  -2
   0   8   7   49.00    2.24   1
   0  -8   7   95.45    3.52  -2
   0   8   8   95.45    3.52   1
   0  -8   8   10.18    1.79  -2
   0   8   9   10.18    1.79   1
   0  -8   9    6.81    1.88  -2
   0   8  10    6.81    1.88   1
   0  -8  10   58.06    3.20  -2
   0   8  11   58.06    3.20   1
   0  -8  11    6.81    1.72  -2
   0   8  12    6.81    1.72   1
   0  -8  12   77.97    4.24  -2
   0   8  13   77.97    4.24   1
   0  -8  13   13.32    2.41  -2
   0   8  14   13.32    2.41   1
   0  -8  14   27.25    3.24  -2
   0   8  15   27.25    3.24   1
   0   9 -11    2.50    6.29   1
   0   9 -10  186.87    9.57   1
   0   9  -9    4.28    3.31   1
   0   9  -8   40.45    3.56   1
   0   9  -7   -2.10    3.02   1
   0   9  -6    4.41    4.28   1
   0   9  -5    3.50    4.11   1
   0   9  -4  140.66   10.20   1
   0   9  -3    0.79    3.38   1
   0   9  -2  208.80   13.00   1
   0   9  -1    0.71    3.41   1
   0   9   0   32.38    5.01   1
   0   9   1    2.89    3.71   1
   0   9   2   29.27    4.33   1
   0   9   3    7.08    2.98   1
   0   9   4  234.70   12.56   1
   0   9   5    5.29    2.81   1
   0   9   6  121.44    9.26   1
   0   9   8    8.18    1.72   1
   0   9   9    1.39    1.70   1
   0   9  10   55.65    3.43   1
   0   9  11    4.71    2.39   1
   0   9  12  152.28    7.90   1
   0  10  -3   40.83    5.62   1
   0  10  -2    6.00    3.72   1
   0  10  -1   20.61    4.90   1
   0  10   0   76.74    8.06   1
   0  10   1   -8.29    4.78   1
   0  10   2   70.73    8.07   1
   0  10   3   26.52    4.53   1
  -1   9   0    0.30    2.31  -2
   1  -9  -1    0.30    2.31   1
  -1   9   1   28.41    3.41  -2
   1  -9   0   28.41    3.41   1
   1  -8   1   88.17    5.07   1
   1  -8   2   13.40    3.07   1
   1  -8   3    7.18    2.52   1
   1  -7   3  171.09    7.85   1
   1  -7   4   10.50    1.62   1
   1  -7   5   45.56    3.65   1
   1  -6 -12  193.21    7.23   1
   1  -6 -11    0.10    1.72   1
   1  -6 -10  153.51    5.70   1
   1  -6  -9    0.30    1.41   1
   1  -6  -6  204.49   14.01   1
   1  -6  -5    8.12    4.39   1
   1  -6  -4  429.73   19.90   1
   1  -6  -3    0.00    1.00   1
   1  -6   4  343.36   14.08   1
   1  -6   5   25.30    2.21   1
   1  -6   6   49.84    2.97   1
   1  -6   7   29.05    2.05   1
   1  -5 -20    7.18    3.22   1
   1  -5 -19   60.06    4.96   1
   1  -5 -18    7.62    3.31   1
   1  -5 -17   50.84    2.71   1
   1  -5 -16   61.78    3.93   1
   1  -5 -15    2.59    1.51   1
   1  -5 -14  138.77    5.42   1
   1  -5 -13  117.07    4.76   1
   1  -5 -12   28.41    2.35   1
   1  -5 -11  190.16    6.34   1
   1  -5 -10   61.62    2.83   1
   1  -5  -9   52.42    2.46   1
   1  -5  -8  198.25    5.63   1
   1  -5  -7  108.99    3.76   1
   1  -5  -6   85.38    2.96   1
   1  -5  -5  304.85    7.68   1
   1  -5  -4    0.20    0.70   1
   1  -5  -3  159.52    4.29   1
   1  -5  -2  232.26    5.49   1
   1  -5  -1   13.91    0.90   1
   1  -5   0  485.32   11.90   1
   1  -5   1   84.46    1.84   1
   1  -5   2   78.68    1.60   1
   1  -5   4   32.95    2.07   1
   1  -5   5  193.77    7.52   1
   1  -5   6  174.77    7.14   1
   1  -5   7   14.21    1.43   1
   1  -5   8  187.42    7.39   1
   1  -5   9  102.01    4.24   1
   1  -4 -22    1.99    2.09   1
   1  -4 -21   72.76    4.44   1
   1  -4 -20   -0.59    1.69   1
   1  -4 -19   -1.39    2.38   1
   1  -4 -18    1.49    2.29   1
   1  -4 -17  161.04    6.09   1
   1  -4 -16    5.62    1.61   1
   1  -4 -15  426.01   12.38   1
   1  -4 -14    6.50    1.78   1
   1  -4 -13  295.84    8.94   1
   1  -4 -12    1.69    0.99   1
   1  -4 -11   35.76    1.91   1
   1  -4 -10   32.72    1.83   1
   1  -4  -9  532.22   12.46   1
   1  -4  -8    2.99    1.00   1
   1  -4  -7  703.31   15.38   1
   1  -4  -6   21.34    1.20   1
   1  -4  -5  144.96    4.33   1
   1  -4  -4   18.23    1.11   1
   1  -4  -3  483.56   10.12   1
   1  -4  -2    2.99    0.42   1
   1  -4  -1 1171.69   23.96   1
   1  -4   0    0.90    0.30   1
   1  -4   2    9.42    0.43   1
   1  -4   3  175.30    3.18   1
   1  -4   4   43.56    0.92   1
   1  -4   5  409.25    6.47   1
   1  -4   6   20.88    0.64   1
   1  -4   7  702.78   14.32   1
   1  -4   8   28.20    0.85   1
   1  -4  10   83.17    2.37   1
   1  -3 -22   35.64    3.34   1
   1  -3 -21   33.76    3.25   1
   1  -3 -20   12.60    2.63   1
   1  -3 -19  157.25    7.27   1
   1  -3 -18    9.12    1.81   1
   1  -3 -17  202.21    7.68   1
   1  -3 -16  117.94    4.78   1
   1  -3 -15    7.02    1.38   1
   1  -3 -14   30.25    2.20   1
   1  -3 -13  300.33    8.32   1
   1  -3 -12    2.40    1.30   1
   1  -3 -11  317.20    8.55   1
   1  -3 -10   69.22    3.00   1
   1  -3  -9  289.00    7.82   1
   1  -3  -8  293.44    6.85   1
   1  -3  -7   63.52    2.23   1
   1  -3  -6  137.59    3.75   1
   1  -3  -5  963.48   20.49   1
   1  -3  -4    0.90    0.40   1
   1  -3  -3 1316.24   23.94   1
   1  -3  -2   62.73    1.27   1
   1  -3  -1  348.57    5.23   1
   1  -3   0  196.56    3.36   1
   1  -3   1  649.23    9.68   1
   1  -3   2   19.10    0.61   1
   1  -3   3 1520.22   35.87   1
   1  -3   4    6.00    0.29   1
   1  -3   5  824.84   11.49   1
   1  -3   6  132.94    2.31   1
   1  -3   7    4.49    0.30   1
   1  -3   8  204.20    4.00   1
   1  -3   9  439.32    7.96   1
   1  -3  10   26.21    0.92   1
   1  -3  11  413.72    9.76   1
   1  -3  12    1.69    0.81   1
   1  -3  13  288.32    7.81   1
  -1   2 -23   -0.79    1.69  -2
   1  -2 -23   -0.79    1.69   1
  -1   2 -22    1.30    1.71  -2
   1  -2 -22    1.30    1.71   1
  -1   2 -21   17.14    2.32  -2
   1  -2 -21   17.14    2.32   1
  -1   2 -20  136.19    4.20  -2
   1  -2 -20  136.19    4.20   1
  -1   2 -19    1.80    1.50  -2
   1  -2 -19    1.80    1.50   1
  -1   2 -18  165.12    6.43  -2
   1  -2 -18  165.12    6.43   1
  -1   2 -17   47.75    2.90  -2
   1  -2 -17   47.75    2.90   1
  -1   2 -16   55.06    2.97  -2
   1  -2 -16   55.06    2.97   1
  -1   2 -15   22.09    1.97  -2
   1  -2 -15   22.09    1.97   1
  -1   2 -14   16.48    1.79  -2
   1  -2 -14   16.48    1.79   1
  -1   2 -13   43.30    2.24  -2
   1  -2 -13   43.30    2.24   1
  -1   2 -12  946.79   20.92  -2
   1  -2 -12  946.79   20.92   1
  -1   2 -11    0.90    0.80  -2
   1  -2 -11    0.90    0.80   1
  -1   2 -10  835.21   17.92  -2
   1  -2 -10  835.21   17.92   1
  -1   2  -9   16.00    1.20  -2
   1  -2  -9   16.00    1.20   1
  -1   2  -8   12.39    1.20  -2
   1  -2  -8   12.39    1.20   1
  -1   2  -7   30.25    1.43  -2
   1  -2  -7   30.25    1.43   1
  -1   2  -6  442.68   10.10  -2
   1  -2  -6  442.68   10.10   1
  -1   2  -5  127.01    2.25  -2
   1  -2  -5  127.01    2.25   1
  -1   2  -4 1301.77   18.04  -2
   1  -2  -4 1301.77   18.04   1
  -1   2  -3  139.71    2.36  -2
   1  -2  -3  139.71    2.36   1
  -1   2  -2  551.78    7.52  -2
   1  -2  -2  551.78    7.52   1
  -1   2  -1  714.49   10.16  -2
   1  -2  -1  714.49   10.16   1
  -1   2   0    5.38    0.28  -2
   1  -2   0    5.38    0.28   1
  -1   2   1  703.31    9.02  -2
   1  -2   1  703.31    9.02   1
  -1   2   2  669.26    8.80  -2
   1  -2   2  669.26    8.80   1
  -1   2   3  109.62    1.68  -2
   1  -2   3  109.62    1.68   1
  -1   2   4 1243.97   15.52  -2
   1  -2   4 1243.97   15.52   1
  -1   2   5  196.28    2.80  -2
   1  -2   5  196.28    2.80   1
  -1   2   6  351.94    4.50  -2
   1  -2   6  351.94    4.50   1
  -1   2   7   78.15    1.41  -2
   1  -2   7   78.15    1.41   1
  -1   2   8    1.30    0.21  -2
   1  -2   8    1.30    0.21   1
  -1   2   9   34.93    1.42  -2
   1  -2   9   34.93    1.42   1
  -1   2  10  880.31   17.80  -2
   1  -2  10  880.31   17.80   1
  -1   2  11    1.21    0.81  -2
   1  -2  11    1.21    0.81   1
  -1   2  12  816.82   17.15  -2
   1  -2  12  816.82   17.15   1
  -1   2  13  107.33    3.11  -2
   1  -2  13  107.33    3.11   1
  -1   2  14    4.20    1.11  -2
   1  -2  14    4.20    1.11   1
  -1   2  15   65.77    2.76  -2
   1  -2  15   65.77    2.76   1
  -1   2  16   53.58    2.64  -2
   1  -2  16   53.58    2.64   1
  -1   2  17   72.42    5.28  -2
   1  -2  17   72.42    5.28   1
  -1   1 -23    9.80    2.32  -2
   1  -1 -23    9.80    2.32   1
  -1   1 -22  119.25    5.68  -2
   1  -1 -22  119.25    5.68   1
  -1   1 -21   -0.30    1.41  -2
   1  -1 -21   -0.30    1.41   1
  -1   1 -20   53.58    2.34  -2
   1  -1 -20   53.58    2.34   1
  -1   1 -19   66.26    3.74  -2
   1  -1 -19   66.26    3.74   1
  -1   1 -18    1.49    1.20  -2
   1  -1 -18    1.49    1.20   1
  -1   1 -17   62.73    3.33  -2
   1  -1 -17   62.73    3.33   1
  -1   1 -16  330.15    9.09  -2
   1  -1 -16  330.15    9.09   1
  -1   1 -15    3.39    0.99  -2
   1  -1 -15    3.39    0.99   1
  -1   1 -14  602.70   14.24  -2
   1  -1 -14  602.70   14.24   1
  -1   1 -13   82.45    3.09  -2
   1  -1 -13   82.45    3.09   1
  -1   1 -12   77.44    2.99  -2
   1  -1 -12   77.44    2.99   1
  -1   1 -11   57.15    2.57  -2
   1  -1 -11   57.15    2.57   1
  -1   1 -10  175.56    4.51  -2
   1  -1 -10  175.56    4.51   1
  -1   1  -9   35.64    1.55  -2
   1  -1  -9   35.64    1.55   1
  -1   1  -8 2454.21   47.56  -2
   1  -1  -8 2454.21   47.56   1
  -1   1  -7   61.94    1.57  -2
   1  -1  -7   61.94    1.57   1
  -1   1  -6 1646.74   28.41  -2
   1  -1  -6 1646.74   28.41   1
  -1   1  -5  274.23    4.31  -2
   1  -1  -5  274.23    4.31   1
  -1   1  -4   26.11    0.72  -2
   1  -1  -4   26.11    0.72   1
  -1   1  -3  217.56    3.54  -2
   1  -1  -3  217.56    3.54   1
  -1   1  -2  640.60    9.11  -2
   1  -1  -2  640.60    9.11   1
  -1   1  -1   40.96    0.90  -2
   1  -1  -1   40.96    0.90   1
  -1   1   0 1774.09   28.64  -2
   1  -1   0 1774.09   28.64   1
  -1   1   1   36.24    0.72  -2
   1  -1   1   36.24    0.72   1
  -1   1   2  612.07    7.92  -2
   1  -1   2  612.07    7.92   1
  -1   1   3  152.28    2.22  -2
   1  -1   3  152.28    2.22   1
  -1   1   4   19.80    0.53  -2
   1  -1   4   19.80    0.53   1
  -1   1   5  251.86    4.13  -2
   1  -1   5  251.86    4.13   1
  -1   1   6 1776.62   24.45  -2
   1  -1   6 1776.62   24.45   1
  -1   1   7   66.91    1.64  -2
   1  -1   7   66.91    1.64   1
  -1   1   8 2769.92   51.58  -2
   1  -1   8 2769.92   51.58   1
  -1   1   9   14.98    1.01  -2
   1  -1   9   14.98    1.01   1
  -1   1  10  191.55    4.71  -2
   1  -1  10  191.55    4.71   1
  -1   1  11    9.61    0.99  -2
   1  -1  11    9.61    0.99   1
  -1   1  12   90.06    3.04  -2
   1  -1  12   90.06    3.04   1
  -1   1  13   41.73    2.07  -2
   1  -1  13   41.73    2.07   1
  -1   1  14  673.92   15.06  -2
   1  -1  14  673.92   15.06   1
  -1   1  15    5.38    1.30  -2
   1  -1  15    5.38    1.30   1
  -1   1  16  379.86    9.36  -2
   1  -1  16  379.86    9.36   1
  -1   1  17   20.98    2.02  -2
   1  -1  17   20.98    2.02   1
  -1   1  18    1.90    1.60  -2
   1  -1  18    1.90    1.60   1
  -1   1  19   29.38    2.17  -2
   1  -1  19   29.38    2.17   1
   1   0 -24    4.20    1.68   1
   1   0 -23   89.87    4.36   1
   1   0 -22   -0.79    1.80   1
   1   0 -21  174.77    7.14   1
   1   0 -20   29.38    1.95   1
   1   0 -19   27.25    2.71   1
   1   0 -18   95.06    4.29   1
   1   0 -17   81.18    3.78   1
   1   0 -16   21.07    1.84   1
   1   0 -15  365.19    9.56   1
   1   0 -14    9.30    1.22   1
   1   0 -13  194.32    5.58   1
   1   0 -12  348.94    8.59   1
   1   0 -11   10.63    1.11   1
   1   0 -10  322.56    9.34   1
   1   0  -9  494.17   10.23   1
   1   0  -8   79.39    1.78   1
   1   0  -7  727.38   10.79   1
   1   0  -6   21.53    0.93   1
   1   0  -5  639.58    9.61   1
   1   0  -4 2371.69   33.12   1
   1   0  -3  143.52    2.40   1
   1   0  -2  791.86   11.26   1
   1   0  -1  926.59   14.00   1
   1   0   0    0.50    0.20   1
   1   0   1 1133.00   13.46   1
   1   0   2  552.25    7.05   1
   1   0   3   89.49    1.51   1
   1   0   4 2804.76   40.25   1
   1   0   5  649.74   10.71   1
   1   0   6  104.24    2.45   1
   1   0   7  644.65   10.66   1
   1   0   8  104.24    2.86   1
   1   0   9  491.51   11.53   1
   1   0  10  402.40    9.23   1
   1   0  11   28.73    1.50   1
   1   0  12  530.84   11.98   1
   1   0  13  116.64    3.89   1
   1   0  14   25.60    1.82   1
   1   0  15  283.92    7.75   1
   1   0  16   33.52    1.97   1
   1   0  17   87.24    3.74   1
   1   0  18  183.33    6.50   1
   1   0  19    7.90    2.08   1
   1   0  20   65.12    3.39   1
   1   0  21  129.73    6.15   1
   1   0  22    0.50    1.80   1
   1   1 -24    0.71    1.51   1
   1   1 -23   35.64    2.75   1
   1   1 -22    0.59    1.59   1
   1   1 -21    7.18    1.39   1
   1   1 -20    8.12    1.42   1
   1   1 -19  209.09    4.63   1
   1   1 -18    1.30    1.00   1
   1   1 -17  251.86    7.62   1
   1   1 -16    2.50    1.01   1
   1   1 -15   21.62    1.58   1
   1   1 -14   29.81    1.64   1
   1   1 -13  205.06    6.01   1
   1   1 -12   58.22    2.14   1
   1   1 -11  770.06   16.65   1
   1   1 -10   28.84    1.07   1
   1   1  -9  661.52   10.29   1
   1   1  -8    7.62    0.50   1
   1   1  -7    3.31    0.40   1
   1   1  -6   11.97    0.48   1
   1   1  -5  849.72   12.24   1
   1   1  -4  147.87    2.43   1
   1   1  -3 1182.67   15.82   1
   1   1  -2  229.22    3.63   1
   1   1  -1  433.47    6.66   1
   1   1   0  298.94    3.80   1
   1   1   1  214.04    2.93   1
   1   1   2   68.06    1.32   1
   1   1   3 1162.13   17.73   1
   1   1   4  284.26    4.72   1
   1   1   5 1042.64   16.15   1
   1   1   6   35.88    0.96   1
   1   1   7   71.91    1.87   1
   1   1   8   16.89    0.99   1
   1   1   9  479.17   10.94   1
   1   1  10   18.40    1.29   1
   1   1  11  859.08   17.59   1
   1   1  12   10.89    1.32   1
   1   1  13  330.15    7.63   1
   1   1  14    5.02    1.12   1
   1   1  15    2.19    1.01   1
   1   1  16    1.59    1.39   1
   1   1  17  219.63    6.82   1
   1   1  18    3.88    1.89   1
   1   1  19  258.89    8.69   1
   1   1  20   -0.71    2.20   1
   1   1  21   29.59    2.72   1
   1   1  22    1.99    1.80   1
   1   1  23   19.27    3.51   1
   1   1  24    2.59    2.19   1
   1   2 -23   36.36    3.14   1
   1   2 -22   -1.21    1.50   1
   1   2 -21   50.84    2.85   1
   1   2 -20   59.44    3.08   1
   1   2 -19   17.98    1.78   1
   1   2 -18  189.61    5.51   1
   1   2 -17    5.02    1.21   1
   1   2 -16  167.44    4.92   1
   1   2 -15  113.85    3.41   1
   1   2 -14   24.50    1.39   1
   1   2 -13  273.57    5.95   1
   1   2 -12  348.57    5.97   1
   1   2 -11   16.40    0.81   1
   1   2 -10  537.31    8.34   1
   1   2  -9  461.39    8.59   1
   1   2  -8  157.50    3.26   1
   1   2  -7  810.54   11.39   1
   1   2  -6  422.71    6.17   1
   1   2  -5  526.24    6.88   1
   1   2  -4 1252.45   16.28   1
   1   2  -3   16.97    0.41   1
   1   2  -2  799.76   11.31   1
   1   2  -1  540.56    6.98   1
   1   2   0   23.91    0.49   1
   1   2   1  756.80   10.45   1
   1   2   2  523.49    8.24   1
   1   2   3   37.82    0.86   1
   1   2   4 1075.18   16.40   1
   1   2   5  384.55    7.06   1
   1   2   6  722.00   12.90   1
   1   2   7  917.48   14.54   1
   1   2   8    8.41    0.70   1
   1   2   9  791.30   16.88   1
   1   2  10  392.44    9.51   1
   1   2  11   19.10    1.49   1
   1   2  12  304.50    7.33   1
   1   2  13  325.44    7.94   1
   1   2  14   82.63    3.09   1
   1   2  15  253.13    7.32   1
   1   2  16   59.75    3.09   1
   1   2  17   37.45    2.69   1
   1   2  18  137.12    5.39   1
   1   2  19   12.39    2.39   1
   1   2  20   49.42    3.37   1
   1   2  21   75.69    4.52   1
   1   2  22    9.80    2.38   1
   1   2  23   73.10    5.30   1
   1   2  24   11.49    3.73   1
   1   3 -23   -1.59    1.89   1
   1   3 -22   97.02    4.73   1
   1   3 -21    1.10    1.51   1
   1   3 -20  108.78    4.17   1
   1   3 -19   -0.50    1.11   1
   1   3 -18    0.00    1.00   1
   1   3 -17    1.80    0.91   1
   1   3 -16  247.43    6.61   1
   1   3 -15    1.39    0.50   1
   1   3 -14  578.40   11.54   1
   1   3 -13    0.59    0.60   1
   1   3 -12  220.82    4.16   1
   1   3 -11    0.20    0.40   1
   1   3 -10   34.93    0.95   1
   1   3  -9   59.29    1.23   1
   1   3  -8  779.53   11.17   1
   1   3  -7   75.34    1.22   1
   1   3  -6 1453.13   18.30   1
   1   3  -5   72.25    1.19   1
   1   3  -4   80.64    1.62   1
   1   3  -3  105.68    1.85   1
   1   3  -2  971.57   16.21   1
   1   3  -1    7.51    0.27   1
   1   3   0 2125.21   34.11   1
   1   3   1    2.69    0.30   1
   1   3   2 1733.06   23.31   1
   1   3   3   77.09    1.58   1
   1   3   4   91.58    2.30   1
   1   3   5  191.27    3.87   1
   1   3   6 1022.72   15.99   1
   1   3   7    3.50    0.60   1
   1   3   8 1103.57   22.59   1
   1   3   9  146.65    4.36   1
   1   3  10  215.50    5.58   1
   1   3  11   35.05    2.01   1
   1   3  12   37.58    1.96   1
   1   3  13   15.92    1.44   1
   1   3  14  460.10   11.15   1
   1   3  15   -1.30    1.50   1
   1   3  16  423.12   11.93   1
   1   3  17   28.52    2.35   1
   1   3  18   55.65    3.13   1
   1   3  19    7.67    1.77   1
   1   3  20   54.46    3.84   1
   1   3  21    2.89    2.69   1
   1   3  22  132.71    6.91   1
   1   3  23   -1.39    3.19   1
   1   4 -22   -0.59    1.59   1
   1   4 -21   46.38    3.00   1
   1   4 -20   42.25    2.60   1
   1   4 -19   16.48    1.79   1
   1   4 -18  105.88    3.70   1
   1   4 -17   26.21    1.84   1
   1   4 -16   64.64    2.57   1
   1   4 -15  136.89    3.74   1
   1   4 -14    0.79    0.89   1
   1   4 -13  147.87    3.89   1
   1   4 -12  230.74    5.16   1
   1   4 -11    4.71    0.69   1
   1   4 -10  591.46    9.24   1
   1   4  -9  105.27    2.26   1
   1   4  -8   58.06    1.22   1
   1   4  -7  193.77    3.90   1
   1   4  -6  136.89    2.81   1
   1   4  -5   70.39    1.51   1
   1   4  -4  621.50    8.48   1
   1   4  -3   46.92    0.96   1
   1   4  -2 1037.48   15.46   1
   1   4  -1  349.69    4.86   1
   1   4   0   87.61    1.87   1
   1   4   1  478.73    6.56   1
   1   4   2  641.10    9.12   1
   1   4   3  203.35    5.13   1
   1   4   4 1062.76   16.95   1
   1   4   5    1.90    1.21   1
   1   4   6  408.44    7.68   1
   1   4   7  108.78    2.50   1
   1   4   8   15.76    1.59   1
   1   4   9  116.86    3.68   1
   1   4  10  391.25    9.10   1
   1   4  11   20.16    2.69   1
   1   4  12  556.49   13.21   1
   1   4  13   30.58    2.43   1
   1   4  14   59.75    3.25   1
   1   4  15   85.38    3.88   1
   1   4  16   33.29    2.65   1
   1   4  17   42.64    3.13   1
   1   4  18  126.34    5.62   1
   1   4  19    4.28    2.48   1
   1   4  20  116.42    5.61   1
   1   4  21   11.90    2.97   1
   1   4  22    8.12    2.51   1
   1   4  23    4.80    3.42   1
  -1  -5 -22    5.71    1.63  -2
   1   5 -21    5.71    1.63   1
  -1  -5 -21   -0.20    1.21  -2
   1   5 -20   -0.20    1.21   1
  -1  -5 -20  105.27    3.90  -2
   1   5 -19  105.27    3.90   1
  -1  -5 -19    9.00    1.62  -2
   1   5 -18    9.00    1.62   1
  -1  -5 -18  245.24    6.58  -2
   1   5 -17  245.24    6.58   1
  -1  -5 -17   20.70    1.64  -2
   1   5 -16   20.70    1.64   1
  -1  -5 -16   35.76    1.67  -2
   1   5 -15   35.76    1.67   1
  -1  -5 -15   17.98    1.19  -2
   1   5 -14   17.98    1.19   1
  -1  -5 -14  132.71    3.69  -2
   1   5 -13  132.71    3.69   1
  -1  -5 -13   14.52    1.52  -2
   1   5 -12   14.52    1.52   1
  -1  -5 -12  373.65    8.51  -2
   1   5 -11  373.65    8.51   1
  -1  -5 -11   -1.21    0.40  -2
   1   5 -10   -1.21    0.40   1
  -1  -5 -10  447.75    7.62  -2
   1   5  -9  447.75    7.62   1
  -1  -5  -9   18.84    0.69  -2
   1   5  -8   18.84    0.69   1
  -1  -5  -8   21.34    0.46  -2
   1   5  -7   21.34    0.46   1
  -1  -5  -7   70.90    3.03  -2
   1   5  -6   70.90    3.03   1
  -1  -5  -6  504.45   13.48  -2
   1   5  -5  504.45   13.48   1
  -1  -5  -5   58.98    5.38  -2
   1   5  -4   58.98    5.38   1
  -1  -5  -4 1109.56   27.31  -2
   1   5  -3 1109.56   27.31   1
  -1  -5  -3  102.01    5.05  -2
   1   5  -2  102.01    5.05   1
  -1  -5  -2  515.29    6.81  -2
   1   5  -1  515.29    6.81   1
  -1  -5  -1  234.40    3.98  -2
   1   5   0  234.40    3.98   1
  -1  -5   0   48.86    1.40  -2
   1   5   1   48.86    1.40   1
  -1  -5   1  228.61    4.54  -2
   1   5   2  228.61    4.54   1
  -1  -5   2  889.23   13.12  -2
   1   5   3  889.23   13.12   1
  -1  -5   3   77.26    3.87  -2
   1   5   4   77.26    3.87   1
  -1  -5   4 1124.26   17.44  -2
   1   5   5 1124.26   17.44   1
  -1  -5   5   75.52    2.95  -2
   1   5   6   75.52    2.95   1
  -1  -5   6  161.29    3.81  -2
   1   5   7  161.29    3.81   1
  -1  -5   7   87.61    3.00  -2
   1   5   8   87.61    3.00   1
  -1  -5   8  158.26    4.28  -2
   1   5   9  158.26    4.28   1
  -1  -5   9   29.48    2.93  -2
   1   5  10   29.48    2.93   1
  -1  -5  10  353.06    8.64  -2
   1   5  11  353.06    8.64   1
  -1  -5  11    8.29    2.07  -2
   1   5  12    8.29    2.07   1
  -1  -5  12  263.09    8.11  -2
   1   5  13  263.09    8.11   1
  -1  -5  13   37.45    2.94  -2
   1   5  14   37.45    2.94   1
  -1  -5  14   20.16    2.42  -2
   1   5  15   20.16    2.42   1
  -1  -5  15   56.25    3.45  -2
   1   5  16   56.25    3.45   1
  -1  -5  16  113.42    4.90  -2
   1   5  17  113.42    4.90   1
  -1  -5  17   23.14    3.17  -2
   1   5  18   23.14    3.17   1
  -1  -5  18  166.41    6.71  -2
   1   5  19  166.41    6.71   1
  -1  -5  19   11.70    3.01  -2
   1   5  20   11.70    3.01   1
  -1  -5  20   40.07    3.54  -2
   1   5  21   40.07    3.54   1
  -1  -5  21   10.89    3.50  -2
   1   5  22   10.89    3.50   1
  -1  -6 -20   20.34    5.32  -2
   1   6 -19   20.34    5.32   1
  -1  -6 -19   20.70    4.19  -2
   1   6 -18   20.70    4.19   1
  -1  -6 -18   25.60    4.55  -2
   1   6 -17   25.60    4.55   1
  -1  -6 -17   38.69    4.98  -2
   1   6 -16   38.69    4.98   1
  -1  -6 -16  147.62    8.99  -2
   1   6 -15  147.62    8.99   1
  -1  -6 -15   23.33    3.57  -2
   1   6 -14   23.33    3.57   1
  -1  -6 -14  293.44   15.76  -2
   1   6 -13  293.44   15.76   1
  -1  -6 -13   32.60    3.65  -2
   1   6 -12   32.60    3.65   1
  -1  -6 -12   47.06    4.25  -2
   1   6 -11   47.06    4.25   1
  -1  -6 -11   96.24    4.12  -2
   1   6 -10   96.24    4.12   1
  -1  -6 -10  142.80    5.02  -2
   1   6  -9  142.80    5.02   1
  -1  -6  -9   54.91    2.67  -2
   1   6  -8   54.91    2.67   1
  -1  -6  -8  487.08   13.24  -2
   1   6  -7  487.08   13.24   1
  -1  -6  -7   47.89    2.77  -2
   1   6  -6   47.89    2.77   1
  -1  -6  -6  432.22   12.06  -2
   1   6  -5  432.22   12.06   1
  -1  -6  -5   56.25    2.70  -2
   1   6  -4   56.25    2.70   1
  -1  -6  -4   11.29    1.61  -2
   1   6  -3   11.29    1.61   1
  -1  -6  -3   37.70    2.21  -2
   1   6  -2   37.70    2.21   1
  -1  -6  -2  659.98   16.96  -2
   1   6  -1  659.98   16.96   1
  -1  -6  -1   68.39    1.49  -2
   1   6   0   68.39    1.49   1
  -1  -6   0 1027.20   17.95  -2
   1   6   1 1027.20   17.95   1
  -1  -6   1   48.58    1.25  -2
   1   6   2   48.58    1.25   1
  -1  -6   2  478.30    7.87  -2
   1   6   3  478.30    7.87   1
  -1  -6   3   18.40    0.77  -2
   1   6   4   18.40    0.77   1
  -1  -6   4   58.83    1.69  -2
   1   6   5   58.83    1.69   1
  -1  -6   5   66.42    1.96  -2
   1   6   6   66.42    1.96   1
  -1  -6   6  577.92   10.10  -2
   1   6   7  577.92   10.10   1
  -1  -6   7   34.69    2.00  -2
   1   6   8   34.69    2.00   1
  -1  -6   8  465.26   10.78  -2
   1   6   9  465.26   10.78   1
  -1  -6   9   35.28    2.14  -2
   1   6  10   35.28    2.14   1
  -1  -6  10   60.84    3.28  -2
   1   6  11   60.84    3.28   1
  -1  -6  11   41.60    2.71  -2
   1   6  12   41.60    2.71   1
  -1  -6  12  173.98    7.12  -2
   1   6  13  173.98    7.12   1
  -1  -6  13   17.39    2.17  -2
   1   6  14   17.39    2.17   1
  -1  -6  14  262.12    9.07  -2
   1   6  15  262.12    9.07   1
  -1  -6  15   13.32    2.34  -2
   1   6  16   13.32    2.34   1
  -1  -6  16  122.32    6.19  -2
   1   6  17  122.32    6.19   1
  -1  -6  17    5.90    2.82  -2
   1   6  18    5.90    2.82   1
  -1  -6  18    2.99    2.39  -2
   1   6  19    2.99    2.39   1
  -1  -6  19    4.28    3.19  -2
   1   6  20    4.28    3.19   1
  -1  -7 -18    9.18    3.21  -2
   1   7 -17    9.18    3.21   1
  -1  -7 -17   22.66    4.09  -2
   1   7 -16   22.66    4.09   1
  -1  -7 -16    4.80    4.12  -2
   1   7 -15    4.80    4.12   1
  -1  -7 -15  126.79    8.56  -2
   1   7 -14  126.79    8.56   1
  -1  -7 -14    6.10    3.11  -2
   1   7 -13    6.10    3.11   1
  -1  -7 -13   85.38    6.28  -2
   1   7 -12   85.38    6.28   1
  -1  -7 -12   43.03    4.46  -2
   1   7 -11   43.03    4.46   1
  -1  -7 -11   10.30    3.02  -2
   1   7 -10   10.30    3.02   1
  -1  -7 -10  124.77    5.14  -2
   1   7  -9  124.77    5.14   1
  -1  -7  -9  192.38    7.21  -2
   1   7  -8  192.38    7.21   1
  -1  -7  -8    8.41    2.09  -2
   1   7  -7    8.41    2.09   1
  -1  -7  -7  253.45    7.96  -2
   1   7  -6  253.45    7.96   1
  -1  -7  -6  129.50    4.78  -2
   1   7  -5  129.50    4.78   1
  -1  -7  -5   88.55    3.95  -2
   1   7  -4   88.55    3.95   1
  -1  -7  -4  131.33    4.81  -2
   1   7  -3  131.33    4.81   1
  -1  -7  -3    4.88    1.19  -2
   1   7  -2    4.88    1.19   1
  -1  -7  -2   80.28    5.91  -2
   1   7  -1   80.28    5.91   1
  -1  -7  -1  237.16   11.40  -2
   1   7   0  237.16   11.40   1
  -1  -7   0    4.80    0.79  -2
   1   7   1    4.80    0.79   1
  -1  -7   1  191.27    4.15  -2
   1   7   2  191.27    4.15   1
  -1  -7   2  107.74    2.91  -2
   1   7   3  107.74    2.91   1
  -1  -7   3    1.69    0.81  -2
   1   7   4    1.69    0.81   1
  -1  -7   4  206.78    5.75  -2
   1   7   5  206.78    5.75   1
  -1  -7   5   89.11    3.21  -2
   1   7   6   89.11    3.21   1
  -1  -7   6  136.89    5.38  -2
   1   7   7  136.89    5.38   1
  -1  -7   7  262.76    8.43  -2
   1   7   8  262.76    8.43   1
  -1  -7   8   38.07    2.96  -2
   1   7   9   38.07    2.96   1
  -1  -7   9  117.51    4.55  -2
   1   7  10  117.51    4.55   1
  -1  -7  10  139.24    5.90  -2
   1   7  11  139.24    5.90   1
  -1  -7  11    2.10    1.71  -2
   1   7  12    2.10    1.71   1
  -1  -7  12   64.32    3.53  -2
   1   7  13   64.32    3.53   1
  -1  -7  13   80.46    4.13  -2
   1   7  14   80.46    4.13   1
  -1  -7  14    4.71    2.52  -2
   1   7  15    4.71    2.52   1
  -1  -7  15   70.56    5.04  -2
   1   7  16   70.56    5.04   1
  -1  -7  16   25.40    2.62  -2
   1   7  17   25.40    2.62   1
  -1  -7  17    7.02    2.28  -2
   1   7  18    7.02    2.28   1
  -1  -7  18   23.14    3.66  -2
   1   7  19   23.14    3.66   1
   1   8 -15   21.16    4.51   1
   1   8 -14    2.31    2.71   1
   1   8 -13    2.50    3.70   1
   1   8 -12   59.44    5.86   1
   1   8 -11    4.00    3.08   1
   1   8 -10  173.19   11.58   1
   1   8  -9    0.79    2.88   1
   1   8  -8   92.35    4.42   1
   1   8  -7   24.11    2.45   1
   1   8  -6    1.49    1.78   1
   1   8  -5   21.16    2.58   1
   1   8  -4  202.78    7.12   1
   1   8  -3    1.69    1.30   1
   1   8  -2  380.25   17.55   1
   1   8  -1    1.49    2.78   1
   1   8   0   49.98    5.09   1
   1   8   1    1.90    1.79   1
   1   8   2   73.96    2.24   1
   1   8   3    1.90    0.61   1
   1   8   4  437.23   12.13   1
   1   8   5    0.90    1.01   1
   1   8   6  156.50    5.75   1
   1   8   7   18.66    1.73   1
   1   8   8    1.99    0.99   1
   1   8   9    3.50    1.08   1
   1   8  10   94.87    4.68   1
   1   8  11    2.89    1.39   1
   1   8  12  163.58    6.39   1
   1   8  13   -3.39    1.99   1
   1   8  14   52.56    4.06   1
   1   8  15    0.71    2.50   1
   1   8  16    4.00    2.80   1
   1   8  17    3.88    2.88   1
   1   9 -12    9.00    5.22   1
   1   9 -11  129.28   10.01   1
   1   9 -10    2.31    3.80   1
   1   9  -9  116.42    9.06   1
   1   9  -8   30.03    4.16   1
   1   9  -7    3.50    2.99   1
   1   9  -6  150.80    8.84   1
   1   9  -5   43.82    4.50   1
   1   9   6   64.96    3.22   1
   1   9   7   37.82    2.46   1
   1   9   8  172.40    6.30   1
   1   9   9    2.19    1.69   1
   1   9  10   31.36    2.69   1
   1   9  11  115.78    5.60   1
   1   9  12   -1.59    1.99   1
   1   9  13   73.44    4.97   1
   1   9  14   13.47    2.42   1
   2  -6   5  122.99    6.65   1
   2  -5 -19   -0.40    2.09   1
   2  -5 -18    1.49    2.88   1
   2  -5 -17   54.02    4.56   1
   2  -5 -16    2.10    2.29   1
   2  -5 -15  155.50    6.73   1
   2  -5 -14   -2.19    1.39   1
   2  -5 -13  138.53    5.65   1
   2  -5 -12    4.08    1.90   1
   2  -5 -11   39.69    2.90   1
   2  -5 -10   18.49    2.06   1
   2  -5  -9  421.89   12.73   1
   2  -5  -8   -0.50    0.91   1
   2  -5  -7  548.50   14.05   1
   2  -5  -6   16.48    1.38   1
   2  -5  -5  180.90    6.19   1
   2  -5  -4    5.02    1.12   1
   2  -5  -3  124.99    4.02   1
   2  -5  -2    0.71    0.71   1
   2  -5  -1  469.59   13.87   1
   2  -5   0    0.00    1.00   1
   2  -5   6   12.53    1.42   1
  -2   4 -20   12.11    3.20  -2
   2  -4 -20   12.11    3.20   1
  -2   4 -19   26.73    3.10  -2
   2  -4 -19   26.73    3.10   1
  -2   4 -18    6.10    1.88  -2
   2  -4 -18    6.10    1.88   1
  -2   4 -17   80.46    4.49  -2
   2  -4 -17   80.46    4.49   1
  -2   4 -16   58.06    3.51  -2
   2  -4 -16   58.06    3.51   1
  -2   4 -15   -1.00    1.30  -2
   2  -4 -15   -1.00    1.30   1
  -2   4 -14  108.16    4.58  -2
   2  -4 -14  108.16    4.58   1
  -2   4 -13  145.68    5.31  -2
   2  -4 -13  145.68    5.31   1
  -2   4 -12   27.04    2.08  -2
   2  -4 -12   27.04    2.08   1
  -2   4 -11  337.46    9.92  -2
   2  -4 -11  337.46    9.92   1
  -2   4 -10   86.49    3.35  -2
   2  -4 -10   86.49    3.35   1
  -2   4  -9  226.20    6.02  -2
   2  -4  -9  226.20    6.02   1
  -2   4  -8  255.68    7.04  -2
   2  -4  -8  255.68    7.04   1
  -2   4  -7  133.40    3.93  -2
   2  -4  -7  133.40    3.93   1
  -2   4  -6  171.35    4.97  -2
   2  -4  -6  171.35    4.97   1
  -2   4  -5  476.99   10.48  -2
   2  -4  -5  476.99   10.48   1
  -2   4  -4   17.72    1.18  -2
   2  -4  -4   17.72    1.18   1
  -2   4  -3  329.06    9.43  -2
   2  -4  -3  329.06    9.43   1
  -2   4  -2  165.38    4.89  -2
   2  -4  -2  165.38    4.89   1
  -2   4  -1   84.64    2.76  -2
   2  -4  -1   84.64    2.76   1
  -2   4   0  450.71   11.89  -2
   2  -4   0  450.71   11.89   1
  -2   4   1  164.87    4.88  -2
   2  -4   1  164.87    4.88   1
  -2   4   2   89.49    2.84  -2
   2  -4   2   89.49    2.84   1
  -2   4   3  385.73    8.25  -2
   2  -4   3  385.73    8.25   1
  -2   4   4   53.73    1.61  -2
   2  -4   4   53.73    1.61   1
  -2   4   5  500.42   11.19  -2
   2  -4   5  500.42   11.19   1
  -2   4   6  178.76    3.74  -2
   2  -4   6  178.76    3.74   1
  -2   4   7   63.52    2.07  -2
   2  -4   7   63.52    2.07   1
  -2   4   8  189.61    7.71  -2
   2  -4   8  189.61    7.71   1
  -2   3 -21    7.62    2.98  -2
   2  -3 -21    7.62    2.98   1
  -2   3 -20   90.63    5.52  -2
   2  -3 -20   90.63    5.52   1
  -2   3 -19    1.49    2.39  -2
   2  -3 -19    1.49    2.39   1
  -2   3 -18  225.30    8.11  -2
   2  -3 -18  225.30    8.11   1
  -2   3 -17    1.80    2.20  -2
   2  -3 -17    1.80    2.20   1
  -2   3 -16   44.36    3.20  -2
   2  -3 -16   44.36    3.20   1
  -2   3 -15    3.69    1.88  -2
   2  -3 -15    3.69    1.88   1
  -2   3 -14   85.93    4.26  -2
   2  -3 -14   85.93    4.26   1
  -2   3 -13   20.16    2.16  -2
   2  -3 -13   20.16    2.16   1
  -2   3 -12  315.42    8.52  -2
   2  -3 -12  315.42    8.52   1
  -2   3 -11   32.95    1.95  -2
   2  -3 -11   32.95    1.95   1
  -2   3 -10  253.45    6.69  -2
   2  -3 -10  253.45    6.69   1
  -2   3  -9  100.00    3.40  -2
   2  -3  -9  100.00    3.40   1
  -2   3  -8   79.03    2.67  -2
   2  -3  -8   79.03    2.67   1
  -2   3  -7    7.90    0.90  -2
   2  -3  -7    7.90    0.90   1
  -2   3  -6  136.19    3.97  -2
   2  -3  -6  136.19    3.97   1
  -2   3  -5   47.20    1.92  -2
   2  -3  -5   47.20    1.92   1
  -2   3  -4 1053.00   22.07  -2
   2  -3  -4 1053.00   22.07   1
  -2   3  -3   -0.40    0.59  -2
   2  -3  -3   -0.40    0.59   1
  -2   3  -2  509.40   13.09  -2
   2  -3  -2  509.40   13.09   1
  -2   3  -1    6.60    0.72  -2
   2  -3  -1    6.60    0.72   1
  -2   3   0    4.49    0.51  -2
   2  -3   0    4.49    0.51   1
  -2   3   1    7.51    0.60  -2
   2  -3   1    7.51    0.60   1
  -2   3   2  658.44   12.83  -2
   2  -3   2  658.44   12.83   1
  -2   3   3    0.79    0.39  -2
   2  -3   3    0.79    0.39   1
  -2   3   4 1045.88   20.70  -2
   2  -3   4 1045.88   20.70   1
  -2   3   5   73.27    2.05  -2
   2  -3   5   73.27    2.05   1
  -2   3   6   79.57    1.61  -2
   2  -3   6   79.57    1.61   1
  -2   3   7   29.27    0.76  -2
   2  -3   7   29.27    0.76   1
  -2   3   8  129.05    3.41  -2
   2  -3   8  129.05    3.41   1
  -2   3   9  143.28    3.59  -2
   2  -3   9  143.28    3.59   1
  -2   3  10  283.92    7.08  -2
   2  -3  10  283.92    7.08   1
  -2   3  11   28.84    1.50  -2
   2  -3  11   28.84    1.50   1
   2  -2 -22   76.74    5.08   1
   2  -2 -21    9.92    2.33   1
   2  -2 -20   57.30    4.24   1
   2  -2 -19   68.56    3.97   1
   2  -2 -18   -0.90    1.50   1
   2  -2 -17   37.33    2.69   1
   2  -2 -16  231.65    8.52   1
   2  -2 -15   58.06    3.51   1
   2  -2 -14  265.04    8.47   1
   2  -2 -13   20.79    1.64   1
   2  -2 -12   13.91    1.42   1
   2  -2 -11  520.30   12.77   1
   2  -2 -10   45.43    2.16   1
   2  -2  -9   75.52    2.78   1
   2  -2  -8  596.82   14.66   1
   2  -2  -7   29.05    1.51   1
   2  -2  -6  638.07   14.65   1
   2  -2  -5  269.29    6.56   1
   2  -2  -4   14.29    0.91   1
   2  -2  -3  450.71    9.77   1
   2  -2  -2  301.72    6.95   1
   2  -2  -1   47.47    1.24   1
   2  -2   0 1014.42   14.65   1
   2  -2   1   50.27    1.13   1
   2  -2   2  302.41    4.87   1
   2  -2   3  395.21    5.96   1
   2  -2   4   29.05    0.75   1
   2  -2   5  223.50    4.19   1
   2  -2   6  715.56   10.70   1
   2  -2   7   21.53    1.11   1
   2  -2   8  738.75   15.22   1
   2  -2   9   36.60    1.57   1
   2  -2  10   55.65    1.94   1
   2  -2  11  416.57    9.80   1
   2  -2  12   32.15    1.70   1
   2  -2  13   18.66    1.47   1
   2  -2  14  326.16    9.03   1
   2  -2  15   51.98    2.74   1
   2  -1 -23   69.56    3.67   1
   2  -1 -22    1.49    2.10   1
   2  -1 -21   96.83    5.71   1
   2  -1 -20    8.12    2.62   1
   2  -1 -19   14.82    2.62   1
   2  -1 -18   31.92    2.71   1
   2  -1 -17   69.22    3.16   1
   2  -1 -16   12.60    1.63   1
   2  -1 -15  452.41   11.91   1
   2  -1 -14    7.62    1.60   1
   2  -1 -13  387.70    9.85   1
   2  -1 -12  116.64    3.89   1
   2  -1 -11   52.42    2.17   1
   2  -1 -10  184.14    4.89   1
   2  -1  -9  430.15    9.54   1
   2  -1  -8    2.40    0.71   1
   2  -1  -7 1184.05   24.09   1
   2  -1  -6   51.12    1.86   1
   2  -1  -5  109.20    3.13   1
   2  -1  -4  235.01    4.60   1
   2  -1  -3  245.55    4.07   1
   2  -1  -2   36.36    0.84   1
   2  -1  -1 1608.81   27.27   1
   2  -1   0    1.30    0.30   1
   2  -1   1 1796.06   23.73   1
   2  -1   2   26.52    0.72   1
   2  -1   3  286.62    4.06   1
   2  -1   4  311.52    4.24   1
   2  -1   5   50.27    0.99   1
   2  -1   6   90.82    2.29   1
   2  -1   7 1123.59   19.44   1
   2  -1   8    3.50    0.60   1
   2  -1   9  602.70   12.77   1
   2  -1  10  254.72    5.75   1
   2  -1  11   33.64    1.62   1
   2  -1  12  333.79    8.04   1
   2  -1  13  351.56    8.62   1
   2  -1  14    2.99    1.31   1
   2  -1  15  456.68   11.11   1
   2  -1  16   41.34    2.44   1
   2  -1  17   83.17    3.65   1
   2  -1  18   63.04    3.18   1
   2   0 -23   23.43    2.32   1
   2   0 -22    9.67    2.49   1
   2   0 -21   20.88    2.74   1
   2   0 -20   12.32    2.60   1
   2   0 -19  202.78    7.69   1
   2   0 -18    3.80    1.40   1
   2   0 -17  185.78    6.27   1
   2   0 -16   44.09    2.66   1
   2   0 -15   19.36    1.94   1
   2   0 -14   59.75    2.63   1
   2   0 -13  168.22    4.93   1
   2   0 -12   12.11    1.11   1
   2   0 -11  588.55   14.07   1
   2   0 -10   37.70    1.72   1
   2   0  -9  251.86    6.03   1
   2   0  -8   18.32    1.11   1
   2   0  -7    1.99    0.70   1
   2   0  -6  160.78    3.04   1
   2   0  -5  643.13   10.14   1
   2   0  -4   98.01    1.98   1
   2   0  -3 1390.54   26.85   1
   2   0  -2  302.06    5.21   1
   2   0  -1  379.47    5.84   1
   2   0   0  331.60    5.46   1
   2   0   1  186.87    3.01   1
   2   0   2  341.88    4.44   1
   2   0   3 1431.87   18.16   1
   2   0   4   22.37    0.47   1
   2   0   5  986.59   13.19   1
   2   0   6  176.62    3.19   1
   2   0   7   18.40    1.03   1
   2   0   8    0.59    0.60   1
   2   0   9  207.36    4.90   1
   2   0  10   22.28    1.23   1
   2   0  11  670.81   13.99   1
   2   0  12   -1.10    0.90   1
   2   0  13  329.42    7.99   1
   2   0  14   15.37    1.49   1
   2   0  15    1.59    1.29   1
   2   0  16   11.09    1.80   1
   2   0  17  227.10    7.84   1
   2   0  18   11.97    2.08   1
   2   0  19  277.56    9.33   1
   2   0  20    3.39    1.69   1
   2   0  21   39.44    5.28   1
   2   1 -23    4.80    2.01   1
   2   1 -22    0.40    1.89   1
   2   1 -21   20.16    2.42   1
   2   1 -20   61.47    3.45   1
   2   1 -19   11.02    1.79   1
   2   1 -18  245.24    8.14   1
   2   1 -17   31.25    2.46   1
   2   1 -16  138.53    5.18   1
   2   1 -15  165.38    5.14   1
   2   1 -14   44.89    2.14   1
   2   1 -13   55.06    2.23   1
   2   1 -12  470.89   10.85   1
   2   1 -11   -1.21    1.41   1
   2   1 -10  800.89   17.55   1
   2   1  -9   11.22    1.47   1
   2   1  -8  229.83    4.55   1
   2   1  -7  107.74    2.49   1
   2   1  -6  560.27    8.52   1
   2   1  -5   41.60    1.03   1
   2   1  -4 1885.30   25.18   1
   2   1  -3  194.88    4.19   1
   2   1  -2 1354.24   20.61   1
   2   1  -1  439.74    6.71   1
   2   1   0   36.60    0.85   1
   2   1   1  428.08    6.21   1
   2   1   2  885.66   11.31   1
   2   1   3  344.84    4.46   1
   2   1   4 1736.39   23.34   1
   2   1   5    5.81    0.48   1
   2   1   6 1015.06   16.57   1
   2   1   7  192.10    4.71   1
   2   1   8   16.40    0.97   1
   2   1   9   57.46    2.12   1
   2   1  10  663.58   13.91   1
   2   1  11    1.00    1.00   1
   2   1  12  491.51   11.09   1
   2   1  13   72.93    2.56   1
   2   1  14  138.77    4.24   1
   2   1  15  271.26    7.25   1
   2   1  16   33.64    2.20   1
   2   1  17  116.42    4.53   1
   2   1  18  194.60    6.70   1
   2   1  19    3.39    2.10   1
   2   1  20   78.15    4.42   1
   2   1  21   52.71    4.21   1
   2   1  22    0.20    2.62   1
   2   1  23   36.00    3.36   1
   2   2 -23    2.10    2.00   1
   2   2 -22  144.96    4.58   1
   2   2 -21    0.59    1.49   1
   2   2 -20  101.40    3.83   1
   2   2 -19    1.69    1.09   1
   2   2 -18    7.51    1.59   1
   2   2 -17    3.88    0.99   1
   2   2 -16  228.61    7.26   1
   2   2 -15    5.11    1.99   1
   2   2 -14  583.22   13.52   1
   2   2 -13    9.12    2.60   1
   2   2 -12  318.27    7.49   1
   2   2 -11   26.01    1.43   1
   2   2 -10  197.96    4.22   1
   2   2  -9   48.44    2.09   1
   2   2  -8 1444.76   24.33   1
   2   2  -7    9.61    1.18   1
   2   2  -6 1131.65   19.51   1
   2   2  -5    5.20    0.41   1
   2   2  -4  146.41    2.66   1
   2   2  -3   51.84    1.15   1
   2   2  -2  614.54   10.41   1
   2   2  -1   34.46    0.82   1
   2   2   0 3253.56   73.01   1
   2   2   1   11.63    0.41   1
   2   2   2 1865.38   25.05   1
   2   2   3   37.33    0.98   1
   2   2   4    2.40    0.31   1
   2   2   5    4.88    0.62   1
   2   2   6  696.43   12.67   1
   2   2   7   10.63    3.19   1
   2   2   8 1600.00   31.20   1
   2   2   9    9.42    1.29   1
   2   2  10  772.84   16.12   1
   2   2  11    6.00    1.32   1
   2   2  12   57.15    2.27   1
   2   2  13    0.90    1.41   1
   2   2  14  689.06   16.80   1
   2   2  15    2.59    1.80   1
   2   2  16  398.00   10.77   1
   2   2  17    7.02    1.48   1
   2   2  18   72.93    3.59   1
   2   2  19    2.99    2.01   1
   2   2  20   29.70    3.38   1
   2   2  21    1.59    1.99   1
   2   2  22  181.98    8.90   1
   2   2  23    0.90    2.30   1
   2   2  24   50.55    4.83   1
   2   3 -23   29.38    3.04   1
   2   3 -22    0.40    1.50   1
   2   3 -21   58.06    3.20   1
   2   3 -20   34.57    2.59   1
   2   3 -19   43.82    2.65   1
   2   3 -18  133.40    4.39   1
   2   3 -17   12.11    1.53   1
   2   3 -16   41.86    2.20   1
   2   3 -15  169.78    4.69   1
   2   3 -14   29.81    1.75   1
   2   3 -13  163.33    4.35   1
   2   3 -12  219.63    4.15   1
   2   3 -11   30.47    2.21   1
   2   3 -10  377.14    6.21   1
   2   3  -9  205.35    4.01   1
   2   3  -8  102.62    2.23   1
   2   3  -7  775.07   12.25   1
   2   3  -6  194.88    4.47   1
   2   3  -5  619.51   10.95   1
   2   3  -4 1002.99   15.84   1
   2   3  -3   65.61    2.11   1
   2   3  -2  576.96   10.09   1
   2   3  -1  197.96    2.81   1
   2   3   0   17.39    0.50   1
   2   3   1  149.33    2.20   1
   2   3   2  187.42    3.01   1
   2   3   3  188.79    4.40   1
   2   3   4 1213.13   18.81   1
   2   3   5  167.44    5.18   1
   2   3   6  703.31   11.14   1
   2   3   7  805.42   13.62   1
   2   3   8   17.31    3.08   1
   2   3   9  393.23    9.52   1
   2   3  10  383.38    8.62   1
   2   3  11   45.43    3.24   1
   2   3  12  465.26   10.78   1
   2   3  13   24.11    2.45   1
   2   3  14  147.62    5.10   1
   2   3  15  138.30    4.47   1
   2   3  16   10.69    1.90   1
   2   3  17   52.56    3.04   1
   2   3  18  192.65    7.77   1
   2   3  19    3.69    1.80   1
   2   3  20  130.64    5.49   1
   2   3  21   33.29    3.92   1
   2   3  22    9.61    2.48   1
   2   3  23   22.00    3.66   1
  -2  -4 -23    1.10    1.51  -2
   2   4 -22    1.10    1.51   1
  -2  -4 -22    5.71    1.48  -2
   2   4 -21    5.71    1.48   1
  -2  -4 -21   16.48    1.87  -2
   2   4 -20   16.48    1.87   1
  -2  -4 -20  101.81    3.83  -2
   2   4 -19  101.81    3.83   1
  -2  -4 -19   12.53    1.70  -2
   2   4 -18   12.53    1.70   1
  -2  -4 -18  222.01    6.26  -2
   2   4 -17  222.01    6.26   1
  -2  -4 -17    8.70    1.12  -2
   2   4 -16    8.70    1.12   1
  -2  -4 -16   65.12    2.58  -2
   2   4 -15   65.12    2.58   1
  -2  -4 -15    1.39    0.71  -2
   2   4 -14    1.39    0.71   1
  -2  -4 -14  137.12    3.75  -2
   2   4 -13  137.12    3.75   1
  -2  -4 -13   36.24    1.69  -2
   2   4 -12   36.24    1.69   1
  -2  -4 -12  671.33   10.88  -2
   2   4 -11  671.33   10.88   1
  -2  -4 -11   56.10    1.50  -2
   2   4 -10   56.10    1.50   1
  -2  -4 -10  584.19   11.12  -2
   2   4  -9  584.19   11.12   1
  -2  -4  -9   15.37    0.71  -2
   2   4  -8   15.37    0.71   1
  -2  -4  -8    4.80    0.39  -2
   2   4  -7    4.80    0.39   1
  -2  -4  -7   21.16    0.74  -2
   2   4  -6   21.16    0.74   1
  -2  -4  -6  508.95    9.02  -2
   2   4  -5  508.95    9.02   1
  -2  -4  -5  106.30    2.27  -2
   2   4  -4  106.30    2.27   1
  -2  -4  -4  898.80   15.59  -2
   2   4  -3  898.80   15.59   1
  -2  -4  -3   70.56    1.51  -2
   2   4  -2   70.56    1.51   1
  -2  -4  -2  610.09    8.89  -2
   2   4  -1  610.09    8.89   1
  -2  -4  -1    3.69    0.31  -2
   2   4   0    3.69    0.31   1
  -2  -4   0   49.42    0.98  -2
   2   4   1   49.42    0.98   1
  -2  -4   1   45.83    1.08  -2
   2   4   2   45.83    1.08   1
  -2  -4   2  856.15   13.46  -2
   2   4   3  856.15   13.46   1
  -2  -4   3  125.44    2.69  -2
   2   4   4  125.44    2.69   1
  -2  -4   4  886.25   14.89  -2
   2   4   5  886.25   14.89   1
  -2  -4   5   38.81    1.50  -2
   2   4   6   38.81    1.50   1
  -2  -4   6  270.60    5.59  -2
   2   4   7  270.60    5.59   1
  -2  -4   7   48.58    1.95  -2
   2   4   8   48.58    1.95   1
  -2  -4   8  131.10    3.89  -2
   2   4   9  131.10    3.89   1
  -2  -4   9   54.76    2.37  -2
   2   4  10   54.76    2.37   1
  -2  -4  10  721.46   16.12  -2
   2   4  11  721.46   16.12   1
  -2  -4  11   44.76    2.68  -2
   2   4  12   44.76    2.68   1
  -2  -4  12  487.97   12.37  -2
   2   4  13  487.97   12.37   1
  -2  -4  13   14.59    1.60  -2
   2   4  14   14.59    1.60   1
  -2  -4  14    9.80    1.63  -2
   2   4  15    9.80    1.63   1
  -2  -4  15   26.94    2.18  -2
   2   4  16   26.94    2.18   1
  -2  -4  16  135.96    5.13  -2
   2   4  17  135.96    5.13   1
  -2  -4  17   14.82    2.62  -2
   2   4  18   14.82    2.62   1
  -2  -4  18  173.71    7.12  -2
   2   4  19  173.71    7.12   1
  -2  -4  19    7.18    2.09  -2
   2   4  20    7.18    2.09   1
  -2  -4  20   50.69    4.70  -2
   2   4  21   50.69    4.70   1
  -2  -4  21    3.61    2.32  -2
   2   4  22    3.61    2.32   1
  -2  -4  22   -2.40    2.39  -2
   2   4  23   -2.40    2.39   1
  -2  -5 -22   95.26    4.88  -2
   2   5 -21   95.26    4.88   1
  -2  -5 -21   22.75    2.00  -2
   2   5 -20   22.75    2.00   1
  -2  -5 -20   64.48    3.05  -2
   2   5 -19   64.48    3.05   1
  -2  -5 -19   87.42    3.55  -2
   2   5 -18   87.42    3.55   1
  -2  -5 -18   37.70    2.21  -2
   2   5 -17   37.70    2.21   1
  -2  -5 -17   87.61    3.37  -2
   2   5 -16   87.61    3.37   1
  -2  -5 -16  170.56    4.96  -2
   2   5 -15  170.56    4.96   1
  -2  -5 -15   10.69    1.70  -2
   2   5 -14   10.69    1.70   1
  -2  -5 -14  191.55    5.26  -2
   2   5 -13  191.55    5.26   1
  -2  -5 -13   84.64    2.76  -2
   2   5 -12   84.64    2.76   1
  -2  -5 -12   11.70    1.09  -2
   2   5 -11   11.70    1.09   1
  -2  -5 -11  193.21    4.73  -2
   2   5 -10  193.21    4.73   1
  -2  -5 -10  230.13    4.85  -2
   2   5  -9  230.13    4.85   1
  -2  -5  -9  165.89    3.35  -2
   2   5  -8  165.89    3.35   1
  -2  -5  -8  553.19    9.88  -2
   2   5  -7  553.19    9.88   1
  -2  -5  -7   45.83    2.03  -2
   2   5  -6   45.83    2.03   1
  -2  -5  -6  633.03   12.58  -2
   2   5  -5  633.03   12.58   1
  -2  -5  -5  231.95    5.18  -2
   2   5  -4  231.95    5.18   1
  -2  -5  -4   34.46    3.05  -2
   2   5  -3   34.46    3.05   1
  -2  -5  -3  384.94    6.28  -2
   2   5  -2  384.94    6.28   1
  -2  -5  -2  375.58    6.20  -2
   2   5  -1  375.58    6.20   1
  -2  -5  -1   98.41    2.38  -2
   2   5   0   98.41    2.38   1
  -2  -5   0  627.50    9.02  -2
   2   5   1  627.50    9.02   1
  -2  -5   1  185.50    3.81  -2
   2   5   2  185.50    3.81   1
  -2  -5   2  283.25    4.04  -2
   2   5   3  283.25    4.04   1
  -2  -5   3  312.58    6.36  -2
   2   5   4  312.58    6.36   1
  -2  -5   4  192.10    3.88  -2
   2   5   5  192.10    3.88   1
  -2  -5   5  155.50    4.49  -2
   2   5   6  155.50    4.49   1
  -2  -5   6  745.84   14.75  -2
   2   5   7  745.84   14.75   1
  -2  -5   7   31.25    3.24  -2
   2   5   8   31.25    3.24   1
  -2  -5   8  555.07   12.72  -2
   2   5   9  555.07   12.72   1
  -2  -5   9  112.78    4.04  -2
   2   5  10  112.78    4.04   1
  -2  -5  10  134.10    4.17  -2
   2   5  11  134.10    4.17   1
  -2  -5  11   92.35    3.84  -2
   2   5  12   92.35    3.84   1
  -2  -5  12   80.28    3.23  -2
   2   5  13   80.28    3.23   1
  -2  -5  13   35.40    2.62  -2
   2   5  14   35.40    2.62   1
  -2  -5  14  231.65    7.61  -2
   2   5  15  231.65    7.61   1
  -2  -5  15   14.21    2.49  -2
   2   5  16   14.21    2.49   1
  -2  -5  16  192.38    8.60  -2
   2   5  17  192.38    8.60   1
  -2  -5  17   50.84    3.85  -2
   2   5  18   50.84    3.85   1
  -2  -5  18    4.71    2.00  -2
   2   5  19    4.71    2.00   1
  -2  -5  19   41.34    3.86  -2
   2   5  20   41.34    3.86   1
  -2  -5  20  137.59    7.27  -2
   2   5  21  137.59    7.27   1
  -2  -5  21    0.59    2.19  -2
   2   5  22    0.59    2.19   1
   2   6 -19    7.29    4.37   1
   2   6 -18    7.29    3.02   1
   2   6 -17    9.12    1.39   1
   2   6 -16   47.33    2.20   1
   2   6 -15    0.90    1.10   1
   2   6 -14  259.85    6.77   1
   2   6 -13   26.21    1.84   1
   2   6 -12  176.89    5.05   1
   2   6 -11   22.75    1.14   1
   2   6 -10    4.00    0.68   1
   2   6  -9   39.82    2.15   1
   2   6  -8  342.99    7.41   1
   2   6  -7    5.02    0.49   1
   2   6  -6  546.62    9.35   1
   2   6  -5   13.10    0.51   1
   2   6  -4  111.30    1.90   1
   2   6  -3   37.45    0.86   1
   2   6  -2  102.41    2.02   1
   2   6  -1  169.78    4.17   1
   2   6   0  428.90    7.04   1
   2   6   1    8.58    0.59   1
   2   6   2  424.77    8.66   1
   2   6   3  155.00    3.49   1
   2   6   4   55.35    1.64   1
   2   6   5   41.47    1.55   1
   2   6   6  189.06    4.12   1
   2   6   7   27.25    1.88   1
   2   6   8  546.16   12.62   1
   2   6   9   20.16    2.33   1
   2   6  10  242.42    6.85   1
   2   6  11   60.37    2.64   1
   2   6  12    3.10    1.51   1
   2   6  13   63.52    3.35   1
   2   6  14  177.42    6.39   1
   2   6  15   17.47    2.42   1
   2   6  16  184.69    7.07   1
   2   6  17   18.66    2.42   1
   2   6  18   15.60    3.00   1
   2   6  19   37.33    3.91   1
   2   6  20   12.11    2.58   1
   2   6  21   17.31    3.00   1
   2   7 -18   63.20    7.31   1
   2   7 -17   -0.10    2.94   1
   2   7 -16   80.46    6.82   1
   2   7 -15   44.76    4.95   1
   2   7 -14    1.30    3.10   1
   2   7 -13   47.75    4.70   1
   2   7 -12   87.05    6.34   1
   2   7 -11   15.76    3.33   1
   2   7 -10  268.30   13.10   1
   2   7  -9    5.20    2.78   1
   2   7  -8  104.24    6.53   1
   2   7  -7   80.28    4.84   1
   2   7  -6   29.27    3.25   1
   2   7  -5   18.92    3.04   1
   2   7  -4  364.81   13.75   1
   2   7  -3    3.61    1.41   1
   2   7  -2  206.21    8.90   1
   2   7  -1   66.91    1.47   1
   2   7   0   23.33    0.68   1
   2   7   1  324.36    7.20   1
   2   7   2   13.62    0.89   1
   2   7   3   24.90    1.20   1
   2   7   4  297.56    7.59   1
   2   7   5    2.69    0.89   1
   2   7   6  401.60   10.42   1
   2   7   7   12.32    1.12   1
   2   7   8   17.64    1.60   1
   2   7   9   43.56    2.64   1
   2   7  10  150.55    5.15   1
   2   7  11    2.40    1.49   1
   2   7  12  297.22    9.31   1
   2   7  13    9.18    2.12   1
   2   7  14   81.72    4.16   1
   2   7  15   23.33    2.80   1
   2   7  16    4.80    2.50   1
   2   7  17   17.14    3.31   1
   2   7  18  111.30    6.75   1
   2   7  19   -3.50    2.92   1
   2   8 -15   11.42    3.58   1
   2   8 -14   32.15    5.22   1
   2   8 -13   25.70    4.77   1
   2   8 -12   26.42    3.60   1
   2   8 -11  202.21   11.38   1
   2   8 -10   -0.20    3.12   1
   2   8  -9  142.80    8.60   1
   2   8  -8   42.90    4.59   1
   2   8  -7   14.67    2.83   1
   2   8  -6   61.00    4.53   1
   2   8  -5   64.32    4.33   1
   2   8  -4   13.18    2.40   1
   2   8  -3  441.42   17.65   1
   2   8  -2    4.58    1.71   1
   2   8   1    0.79    0.50   1
   2   8   2   91.78    3.26   1
   2   8   3  284.60    8.77   1
   2   8   4    1.49    0.81   1
   2   8   5  451.14   12.74   1
   2   8   6    9.00    1.32   1
   2   8   7   64.96    3.06   1
   2   8   8   75.17    3.47   1
   2   8   9    6.30    1.31   1
   2   8  10   72.76    3.41   1
   2   8  11  128.82    5.45   1
   2   8  12    1.99    1.30   1
   2   8  13  159.52    6.82   1
   2   8  14   39.31    3.01   1
   2   8  15   16.81    2.30   1
   2   8  16   37.33    3.54   1
   2   8  17   12.67    2.49   1
   2   9 -13  113.00   10.20   1
   2   9 -12   -5.62    4.41   1
   2   9 -11   10.63    3.33   1
   2   9 -10   10.37    3.28   1
   2   9  -9   20.61    4.27   1
   2   9  -8    4.20    3.89   1
   2   9  -7  234.40   12.86   1
   2   9  -6    2.79    3.51   1
   2   9  -5  150.55    9.57   1
   2   9  -4    6.30    2.71   1
   2   9  -3    3.20    2.11   1
   2   9   4    0.00    1.00   1
   2   9   5    1.49    0.90   1
   2   9   6    1.80    1.10   1
   2   9   7  147.38    5.58   1
   2   9   8    3.10    0.99   1
   2   9   9  242.11    9.02   1
   2   9  10    2.59    1.80   1
   2   9  11   41.60    2.84   1
   2   9  12    3.10    1.41   1
   2   9  13    5.02    2.60   1
   2   9  14    1.00    2.70   1
   2   9  15  109.41    6.69   1
   2  10  -9   27.14    5.00   1
   2  10  -8   42.77    6.93   1
   2  10  -7    1.39    4.08   1
   2  10  -6  100.00    9.40   1
   2  10   9    3.88    1.89   1
   2  10  10   43.96    3.18   1
   2  10  11   33.76    3.02   1
   3  -4 -19    4.28    3.31   1
   3  -4 -18   70.06    5.02   1
   3  -4 -17    3.69    2.69   1
   3  -4 -16   53.14    4.37   1
   3  -4 -15    4.58    2.40   1
   3  -4 -14    8.12    2.22   1
   3  -4 -13    4.00    2.08   1
   3  -4 -12  173.71    6.33   1
   3  -4 -11    0.59    1.79   1
   3  -4 -10  286.62    9.48   1
   3  -4  -9    9.80    1.38   1
   3  -4  -8   41.34    2.44   1
   3  -4  -7    3.20    1.22   1
   3  -4  -6  226.50    6.62   1
   3  -4  -5    6.30    1.20   1
   3  -4  -4  491.51   13.30   1
   3  -4  -3   36.60    2.06   1
   3  -4  -2  194.60    6.14   1
   3  -4  -1    6.00    0.98   1
   3  -4   0    2.40    0.90   1
   3  -4   1    7.51    0.99   1
   3  -4   2  252.81    7.63   1
   3  -4   3   45.16    2.15   1
   3  -3 -20    8.18    3.37   1
   3  -3 -19  111.51    6.76   1
   3  -3 -18    0.10    1.72   1
   3  -3 -17   41.73    3.23   1
   3  -3 -16   26.83    2.59   1
   3  -3 -15    1.59    1.39   1
   3  -3 -14   89.49    4.16   1
   3  -3 -13   83.72    4.03   1
   3  -3 -12   72.25    3.57   1
   3  -3 -11  235.62    7.68   1
   3  -3 -10    4.88    1.19   1
   3  -3  -9   57.15    2.87   1
   3  -3  -8  128.82    4.31   1
   3  -3  -7    2.59    1.19   1
   3  -3  -6   87.80    3.37   1
   3  -3  -5  225.60    7.21   1
   3  -3  -4   15.92    1.44   1
   3  -3  -3  656.38   17.42   1
   3  -3  -2  148.11    4.87   1
   3  -3  -1   68.56    2.32   1
   3  -3   0  648.72   16.81   1
   3  -3   1   76.91    2.63   1
   3  -3   2  167.96    4.15   1
   3  -3   3  588.06   12.12   1
   3  -3   4   31.25    1.34   1
   3  -3   5  238.39    5.25   1
   3  -3   6  135.26    3.49   1
   3  -3   7   11.29    1.01   1
   3  -3   8  151.29    4.18   1
   3  -3   9   49.98    2.12   1
   3  -2 -21   55.95    5.24   1
   3  -2 -20   -2.31    2.71   1
   3  -2 -19   10.18    2.68   1
   3  -2 -18    8.29    2.07   1
   3  -2 -17   37.45    2.94   1
   3  -2 -16    0.10    1.62   1
   3  -2 -15  357.21   11.72   1
   3  -2 -14   -1.00    1.70   1
   3  -2 -13  185.78    6.00   1
   3  -2 -12    5.11    1.58   1
   3  -2 -11    2.19    1.01   1
   3  -2 -10   -0.59    0.89   1
   3  -2  -9  351.56    9.00   1
   3  -2  -8    4.41    1.22   1
   3  -2  -7 1104.23   27.25   1
   3  -2  -6   20.98    1.28   1
   3  -2  -5  364.43    9.93   1
   3  -2  -4   11.97    1.11   1
   3  -2  -3   31.92    1.58   1
   3  -2  -2   29.16    1.40   1
   3  -2  -1 1046.52   25.23   1
   3  -2   0    2.10    0.70   1
   3  -2   1 1290.25   31.61   1
   3  -2   2   28.73    1.18   1
   3  -2   3   64.96    1.93   1
   3  -2   4   38.07    1.36   1
   3  -2   5  332.33    6.93   1
   3  -2   6    7.02    0.58   1
   3  -2   7 1161.45   23.17   1
   3  -2   8   21.34    1.29   1
   3  -2   9  473.50   10.44   1
   3  -2  10    4.71    1.09   1
   3  -2  11    0.00    1.00   1
   3  -2  12   -0.10    1.01   1
   3  -2  13  139.95    4.97   1
   3  -1 -22   26.01    2.96   1
   3  -1 -21    4.80    2.01   1
   3  -1 -20   20.43    2.71   1
   3  -1 -19   55.35    4.02   1
   3  -1 -18    2.40    2.29   1
   3  -1 -17   84.27    4.04   1
   3  -1 -16   41.86    2.59   1
   3  -1 -15   10.89    1.91   1
   3  -1 -14   53.14    2.77   1
   3  -1 -13   94.87    3.51   1
   3  -1 -12   23.43    1.84   1
   3  -1 -11  499.52   12.07   1
   3  -1 -10   67.24    2.62   1
   3  -1  -9  291.04    7.51   1
   3  -1  -8  312.23    8.13   1
   3  -1  -7    2.40    1.12   1
   3  -1  -6  346.70    8.19   1
   3  -1  -5  643.64   15.73   1
   3  -1  -4   42.77    1.96   1
   3  -1  -3  999.19   23.39   1
   3  -1  -2  108.78    3.34   1
   3  -1  -1  117.07    3.03   1
   3  -1   0  130.19    3.19   1
   3  -1   1   61.62    1.57   1
   3  -1   2  100.80    2.01   1
   3  -1   3  919.91   15.77   1
   3  -1   4    7.02    0.48   1
   3  -1   5 1016.33   15.94   1
   3  -1   6  272.25    4.95   1
   3  -1   7   27.35    1.36   1
   3  -1   8  269.29    6.24   1
   3  -1   9  256.00    6.40   1
   3  -1  10  100.00    3.00   1
   3  -1  11  722.00   15.58   1
   3  -1  12    4.28    1.12   1
   3  -1  13  245.86    6.59   1
   3  -1  14   20.52    1.99   1
   3  -1  15    7.29    1.40   1
   3  -1  16   12.11    2.02   1
   3   0 -22    2.19    2.31   1
   3   0 -21   -0.50    1.80   1
   3   0 -20   83.54    5.30   1
   3   0 -19    2.40    2.20   1
   3   0 -18  124.77    5.14   1
   3   0 -17   -0.40    1.79   1
   3   0 -16   65.93    3.57   1
   3   0 -15    2.99    1.21   1
   3   0 -14   10.50    1.68   1
   3   0 -13    3.50    1.01   1
   3   0 -12  388.88    9.86   1
   3   0 -11    2.10    1.91   1
   3   0 -10  684.35   15.17   1
   3   0  -9   38.56    2.98   1
   3   0  -8  126.11    3.82   1
   3   0  -7  128.37    4.31   1
   3   0  -6  185.78    4.63   1
   3   0  -5   44.76    2.54   1
   3   0  -4  869.66   21.82   1
   3   0  -3    3.20    0.89   1
   3   0  -2 1524.12   30.45   1
   3   0  -1   52.85    1.60   1
   3   0   0   72.08    2.04   1
   3   0   1   91.01    2.48   1
   3   0   2 1360.13   20.65   1
   3   0   3    4.71    0.39   1
   3   0   4 1260.25   19.17   1
   3   0   5   25.00    0.80   1
   3   0   6  353.82    5.64   1
   3   0   7  199.37    4.24   1
   3   0   8   19.01    0.96   1
   3   0   9  144.00    4.08   1
   3   0  10  578.40   12.51   1
   3   0  11    3.39    2.21   1
   3   0  12  505.35   11.24   1
   3   0  13   23.33    1.74   1
   3   0  14   69.39    2.83   1
   3   0  15   32.15    2.15   1
   3   0  16   30.25    2.31   1
   3   0  17    9.92    2.02   1
   3   0  18  107.95    5.20   1
   3   0  19    0.59    2.19   1
   3   1 -22   60.37    4.35   1
   3   1 -21    0.50    1.80   1
   3   1 -20   69.56    4.34   1
   3   1 -19   33.18    3.00   1
   3   1 -18    4.20    1.60   1
   3   1 -17   96.04    4.31   1
   3   1 -16  142.09    5.01   1
   3   1 -15   18.92    3.04   1
   3   1 -14  336.36    8.80   1
   3   1 -13   41.34    2.96   1
   3   1 -12  112.78    3.61   1
   3   1 -11   69.22    2.50   1
   3   1 -10   68.39    2.48   1
   3   1  -9  118.37    4.35   1
   3   1  -8  991.62   21.41   1
   3   1  -7   70.06    4.85   1
   3   1  -6 1571.33   36.47   1
   3   1  -5  256.64    7.69   1
   3   1  -4  314.35    7.80   1
   3   1  -3  298.94    5.88   1
   3   1  -2  439.32    7.96   1
   3   1  -1   34.93    1.77   1
   3   1   0 1737.22   28.34   1
   3   1   1    7.18    0.70   1
   3   1   2 1045.23   15.52   1
   3   1   3  133.86    2.55   1
   3   1   4    7.78    0.50   1
   3   1   5  281.57    4.70   1
   3   1   6 1349.83   26.45   1
   3   1   7   88.74    8.67   1
   3   1   8 1567.37   31.67   1
   3   1   9  104.65    6.55   1
   3   1  10  370.95    8.47   1
   3   1  11   35.64    2.03   1
   3   1  12   22.18    1.79   1
   3   1  13   20.52    1.90   1
   3   1  14  359.86    9.11   1
   3   1  15    7.29    2.11   1
   3   1  16  310.82    9.52   1
   3   1  17   34.22    3.04   1
   3   1  18   17.14    2.48   1
   3   1  19   23.91    3.03   1
   3   1  20   58.06    3.66   1
   3   1  21    1.59    1.99   1
   3   1  22   75.17    5.20   1
  -3  -2 -23    3.39    1.58  -2
   3   2 -22    3.39    1.58   1
  -3  -2 -22  111.09    5.48  -2
   3   2 -21  111.09    5.48   1
  -3  -2 -21    5.62    1.52  -2
   3   2 -20    5.62    1.52   1
  -3  -2 -20   23.33    2.51  -2
   3   2 -19   23.33    2.51   1
  -3  -2 -19   45.83    3.38  -2
   3   2 -18   45.83    3.38   1
  -3  -2 -18   24.90    2.10  -2
   3   2 -17   24.90    2.10   1
  -3  -2 -17   29.48    2.50  -2
   3   2 -16   29.48    2.50   1
  -3  -2 -16  192.65    6.11  -2
   3   2 -15  192.65    6.11   1
  -3  -2 -15   20.61    1.91  -2
   3   2 -14   20.61    1.91   1
  -3  -2 -14  358.34    9.47  -2
   3   2 -13  358.34    9.47   1
  -3  -2 -13  147.14    4.37  -2
   3   2 -12  147.14    4.37   1
  -3  -2 -12   72.76    2.56  -2
   3   2 -11   72.76    2.56   1
  -3  -2 -11  195.72    5.04  -2
   3   2 -10  195.72    5.04   1
  -3  -2 -10  177.16    4.79  -2
   3   2  -9  177.16    4.79   1
  -3  -2  -9   87.42    2.62  -2
   3   2  -8   87.42    2.62   1
  -3  -2  -8  517.11   12.73  -2
   3   2  -7  517.11   12.73   1
  -3  -2  -7   45.16    1.48  -2
   3   2  -6   45.16    1.48   1
  -3  -2  -6  430.56    9.13  -2
   3   2  -5  430.56    9.13   1
  -3  -2  -5  630.01   13.55  -2
   3   2  -4  630.01   13.55   1
  -3  -2  -4   68.23    1.98  -2
   3   2  -3   68.23    1.98   1
  -3  -2  -3  523.49    9.61  -2
   3   2  -2  523.49    9.61   1
  -3  -2  -2  940.65   18.40  -2
   3   2  -1  940.65   18.40   1
  -3  -2  -1  127.92    2.71  -2
   3   2   0  127.92    2.71   1
  -3  -2   0 1619.26   27.36  -2
   3   2   1 1619.26   27.36   1
  -3  -2   1  246.49    4.08  -2
   3   2   2  246.49    4.08   1
  -3  -2   2  225.00    3.90  -2
   3   2   3  225.00    3.90   1
  -3  -2   3  921.12   13.35  -2
   3   2   4  921.12   13.35   1
  -3  -2   4  254.72    6.38  -2
   3   2   5  254.72    6.38   1
  -3  -2   5  308.70    7.03  -2
   3   2   6  308.70    7.03   1
  -3  -2   6  486.20   10.58  -2
   3   2   7  486.20   10.58   1
  -3  -2   7   53.44    2.63  -2
   3   2   8   53.44    2.63   1
  -3  -2   8  366.34    8.04  -2
   3   2   9  366.34    8.04   1
  -3  -2   9  249.64    6.00  -2
   3   2  10  249.64    6.00   1
  -3  -2  10   15.52    1.50  -2
   3   2  11   15.52    1.50   1
  -3  -2  11  328.33    7.97  -2
   3   2  12  328.33    7.97   1
  -3  -2  12  225.90    6.31  -2
   3   2  13  225.90    6.31   1
  -3  -2  13  112.78    4.25  -2
   3   2  14  112.78    4.25   1
  -3  -2  14  267.98    8.51  -2
   3   2  15  267.98    8.51   1
  -3  -2  15   26.01    2.55  -2
   3   2  16   26.01    2.55   1
  -3  -2  16   55.95    2.84  -2
   3   2  17   55.95    2.84   1
  -3  -2  17  122.54    5.09  -2
   3   2  18  122.54    5.09   1
  -3  -2  18    4.28    2.28  -2
   3   2  19    4.28    2.28   1
  -3  -2  19   42.90    3.80  -2
   3   2  20   42.90    3.80   1
  -3  -2  20   43.43    3.95  -2
   3   2  21   43.43    3.95   1
  -3  -2  21    1.59    2.19  -2
   3   2  22    1.59    2.19   1
  -3  -2  22   57.91    4.57  -2
   3   2  23   57.91    4.57   1
  -3  -3 -23    0.50    1.70  -2
   3   3 -22    0.50    1.70   1
  -3  -3 -22    4.58    1.88  -2
   3   3 -21    4.58    1.88   1
  -3  -3 -21    7.67    1.77  -2
   3   3 -20    7.67    1.77   1
  -3  -3 -20  109.41    3.97  -2
   3   3 -19  109.41    3.97   1
  -3  -3 -19   12.11    1.81  -2
   3   3 -18   12.11    1.81   1
  -3  -3 -18  181.71    5.93  -2
   3   3 -17  181.71    5.93   1
  -3  -3 -17   13.99    1.57  -2
   3   3 -16   13.99    1.57   1
  -3  -3 -16   48.16    2.22  -2
   3   3 -15   48.16    2.22   1
  -3  -3 -15   26.73    1.55  -2
   3   3 -14   26.73    1.55   1
  -3  -3 -14   31.36    1.57  -2
   3   3 -13   31.36    1.57   1
  -3  -3 -13   91.01    3.24  -2
   3   3 -12   91.01    3.24   1
  -3  -3 -12  389.27    9.47  -2
   3   3 -11  389.27    9.47   1
  -3  -3 -11   40.45    2.54  -2
   3   3 -10   40.45    2.54   1
  -3  -3 -10  556.02   12.26  -2
   3   3  -9  556.02   12.26   1
  -3  -3  -9   29.70    1.96  -2
   3   3  -8   29.70    1.96   1
  -3  -3  -8   24.01    0.98  -2
   3   3  -7   24.01    0.98   1
  -3  -3  -7   35.28    1.31  -2
   3   3  -6   35.28    1.31   1
  -3  -3  -6  453.26    9.37  -2
   3   3  -5  453.26    9.37   1
  -3  -3  -5   57.46    1.82  -2
   3   3  -4   57.46    1.82   1
  -3  -3  -4 1049.11   21.38  -2
   3   3  -3 1049.11   21.38   1
  -3  -3  -3  242.11    4.67  -2
   3   3  -2  242.11    4.67   1
  -3  -3  -2  626.00   10.51  -2
   3   3  -1  626.00   10.51   1
  -3  -3  -1   28.62    0.75  -2
   3   3   0   28.62    0.75   1
  -3  -3   0   61.31    1.25  -2
   3   3   1   61.31    1.25   1
  -3  -3   1  122.10    2.43  -2
   3   3   2  122.10    2.43   1
  -3  -3   2 1032.98   16.71  -2
   3   3   3 1032.98   16.71   1
  -3  -3   3  167.96    3.63  -2
   3   3   4  167.96    3.63   1
  -3  -3   4  936.97   18.98  -2
   3   3   5  936.97   18.98   1
  -3  -3   5   35.76    2.15  -2
   3   3   6   35.76    2.15   1
  -3  -3   6  141.13    3.80  -2
   3   3   7  141.13    3.80   1
  -3  -3   7    2.19    0.71  -2
   3   3   8    2.19    0.71   1
  -3  -3   8  238.70    5.87  -2
   3   3   9  238.70    5.87   1
  -3  -3   9   35.52    2.62  -2
   3   3  10   35.52    2.62   1
  -3  -3  10  640.60   14.17  -2
   3   3  11  640.60   14.17   1
  -3  -3  11   38.19    2.60  -2
   3   3  12   38.19    2.60   1
  -3  -3  12  221.12    6.25  -2
   3   3  13  221.12    6.25   1
  -3  -3  13   16.00    1.68  -2
   3   3  14   16.00    1.68   1
  -3  -3  14    0.30    1.61  -2
   3   3  15    0.30    1.61   1
  -3  -3  15    4.08    1.90  -2
   3   3  16    4.08    1.90   1
  -3  -3  16  126.11    5.39  -2
   3   3  17  126.11    5.39   1
  -3  -3  17    6.10    2.42  -2
   3   3  18    6.10    2.42   1
  -3  -3  18  197.96    8.72  -2
   3   3  19  197.96    8.72   1
  -3  -3  19    0.30    2.51  -2
   3   3  20    0.30    2.51   1
  -3  -3  20   57.76    3.80  -2
   3   3  21   57.76    3.80   1
  -3  -3  21    4.08    2.30  -2
   3   3  22    4.08    2.30   1
  -3  -3  22    2.10    3.60  -2
   3   3  23    2.10    3.60   1
   3   4 -21   24.50    2.77   1
   3   4 -20   23.62    2.24   1
   3   4 -19   10.63    2.02   1
   3   4 -18   94.09    3.69   1
   3   4 -17    7.67    1.61   1
   3   4 -16  175.30    5.30   1
   3   4 -15   47.33    2.20   1
   3   4 -14   11.09    1.53   1
   3   4 -13  214.62    5.57   1
   3   4 -12  183.60    5.15   1
   3   4 -11   86.68    3.17   1
   3   4 -10  407.23    7.67   1
   3   4  -9  118.59    2.83   1
   3   4  -8  293.09    5.82   1
   3   4  -7  290.36    5.45   1
   3   4  -6   61.47    1.72   1
   3   4  -5  217.27    4.13   1
   3   4  -4  674.44   14.02   1
   3   4  -3   18.40    0.86   1
   3   4  -2  918.09   15.76   1
   3   4  -1  337.82    6.25   1
   3   4   0  165.12    3.08   1
   3   4   1  389.67    6.32   1
   3   4   2  451.99    6.80   1
   3   4   3  305.20    5.24   1
   3   4   4  819.68   14.89   1
   3   4   5   28.30    2.45   1
   3   4   6  475.68   11.34   1
   3   4   7  344.10    7.79   1
   3   4   8    3.10    1.58   1
   3   4   9  368.26    9.60   1
   3   4  10  316.48    8.18   1
   3   4  11   35.05    2.84   1
   3   4  12  262.76    7.13   1
   3   4  13  194.32    6.13   1
   3   4  14   66.75    3.76   1
   3   4  15  237.47    8.01   1
   3   4  16   39.19    2.75   1
   3   4  17   52.85    3.63   1
   3   4  18  117.72    4.99   1
   3   4  19   -1.59    1.69   1
   3   4  20   44.62    3.34   1
   3   4  21   42.25    4.16   1
   3   4  22    8.29    3.00   1
   3   4  23   35.05    3.91   1
   3   5 -20  106.09    4.94   1
   3   5 -19    3.10    1.30   1
   3   5 -18    2.99    1.49   1
   3   5 -17    1.39    1.09   1
   3   5 -16  158.00    5.28   1
   3   5 -15    3.80    1.09   1
   3   5 -14  305.55    7.69   1
   3   5 -13    6.00    1.18   1
   3   5 -12  187.42    5.20   1
   3   5 -11    1.30    0.59   1
   3   5 -10   -0.50    0.70   1
   3   5  -9    6.81    1.20   1
   3   5  -8  258.57    5.15   1
   3   5  -7    3.20    0.50   1
   3   5  -6  771.73   13.33   1
   3   5  -5   23.14    0.77   1
   3   5  -4  333.06    6.20   1
   3   5  -3    1.99    0.39   1
   3   5  -2  266.67    4.90   1
   3   5  -1    4.08    0.48   1
   3   5   0 1483.79   22.34   1
   3   5   1    8.01    0.68   1
   3   5   2 1290.25   22.27   1
   3   5   3    3.20    0.61   1
   3   5   4   83.36    2.01   1
   3   5   5    8.58    1.17   1
   3   5   6  522.12   11.88   1
   3   5   7   33.52    1.85   1
   3   5   8  662.03   14.92   1
   3   5   9   13.18    1.60   1
   3   5  10  175.30    5.30   1
   3   5  11    9.12    1.51   1
   3   5  12    7.67    1.22   1
   3   5  13    9.18    1.82   1
   3   5  14  209.67    7.24   1
   3   5  15    0.79    1.39   1
   3   5  16  312.94    9.91   1
   3   5  17   35.28    2.85   1
   3   5  18   97.02    4.73   1
   3   5  19   13.62    2.29   1
   3   5  20   20.16    2.87   1
   3   5  21    3.80    3.00   1
   3   5  22   96.43    6.87   1
   3   6 -19    6.20    1.69   1
   3   6 -18   68.39    2.65   1
   3   6 -17    1.00    1.50   1
   3   6 -16   48.30    2.50   1
   3   6 -15   48.86    2.38   1
   3   6 -14    0.50    0.81   1
   3   6 -13  102.82    3.24   1
   3   6 -12   86.49    2.98   1
   3   6 -11   33.06    1.73   1
   3   6 -10  232.87    5.49   1
   3   6  -9   42.38    1.69   1
   3   6  -8   70.22    2.35   1
   3   6  -7  394.02    8.73   1
   3   6  -6   23.62    1.17   1
   3   6  -5  180.36    4.57   1
   3   6  -4  214.62    4.39   1
   3   6  -3    5.71    0.48   1
   3   6  -2  561.22   11.85   1
   3   6  -1  101.61    2.02   1
   3   6   0  174.24    3.17   1
   3   6   1  342.62    5.92   1
   3   6   2  248.06    5.04   1
   3   6   3   59.14    1.54   1
   3   6   4  572.17   10.05   1
   3   6   5    4.80    0.61   1
   3   6   6  228.31    6.04   1
   3   6   7  183.87    5.42   1
   3   6   8   22.18    1.51   1
   3   6   9  295.84    7.91   1
   3   6  10  111.72    4.02   1
   3   6  11   15.37    1.57   1
   3   6  12  291.38    9.56   1
   3   6  13   18.49    1.89   1
   3   6  14   84.09    4.03   1
   3   6  15   61.47    4.08   1
   3   6  16    2.19    2.10   1
   3   6  17    7.62    2.48   1
   3   6  18   71.40    4.73   1
   3   6  19    1.10    2.79   1
   3   6  20  100.60    6.42   1
   3   6  21   -1.10    2.31   1
   3   7 -18    1.21    3.21   1
   3   7 -17   96.24    8.24   1
   3   7 -16    6.20    4.28   1
   3   7 -15   49.14    6.73   1
   3   7 -14   12.60    3.90   1
   3   7 -13    9.61    2.91   1
   3   7 -12    2.99    0.90   1
   3   7 -11  319.34    7.86   1
   3   7 -10    0.50    0.70   1
   3   7  -9  370.95    8.86   1
   3   7  -8   11.02    0.80   1
   3   7  -7   59.91    2.01   1
   3   7  -6   13.18    0.80   1
   3   7  -5  200.22    4.81   1
   3   7  -4    6.50    0.61   1
   3   7  -3  842.16   16.83   1
   3   7  -2   32.60    1.26   1
   3   7  -1  251.22    6.02   1
   3   7   0   20.70    1.00   1
   3   7   1    0.71    0.50   1
   3   7   2   29.70    1.53   1
   3   7   3  269.62    6.90   1
   3   7   4   47.20    2.06   1
   3   7   5  895.21   19.15   1
   3   7   6    2.31    1.09   1
   3   7   7  186.32    5.73   1
   3   7   8   31.70    1.91   1
   3   7   9   48.58    2.51   1
   3   7  10   26.73    2.07   1
   3   7  11  354.19   10.92   1
   3   7  12    1.59    1.79   1
   3   7  13  281.57    9.40   1
   3   7  14   21.16    2.76   1
   3   7  15    7.62    2.48   1
   3   7  16   32.38    2.73   1
   3   7  17   27.25    2.82   1
   3   7  18   12.32    2.39   1
   3   7  19   91.39    5.74   1
   3   8 -16    9.18    3.51   1
   3   8 -15   80.64    7.00   1
   3   8 -14    1.21    3.92   1
   3   8 -13  123.43    8.89   1
   3   8 -12    2.31    3.50   1
   3   8 -11   15.60    3.24   1
   3   8 -10   27.14    4.48   1
   3   8  -9   39.44    3.64   1
   3   8  -8   43.56    4.09   1
   3   8  -7  363.28   15.63   1
   3   8  -6    8.70    2.30   1
   3   8  -5  295.15   14.43   1
   3   8  -4   31.70    2.82   1
   3   8  -3   34.81    1.18   1
   3   8  -2   94.87    2.92   1
   3   8  -1  148.60    3.90   1
   3   8   0   43.96    1.46   1
   3   8   1  642.62   16.73   1
   3   8   2   33.06    1.96   1
   3   8   3  196.84    6.17   1
   3   8   4   79.39    3.39   1
   3   8   5   12.82    1.43   1
   3   8   6   17.72    1.60   1
   3   8   7  290.70    9.55   1
   3   8   8    4.58    1.20   1
   3   8   9  429.32   13.26   1
   3   8  10   23.43    2.32   1
   3   8  11   82.63    4.00   1
   3   8  12   10.11    1.78   1
   3   8  13   14.90    2.70   1
   3   8  14    3.88    1.89   1
   3   8  15  144.48    7.21   1
   3   8  16    5.11    2.89   1
   3   8  17   98.01    6.34   1
   3   9 -13   14.90    5.10   1
   3   9 -12   87.05    8.21   1
   3   9 -11   33.06    5.75   1
   3   9 -10   -1.00    2.70   1
   3   9  -9   17.14    3.06   1
   3   9  -8   97.61    6.32   1
   3   9  -7    4.49    2.88   1
   3   9  -6  200.22   10.47   1
   3   9  -5    8.12    2.51   1
   3   9  -4  124.99    7.83   1
   3   9  -3   79.03    5.33   1
   3   9  -2   -1.39    2.38   1
   3   9   2  176.09    5.57   1
   3   9   3   29.59    1.85   1
   3   9   4   15.29    1.41   1
   3   9   5  111.30    4.22   1
   3   9   6   71.74    3.22   1
   3   9   7   23.91    1.66   1
   3   9   8  174.50    6.34   1
   3   9   9    0.79    1.19   1
   3   9  10  111.30    5.06   1
   3   9  11   25.20    2.51   1
   3   9  12   -0.50    1.51   1
   3   9  13   55.06    3.86   1
   3   9  14   51.84    3.89   1
   3   9  15   23.14    3.46   1
  -3 -10 -11   10.89    4.88  -2
   3  10  -9   10.89    4.88   1
  -3 -10 -10   86.30    7.80  -2
   3  10  -8   86.30    7.80   1
  -3 -10  -9    4.20    2.58  -2
   3  10  -7    4.20    2.58   1
  -3 -10  -8    2.50    3.00  -2
   3  10  -6    2.50    3.00   1
  -3 -10  -7   35.40    5.35  -2
   3  10  -5   35.40    5.35   1
  -3 -10  -6  110.04    9.02  -2
   3  10  -4  110.04    9.02   1
  -3 -10   5   26.01    2.24  -2
   3  10   7   26.01    2.24   1
  -3 -10   6   13.32    2.12  -2
   3  10   8   13.32    2.12   1
  -3 -10   7    4.49    1.31  -2
   3  10   9    4.49    1.31   1
  -3 -10   8   50.84    3.71  -2
   3  10  10   50.84    3.71   1
  -3 -10   9    9.30    2.38  -2
   3  10  11    9.30    2.38   1
  -3 -10  10  133.63    7.40  -2
   3  10  12  133.63    7.40   1
   4  -4 -16    0.59    1.89   1
   4  -4 -15    1.30    1.89   1
   4  -4 -14   16.08    2.33   1
   4  -4 -13   70.73    4.54   1
   4  -4 -12   11.90    2.69   1
   4  -4 -11  222.90    9.26   1
   4  -4 -10    8.70    2.12   1
   4  -4  -9   38.44    2.73   1
   4  -4  -8   65.77    3.41   1
   4  -4  -7   12.53    1.91   1
   4  -4  -6   70.39    3.52   1
   4  -4  -5  256.00    8.64   1
   4  -4  -4    0.50    1.31   1
   4  -3 -18   27.46    3.77   1
   4  -3 -17   33.18    3.69   1
   4  -3 -16    0.71    2.02   1
   4  -3 -15  187.69    8.77   1
   4  -3 -14    6.30    1.81   1
   4  -3 -13   76.91    4.39   1
   4  -3 -12   12.39    2.32   1
   4  -3 -11    2.19    1.30   1
   4  -3 -10    1.00    1.30   1
   4  -3  -9  219.63    7.71   1
   4  -3  -8    2.10    1.10   1
   4  -3  -7  541.03   15.82   1
   4  -3  -6    3.31    1.02   1
   4  -3  -5  139.48    5.20   1
   4  -3  -4   15.13    1.48   1
   4  -3  -3    9.80    1.13   1
   4  -3  -2   19.98    1.61   1
   4  -3  -1  510.31   13.10   1
   4  -3   0    1.39    1.39   1
   4  -3   1  637.06   16.15   1
   4  -3   2   15.68    1.58   1
   4  -3   3   23.43    1.65   1
   4  -3   4    7.18    0.91   1
   4  -3   5  130.19    4.34   1
   4  -2 -19   61.47    4.86   1
   4  -2 -18    3.88    1.89   1
   4  -2 -17   35.28    3.21   1
   4  -2 -16   80.46    4.13   1
   4  -2 -15    9.42    3.01   1
   4  -2 -14  148.35    5.85   1
   4  -2 -13   43.96    2.78   1
   4  -2 -12   58.52    3.67   1
   4  -2 -11  179.29    6.16   1
   4  -2 -10   49.14    3.22   1
   4  -2  -9   90.25    3.61   1
   4  -2  -8  201.64    7.10   1
   4  -2  -7   -0.30    1.00   1
   4  -2  -6   91.97    3.45   1
   4  -2  -5  191.55    6.09   1
   4  -2  -4    3.39    1.91   1
   4  -2  -3  540.56   14.41   1
   4  -2  -2  162.31    5.61   1
   4  -2  -1  130.19    3.88   1
   4  -2   0  362.14    9.90   1
   4  -2   1   59.14    2.77   1
   4  -2   2  205.35    6.31   1
   4  -2   3  521.21   13.24   1
   4  -2   4    2.31    0.61   1
   4  -2   5  382.20   10.17   1
   4  -2   6   71.57    3.21   1
   4  -2   7    6.50    1.22   1
   4  -2   8  154.50    4.47   1
   4  -2   9   85.19    3.32   1
   4  -2  10   68.89    2.82   1
   4  -1 -20   40.07    3.67   1
   4  -1 -19    3.39    2.80   1
   4  -1 -18  131.79    6.20   1
   4  -1 -17    0.59    1.59   1
   4  -1 -16  103.63    5.09   1
   4  -1 -15    5.71    1.48   1
   4  -1 -14   11.29    1.88   1
   4  -1 -13    2.31    1.61   1
   4  -1 -12  241.80    7.78   1
   4  -1 -11    9.80    2.13   1
   4  -1 -10  292.75    8.21   1
   4  -1  -9   10.82    1.78   1
   4  -1  -8   71.57    3.21   1
   4  -1  -7    7.40    1.41   1
   4  -1  -6  174.50    5.81   1
   4  -1  -5   12.32    2.11   1
   4  -1  -4  645.16   16.26   1
   4  -1  -3   20.07    1.25   1
   4  -1  -2  340.77    8.49   1
   4  -1  -1   20.52    1.90   1
   4  -1   0    4.80    0.79   1
   4  -1   1   54.17    2.36   1
   4  -1   2  231.95    5.18   1
   4  -1   3   33.06    2.53   1
   4  -1   4  638.07   13.14   1
   4  -1   5   42.12    3.63   1
   4  -1   6  346.70    7.08   1
   4  -1   7   16.16    1.13   1
   4  -1   8   14.59    1.22   1
   4  -1   9   32.60    1.71   1
   4  -1  10  314.00    7.80   1
   4  -1  11    6.60    1.49   1
   4  -1  12  301.72    8.69   1
   4  -1  13   10.30    1.67   1
   4  -1  14   58.37    3.51   1
  -4   0 -22    5.52    3.10  -2
   4   0 -21    5.52    3.10   1
  -4   0 -21   21.72    2.52  -2
   4   0 -20   21.72    2.52   1
  -4   0 -20   81.18    4.69  -2
   4   0 -19   81.18    4.69   1
  -4   0 -19    1.99    2.28  -2
   4   0 -18    1.99    2.28   1
  -4   0 -18   83.91    4.40  -2
   4   0 -17   83.91    4.40   1
  -4   0 -17   87.24    4.30  -2
   4   0 -16   87.24    4.30   1
  -4   0 -16   23.81    2.64  -2
   4   0 -15   23.81    2.64   1
  -4   0 -15  187.69    6.58  -2
   4   0 -14  187.69    6.58   1
  -4   0 -14   37.09    2.56  -2
   4   0 -13   37.09    2.56   1
  -4   0 -13   91.58    4.21  -2
   4   0 -12   91.58    4.21   1
  -4   0 -12  266.02    7.18  -2
   4   0 -11  266.02    7.18   1
  -4   0 -11   12.82    1.58  -2
   4   0 -10   12.82    1.58   1
  -4   0 -10  129.96    4.56  -2
   4   0  -9  129.96    4.56   1
  -4   0  -9  219.04    7.10  -2
   4   0  -8  219.04    7.10   1
  -4   0  -8   33.18    2.30  -2
   4   0  -7   33.18    2.30   1
  -4   0  -7  384.94   10.20  -2
   4   0  -6  384.94   10.20   1
  -4   0  -6  147.38    4.86  -2
   4   0  -5  147.38    4.86   1
  -4   0  -5   33.76    1.86  -2
   4   0  -4   33.76    1.86   1
  -4   0  -4  261.15    7.43  -2
   4   0  -3  261.15    7.43   1
  -4   0  -3  324.00    9.00  -2
   4   0  -2  324.00    9.00   1
  -4   0  -2  189.61    5.23  -2
   4   0  -1  189.61    5.23   1
  -4   0  -1  768.40   19.40  -2
   4   0   0  768.40   19.40   1
  -4   0   0   78.68    3.37  -2
   4   0   1   78.68    3.37   1
  -4   0   1  592.44   11.20  -2
   4   0   2  592.44   11.20   1
  -4   0   2  313.64    6.02  -2
   4   0   3  313.64    6.02   1
  -4   0   3   36.84    1.21  -2
   4   0   4   36.84    1.21   1
  -4   0   4  174.24    3.17  -2
   4   0   5  174.24    3.17   1
  -4   0   5  348.94    5.98  -2
   4   0   6  348.94    5.98   1
  -4   0   6   66.59    1.80  -2
   4   0   7   66.59    1.80   1
  -4   0   7  473.93    9.58  -2
   4   0   8  473.93    9.58   1
  -4   0   8   31.47    1.57  -2
   4   0   9   31.47    1.57   1
  -4   0   9   64.32    2.73  -2
   4   0  10   64.32    2.73   1
  -4   0  10  225.00    5.70  -2
   4   0  11  225.00    5.70   1
  -4   0  11   76.74    3.50  -2
   4   0  12   76.74    3.50   1
  -4   0  12  101.40    3.83  -2
   4   0  13  101.40    3.83   1
  -4   0  13  240.56    7.44  -2
   4   0  14  240.56    7.44   1
  -4   0  14    7.51    2.08  -2
   4   0  15    7.51    2.08   1
  -4   0  15  207.94    6.92  -2
   4   0  16  207.94    6.92   1
  -4   0  16   38.81    2.99  -2
   4   0  17   38.81    2.99   1
  -4  -1 -22  105.47    6.78  -2
   4   1 -21  105.47    6.78   1
  -4  -1 -21    5.20    1.92  -2
   4   1 -20    5.20    1.92   1
  -4  -1 -20   39.94    3.29  -2
   4   1 -19   39.94    3.29   1
  -4  -1 -19    3.69    2.19  -2
   4   1 -18    3.69    2.19   1
  -4  -1 -18   24.50    2.08  -2
   4   1 -17   24.50    2.08   1
  -4  -1 -17    9.00    1.98  -2
   4   1 -16    9.00    1.98   1
  -4  -1 -16  277.22    8.99  -2
   4   1 -15  277.22    8.99   1
  -4  -1 -15   43.03    2.76  -2
   4   1 -14   43.03    2.76   1
  -4  -1 -14  317.20    9.62  -2
   4   1 -13  317.20    9.62   1
  -4  -1 -13   15.37    1.49  -2
   4   1 -12   15.37    1.49   1
  -4  -1 -12   40.20    2.03  -2
   4   1 -11   40.20    2.03   1
  -4  -1 -11   72.93    2.90  -2
   4   1 -10   72.93    2.90   1
  -4  -1 -10  207.94    5.77  -2
   4   1  -9  207.94    5.77   1
  -4  -1  -9   42.51    2.35  -2
   4   1  -8   42.51    2.35   1
  -4  -1  -8  717.17   17.67  -2
   4   1  -7  717.17   17.67   1
  -4  -1  -7   42.51    2.22  -2
   4   1  -6   42.51    2.22   1
  -4  -1  -6  277.89    7.33  -2
   4   1  -5  277.89    7.33   1
  -4  -1  -5   75.17    2.77  -2
   4   1  -4   75.17    2.77   1
  -4  -1  -4   31.36    1.46  -2
   4   1  -3   31.36    1.46   1
  -4  -1  -3  153.76    4.46  -2
   4   1  -2  153.76    4.46   1
  -4  -1  -2  643.64   15.73  -2
   4   1  -1  643.64   15.73   1
  -4  -1  -1   73.96    3.44  -2
   4   1   0   73.96    3.44   1
  -4  -1   0  936.97   22.04  -2
   4   1   1  936.97   22.04   1
  -4  -1   1  129.50    3.41  -2
   4   1   2  129.50    3.41   1
  -4  -1   2  268.30    4.91  -2
   4   1   3  268.30    4.91   1
  -4  -1   3  191.27    3.60  -2
   4   1   4  191.27    3.60   1
  -4  -1   4   60.37    1.55  -2
   4   1   5   60.37    1.55   1
  -4  -1   5   70.39    1.85  -2
   4   1   6   70.39    1.85   1
  -4  -1   6  606.14   13.29  -2
   4   1   7  606.14   13.29   1
  -4  -1   7   58.52    2.45  -2
   4   1   8   58.52    2.45   1
  -4  -1   8  553.66   12.71  -2
   4   1   9  553.66   12.71   1
  -4  -1   9  103.02    3.45  -2
   4   1  10  103.02    3.45   1
  -4  -1  10   18.23    1.54  -2
   4   1  11   18.23    1.54   1
  -4  -1  11  116.86    3.89  -2
   4   1  12  116.86    3.89   1
  -4  -1  12  177.16    5.32  -2
   4   1  13  177.16    5.32   1
  -4  -1  13   25.10    2.30  -2
   4   1  14   25.10    2.30   1
  -4  -1  14  376.75   10.87  -2
   4   1  15  376.75   10.87   1
  -4  -1  15   52.85    3.49  -2
   4   1  16   52.85    3.49   1
  -4  -1  16  127.01    5.18  -2
   4   1  17  127.01    5.18   1
  -4  -1  17   16.08    2.09  -2
   4   1  18   16.08    2.09   1
  -4  -1  18    1.59    1.59  -2
   4   1  19    1.59    1.59   1
  -4  -1  19   18.40    2.57  -2
   4   1  20   18.40    2.57   1
   4   2 -21    1.00    2.70   1
   4   2 -20   37.09    3.53   1
   4   2 -19   72.76    4.09   1
   4   2 -18    8.18    2.57   1
   4   2 -17  153.26    5.69   1
   4   2 -16   37.21    3.05   1
   4   2 -15   24.30    1.97   1
   4   2 -14   47.33    2.61   1
   4   2 -13   58.52    3.06   1
   4   2 -12   21.34    2.22   1
   4   2 -11  310.82    9.17   1
   4   2 -10   88.74    3.96   1
   4   2  -9  246.49    6.91   1
   4   2  -8  114.49    3.85   1
   4   2  -7   19.98    1.61   1
   4   2  -6  140.90    4.27   1
   4   2  -5  261.47    7.44   1
   4   2  -4   97.22    3.16   1
   4   2  -3  796.37   19.19   1
   4   2  -2   38.94    1.87   1
   4   2  -1  332.70    8.39   1
   4   2   0   54.76    2.07   1
   4   2   1   34.22    1.52   1
   4   2   2   80.10    2.86   1
   4   2   3  696.96   12.14   1
   4   2   4   53.14    3.94   1
   4   2   5  730.62   14.06   1
   4   2   6  148.11    3.65   1
   4   2   7   57.46    2.43   1
   4   2   8   65.93    2.44   1
   4   2   9  154.50    4.47   1
   4   2  10  104.45    3.88   1
   4   2  11  419.43    9.83   1
   4   2  12   32.26    2.73   1
   4   2  13  255.04    7.03   1
   4   2  14    9.99    1.90   1
   4   2  15    7.40    1.69   1
   4   2  16   17.31    2.00   1
   4   2  17  127.69    5.65   1
   4   2  18   15.76    2.86   1
   4   2  19  160.02    8.10   1
   4   2  20    3.80    2.81   1
   4   2  21   31.25    3.80   1
   4   2  22    7.51    3.29   1
   4   3 -21    9.00    2.28   1
   4   3 -20   34.81    2.60   1
   4   3 -19    9.61    1.98   1
   4   3 -18  127.92    4.52   1
   4   3 -17    7.90    2.08   1
   4   3 -16  138.30    5.17   1
   4   3 -15   32.04    2.15   1
   4   3 -14    8.12    1.60   1
   4   3 -13   31.47    2.36   1
   4   3 -12  275.89    8.97   1
   4   3 -11   11.63    2.52   1
   4   3 -10  521.67   13.70   1
   4   3  -9    3.39    0.88   1
   4   3  -8  281.23    8.05   1
   4   3  -7   37.70    1.60   1
   4   3  -6  160.78    5.07   1
   4   3  -5  170.56    6.27   1
   4   3  -4  787.36   19.64   1
   4   3  -3   47.75    3.73   1
   4   3  -2  689.06   17.33   1
   4   3  -1  184.96    5.17   1
   4   3   0  107.33    2.69   1
   4   3   1  346.33    6.70   1
   4   3   2  338.93    6.63   1
   4   3   3   99.40    2.79   1
   4   3   4  739.30   15.23   1
   4   3   5   82.81    4.91   1
   4   3   6  710.22   14.92   1
   4   3   7  186.87    5.47   1
   4   3   8   13.40    1.32   1
   4   3   9   37.82    2.46   1
   4   3  10  484.00   11.44   1
   4   3  11    3.31    2.22   1
   4   3  12  430.98   10.38   1
   4   3  13   29.38    2.71   1
   4   3  14  157.25    5.77   1
   4   3  15   94.48    4.28   1
   4   3  16    8.70    2.30   1
   4   3  17   50.98    3.57   1
   4   3  18  108.58    5.63   1
   4   3  19    1.99    1.89   1
   4   3  20   70.22    4.86   1
   4   3  21   13.99    3.22   1
   4   3  22   12.82    3.72   1
   4   4 -20   68.56    3.64   1
   4   4 -19   15.29    2.27   1
   4   4 -18    1.00    1.30   1
   4   4 -17   20.88    2.10   1
   4   4 -16   47.75    2.35   1
   4   4 -15    0.30    1.00   1
   4   4 -14  202.49    5.69   1
   4   4 -13    9.67    1.37   1
   4   4 -12  344.84    8.17   1
   4   4 -11   48.58    2.23   1
   4   4 -10   34.34    1.52   1
   4   4  -9   10.37    1.22   1
   4   4  -8  823.69   17.22   1
   4   4  -7    4.28    0.79   1
   4   4  -6  921.12   18.82   1
   4   4  -5    7.51    0.71   1
   4   4  -4  301.02    6.25   1
   4   4  -3   43.30    1.18   1
   4   4  -2  161.54    3.30   1
   4   4  -1    8.88    0.72   1
   4   4   0  882.09   15.44   1
   4   4   1    3.50    0.49   1
   4   4   2  794.11   14.09   1
   4   4   3   10.50    1.10   1
   4   4   4   46.38    1.91   1
   4   4   5   26.32    1.44   1
   4   4   6  499.08   11.17   1
   4   4   7    7.18    1.98   1
   4   4   8 1104.23   23.26   1
   4   4   9    7.40    1.80   1
   4   4  10  785.12   17.93   1
   4   4  11    0.59    1.39   1
   4   4  12    0.79    1.00   1
   4   4  13   20.88    1.83   1
   4   4  14  443.10   12.63   1
   4   4  15    1.10    1.30   1
   4   4  16  194.60    6.97   1
   4   4  17   -2.10    1.39   1
   4   4  18   36.84    3.40   1
   4   4  19    0.20    2.72   1
   4   4  20   10.11    3.12   1
   4   4  21    2.59    3.09   1
   4   4  22   82.63    5.45   1
   4   5 -20    6.00    1.91   1
   4   5 -19   41.99    3.11   1
   4   5 -18   19.98    1.88   1
   4   5 -17    2.79    1.30   1
   4   5 -16   31.36    2.24   1
   4   5 -15  188.24    5.49   1
   4   5 -14    3.39    1.10   1
   4   5 -13  106.30    3.51   1
   4   5 -12   74.30    2.76   1
   4   5 -11   -0.30    0.80   1
   4   5 -10  145.20    4.10   1
   4   5  -9   23.52    1.36   1
   4   5  -8  143.52    3.59   1
   4   5  -7  317.91    6.42   1
   4   5  -6   20.52    0.91   1
   4   5  -5  380.25    7.41   1
   4   5  -4  335.62    6.60   1
   4   5  -3   12.18    0.70   1
   4   5  -2  406.43    8.06   1
   4   5  -1  195.44    3.91   1
   4   5   0   92.35    2.11   1
   4   5   1  498.18    8.48   1
   4   5   2  130.64    2.74   1
   4   5   3  142.32    4.06   1
   4   5   4  463.54   10.33   1
   4   5   5   25.50    1.62   1
   4   5   6  358.34    9.09   1
   4   5   7  353.06    8.27   1
   4   5   8    7.02    1.48   1
   4   5   9  234.40    6.43   1
   4   5  10  218.74    6.21   1
   4   5  11   11.09    1.40   1
   4   5  12  224.10    7.49   1
   4   5  13   -1.10    1.09   1
   4   5  14  112.78    4.89   1
   4   5  15   96.24    4.32   1
   4   5  16    0.50    2.22   1
   4   5  17  126.56    6.30   1
   4   5  18   69.89    4.35   1
   4   5  19   -1.49    2.59   1
   4   5  20   34.22    3.86   1
   4   5  21   26.32    4.10   1
   4   6 -19   53.58    3.95   1
   4   6 -18    4.28    1.78   1
   4   6 -17  128.60    4.99   1
   4   6 -16    0.59    1.09   1
   4   6 -15   48.44    2.64   1
   4   6 -14   10.63    1.43   1
   4   6 -13    6.92    1.32   1
   4   6 -12   29.27    1.73   1
   4   6 -11  338.93    8.10   1
   4   6 -10   14.82    1.23   1
   4   6  -9  356.08    8.68   1
   4   6  -8    6.20    0.90   1
   4   6  -7   32.38    1.37   1
   4   6  -6   -0.59    0.60   1
   4   6  -5  104.65    3.07   1
   4   6  -4   31.47    1.35   1
   4   6  -3  739.84   13.60   1
   4   6  -2    4.71    0.52   1
   4   6  -1  522.58   10.06   1
   4   6   0    1.00    0.40   1
   4   6   1   -0.20    0.40   1
   4   6   2    1.80    0.51   1
   4   6   3  491.51    9.75   1
   4   6   4    6.10    1.19   1
   4   6   5  774.51   18.37   1
   4   6   6   42.64    2.22   1
   4   6   7  102.21    3.64   1
   4   6   8    6.10    1.28   1
   4   6   9   20.98    1.92   1
   4   6  10   -0.90    1.01   1
   4   6  11  345.96   10.04   1
   4   6  12   11.42    2.03   1
   4   6  13  341.51   10.72   1
   4   6  14    8.88    2.21   1
   4   6  15    7.67    1.88   1
   4   6  16    1.49    1.59   1
   4   6  17   39.19    3.63   1
   4   6  18    2.99    2.80   1
   4   6  19  135.26    6.75   1
   4   6  20   -1.80    3.11   1
   4   7 -17    4.80    3.29   1
   4   7 -16   63.52    3.35   1
   4   7 -15   51.27    2.43   1
   4   7 -14   16.48    1.62   1
   4   7 -13  117.51    3.90   1
   4   7 -12   32.15    1.93   1
   4   7 -11   53.14    2.19   1
   4   7 -10  159.01    4.29   1
   4   7  -9   23.91    1.47   1
   4   7  -8   98.80    3.18   1
   4   7  -7  380.25    8.58   1
   4   7  -6    4.41    0.80   1
   4   7  -5  290.02    6.81   1
   4   7  -4  180.36    4.57   1
   4   7  -3   12.82    1.00   1
   4   7  -2  181.17    4.58   1
   4   7  -1  119.90    3.29   1
   4   7   0   32.26    1.36   1
   4   7   1  446.48    9.30   1
   4   7   2   17.47    1.17   1
   4   7   3  162.82    4.85   1
   4   7   4  162.31    4.84   1
   4   7   5    4.88    1.11   1
   4   7   6  169.52    5.47   1
   4   7   7  278.22    8.67   1
   4   7   8    5.52    1.41   1
   4   7   9  444.37   12.65   1
   4   7  10   64.48    3.05   1
   4   7  11   47.47    2.76   1
   4   7  12  114.06    4.91   1
   4   7  13   44.62    3.34   1
   4   7  14   25.91    2.55   1
   4   7  15  149.08    6.84   1
   4   7  16    6.81    2.82   1
   4   7  17   83.72    4.94   1
   4   7  18   37.58    3.68   1
   4   7  19    0.00    1.00   1
  -4  -8 -17   -0.71    3.51  -2
   4   8 -15   -0.71    3.51   1
  -4  -8 -16  126.11   10.33  -2
   4   8 -14  126.11   10.33   1
  -4  -8 -15    2.10    3.92  -2
   4   8 -13    2.10    3.92   1
  -4  -8 -14  126.79    9.01  -2
   4   8 -12  126.79    9.01   1
  -4  -8 -13    9.42    3.62  -2
   4   8 -11    9.42    3.62   1
  -4  -8 -12   13.32    2.77  -2
   4   8 -10   13.32    2.77   1
  -4  -8 -11   21.44    3.80  -2
   4   8  -9   21.44    3.80   1
  -4  -8 -10   72.93    2.56  -2
   4   8  -8   72.93    2.56   1
  -4  -8  -9    1.80    0.80  -2
   4   8  -7    1.80    0.80   1
  -4  -8  -8  257.60    6.74  -2
   4   8  -6  257.60    6.74   1
  -4  -8  -7    2.79    0.70  -2
   4   8  -5    2.79    0.70   1
  -4  -8  -6  136.89    3.74  -2
   4   8  -4  136.89    3.74   1
  -4  -8  -5   27.04    1.35  -2
   4   8  -3   27.04    1.35   1
  -4  -8  -4   22.66    1.24  -2
   4   8  -2   22.66    1.24   1
  -4  -8  -3   34.22    1.40  -2
   4   8  -1   34.22    1.40   1
  -4  -8  -2  376.36    8.54  -2
   4   8   0  376.36    8.54   1
  -4  -8  -1    2.40    0.71  -2
   4   8   1    2.40    0.71   1
  -4  -8   0  428.49   12.42  -2
   4   8   2  428.49   12.42   1
  -4  -8   1   23.52    1.84  -2
   4   8   3   23.52    1.84   1
  -4  -8   2   58.83    2.91  -2
   4   8   4   58.83    2.91   1
  -4  -8   3   43.82    2.25  -2
   4   8   5   43.82    2.25   1
  -4  -8   4   79.39    3.56  -2
   4   8   6   79.39    3.56   1
  -4  -8   5    9.67    1.37  -2
   4   8   7    9.67    1.37   1
  -4  -8   6  247.75    8.50  -2
   4   8   8  247.75    8.50   1
  -4  -8   7   -0.40    1.10  -2
   4   8   9   -0.40    1.10   1
  -4  -8   8  115.99    4.52  -2
   4   8  10  115.99    4.52   1
  -4  -8   9   29.92    2.52  -2
   4   8  11   29.92    2.52   1
  -4  -8  10    0.59    2.19  -2
   4   8  12    0.59    2.19   1
  -4  -8  11   32.15    3.06  -2
   4   8  13   32.15    3.06   1
  -4  -8  12  100.80    5.02  -2
   4   8  14  100.80    5.02   1
  -4  -8  13    1.99    2.68  -2
   4   8  15    1.99    2.68   1
  -4  -8  14  135.02    7.20  -2
   4   8  16  135.02    7.20   1
  -4  -8  15    1.21    2.00  -2
   4   8  17    1.21    2.00   1
  -4  -9 -15   49.00    6.44  -2
   4   9 -13   49.00    6.44   1
  -4  -9 -14   29.27    5.73  -2
   4   9 -12   29.27    5.73   1
  -4  -9 -13   16.81    3.69  -2
   4   9 -11   16.81    3.69   1
  -4  -9 -12   81.72    7.23  -2
   4   9 -10   81.72    7.23   1
  -4  -9 -11   19.80    4.54  -2
   4   9  -9   19.80    4.54   1
  -4  -9 -10   97.22    7.89  -2
   4   9  -8   97.22    7.89   1
  -4  -9  -9   60.06    6.36  -2
   4   9  -7   60.06    6.36   1
  -4  -9  -8    6.00    3.28  -2
   4   9  -6    6.00    3.28   1
  -4  -9  -7   44.36    4.26  -2
   4   9  -5   44.36    4.26   1
  -4  -9  -6  140.42    7.58  -2
   4   9  -4  140.42    7.58   1
  -4  -9  -5    8.41    3.07  -2
   4   9  -3    8.41    3.07   1
  -4  -9  -4  234.09   10.71  -2
   4   9  -2  234.09   10.71   1
  -4  -9  -3   27.35    1.46  -2
   4   9  -1   27.35    1.46   1
  -4  -9  -2   60.53    2.33  -2
   4   9   0   60.53    2.33   1
  -4  -9  -1   99.20    3.78  -2
   4   9   1   99.20    3.78   1
  -4  -9   0   14.59    1.53  -2
   4   9   2   14.59    1.53   1
  -4  -9   1   46.65    2.46  -2
   4   9   3   46.65    2.46   1
  -4  -9   2  199.37    6.78  -2
   4   9   4  199.37    6.78   1
  -4  -9   3    2.59    1.00  -2
   4   9   5    2.59    1.00   1
  -4  -9   4  202.78    6.84  -2
   4   9   6  202.78    6.84   1
  -4  -9   5   24.40    1.78  -2
   4   9   7   24.40    1.78   1
  -4  -9   6    5.81    1.78  -2
   4   9   8    5.81    1.78   1
  -4  -9   7   51.27    2.86  -2
   4   9   9   51.27    2.86   1
  -4  -9   8   64.64    3.86  -2
   4   9  10   64.64    3.86   1
  -4  -9   9   21.81    2.71  -2
   4   9  11   21.81    2.71   1
  -4  -9  10   96.04    5.10  -2
   4   9  12   96.04    5.10   1
  -4  -9  11    7.40    2.12  -2
   4   9  13    7.40    2.12   1
  -4  -9  12   47.89    4.57  -2
   4   9  14   47.89    4.57   1
  -4  -9  13   24.80    3.09  -2
   4   9  15   24.80    3.09   1
   4  10  -9  120.78   10.99   1
   4  10  -8    4.88    3.71   1
   4  10  -7   37.70    4.67   1
   4  10  -6   13.76    3.19   1
   4  10  -5   34.46    4.93   1
   4  10  -4    8.53    3.62   1
   4  10  -3  225.60   12.92   1
   4  10   4    4.71    1.30   1
   4  10   5  228.92    8.78   1
   4  10   6    2.69    1.61   1
   4  10   7   85.75    4.44   1
   4  10   8   11.90    1.73   1
   4  10   9   -0.30    1.90   1
   4  10  10   21.16    2.39   1
   4  10  11   94.67    5.64   1
   4  10  12   -0.59    1.59   1
   5  -3 -15    0.59    1.99   1
   5  -3 -14   83.72    4.94   1
   5  -3 -13    2.50    2.69   1
   5  -3 -12   18.23    2.90   1
   5  -3 -11   65.29    3.88   1
   5  -3 -10   11.90    2.00   1
   5  -3  -9   19.10    2.53   1
   5  -3  -8  122.54    5.09   1
   5  -3  -7    9.49    1.91   1
   5  -3  -6  187.69    6.85   1
   5  -3  -5   54.46    3.25   1
   5  -3  -4   19.71    2.31   1
   5  -3  -3   83.54    3.84   1
   5  -3  -2   78.85    3.55   1
   5  -3  -1   13.69    2.00   1
  -5   2 -18    5.90    2.48  -2
   5  -2 -17    5.90    2.48   1
  -5   2 -17   39.19    4.26  -2
   5  -2 -16   39.19    4.26   1
  -5   2 -16    3.61    1.90  -2
   5  -2 -15    3.61    1.90   1
  -5   2 -15    8.88    2.03  -2
   5  -2 -14    8.88    2.03   1
  -5   2 -14    3.88    2.40  -2
   5  -2 -13    3.88    2.40   1
  -5   2 -13  115.13    5.79  -2
   5  -2 -12  115.13    5.79   1
  -5   2 -12    3.69    1.88  -2
   5  -2 -11    3.69    1.88   1
  -5   2 -11  157.00    6.77  -2
   5  -2 -10  157.00    6.77   1
  -5   2 -10   34.34    2.58  -2
   5  -2  -9   34.34    2.58   1
  -5   2  -9   45.02    2.95  -2
   5  -2  -8   45.02    2.95   1
  -5   2  -8   12.60    1.49  -2
   5  -2  -7   12.60    1.49   1
  -5   2  -7   42.77    2.88  -2
   5  -2  -6   42.77    2.88   1
  -5   2  -6   13.99    1.57  -2
   5  -2  -5   13.99    1.57   1
  -5   2  -5  285.61    8.45  -2
   5  -2  -4  285.61    8.45   1
  -5   2  -4   22.75    2.48  -2
   5  -2  -3   22.75    2.48   1
  -5   2  -3  196.28    6.16  -2
   5  -2  -2  196.28    6.16   1
  -5   2  -2    6.50    1.22  -2
   5  -2  -1    6.50    1.22   1
  -5   2  -1    2.31    1.09  -2
   5  -2   0    2.31    1.09   1
  -5   2   0    6.20    1.29  -2
   5  -2   1    6.20    1.29   1
  -5   2   1  139.71    4.96  -2
   5  -2   2  139.71    4.96   1
  -5   2   2   15.21    1.72  -2
   5  -2   3   15.21    1.72   1
  -5   2   3  306.60    8.40  -2
   5  -2   4  306.60    8.40   1
  -5   2   4   26.63    1.96  -2
   5  -2   5   26.63    1.96   1
  -5   2   5  121.66    4.19  -2
   5  -2   6  121.66    4.19   1
  -5   2   6    4.20    1.52  -2
   5  -2   7    4.20    1.52   1
  -5   1 -19   -0.59    1.89  -2
   5  -1 -18   -0.59    1.89   1
  -5   1 -18   59.44    4.93  -2
   5  -1 -17   59.44    4.93   1
  -5   1 -17   13.47    2.20  -2
   5  -1 -16   13.47    2.20   1
  -5   1 -16    8.12    1.88  -2
   5  -1 -15    8.12    1.88   1
  -5   1 -15   51.41    4.16  -2
   5  -1 -14   51.41    4.16   1
  -5   1 -14   46.38    3.13  -2
   5  -1 -13   46.38    3.13   1
  -5   1 -13   48.44    3.34  -2
   5  -1 -12   48.44    3.34   1
  -5   1 -12  210.25    7.54  -2
   5  -1 -11  210.25    7.54   1
  -5   1 -11   21.34    2.31  -2
   5  -1 -10   21.34    2.31   1
  -5   1 -10  139.95    5.21  -2
   5  -1  -9  139.95    5.21   1
  -5   1  -9  113.21    4.68  -2
   5  -1  -8  113.21    4.68   1
  -5   1  -8    9.80    1.88  -2
   5  -1  -7    9.80    1.88   1
  -5   1  -7   53.73    2.64  -2
   5  -1  -6   53.73    2.64   1
  -5   1  -6  162.82    5.36  -2
   5  -1  -5  162.82    5.36   1
  -5   1  -5   27.56    2.10  -2
   5  -1  -4   27.56    2.10   1
  -5   1  -4  370.18   11.16  -2
   5  -1  -3  370.18   11.16   1
  -5   1  -3   32.15    2.15  -2
   5  -1  -2   32.15    2.15   1
  -5   1  -2  117.94    4.13  -2
   5  -1  -1  117.94    4.13   1
  -5   1  -1  166.15    5.41  -2
   5  -1   0  166.15    5.41   1
  -5   1   0   32.95    2.07  -2
   5  -1   1   32.95    2.07   1
  -5   1   1   80.46    3.23  -2
   5  -1   2   80.46    3.23   1
  -5   1   2  275.23    7.96  -2
   5  -1   3  275.23    7.96   1
  -5   1   3   32.60    1.94  -2
   5  -1   4   32.60    1.94   1
  -5   1   4  269.29    7.55  -2
   5  -1   5  269.29    7.55   1
  -5   1   5   74.65    3.11  -2
   5  -1   6   74.65    3.11   1
  -5   1   6   24.21    1.87  -2
   5  -1   7   24.21    1.87   1
  -5   1   7  120.78    4.40  -2
   5  -1   8  120.78    4.40   1
  -5   1   8   73.10    3.42  -2
   5  -1   9   73.10    3.42   1
  -5   1   9   79.39    3.56  -2
   5  -1  10   79.39    3.56   1
  -5   1  10  173.71    6.33  -2
   5  -1  11  173.71    6.33   1
  -5   0 -20   15.68    2.77  -2
   5   0 -19   15.68    2.77   1
  -5   0 -19   -0.10    1.92  -2
   5   0 -18   -0.10    1.92   1
  -5   0 -18   11.70    2.80  -2
   5   0 -17   11.70    2.80   1
  -5   0 -17    3.69    1.88  -2
   5   0 -16    3.69    1.88   1
  -5   0 -16  198.25    7.32  -2
   5   0 -15  198.25    7.32   1
  -5   0 -15   11.09    2.40  -2
   5   0 -14   11.09    2.40   1
  -5   0 -14  166.93    6.46  -2
   5   0 -13  166.93    6.46   1
  -5   0 -13    2.59    1.29  -2
   5   0 -12    2.59    1.29   1
  -5   0 -12   -1.21    1.50  -2
   5   0 -11   -1.21    1.50   1
  -5   0 -11    2.79    1.30  -2
   5   0 -10    2.79    1.30   1
  -5   0 -10  189.61    6.33  -2
   5   0  -9  189.61    6.33   1
  -5   0  -9   28.84    2.90  -2
   5   0  -8   28.84    2.90   1
  -5   0  -8  691.69   17.88  -2
   5   0  -7  691.69   17.88   1
  -5   0  -7   43.43    3.16  -2
   5   0  -6   43.43    3.16   1
  -5   0  -6  394.42   10.72  -2
   5   0  -5  394.42   10.72   1
  -5   0  -5    6.81    1.20  -2
   5   0  -4    6.81    1.20   1
  -5   0  -4    3.61    0.91  -2
   5   0  -3    3.61    0.91   1
  -5   0  -3    4.71    1.00  -2
   5   0  -2    4.71    1.00   1
  -5   0  -2  382.20   10.17  -2
   5   0  -1  382.20   10.17   1
  -5   0  -1   33.18    3.23  -2
   5   0   0   33.18    3.23   1
  -5   0   0  596.82   16.61  -2
   5   0   1  596.82   16.61   1
  -5   0   1   26.83    2.28  -2
   5   0   2   26.83    2.28   1
  -5   0   2  133.86    4.40  -2
   5   0   3  133.86    4.40   1
  -5   0   3    1.00    1.10  -2
   5   0   4    1.00    1.10   1
  -5   0   4  104.65    3.89  -2
   5   0   5  104.65    3.89   1
  -5   0   5   16.97    2.06  -2
   5   0   6   16.97    2.06   1
  -5   0   6  733.33   16.25  -2
   5   0   7  733.33   16.25   1
  -5   0   7   46.10    3.67  -2
   5   0   8   46.10    3.67   1
  -5   0   8  521.67   12.33  -2
   5   0   9  521.67   12.33   1
  -5   0   9   12.82    1.72  -2
   5   0  10   12.82    1.72   1
  -5   0  10   33.41    2.77  -2
   5   0  11   33.41    2.77   1
  -5   0  11    1.99    1.80  -2
   5   0  12    1.99    1.80   1
  -5   0  12   61.15    3.44  -2
   5   0  13   61.15    3.44   1
  -5   0  13   11.97    1.87  -2
   5   0  14   11.97    1.87   1
  -5   0  14  249.01    8.52  -2
   5   0  15  249.01    8.52   1
   5   1 -19   30.58    3.10   1
   5   1 -18    1.00    2.40   1
   5   1 -17   59.44    3.86   1
   5   1 -16   44.62    3.74   1
   5   1 -15   15.68    1.90   1
   5   1 -14   77.26    4.22   1
   5   1 -13   31.02    2.34   1
   5   1 -12   68.72    3.81   1
   5   1 -11  286.29    9.48   1
   5   1 -10   32.60    2.86   1
   5   1  -9  177.69    5.87   1
   5   1  -8  164.87    5.14   1
   5   1  -7    2.89    1.09   1
   5   1  -6  167.96    5.18   1
   5   1  -5  228.92    6.66   1
   5   1  -4   31.14    1.67   1
   5   1  -3  403.61   12.05   1
   5   1  -2  120.56    4.83   1
   5   1  -1   87.05    3.36   1
   5   1   0  262.44    7.13   1
   5   1   1   11.70    1.37   1
   5   1   2  207.65    5.19   1
   5   1   3  261.15    6.14   1
   5   1   4   25.10    1.60   1
   5   1   5  519.38   10.03   1
   5   1   6   94.09    2.52   1
   5   1   7  101.81    3.83   1
   5   1   8  152.28    4.69   1
   5   1   9   47.20    2.75   1
   5   1  10   92.74    3.66   1
   5   1  11  366.72   10.34   1
   5   1  12    4.28    1.78   1
   5   1  13  255.36    7.67   1
   5   1  14   49.42    2.95   1
   5   1  15   -0.90    1.99   1
   5   1  16   32.15    2.72   1
   5   1  17   63.84    4.31   1
   5   1  18   21.34    3.23   1
   5   2 -19   -0.50    1.80   1
   5   2 -18  139.95    6.39   1
   5   2 -17    0.79    1.50   1
   5   2 -16  105.88    4.73   1
   5   2 -15    2.69    1.80   1
   5   2 -14    6.92    1.53   1
   5   2 -13    1.80    1.61   1
   5   2 -12  219.93    7.71   1
   5   2 -11   10.18    2.49   1
   5   2 -10  332.33    9.11   1
   5   2  -9   19.10    1.57   1
   5   2  -8  128.82    4.54   1
   5   2  -7   52.56    2.32   1
   5   2  -6   86.68    3.72   1
   5   2  -5   10.11    1.59   1
   5   2  -4  452.84   11.92   1
   5   2  -3    3.69    0.88   1
   5   2  -2  777.85   19.52   1
   5   2  -1    2.99    0.80   1
   5   2   0  163.58    4.86   1
   5   2   1    4.80    1.40   1
   5   2   2  439.74   11.74   1
   5   2   3    3.61    0.61   1
   5   2   4  799.19   14.70   1
   5   2   5    1.21    0.40   1
   5   2   6  355.70    8.30   1
   5   2   7   43.03    2.10   1
   5   2   8    8.29    1.21   1
   5   2   9  102.82    3.65   1
   5   2  10  242.74    6.54   1
   5   2  11   15.37    1.88   1
   5   2  12  321.48    9.32   1
   5   2  13    4.58    1.50   1
   5   2  14  150.31    5.39   1
   5   2  15   13.47    2.50   1
   5   2  16    5.20    1.78   1
   5   2  17    5.90    1.90   1
   5   2  18  134.79    6.50   1
   5   2  19   -0.79    1.80   1
   5   2  20  109.62    6.07   1
   5   2  21    5.71    2.92   1
   5   3 -19    6.71    2.12   1
   5   3 -18    1.00    2.30   1
   5   3 -17   57.30    3.63   1
   5   3 -16  119.90    5.26   1
   5   3 -15   31.70    2.93   1
   5   3 -14  212.58    7.58   1
   5   3 -13    7.51    1.48   1
   5   3 -12  109.20    4.60   1
   5   3 -11   75.86    3.48   1
   5   3 -10   24.40    1.88   1
   5   3  -9  107.74    3.94   1
   5   3  -8  228.01    6.64   1
   5   3  -7   17.81    1.27   1
   5   3  -6  444.79   12.65   1
   5   3  -5  103.23    3.66   1
   5   3  -4  204.49    6.01   1
   5   3  -3  187.42    5.75   1
   5   3  -2  198.25    5.63   1
   5   3  -1   29.27    1.84   1
   5   3   0  731.70   17.85   1
   5   3   1    3.88    0.99   1
   5   3   2  731.16   15.68   1
   5   3   3   40.70    1.02   1
   5   3   4   83.17    2.92   1
   5   3   5  171.61    4.98   1
   5   3   6  399.60    9.60   1
   5   3   7   56.85    2.41   1
   5   3   8  545.69   13.08   1
   5   3   9   30.25    1.98   1
   5   3  10  239.63    6.50   1
   5   3  11   73.79    3.26   1
   5   3  12    1.59    1.08   1
   5   3  13   33.41    2.77   1
   5   3  14  204.49    6.86   1
   5   3  15    0.50    1.51   1
   5   3  16  268.96    8.86   1
   5   3  17   16.97    3.13   1
   5   3  18   67.57    3.95   1
   5   3  19   19.36    2.90   1
   5   3  20   14.82    2.93   1
   5   3  21    2.10    2.41   1
   5   4 -19   15.76    1.91   1
   5   4 -18    8.41    1.80   1
   5   4 -17    5.11    1.72   1
   5   4 -16   32.83    2.29   1
   5   4 -15  110.67    4.00   1
   5   4 -14    1.69    1.51   1
   5   4 -13  291.38    7.85   1
   5   4 -12   48.72    2.37   1
   5   4 -11  101.20    3.62   1
   5   4 -10   54.91    2.67   1
   5   4  -9   78.68    3.02   1
   5   4  -8   49.42    2.25   1
   5   4  -7  412.90   12.19   1
   5   4  -6   33.06    1.84   1
   5   4  -5  148.11    3.89   1
   5   4  -4  171.87    4.46   1
   5   4  -3    3.80    0.82   1
   5   4  -2   90.63    2.67   1
   5   4  -1  286.96    6.78   1
   5   4   0   23.33    1.06   1
   5   4   1  674.96   14.55   1
   5   4   2   30.36    1.10   1
   5   4   3  218.74    5.92   1
   5   4   4  125.22    3.58   1
   5   4   5    1.30    0.80   1
   5   4   6  231.04    6.08   1
   5   4   7  172.66    5.26   1
   5   4   8   21.16    1.93   1
   5   4   9  397.60   10.37   1
   5   4  10  106.92    3.93   1
   5   4  11   52.13    2.74   1
   5   4  12   98.01    3.96   1
   5   4  13  126.11    5.39   1
   5   4  14   72.25    4.08   1
   5   4  15  256.96    8.34   1
   5   4  16    3.80    1.79   1
   5   4  17   81.36    5.05   1
   5   4  18   74.65    4.67   1
   5   4  19    1.21    2.51   1
   5   4  20   23.43    3.00   1
   5   4  21   10.82    3.09   1
   5   5 -18    5.29    1.98   1
   5   5 -17  143.28    5.51   1
   5   5 -16    7.29    1.67   1
   5   5 -15   32.95    1.95   1
   5   5 -14   38.81    2.24   1
   5   5 -13    8.82    1.60   1
   5   5 -12    1.59    1.29   1
   5   5 -11  201.07    5.67   1
   5   5 -10    2.40    0.99   1
   5   5  -9  260.18    6.77   1
   5   5  -8    4.88    1.02   1
   5   5  -7   20.61    1.18   1
   5   5  -6   69.56    2.34   1
   5   5  -5  119.03    3.49   1
   5   5  -4   37.45    1.71   1
   5   5  -3  496.84   10.70   1
   5   5  -2    3.20    0.89   1
   5   5  -1  278.89    6.35   1
   5   5   0   46.38    1.63   1
   5   5   1    0.59    0.49   1
   5   5   2   41.99    1.43   1
   5   5   3  279.56    7.36   1
   5   5   4    3.69    0.88   1
   5   5   5  519.38   12.31   1
   5   5   6   29.27    1.95   1
   5   5   7  133.63    4.39   1
   5   5   8   40.32    2.41   1
   5   5   9   17.98    1.78   1
   5   5  10    1.00    1.20   1
   5   5  11  293.44    9.25   1
   5   5  12    1.10    1.81   1
   5   5  13  249.64    8.53   1
   5   5  14    0.71    1.51   1
   5   5  15   14.21    2.56   1
   5   5  16   15.68    2.30   1
   5   5  17   43.03    3.41   1
   5   5  18    3.50    2.81   1
   5   5  19  159.52    8.59   1
   5   5  20   -1.30    3.10   1
  -5  -6 -19    1.49    2.10  -2
   5   6 -17    1.49    2.10   1
  -5  -6 -18   92.93    4.05  -2
   5   6 -16   92.93    4.05   1
  -5  -6 -17   59.14    2.92  -2
   5   6 -15   59.14    2.92   1
  -5  -6 -16    7.51    1.32  -2
   5   6 -14    7.51    1.32   1
  -5  -6 -15   85.93    3.15  -2
   5   6 -13   85.93    3.15   1
  -5  -6 -14  111.30    4.01  -2
   5   6 -12  111.30    4.01   1
  -5  -6 -13   15.60    1.58  -2
   5   6 -11   15.60    1.58   1
  -5  -6 -12  298.60    7.26  -2
   5   6 -10  298.60    7.26   1
  -5  -6 -11    4.20    0.82  -2
   5   6  -9    4.20    0.82   1
  -5  -6 -10  127.24    3.61  -2
   5   6  -8  127.24    3.61   1
  -5  -6  -9   68.89    2.32  -2
   5   6  -7   68.89    2.32   1
  -5  -6  -8    2.99    0.80  -2
   5   6  -6    2.99    0.80   1
  -5  -6  -7   78.85    2.66  -2
   5   6  -5   78.85    2.66   1
  -5  -6  -6  272.25    6.60  -2
   5   6  -4  272.25    6.60   1
  -5  -6  -5    8.18    0.97  -2
   5   6  -3    8.18    0.97   1
  -5  -6  -4  414.94    8.96  -2
   5   6  -2  414.94    8.96   1
  -5  -6  -3   93.32    2.51  -2
   5   6  -1   93.32    2.51   1
  -5  -6  -2   90.63    2.67  -2
   5   6   0   90.63    2.67   1
  -5  -6  -1  316.13    6.76  -2
   5   6   1  316.13    6.76   1
  -5  -6   0   58.37    1.83  -2
   5   6   2   58.37    1.83   1
  -5  -6   1  127.69    4.29  -2
   5   6   3  127.69    4.29   1
  -5  -6   2  381.81    9.38  -2
   5   6   4  381.81    9.38   1
  -5  -6   3    4.20    0.98  -2
   5   6   5    4.20    0.98   1
  -5  -6   4  286.62    7.79  -2
   5   6   6  286.62    7.79   1
  -5  -6   5   91.58    3.64  -2
   5   6   7   91.58    3.64   1
  -5  -6   6   10.11    1.78  -2
   5   6   8   10.11    1.78   1
  -5  -6   7  110.04    4.20  -2
   5   6   9  110.04    4.20   1
  -5  -6   8   95.06    4.09  -2
   5   6  10   95.06    4.09   1
  -5  -6   9    7.08    1.60  -2
   5   6  11    7.08    1.60   1
  -5  -6  10  256.32    8.33  -2
   5   6  12  256.32    8.33   1
  -5  -6  11   15.76    2.70  -2
   5   6  13   15.76    2.70   1
  -5  -6  12  114.70    4.93  -2
   5   6  14  114.70    4.93   1
  -5  -6  13  124.10    6.24  -2
   5   6  15  124.10    6.24   1
  -5  -6  14   -0.71    1.92  -2
   5   6  16   -0.71    1.92   1
  -5  -6  15  100.40    5.41  -2
   5   6  17  100.40    5.41   1
  -5  -6  16   72.08    5.26  -2
   5   6  18   72.08    5.26   1
  -5  -6  17   -0.40    3.19  -2
   5   6  19   -0.40    3.19   1
  -5  -7 -18   38.44    2.73  -2
   5   7 -16   38.44    2.73   1
  -5  -7 -17    0.40    1.69  -2
   5   7 -15    0.40    1.69   1
  -5  -7 -16  197.40    7.03  -2
   5   7 -14  197.40    7.03   1
  -5  -7 -15    0.30    1.41  -2
   5   7 -13    0.30    1.41   1
  -5  -7 -14  127.24    4.29  -2
   5   7 -12  127.24    4.29   1
  -5  -7 -13    0.90    0.80  -2
   5   7 -11    0.90    0.80   1
  -5  -7 -12   -0.40    1.20  -2
   5   7 -10   -0.40    1.20   1
  -5  -7 -11    4.08    0.89  -2
   5   7  -9    4.08    0.89   1
  -5  -7 -10  213.16    5.84  -2
   5   7  -8  213.16    5.84   1
  -5  -7  -9    4.41    1.09  -2
   5   7  -7    4.41    1.09   1
  -5  -7  -8  471.32   10.42  -2
   5   7  -6  471.32   10.42   1
  -5  -7  -7    5.38    1.02  -2
   5   7  -5    5.38    1.02   1
  -5  -7  -6  146.65    4.12  -2
   5   7  -4  146.65    4.12   1
  -5  -7  -5   -0.30    0.70  -2
   5   7  -3   -0.30    0.70   1
  -5  -7  -4   32.49    1.48  -2
   5   7  -2   32.49    1.48   1
  -5  -7  -3    2.19    0.71  -2
   5   7  -1    2.19    0.71   1
  -5  -7  -2  321.84    7.53  -2
   5   7   0  321.84    7.53   1
  -5  -7  -1    3.39    0.88  -2
   5   7   1    3.39    0.88   1
  -5  -7   0  365.96    8.03  -2
   5   7   2  365.96    8.03   1
  -5  -7   1    2.99    1.31  -2
   5   7   3    2.99    1.31   1
  -5  -7   2   86.86    3.54  -2
   5   7   4   86.86    3.54   1
  -5  -7   3    2.31    1.31  -2
   5   7   5    2.31    1.31   1
  -5  -7   4   80.64    3.41  -2
   5   7   6   80.64    3.41   1
  -5  -7   5    1.39    1.09  -2
   5   7   7    1.39    1.09   1
  -5  -7   6  473.50   13.06  -2
   5   7   8  473.50   13.06   1
  -5  -7   7    6.40    2.02  -2
   5   7   9    6.40    2.02   1
  -5  -7   8  316.13    9.96  -2
   5   7  10  316.13    9.96   1
  -5  -7   9    4.08    1.90  -2
   5   7  11    4.08    1.90   1
  -5  -7  10    4.88    2.08  -2
   5   7  12    4.88    2.08   1
  -5  -7  11    2.69    1.61  -2
   5   7  13    2.69    1.61   1
  -5  -7  12  114.70    5.36  -2
   5   7  14  114.70    5.36   1
  -5  -7  13    1.49    1.90  -2
   5   7  15    1.49    1.90   1
  -5  -7  14  214.33    9.37  -2
   5   7  16  214.33    9.37   1
  -5  -7  15   -1.21    2.20  -2
   5   7  17   -1.21    2.20   1
  -5  -7  16   57.46    4.55  -2
   5   7  18   57.46    4.55   1
   5   8 -14    2.89    3.50   1
   5   8 -13   61.94    7.40   1
   5   8 -12   30.14    2.09   1
   5   8 -11   16.97    1.81   1
   5   8 -10  121.00    3.96   1
   5   8  -9   30.69    1.88   1
   5   8  -8   55.95    2.39   1
   5   8  -7  162.31    4.33   1
   5   8  -6    3.80    1.09   1
   5   8  -5  144.72    4.09   1
   5   8  -4   71.06    2.53   1
   5   8  -3   21.07    1.38   1
   5   8  -2  158.51    4.28   1
   5   8  -1   42.25    1.95   1
   5   8   0   78.15    2.65   1
   5   8   1  144.72    4.09   1
   5   8   2   22.94    1.82   1
   5   8   3   75.34    3.47   1
   5   8   4  155.75    5.99   1
   5   8   5    2.79    1.40   1
   5   8   6  132.48    5.06   1
   5   8   7   94.67    4.09   1
   5   8   8   27.88    2.53   1
   5   8   9  139.24    5.43   1
   5   8  10   27.14    2.40   1
   5   8  11   54.61    3.25   1
   5   8  12  171.09    6.80   1
   5   8  13   -0.50    2.51   1
   5   8  14   77.79    4.59   1
   5   8  15   31.02    3.90   1
   5   8  16    0.10    2.12   1
   5   9 -12    2.50    3.41   1
   5   9 -11  134.10   10.42   1
   5   9 -10    1.10    2.71   1
   5   9  -9  199.66   13.00   1
   5   9  -8    6.92    3.79   1
   5   9  -7   49.84    6.07   1
   5   9  -6   10.30    3.53   1
   5   9  -5   72.76    4.95   1
   5   9  -4    4.80    1.10   1
   5   9  -3  323.28    8.27   1
   5   9  -2    4.08    1.01   1
   5   9  -1  186.87    5.47   1
   5   9   0    2.79    0.90   1
   5   9   1    6.71    1.19   1
   5   9   2    4.28    1.41   1
   5   9   3   77.62    3.88   1
   5   9   4    5.11    1.58   1
   5   9   5  337.46   10.65   1
   5   9   6    5.71    2.01   1
   5   9   7  186.60    6.83   1
   5   9   8   11.63    1.91   1
   5   9   9    2.69    2.00   1
   5   9  10   12.53    2.62   1
   5   9  11  144.00    7.68   1
   5   9  12    1.30    2.69   1
   5   9  13  170.04    8.08   1
   5   9  14    3.10    2.11   1
   5  10  -8   18.32    4.79   1
   5  10  -7  132.25   10.35   1
   5  10  -6   -6.00    4.31   1
   5  10  -5  140.66   10.67   1
   5  10  -4    8.58    2.99   1
   5  10  -3   30.47    4.42   1
   5  10   2    3.88    1.38   1
   5  10   3  126.34    5.62   1
   5  10   4   31.25    2.24   1
   5  10   5    1.69    1.79   1
   5  10   6   17.98    2.37   1
   5  10   7   80.64    4.49   1
   5  10   8    4.00    1.72   1
   5  10   9  178.49    8.28   1
   5  10  10    2.19    2.60   1
   5  10  11   80.28    5.38   1
  -6   2 -15    4.20    2.91  -2
   6  -2 -14    4.20    2.91   1
  -6   2 -14   24.70    2.98  -2
   6  -2 -13   24.70    2.98   1
  -6   2 -13    0.59    1.89  -2
   6  -2 -12    0.59    1.89   1
  -6   2 -12   91.97    5.75  -2
   6  -2 -11   91.97    5.75   1
  -6   2 -11    1.49    1.68  -2
   6  -2 -10    1.49    1.68   1
  -6   2 -10   69.06    4.32  -2
   6  -2  -9   69.06    4.32   1
  -6   2  -9   11.70    2.53  -2
   6  -2  -8   11.70    2.53   1
  -6   2  -8    2.50    1.61  -2
   6  -2  -7    2.50    1.61   1
  -6   2  -7   39.56    3.27  -2
   6  -2  -6   39.56    3.27   1
  -6   2  -6  146.41    5.81  -2
   6  -2  -5  146.41    5.81   1
  -6   2  -5   21.72    2.61  -2
   6  -2  -4   21.72    2.61   1
  -6   2  -4  284.26    8.77  -2
   6  -2  -3  284.26    8.77   1
  -6   2  -3   20.52    2.45  -2
   6  -2  -2   20.52    2.45   1
  -6   2  -2   53.00    3.06  -2
   6  -2  -1   53.00    3.06   1
  -6   2  -1   16.32    2.18  -2
   6  -2   0   16.32    2.18   1
  -6   2   0   12.18    1.61  -2
   6  -2   1   12.18    1.61   1
   6  -1 -15  103.84    6.11   1
   6  -1 -14    2.69    1.80   1
   6  -1 -13  100.60    6.02   1
   6  -1 -12    6.40    2.02   1
   6  -1 -11    6.00    2.79   1
   6  -1 -10   19.18    2.28   1
   6  -1  -9   61.15    3.28   1
   6  -1  -8    6.40    1.92   1
   6  -1  -7  273.24    8.93   1
   6  -1  -6    9.80    2.19   1
   6  -1  -5  144.96    5.78   1
   6  -1  -4   23.62    2.14   1
   6  -1  -3    2.69    1.51   1
   6  -1  -2   31.14    2.34   1
   6  -1  -1  339.30    9.58   1
   6  -1   0   34.81    3.78   1
   6  -1   1  636.05   16.65   1
   6  -1   2   39.44    2.89   1
   6  -1   3  101.20    4.02   1
   6  -1   4   26.32    1.95   1
   6  -1   5   49.98    2.97   1
   6  -1   6    9.00    1.68   1
   6  -1   7  265.69    8.80   1
   6   0 -16   27.88    3.17   1
   6   0 -15    0.50    1.80   1
   6   0 -14   79.57    5.17   1
   6   0 -13    6.71    1.92   1
   6   0 -12   76.74    4.56   1
   6   0 -11   77.62    4.05   1
   6   0 -10    3.20    2.18   1
   6   0  -9   44.89    2.95   1
   6   0  -8  127.24    4.96   1
   6   0  -7    3.10    2.01   1
   6   0  -6  160.78    5.58   1
   6   0  -5   54.17    3.24   1
   6   0  -4   30.25    2.75   1
   6   0  -3  284.60    8.77   1
   6   0  -2   81.72    3.80   1
   6   0  -1  127.69    5.20   1
   6   0   0  286.29    8.46   1
   6   0   1   11.02    1.53   1
   6   0   2  207.94    6.63   1
   6   0   3  258.57    8.04   1
   6   0   4    9.42    1.47   1
   6   0   5  261.47    8.09   1
   6   0   6   91.97    3.45   1
   6   0   7   15.21    2.26   1
   6   0   8  158.76    5.29   1
   6   0   9   23.33    2.22   1
   6   0  10   50.84    3.14   1
   6   0  11  119.46    5.25   1
   6   0  12    1.69    2.00   1
   6   1 -17   -1.21    1.91   1
   6   1 -16   70.06    4.69   1
   6   1 -15    0.20    1.71   1
   6   1 -14    0.00    1.00   1
   6   1 -13    1.21    1.61   1
   6   1 -12   90.44    4.56   1
   6   1 -11    2.19    1.51   1
   6   1 -10  243.05    8.11   1
   6   1  -9    1.10    1.91   1
   6   1  -8  153.02    5.69   1
   6   1  -7    0.10    1.32   1
   6   1  -6   47.33    2.61   1
   6   1  -5   22.00    2.72   1
   6   1  -4  390.06   11.06   1
   6   1  -3    1.69    0.99   1
   6   1  -2  297.22    8.62   1
   6   1  -1    2.79    1.10   1
   6   1   0   28.52    2.03   1
   6   1   1   20.98    2.11   1
   6   1   2  118.59    4.36   1
   6   1   3    1.21    1.10   1
   6   1   4  374.04   10.06   1
   6   1   5    6.00    2.11   1
   6   1   6  288.32    8.15   1
   6   1   7    2.50    1.61   1
   6   1   8   -0.59    1.49   1
   6   1   9    5.11    1.40   1
   6   1  10  249.32    7.58   1
   6   1  11   -1.00    1.50   1
   6   1  12  235.01    7.97   1
   6   1  13   -0.20    1.61   1
   6   1  14   46.51    3.55   1
   6   1  15    2.79    2.61   1
   6   2 -17   53.44    4.24   1
   6   2 -16   29.59    2.83   1
   6   2 -15   12.18    2.72   1
   6   2 -14   71.74    4.24   1
   6   2 -13   15.29    2.03   1
   6   2 -12   84.64    4.60   1
   6   2 -11   94.87    4.48   1
   6   2 -10    0.10    1.11   1
   6   2  -9  126.79    5.18   1
   6   2  -8   87.61    3.93   1
   6   2  -7   23.72    2.43   1
   6   2  -6  207.65    6.92   1
   6   2  -5   29.27    1.95   1
   6   2  -4   76.91    3.16   1
   6   2  -3  190.99    6.36   1
   6   2  -2  113.21    4.04   1
   6   2  -1  288.32    8.15   1
   6   2   0  269.29    7.55   1
   6   2   1    7.02    1.48   1
   6   2   2  281.90    9.07   1
   6   2   3  332.70   10.21   1
   6   2   4   55.35    2.53   1
   6   2   5  139.71    4.49   1
   6   2   6  157.75    5.02   1
   6   2   7   12.11    1.88   1
   6   2   8  253.45    7.96   1
   6   2   9   40.83    2.56   1
   6   2  10   84.82    3.68   1
   6   2  11  111.09    4.85   1
   6   2  12    7.90    1.69   1
   6   2  13   58.37    3.51   1
   6   2  14  145.44    5.79   1
   6   2  15    6.81    2.61   1
   6   2  16  102.82    5.27   1
   6   2  17   12.32    3.30   1
   6   2  18   19.27    2.90   1
   6   3 -17    5.62    2.70   1
   6   3 -16    5.90    1.90   1
   6   3 -15   87.42    4.68   1
   6   3 -14    1.21    2.11   1
   6   3 -13  145.44    6.51   1
   6   3 -12    3.80    1.48   1
   6   3 -11   33.41    2.66   1
   6   3 -10    3.80    1.72   1
   6   3  -9   65.77    3.41   1
   6   3  -8    8.29    1.73   1
   6   3  -7  370.56   11.16   1
   6   3  -6    2.79    1.10   1
   6   3  -5  390.46   11.46   1
   6   3  -4    1.39    0.90   1
   6   3  -3   42.90    2.36   1
   6   3  -2   41.47    2.32   1
   6   3  -1  226.80    6.63   1
   6   3   0   61.94    2.99   1
   6   3   1  595.85   15.13   1
   6   3   2   75.86    3.14   1
   6   3   3  169.78    5.99   1
   6   3   4   48.02    2.49   1
   6   3   5   80.82    3.24   1
   6   3   6    3.39    1.21   1
   6   3   7  468.72   12.99   1
   6   3   8    2.50    1.71   1
   6   3   9  359.48   11.00   1
   6   3  10   19.18    2.19   1
   6   3  11   39.06    2.75   1
   6   3  12   20.43    2.08   1
   6   3  13   51.27    3.58   1
   6   3  14    4.71    2.60   1
   6   3  15  173.19    6.32   1
   6   3  16    2.19    2.78   1
   6   3  17   74.30    4.65   1
   6   3  18   17.47    2.93   1
   6   3  19   -2.79    3.31   1
  -6  -4 -19   51.27    3.58  -2
   6   4 -17   51.27    3.58   1
  -6  -4 -18    2.59    1.71  -2
   6   4 -16    2.59    1.71   1
  -6  -4 -17   37.09    2.56  -2
   6   4 -15   37.09    2.56   1
  -6  -4 -16   43.30    3.55  -2
   6   4 -14   43.30    3.55   1
  -6  -4 -15    6.40    1.52  -2
   6   4 -13    6.40    1.52   1
  -6  -4 -14   28.94    2.15  -2
   6   4 -12   28.94    2.15   1
  -6  -4 -13  145.93    5.80  -2
   6   4 -11  145.93    5.80   1
  -6  -4 -12    1.39    1.20  -2
   6   4 -10    1.39    1.20   1
  -6  -4 -11  207.94    6.92  -2
   6   4  -9  207.94    6.92   1
  -6  -4 -10   82.63    3.45  -2
   6   4  -8   82.63    3.45   1
  -6  -4  -9   32.49    2.05  -2
   6   4  -7   32.49    2.05   1
  -6  -4  -8  181.71    5.66  -2
   6   4  -6  181.71    5.66   1
  -6  -4  -7   96.43    3.73  -2
   6   4  -5   96.43    3.73   1
  -6  -4  -6   30.25    1.87  -2
   6   4  -4   30.25    1.87   1
  -6  -4  -5  368.26   10.36  -2
   6   4  -3  368.26   10.36   1
  -6  -4  -4    6.92    1.00  -2
   6   4  -2    6.92    1.00   1
  -6  -4  -3  150.80    4.18  -2
   6   4  -1  150.80    4.18   1
  -6  -4  -2  119.25    3.49  -2
   6   4   0  119.25    3.49   1
  -6  -4  -1    1.59    0.60  -2
   6   4   1    1.59    0.60   1
  -6  -4   0  105.88    4.12  -2
   6   4   2  105.88    4.12   1
  -6  -4   1  167.18    5.43  -2
   6   4   3  167.18    5.43   1
  -6  -4   2    2.89    1.09  -2
   6   4   4    2.89    1.09   1
  -6  -4   3  386.12   10.22  -2
   6   4   5  386.12   10.22   1
  -6  -4   4   26.63    1.86  -2
   6   4   6   26.63    1.86   1
  -6  -4   5  108.99    4.38  -2
   6   4   7  108.99    4.38   1
  -6  -4   6  147.14    5.34  -2
   6   4   8  147.14    5.34   1
  -6  -4   7   45.16    2.55  -2
   6   4   9   45.16    2.55   1
  -6  -4   8   67.08    3.44  -2
   6   4  10   67.08    3.44   1
  -6  -4   9  258.57    8.36  -2
   6   4  11  258.57    8.36   1
  -6  -4  10    3.31    1.49  -2
   6   4  12    3.31    1.49   1
  -6  -4  11  185.50    6.81  -2
   6   4  13  185.50    6.81   1
  -6  -4  12   18.32    2.82  -2
   6   4  14   18.32    2.82   1
  -6  -4  13    5.38    1.90  -2
   6   4  15    5.38    1.90   1
  -6  -4  14   27.77    3.69  -2
   6   4  16   27.77    3.69   1
  -6  -4  15   46.38    3.68  -2
   6   4  17   46.38    3.68   1
  -6  -4  16    4.28    3.48  -2
   6   4  18    4.28    3.48   1
  -6  -4  17   63.52    5.42  -2
   6   4  19   63.52    5.42   1
  -6  -5 -19    0.40    2.49  -2
   6   5 -17    0.40    2.49   1
  -6  -5 -18   71.23    3.88  -2
   6   5 -16   71.23    3.88   1
  -6  -5 -17    2.99    1.49  -2
   6   5 -15    2.99    1.49   1
  -6  -5 -16    1.21    1.61  -2
   6   5 -14    1.21    1.61   1
  -6  -5 -15   13.03    2.02  -2
   6   5 -13   13.03    2.02   1
  -6  -5 -14   72.93    3.07  -2
   6   5 -12   72.93    3.07   1
  -6  -5 -13    6.00    1.52  -2
   6   5 -11    6.00    1.52   1
  -6  -5 -12  303.46    8.71  -2
   6   5 -10  303.46    8.71   1
  -6  -5 -11    8.29    1.38  -2
   6   5  -9    8.29    1.38   1
  -6  -5 -10  180.10    5.37  -2
   6   5  -8  180.10    5.37   1
  -6  -5  -9   51.27    2.29  -2
   6   5  -7   51.27    2.29   1
  -6  -5  -8    0.71    0.81  -2
   6   5  -6    0.71    0.81   1
  -6  -5  -7   47.06    2.06  -2
   6   5  -5   47.06    2.06   1
  -6  -5  -6  371.72    8.87  -2
   6   5  -4  371.72    8.87   1
  -6  -5  -5    5.02    0.99  -2
   6   5  -3    5.02    0.99   1
  -6  -5  -4  650.25   13.77  -2
   6   5  -2  650.25   13.77   1
  -6  -5  -3    8.82    1.01  -2
   6   5  -1    8.82    1.01   1
  -6  -5  -2  137.59    3.75  -2
   6   5   0  137.59    3.75   1
  -6  -5  -1   16.08    0.96  -2
   6   5   1   16.08    0.96   1
  -6  -5   0   92.16    3.46  -2
   6   5   2   92.16    3.46   1
  -6  -5   1   10.89    1.39  -2
   6   5   3   10.89    1.39   1
  -6  -5   2  597.80   16.63  -2
   6   5   4  597.80   16.63   1
  -6  -5   3   13.47    2.13  -2
   6   5   5   13.47    2.13   1
  -6  -5   4  412.09   11.77  -2
   6   5   6  412.09   11.77   1
  -6  -5   5   58.37    3.21  -2
   6   5   7   58.37    3.21   1
  -6  -5   6    5.62    1.42  -2
   6   5   8    5.62    1.42   1
  -6  -5   7   90.63    3.81  -2
   6   5   9   90.63    3.81   1
  -6  -5   8  151.54    5.42  -2
   6   5  10  151.54    5.42   1
  -6  -5   9   12.60    1.99  -2
   6   5  11   12.60    1.99   1
  -6  -5  10  290.02    9.20  -2
   6   5  12  290.02    9.20   1
  -6  -5  11    3.61    2.32  -2
   6   5  13    3.61    2.32   1
  -6  -5  12   84.64    4.23  -2
   6   5  14   84.64    4.23   1
  -6  -5  13   42.90    3.28  -2
   6   5  15   42.90    3.28   1
  -6  -5  14   -1.00    2.90  -2
   6   5  16   -1.00    2.90   1
  -6  -5  15    5.20    2.60  -2
   6   5  17    5.20    2.60   1
  -6  -5  16   47.75    4.15  -2
   6   5  18   47.75    4.15   1
  -6  -5  17   -0.30    2.41  -2
   6   5  19   -0.30    2.41   1
  -6  -6 -18   23.33    2.32  -2
   6   6 -16   23.33    2.32   1
  -6  -6 -17    7.18    1.50  -2
   6   6 -15    7.18    1.50   1
  -6  -6 -16  117.72    4.99  -2
   6   6 -14  117.72    4.99   1
  -6  -6 -15    1.59    1.69  -2
   6   6 -13    1.59    1.69   1
  -6  -6 -14  120.78    4.40  -2
   6   6 -12  120.78    4.40   1
  -6  -6 -13   18.66    1.81  -2
   6   6 -11   18.66    1.81   1
  -6  -6 -12    0.00    1.00  -2
   6   6 -10    0.00    1.00   1
  -6  -6 -11   24.40    1.68  -2
   6   6  -9   24.40    1.68   1
  -6  -6 -10  216.68    5.89  -2
   6   6  -8  216.68    5.89   1
  -6  -6  -9    9.49    1.60  -2
   6   6  -7    9.49    1.60   1
  -6  -6  -8  429.73    9.54  -2
   6   6  -6  429.73    9.54   1
  -6  -6  -7   11.90    1.10  -2
   6   6  -5   11.90    1.10   1
  -6  -6  -6  197.12    5.34  -2
   6   6  -4  197.12    5.34   1
  -6  -6  -5   55.06    2.37  -2
   6   6  -3   55.06    2.37   1
  -6  -6  -4    4.08    0.89  -2
   6   6  -2    4.08    0.89   1
  -6  -6  -3   45.16    1.75  -2
   6   6  -1   45.16    1.75   1
  -6  -6  -2  466.56   12.96  -2
   6   6   0  466.56   12.96   1
  -6  -6  -1   11.83    2.00  -2
   6   6   1   11.83    2.00   1
  -6  -6   0  581.29   15.91  -2
   6   6   2  581.29   15.91   1
  -6  -6   1   44.62    2.54  -2
   6   6   3   44.62    2.54   1
  -6  -6   2   38.69    2.24  -2
   6   6   4   38.69    2.24   1
  -6  -6   3   43.56    2.38  -2
   6   6   5   43.56    2.38   1
  -6  -6   4  146.41    5.57  -2
   6   6   6  146.41    5.57   1
  -6  -6   5   13.10    1.67  -2
   6   6   7   13.10    1.67   1
  -6  -6   6  449.44   13.57  -2
   6   6   8  449.44   13.57   1
  -6  -6   7    5.52    2.11  -2
   6   6   9    5.52    2.11   1
  -6  -6   8  325.08   10.46  -2
   6   6  10  325.08   10.46   1
  -6  -6   9    9.12    2.60  -2
   6   6  11    9.12    2.60   1
  -6  -6  10    6.92    1.79  -2
   6   6  12    6.92    1.79   1
  -6  -6  11    8.82    2.20  -2
   6   6  13    8.82    2.20   1
  -6  -6  12  107.54    5.39  -2
   6   6  14  107.54    5.39   1
  -6  -6  13   -2.31    1.79  -2
   6   6  15   -2.31    1.79   1
  -6  -6  14  166.67    8.00  -2
   6   6  16  166.67    8.00   1
  -6  -6  15    1.69    2.29  -2
   6   6  17    1.69    2.29   1
  -6  -6  16   47.61    4.55  -2
   6   6  18   47.61    4.55   1
   6   7 -15   44.62    3.47   1
   6   7 -14   -1.69    1.40   1
   6   7 -13  100.20    4.40   1
   6   7 -12   32.60    2.17   1
   6   7 -11   32.38    2.16   1
   6   7 -10   57.76    2.74   1
   6   7  -9    1.99    1.38   1
   6   7  -8   27.98    1.69   1
   6   7  -7  130.19    4.11   1
   6   7  -6    5.38    1.30   1
   6   7  -5  204.78    5.44   1
   6   7  -4   94.48    3.30   1
   6   7  -3   10.18    1.28   1
   6   7  -2  126.34    3.60   1
   6   7  -1  148.11    5.11   1
   6   7   0   31.70    2.25   1
   6   7   1  282.24    8.06   1
   6   7   2   14.29    1.51   1
   6   7   3  186.87    6.29   1
   6   7   4  119.68    4.38   1
   6   7   5    4.41    1.81   1
   6   7   6  144.48    5.29   1
   6   7   7  139.00    5.66   1
   6   7   8   19.36    2.11   1
   6   7   9  164.10    6.15   1
   6   7  10   28.09    2.76   1
   6   7  11   17.14    2.82   1
   6   7  12   88.36    4.51   1
   6   7  13   10.11    2.23   1
   6   7  14   70.06    4.85   1
   6   7  15   69.56    4.67   1
   6   7  16   -0.71    3.21   1
   6   7  17   62.88    5.08   1
   6   8 -13   -0.50    1.70   1
   6   8 -12   16.73    1.96   1
   6   8 -11  104.86    4.30   1
   6   8 -10   11.90    1.52   1
   6   8  -9  195.72    6.99   1
   6   8  -8    1.80    1.10   1
   6   8  -7   35.16    2.25   1
   6   8  -6    6.81    1.20   1
   6   8  -5   37.21    2.07   1
   6   8  -4    4.49    1.02   1
   6   8  -3  281.23    9.06   1
   6   8  -2    3.20    1.11   1
   6   8  -1  306.25   10.50   1
   6   8   0    4.88    1.28   1
   6   8   1   13.03    1.52   1
   6   8   2    8.12    1.82   1
   6   8   3  166.93    6.20   1
   6   8   4    4.71    1.82   1
   6   8   5  338.56   11.41   1
   6   8   6   -0.59    1.89   1
   6   8   7  126.11    4.94   1
   6   8   8   -1.69    1.90   1
   6   8   9    4.58    2.31   1
   6   8  10    0.00    1.00   1
   6   8  11  143.04    6.94   1
   6   8  12    4.49    2.71   1
   6   8  13  177.42    8.79   1
   6   8  14    7.62    2.48   1
   6   8  15   21.07    3.58   1
   6   9 -10   65.29    7.27   1
   6   9  -9   -4.28    2.61   1
   6   9  -8   75.86    4.53   1
   6   9  -7   93.90    3.88   1
   6   9  -6    4.49    1.31   1
   6   9  -5   78.85    3.73   1
   6   9  -4   54.76    2.96   1
   6   9  -3    3.50    1.50   1
   6   9  -2  117.07    4.98   1
   6   9  -1   43.82    2.65   1
   6   9   0   41.86    2.72   1
   6   9   1  165.64    6.43   1
   6   9   2    6.30    1.51   1
   6   9   3  118.81    4.80   1
   6   9   4   83.17    3.83   1
   6   9   5    9.30    1.89   1
   6   9   6   96.04    5.49   1
   6   9   7   40.20    2.79   1
   6   9   8    7.08    2.39   1
   6   9   9  153.02    7.17   1
   6   9  10   39.56    3.14   1
   6   9  11   45.56    3.24   1
   6   9  13    7.29    3.19   1
   6  10  -1    2.19    1.60   1
   6  10   0  103.84    4.89   1
   6  10   1    5.38    1.81   1
   6  10   2  192.10    7.76   1
   6  10   3    1.39    1.60   1
   6  10   4   41.09    3.08   1
   6  10   5    2.40    1.61   1
   6  10   6   22.09    2.73   1
   6  10   7    5.29    2.39   1
   6  10   8   90.82    5.15   1
   6  10   9    1.39    2.10   1
   7  -1 -11   28.94    3.98   1
   7  -1 -10   11.02    3.12   1
   7  -1  -9   20.52    2.99   1
   7  -1  -8   60.84    4.52   1
   7  -1  -7   -0.90    2.51   1
   7  -1  -6  121.44    6.17   1
   7  -1  -5   12.11    2.51   1
   7  -1  -4   32.83    2.75   1
   7  -1  -3   63.04    3.97   1
   7  -1  -2   13.91    2.69   1
   7  -1  -1   11.63    1.77   1
   7  -1   0  131.10    5.95   1
   7  -1   1    1.00    1.50   1
   7  -1   2   71.74    4.24   1
   7   0 -13    9.67    2.92   1
   7   0 -12   49.42    4.64   1
   7   0 -11    1.49    1.90   1
   7   0 -10   65.77    4.38   1
   7   0  -9   25.20    2.71   1
   7   0  -8   43.30    3.16   1
   7   0  -7    6.10    2.52   1
   7   0  -6    1.90    1.71   1
   7   0  -5    1.49    2.20   1
   7   0  -4  127.46    5.19   1
   7   0  -3    1.69    2.00   1
   7   0  -2  160.02    6.07   1
   7   0  -1    6.60    2.21   1
   7   0   0   15.13    2.02   1
   7   0   1    1.90    2.10   1
   7   0   2   79.03    3.56   1
   7   0   3    6.81    2.30   1
   7   0   4  205.06    7.16   1
   7   0   5    2.69    1.41   1
   7   0   6   94.48    4.86   1
   7   0   7   -0.71    2.20   1
   7   0   8    0.30    1.61   1
   7   1 -14    7.02    2.12   1
   7   1 -13    7.62    2.98   1
   7   1 -12   36.36    3.26   1
   7   1 -11  106.50    5.37   1
   7   1 -10   -0.40    1.59   1
   7   1  -9  143.04    5.98   1
   7   1  -8   49.42    3.23   1
   7   1  -7    1.80    2.01   1
   7   1  -6   51.84    3.17   1
   7   1  -5  149.57    6.60   1
   7   1  -4   32.95    2.53   1
   7   1  -3  155.50    5.99   1
   7   1  -2    1.69    1.79   1
   7   1  -1   70.06    3.85   1
   7   1   0   54.91    3.41   1
   7   1   1    2.10    1.31   1
   7   1   2   45.16    3.09   1
   7   1   3  101.61    4.44   1
   7   1   4    1.10    1.91   1
   7   1   5  144.00    5.28   1
   7   1   6   61.94    3.78   1
   7   1   7  107.33    5.18   1
   7   1   8   83.72    4.57   1
   7   1   9   10.18    2.49   1
   7   1  10   52.27    3.76   1
   7   1  11  140.90    6.41   1
   7   1  12    2.50    2.50   1
   7   2 -15   76.21    7.68   1
   7   2 -14    7.08    2.98   1
   7   2 -13  130.19    6.39   1
   7   2 -12    8.18    2.00   1
   7   2 -11   20.52    2.99   1
   7   2 -10    1.10    1.60   1
   7   2  -9   47.61    3.73   1
   7   2  -8    8.01    1.70   1
   7   2  -7  230.13    7.89   1
   7   2  -6    4.88    2.08   1
   7   2  -5  277.56    8.66   1
   7   2  -4    1.30    1.50   1
   7   2  -3    2.99    1.70   1
   7   2  -2   10.63    1.83   1
   7   2  -1  231.65    7.91   1
   7   2   0    3.80    1.79   1
   7   2   1  337.46    9.55   1
   7   2   2    6.81    1.98   1
   7   2   3  194.60    6.14   1
   7   2   4   10.50    2.20   1
   7   2   5   11.22    1.67   1
   7   2   6   -0.20    1.51   1
   7   2   7  353.82   11.66   1
   7   2   8    5.52    2.21   1
   7   2   9  242.74    8.72   1
   7   2  10   15.29    2.27   1
   7   2  11   26.73    2.79   1
   7   2  12   -0.59    2.59   1
   7   2  13   23.43    3.58   1
   7   2  14    1.49    2.10   1
   7   2  15  132.25    6.90   1
   7   2  16    7.90    3.32   1
  -7  -3 -16   86.86    5.22  -2
   7   3 -14   86.86    5.22   1
  -7  -3 -15    5.71    2.10  -2
   7   3 -13    5.71    2.10   1
  -7  -3 -14   31.25    3.24  -2
   7   3 -12   31.25    3.24   1
  -7  -3 -13   46.65    3.14  -2
   7   3 -11   46.65    3.14   1
  -7  -3 -12    2.69    2.10  -2
   7   3 -10    2.69    2.10   1
  -7  -3 -11   63.84    3.84  -2
   7   3  -9   63.84    3.84   1
  -7  -3 -10   72.25    3.74  -2
   7   3  -8   72.25    3.74   1
  -7  -3  -9   14.67    1.76  -2
   7   3  -7   14.67    1.76   1
  -7  -3  -8  125.66    5.38  -2
   7   3  -6  125.66    5.38   1
  -7  -3  -7   28.20    2.23  -2
   7   3  -5   28.20    2.23   1
  -7  -3  -6    8.53    1.58  -2
   7   3  -4    8.53    1.58   1
  -7  -3  -5  209.09    7.23  -2
   7   3  -3  209.09    7.23   1
  -7  -3  -4   26.94    2.39  -2
   7   3  -2   26.94    2.39   1
  -7  -3  -3  182.79    5.95  -2
   7   3  -1  182.79    5.95   1
  -7  -3  -2  204.78    6.58  -2
   7   3   0  204.78    6.58   1
  -7  -3  -1    7.29    2.21  -2
   7   3   1    7.29    2.21   1
  -7  -3   0  221.41    6.84  -2
   7   3   2  221.41    6.84   1
  -7  -3   1  225.90    7.21  -2
   7   3   3  225.90    7.21   1
  -7  -3   2   19.01    2.18  -2
   7   3   4   19.01    2.18   1
  -7  -3   3  248.38    7.88  -2
   7   3   5  248.38    7.88   1
  -7  -3   4    6.81    1.62  -2
   7   3   6    6.81    1.62   1
  -7  -3   5   34.93    2.60  -2
   7   3   7   34.93    2.60   1
  -7  -3   6  104.65    5.11  -2
   7   3   8  104.65    5.11   1
  -7  -3   7   23.43    2.71  -2
   7   3   9   23.43    2.71   1
  -7  -3   8   58.37    4.13  -2
   7   3  10   58.37    4.13   1
  -7  -3   9  109.62    5.86  -2
   7   3  11  109.62    5.86   1
  -7  -3  10   -1.21    2.31  -2
   7   3  12   -1.21    2.31   1
  -7  -3  11   67.73    4.28  -2
   7   3  13   67.73    4.28   1
  -7  -3  12   18.84    2.69  -2
   7   3  14   18.84    2.69   1
  -7  -3  13    8.41    3.31  -2
   7   3  15    8.41    3.31   1
  -7  -3  14   64.32    4.97  -2
   7   3  16   64.32    4.97   1
  -7  -3  15   13.99    3.96  -2
   7   3  17   13.99    3.96   1
  -7  -4 -16    1.69    2.39  -2
   7   4 -14    1.69    2.39   1
  -7  -4 -15    1.49    1.59  -2
   7   4 -13    1.49    1.59   1
  -7  -4 -14   67.24    4.26  -2
   7   4 -12   67.24    4.26   1
  -7  -4 -13    5.11    2.31  -2
   7   4 -11    5.11    2.31   1
  -7  -4 -12  272.91    9.25  -2
   7   4 -10  272.91    9.25   1
  -7  -4 -11    1.99    1.38  -2
   7   4  -9    1.99    1.38   1
  -7  -4 -10  106.09    4.74  -2
   7   4  -8  106.09    4.74   1
  -7  -4  -9    1.10    1.70  -2
   7   4  -7    1.10    1.70   1
  -7  -4  -8   14.59    1.68  -2
   7   4  -6   14.59    1.68   1
  -7  -4  -7    1.39    1.20  -2
   7   4  -5    1.39    1.20   1
  -7  -4  -6  273.90    8.27  -2
   7   4  -4  273.90    8.27   1
  -7  -4  -5   11.09    2.13  -2
   7   4  -3   11.09    2.13   1
  -7  -4  -4  397.20   11.96  -2
   7   4  -2  397.20   11.96   1
  -7  -4  -3    5.52    1.41  -2
   7   4  -1    5.52    1.41   1
  -7  -4  -2   68.56    3.15  -2
   7   4   0   68.56    3.15   1
  -7  -4  -1   22.09    2.26  -2
   7   4   1   22.09    2.26   1
  -7  -4   0   51.55    3.16  -2
   7   4   2   51.55    3.16   1
  -7  -4   1    7.90    1.57  -2
   7   4   3    7.90    1.57   1
  -7  -4   2  414.53   12.22  -2
   7   4   4  414.53   12.22   1
  -7  -4   3    5.71    1.48  -2
   7   4   5    5.71    1.48   1
  -7  -4   4  316.13    9.96  -2
   7   4   6  316.13    9.96   1
  -7  -4   5    7.78    2.12  -2
   7   4   7    7.78    2.12   1
  -7  -4   6   21.16    2.39  -2
   7   4   8   21.16    2.39   1
  -7  -4   7    7.40    1.69  -2
   7   4   9    7.40    1.69   1
  -7  -4   8   80.28    3.94  -2
   7   4  10   80.28    3.94   1
  -7  -4   9   -1.30    1.71  -2
   7   4  11   -1.30    1.71   1
  -7  -4  10  283.92    9.77  -2
   7   4  12  283.92    9.77   1
  -7  -4  11    5.90    2.82  -2
   7   4  13    5.90    2.82   1
  -7  -4  12   90.06    4.93  -2
   7   4  14   90.06    4.93   1
  -7  -4  13    4.08    3.19  -2
   7   4  15    4.08    3.19   1
  -7  -4  14    1.80    2.09  -2
   7   4  16    1.80    2.09   1
  -7  -4  15   -1.30    3.19  -2
   7   4  17   -1.30    3.19   1
   7   5 -14   95.06    4.88   1
   7   5 -13    7.29    1.78   1
   7   5 -12   87.42    4.49   1
   7   5 -11   47.33    3.16   1
   7   5 -10    1.59    1.39   1
   7   5  -9   48.16    2.64   1
   7   5  -8   80.82    3.24   1
   7   5  -7   23.23    2.12   1
   7   5  -6  265.69    7.17   1
   7   5  -5   25.60    2.02   1
   7   5  -4  100.80    3.41   1
   7   5  -3   98.60    4.37   1
   7   5  -2   32.72    2.17   1
   7   5  -1   44.36    2.53   1
   7   5   0  346.70   10.43   1
   7   5   1   11.02    2.19   1
   7   5   2  392.83   11.50   1
   7   5   3   29.27    2.38   1
   7   5   4   78.85    3.73   1
   7   5   5   82.45    3.81   1
   7   5   6   61.62    3.45   1
   7   5   7   42.12    3.24   1
   7   5   8  305.55   10.49   1
   7   5   9    9.42    1.90   1
   7   5  10  147.87    6.32   1
   7   5  11   30.25    2.97   1
   7   5  12   -3.39    2.28   1
   7   5  13   27.56    3.36   1
   7   5  14   82.26    4.53   1
   7   5  15   13.10    3.33   1
   7   5  16  139.95    7.57   1
   7   5  17   -5.62    3.60   1
   7   6 -13   86.68    4.28   1
   7   6 -12    5.81    1.59   1
   7   6 -11   41.60    2.58   1
   7   6 -10   11.63    1.91   1
   7   6  -9   20.61    2.09   1
   7   6  -8   22.75    2.10   1
   7   6  -7  197.96    6.19   1
   7   6  -6    2.79    1.30   1
   7   6  -5  144.72    6.01   1
   7   6  -4   54.61    3.25   1
   7   6  -3   22.28    2.17   1
   7   6  -2   73.96    3.61   1
   7   6  -1   65.61    3.08   1
   7   6   0   17.81    2.03   1
   7   6   1  280.90    8.38   1
   7   6   2   15.13    2.57   1
   7   6   3  135.02    4.88   1
   7   6   4   73.96    3.44   1
   7   6   5    4.41    2.02   1
   7   6   6   97.61    4.94   1
   7   6   7  114.92    5.15   1
   7   6   8    4.49    1.70   1
   7   6   9  188.51    7.69   1
   7   6  10   27.14    3.13   1
   7   6  11   63.84    3.84   1
   7   6  12   29.81    3.06   1
   7   6  13   15.92    2.63   1
   7   6  14   16.16    3.38   1
   7   6  15   83.36    5.48   1
   7   6  16   -4.71    2.99   1
   7   7 -12    6.20    1.59   1
   7   7 -11   63.04    3.65   1
   7   7 -10    2.79    2.00   1
   7   7  -9  131.79    5.28   1
   7   7  -8   13.03    1.88   1
   7   7  -7   32.15    2.61   1
   7   7  -6   40.96    2.69   1
   7   7  -5   15.68    1.82   1
   7   7  -4   30.14    2.31   1
   7   7  -3  180.36    6.45   1
   7   7  -2    2.79    1.50   1
   7   7  -1  185.23    6.26   1
   7   7   0   12.89    1.58   1
   7   7   1   12.18    2.09   1
   7   7   2   16.97    2.39   1
   7   7   3  108.58    4.58   1
   7   7   4    5.90    1.70   1
   7   7   5  247.43    8.81   1
   7   7   6    8.29    2.07   1
   7   7   7   73.96    3.78   1
   7   7   8   39.56    3.65   1
   7   7   9    5.62    2.32   1
   7   7  10   12.67    2.92   1
   7   7  11  131.56    6.65   1
   7   7  12   -2.40    2.01   1
   7   7  13  124.10    6.46   1
   7   7  14   -1.30    3.19   1
   7   7  15    9.61    2.79   1
   7   8 -10  103.84    5.30   1
   7   8  -9    4.71    2.21   1
   7   8  -8   99.60    4.99   1
   7   8  -7   21.81    2.62   1
   7   8  -6    9.42    2.21   1
   7   8  -5   55.80    3.14   1
   7   8  -4   78.68    4.08   1
   7   8  -3   21.53    1.86   1
   7   8  -2  196.56    7.29   1
   7   8  -1   13.40    1.68   1
   7   8   0   72.08    3.57   1
   7   8   1   92.93    4.05   1
   7   8   2    7.90    1.80   1
   7   8   3   60.06    3.88   1
   7   8   4  153.02    6.18   1
   7   8   5    6.20    1.79   1
   7   8   6  177.69    7.73   1
   7   8   7   48.16    3.75   1
   7   8   8   12.89    2.23   1
   7   8   9   50.98    3.71   1
   7   8  10   35.88    3.23   1
   7   8  11    9.61    2.29   1
   7   8  12  112.36    6.36   1
   7   8  13    2.19    2.19   1
   7   9  -8   44.09    3.45   1
   7   9  -7   11.22    2.21   1
   7   9  -6  196.56    8.13   1
   7   9  -5   12.89    1.79   1
   7   9  -4  106.50    5.16   1
   7   9  -3    3.31    2.00   1
   7   9  -2    1.10    1.99   1
   7   9  -1    2.50    1.30   1
   7   9   0   83.17    4.56   1
   7   9   1    6.81    1.83   1
   7   9   2  140.90    6.41   1
   7   9   3    4.28    2.28   1
   7   9   4   49.42    3.66   1
   7   9   5    0.10    1.52   1
   7   9   6   18.06    2.97   1
   7   9   7    2.99    2.01   1
   7   9   8  195.44    8.95   1
   7   9   9   12.39    3.38   1
   7   9  10  175.30    9.00   1
  -7 -10  -6   29.16    2.92  -2
   7  10  -3   29.16    2.92   1
  -7 -10  -5   47.47    3.44  -2
   7  10  -2   47.47    3.44   1
  -7 -10  -4   15.92    2.39  -2
   7  10  -1   15.92    2.39   1
  -7 -10  -3   43.03    3.15  -2
   7  10   0   43.03    3.15   1
  -7 -10  -2   97.61    5.73  -2
   7  10   1   97.61    5.73   1
  -7 -10  -1    9.49    2.09  -2
   7  10   2    9.49    2.09   1
  -7 -10   0   80.28    5.02  -2
   7  10   3   80.28    5.02   1
  -7 -10   1   45.56    3.65  -2
   7  10   4   45.56    3.65   1
  -7 -10   2    3.61    2.39  -2
   7  10   5    3.61    2.39   1
  -7 -10   3   43.30    3.55  -2
   7  10   6   43.30    3.55   1
   8   0  -7    4.28    3.31   1
   8   0  -6    2.79    2.00   1
   8   0  -5   60.06    4.49   1
   8   0  -4    3.31    2.91   1
   8   0  -3  123.88    6.46   1
   8   0  -2   -0.40    2.49   1
   8   0  -1   63.04    4.92   1
   8   0   0    9.18    2.30   1
   8   0   1   -0.20    1.71   1
   8   0   2    8.12    2.68   1
  -8  -1 -11   49.28    4.35  -2
   8   1  -9   49.28    4.35   1
  -8  -1 -10    5.02    2.42  -2
   8   1  -8    5.02    2.42   1
  -8  -1  -9  133.63    7.17  -2
   8   1  -7  133.63    7.17   1
  -8  -1  -8    5.81    2.12  -2
   8   1  -6    5.81    2.12   1
  -8  -1  -7   66.26    4.40  -2
   8   1  -5   66.26    4.40   1
  -8  -1  -6   19.62    3.19  -2
   8   1  -4   19.62    3.19   1
  -8  -1  -5   -1.69    1.59  -2
   8   1  -3   -1.69    1.59   1
  -8  -1  -4   20.16    2.96  -2
   8   1  -2   20.16    2.96   1
  -8  -1  -3  123.88    6.01  -2
   8   1  -1  123.88    6.01   1
  -8  -1  -2    3.10    1.69  -2
   8   1   0    3.10    1.69   1
  -8  -1  -1  186.60    8.47  -2
   8   1   1  186.60    8.47   1
  -8  -1   0    0.79    1.99  -2
   8   1   2    0.79    1.99   1
  -8  -1   1  102.01    5.66  -2
   8   1   3  102.01    5.66   1
  -8  -1   2   10.63    2.41  -2
   8   1   4   10.63    2.41   1
  -8  -1   3   -1.00    2.60  -2
   8   1   5   -1.00    2.60   1
  -8  -1   4   16.16    3.22  -2
   8   1   6   16.16    3.22   1
  -8  -1   5   89.68    5.68  -2
   8   1   7   89.68    5.68   1
  -8  -1   6    5.02    2.28  -2
   8   1   8    5.02    2.28   1
  -8  -2 -12    1.21    2.90  -2
   8   2 -10    1.21    2.90   1
  -8  -2 -11   39.44    3.64  -2
   8   2  -9   39.44    3.64   1
  -8  -2 -10   60.37    4.04  -2
   8   2  -8   60.37    4.04   1
  -8  -2  -9    1.00    1.80  -2
   8   2  -7    1.00    1.80   1
  -8  -2  -8  134.33    6.26  -2
   8   2  -6  134.33    6.26   1
  -8  -2  -7   43.82    3.44  -2
   8   2  -5   43.82    3.44   1
  -8  -2  -6   35.76    2.75  -2
   8   2  -4   35.76    2.75   1
  -8  -2  -5   51.41    3.87  -2
   8   2  -3   51.41    3.87   1
  -8  -2  -4    3.39    1.58  -2
   8   2  -2    3.39    1.58   1
  -8  -2  -3   28.41    3.20  -2
   8   2  -1   28.41    3.20   1
  -8  -2  -2  116.21    5.39  -2
   8   2   0  116.21    5.39   1
  -8  -2  -1   -2.10    2.41  -2
   8   2   1   -2.10    2.41   1
  -8  -2   0  102.41    5.87  -2
   8   2   2  102.41    5.87   1
  -8  -2   1   33.52    2.89  -2
   8   2   3   33.52    2.89   1
  -8  -2   2    3.31    1.82  -2
   8   2   4    3.31    1.82   1
  -8  -2   3   51.55    4.02  -2
   8   2   5   51.55    4.02   1
  -8  -2   4   39.94    3.79  -2
   8   2   6   39.94    3.79   1
  -8  -2   5   54.46    3.54  -2
   8   2   7   54.46    3.54   1
  -8  -2   6  122.10    6.19  -2
   8   2   8  122.10    6.19   1
  -8  -2   7    2.40    2.11  -2
   8   2   9    2.40    2.11   1
  -8  -2   8   57.15    4.23  -2
   8   2  10   57.15    4.23   1
  -8  -2   9   71.91    4.92  -2
   8   2  11   71.91    4.92   1
  -8  -2  10    6.81    3.60  -2
   8   2  12    6.81    3.60   1
   8   3 -11   -1.39    2.90   1
   8   3 -10  113.64    5.97   1
   8   3  -9    1.59    1.89   1
   8   3  -8   43.16    3.68   1
   8   3  -7    4.80    1.88   1
   8   3  -6    4.20    2.50   1
   8   3  -5    9.00    1.92   1
   8   3  -4  137.36    6.09   1
   8   3  -3    1.30    1.50   1
   8   3  -2  207.94    8.08   1
   8   3  -1    0.30    1.61   1
   8   3   0   25.70    3.14   1
   8   3   1   -1.10    1.51   1
   8   3   2   16.40    2.27   1
   8   3   3    2.79    2.20   1
   8   3   4  203.63    7.42   1
   8   3   5    1.90    1.71   1
   8   3   6  150.06    6.62   1
   8   3   7    0.59    2.39   1
   8   3   8    3.50    2.99   1
   8   3   9    4.08    2.91   1
   8   3  10   47.33    4.27   1
   8   3  11   -1.39    2.90   1
   8   3  12  115.99    6.46   1
   8   3  13    0.71    2.70   1
   8   4 -11   50.41    4.26   1
   8   4 -10   -0.79    1.80   1
   8   4  -9  100.60    5.62   1
   8   4  -8   38.94    3.24   1
   8   4  -7   12.18    2.79   1
   8   4  -6  108.58    5.63   1
   8   4  -5   29.27    2.60   1
   8   4  -4   47.75    3.59   1
   8   4  -3   73.27    3.77   1
   8   4  -2    5.20    2.28   1
   8   4  -1   90.44    4.37   1
   8   4   0   77.44    4.58   1
   8   4   1    3.88    1.69   1
   8   4   2   85.01    4.98   1
   8   4   3   69.56    3.84   1
   8   4   4   11.97    2.28   1
   8   4   5   92.16    5.57   1
   8   4   6   26.94    3.11   1
   8   4   7   32.83    3.09   1
   8   4   8  132.48    6.22   1
   8   4   9    1.99    1.89   1
   8   4  10   82.08    5.25   1
   8   4  11   65.45    4.53   1
   8   4  12    5.90    3.50   1
   8   4  13   62.73    5.23   1
   8   5 -11   20.88    3.29   1
   8   5 -10    2.40    1.80   1
   8   5  -9   25.70    3.24   1
   8   5  -8    6.60    2.52   1
   8   5  -7  150.80    6.63   1
   8   5  -6    9.61    2.60   1
   8   5  -5  139.71    6.62   1
   8   5  -4    4.88    1.68   1
   8   5  -3   16.56    2.60   1
   8   5  -2    3.39    1.58   1
   8   5  -1   44.09    3.19   1
   8   5   0   10.37    2.70   1
   8   5   1  167.18    6.21   1
   8   5   2    8.41    2.49   1
   8   5   3  104.04    4.69   1
   8   5   4    6.30    1.81   1
   8   5   5   -0.40    2.19   1
   8   5   6    2.79    2.50   1
   8   5   7  121.00    5.94   1
   8   5   8    1.39    2.01   1
   8   5   9  191.27    8.30   1
   8   5  10    2.19    2.10   1
   8   5  11   54.46    4.13   1
   8   5  12    6.92    3.42   1
   8   5  13    7.02    3.50   1
   8   6 -10   -0.59    1.79   1
   8   6  -9   58.68    4.44   1
   8   6  -8   23.52    2.42   1
   8   6  -7   13.99    2.17   1
   8   6  -6   62.25    4.10   1
   8   6  -5   20.43    2.71   1
   8   6  -4   17.98    2.12   1
   8   6  -3  102.62    5.47   1
   8   6  -2   15.29    2.74   1
   8   6  -1   52.13    3.03   1
   8   6   0   52.42    3.04   1
   8   6   1    7.18    2.41   1
   8   6   2   79.57    4.28   1
   8   6   3   26.83    3.21   1
   8   6   4   15.13    2.72   1
   8   6   5  111.30    5.70   1
   8   6   6    3.50    1.91   1
   8   6   7   69.39    4.83   1
   8   6   8   32.38    3.87   1
   8   6   9    3.80    2.81   1
   8   6  10   34.34    4.34   1
   8   6  11   63.84    5.27   1
   8   6  12    5.02    2.51   1
   8   6  13   65.45    4.85   1
   8   7  -9    3.50    1.91   1
   8   7  -8   70.73    4.88   1
   8   7  -7    8.58    2.58   1
   8   7  -6    0.50    2.22   1
   8   7  -5    7.40    1.90   1
   8   7  -4   82.81    4.91   1
   8   7  -3   14.21    3.02   1
   8   7  -2  249.32    9.79   1
   8   7  -1    7.62    1.99   1
   8   7   0   89.49    4.73   1
   8   7   1    2.99    2.21   1
   8   7   2    9.61    1.92   1
   8   7   3    6.71    2.69   1
   8   7   4  180.63    7.80   1
   8   7   5    9.61    2.48   1
   8   7   6  201.07    9.64   1
   8   7   7    6.60    2.78   1
   8   7   8   21.62    2.70   1
   8   7   9   26.63    3.10   1
   8   7  10   12.60    2.48   1
   8   7  11    6.60    3.39   1
   8   8  -6  103.63    6.11   1
   8   8  -5   16.81    2.71   1
   8   8  -4   59.75    4.17   1
   8   8  -3   16.08    2.09   1
   8   8  -2   -1.21    1.41   1
   8   8  -1   14.90    2.70   1
   8   8   0  130.19    6.39   1
   8   8   1   20.16    2.51   1
   8   8   2  267.65   10.47   1
   8   8   3   14.36    2.43   1
   8   8   4   57.76    4.10   1
   8   8   5   14.59    2.37   1
   8   8   6    9.12    2.78   1
   8   8   7   18.66    3.37   1
   8   8   8  104.24    6.33   1
   8   8   9    4.58    3.08   1
  -8  -9  -5   37.45    3.06  -2
   8   9  -2   37.45    3.06   1
  -8  -9  -4   43.69    3.97  -2
   8   9  -1   43.69    3.97   1
  -8  -9  -3   17.47    2.93  -2
   8   9   0   17.47    2.93   1
  -8  -9  -2   58.37    4.28  -2
   8   9   1   58.37    4.28   1
  -8  -9  -1    5.52    1.93  -2
   8   9   2    5.52    1.93   1
  -8  -9   0   66.42    4.73  -2
   8   9   3   66.42    4.73   1
  -8  -9   1   30.58    2.99  -2
   8   9   4   30.58    2.99   1
  -8  -9   2   19.71    3.46  -2
   8   9   5   19.71    3.46   1
   9   2  -2   77.09    5.27   1
   9   2  -1    5.71    2.29   1
   9   2   0   11.83    3.51   1
   9   2   1   31.02    3.23   1
   9   2   2   10.37    2.51   1
   9   2   3    6.92    2.58   1
   9   2   4   66.26    4.56   1
   9   2   5   -0.71    3.21   1
   9   3  -4    4.28    3.19   1
   9   3  -3   96.83    5.90   1
   9   3  -2    0.20    3.01   1
   9   3  -1   87.42    5.24   1
   9   3   0   16.00    2.56   1
   9   3   1    1.21    2.00   1
   9   3   2   25.40    3.83   1
   9   3   3   64.64    5.15   1
   9   3   4    0.40    2.09   1
   9   3   5  101.40    5.64   1
   9   3   6    4.08    2.38   1
   9   3   7   26.42    3.50   1
   9   4  -5  100.20    5.41   1
   9   4  -4    6.60    3.08   1
   9   4  -3    9.67    2.43   1
   9   4  -2    7.02    2.92   1
   9   4  -1   74.82    5.02   1
   9   4   0    9.42    2.52   1
   9   4   1  180.10    9.13   1
   9   4   2    1.69    2.29   1
   9   4   3  109.20    5.85   1
   9   4   4    3.88    2.40   1
   9   4   5    3.61    2.51   1
   9   4   6    3.80    3.12   1
   9   4   7   85.75    6.67   1
   9   4   8   -2.10    3.51   1
   9   5  -5    2.59    2.09   1
   9   5  -4   32.49    3.31   1
   9   5  -3   45.97    3.80   1
   9   5  -2    3.31    2.00   1
   9   5  -1   55.65    4.33   1
   9   5   0   77.44    4.93   1
   9   5   1    6.00    3.09   1
   9   5   2  121.88    6.84   1
   9   5   3   44.76    3.48   1
   9   5   4   14.90    2.70   1
   9   5   5   73.10    4.96   1
   9   5   6    9.61    3.29   1
   9   5   7   27.25    4.59   1
   9   5   8   56.55    5.41   1
   9   6  -4   80.10    7.34   1
   9   6  -3    7.18    2.20   1
   9   6  -2  173.98    8.18   1
   9   6  -1   13.47    2.79   1
   9   6   0   44.62    4.28   1
   9   6   1    0.00    1.00   1
   9   6   2    2.40    2.01   1
   9   6   3    6.10    3.11   1
   9   6   4  102.01    6.06   1
   9   6   5   10.18    2.62   1
   9   6   6  150.06    7.84   1
   9   6   7   10.89    2.90   1
  -9  -7  -4   48.30    4.03  -2
   9   7  -1   48.30    4.03   1
  -9  -7  -2   10.11    2.48  -2
   9   7   1   10.11    2.48   1
  -9  -7  -1  113.21    7.02  -2
   9   7   2  113.21    7.02   1
  -9  -7   0   20.98    4.49  -2
   9   7   3   20.98    4.49   1
   0   0   0    0.00    0.00
;
_shelx_hkl_checksum              26717
_shelx_res_file
;
    shelxl.res created by SHELXL-2014/7
TITL Junk58
CELL  0.71073   6.5667   7.8920  17.2051   87.291   86.833   65.990
ZERR     4.00   0.0009   0.0010   0.0015    0.009    0.005    0.006
LATT   1
SFAC  C    H    N    O    TE
UNIT  32   28   4    4    4
MERG   2
FMAP   2
ACTA    50.00
CONF
BOND   $H
LIST   4
PLAN -6
L.S.   15
TEMP   -93.00
SIZE 0.05 0.12 0.17
OMIT -1 4 -1
OMIT -1 4 -9
OMIT 2 3 -3
EQIV $1 -x, -y, -z+1
HTAB N1 O1_$1
EQIV $2 -x+1, -y+1, -z+2
HTAB N2 O2_$2
WGHT    0.014200    2.948900
EXTI    0.006951
BASF   0.05229
FVAR       0.30878
MOLE 1
TE1   5    0.405293    0.366046    0.430873    11.00000    0.02183    0.02075 =
         0.02670   -0.00319   -0.00028   -0.01071
O1    4   -0.106643    0.247468    0.495465    11.00000    0.02277    0.02297 =
         0.03814   -0.00284    0.00501   -0.00892
N1    3    0.200721    0.050833    0.430745    11.00000    0.02335    0.01604 =
         0.03021    0.00148    0.00229   -0.00798
H1N   2    0.170270   -0.045149    0.453695    11.00000   -1.20000
C1    1    0.528126    0.105124    0.378457    11.00000    0.01938    0.01977 =
         0.01950    0.00094   -0.00384   -0.00498
C2    1    0.731132    0.036573    0.335829    11.00000    0.02367    0.03571 =
         0.02424   -0.00424    0.00056   -0.00849
AFIX  43
H2    2    0.817309    0.108587    0.330706    11.00000   -1.20000
AFIX   0
C3    1    0.809529   -0.133762    0.300912    11.00000    0.02689    0.03455 =
         0.02642   -0.00656    0.00270   -0.00106
AFIX  43
H3    2    0.950741   -0.180379    0.273875    11.00000   -1.20000
AFIX   0
C4    1    0.679164   -0.236578    0.305772    11.00000    0.03566    0.02125 =
         0.02122   -0.00243   -0.00251    0.00169
AFIX  43
H4    2    0.729602   -0.351912    0.280557    11.00000   -1.20000
AFIX   0
C5    1    0.476178   -0.170743    0.347326    11.00000    0.03398    0.01661 =
         0.02433    0.00018   -0.00364   -0.00643
AFIX  43
H5    2    0.388139   -0.241269    0.350661    11.00000   -1.20000
AFIX   0
C6    1    0.400905   -0.000785    0.384313    11.00000    0.02388    0.01609 =
         0.01921    0.00175   -0.00272   -0.00499
C7    1    0.051380    0.224338    0.447946    11.00000    0.01861    0.01914 =
         0.02579   -0.00151   -0.00485   -0.00783
C8    1    0.080085    0.384335    0.406063    11.00000    0.01882    0.01737 =
         0.02364    0.00014   -0.00254   -0.00498
AFIX  23
H8A   2   -0.036227    0.503175    0.424325    11.00000   -1.20000
H8B   2    0.067527    0.377856    0.349304    11.00000   -1.20000
AFIX   0
MOLE 2
TE2   5    0.107530    0.148410    0.933043    11.00000    0.02169    0.02145 =
         0.02455    0.00162   -0.00357   -0.01097
O2    4    0.609528    0.251749    0.994980    11.00000    0.02229    0.02170 =
         0.03686   -0.00015   -0.01078   -0.00713
N2    3    0.319190    0.459161    0.929308    11.00000    0.02427    0.01587 =
         0.02931   -0.00144   -0.00759   -0.00784
H2N   2    0.347581    0.550358    0.951780    11.00000   -1.20000
C9    1   -0.000343    0.414948    0.879469    11.00000    0.01885    0.02029 =
         0.01782   -0.00005   -0.00052   -0.00532
C10   1   -0.196239    0.491498    0.837974    11.00000    0.02272    0.03456 =
         0.02297    0.00230   -0.00283   -0.00854
AFIX  43
H10   2   -0.285034    0.422807    0.834281    11.00000   -1.20000
AFIX   0
C11   1   -0.263021    0.665404    0.802219    11.00000    0.02436    0.03925 =
         0.02432    0.00499   -0.00316    0.00197
AFIX  43
H11   2   -0.399476    0.717431    0.776015    11.00000   -1.20000
AFIX   0
C12   1   -0.129826    0.763385    0.804815    11.00000    0.03701    0.02186 =
         0.02156    0.00328   -0.00080   -0.00062
AFIX  43
H12   2   -0.172769    0.880878    0.778737    11.00000   -1.20000
AFIX   0
C13   1    0.065576    0.690916    0.845230    11.00000    0.03388    0.01951 =
         0.02579   -0.00079   -0.00048   -0.00818
AFIX  43
H13   2    0.155973    0.758762    0.847095    11.00000   -1.20000
AFIX   0
C14   1    0.129192    0.517351    0.883290    11.00000    0.02062    0.01504 =
         0.01994   -0.00193   -0.00263   -0.00281
C15   1    0.461207    0.283062    0.947252    11.00000    0.01588    0.02003 =
         0.02512    0.00084    0.00027   -0.00824
C16   1    0.438773    0.129916    0.905729    11.00000    0.01934    0.01682 =
         0.02356   -0.00110   -0.00098   -0.00565
AFIX  23
H16A  2    0.550875    0.008090    0.923424    11.00000   -1.20000
H16B  2    0.461394    0.144231    0.848836    11.00000   -1.20000
AFIX   0
HKLF 5
REM  Junk58
REM R1 =  0.0335 for    7392 Fo > 4sig(Fo)  and  0.0426 for all    8596 data
REM    207 parameters refined using      0 restraints
END
WGHT      0.0143      2.9466
REM Highest difference peak  0.778,  deepest hole -0.918,  1-sigma level  0.132
Q1    1   0.5210  0.4241  0.4336  11.00000  0.05    0.78
Q2    1   0.0660  0.1055  0.9927  11.00000  0.05    0.75
Q3    1   0.0150  0.0763  0.9322  11.00000  0.05    0.65
Q4    1   0.6721 -0.4332  0.2115  11.00000  0.05    0.64
Q5    1   0.0002  0.1396  0.9830  11.00000  0.05    0.62
Q6    1   0.4809  0.4026  0.3783  11.00000  0.05    0.62
;
_shelx_res_checksum              7024
loop_
_space_group_symop_operation_xyz
'x, y, z'
'-x, -y, -z'
loop_
_atom_site_type_symbol
_atom_site_label
_atom_site_fract_x
_atom_site_fract_y
_atom_site_fract_z
_atom_site_U_iso_or_equiv
_atom_site_adp_type
_atom_site_calc_flag
_atom_site_occupancy
Te Te1 0.40529(4) 0.36605(4) 0.43087(2) 0.02236(9) Uani d 1
O O1 -0.1066(5) 0.2475(4) 0.49546(19) 0.0283(7) Uani d 1
N N1 0.2007(6) 0.0508(5) 0.4307(2) 0.0234(7) Uani d 1
H H1N 0.170(8) -0.045(7) 0.454(3) 0.028 Uiso d 1
C C1 0.5281(7) 0.1051(6) 0.3785(2) 0.0204(8) Uani d 1
C C2 0.7311(7) 0.0366(7) 0.3358(3) 0.0290(9) Uani d 1
H H2 0.8173 0.1086 0.3307 0.035 Uiso calc 1
C C3 0.8095(8) -0.1338(7) 0.3009(3) 0.0330(10) Uani d 1
H H3 0.9507 -0.1804 0.2739 0.040 Uiso calc 1
C C4 0.6792(8) -0.2366(6) 0.3058(3) 0.0302(10) Uani d 1
H H4 0.7296 -0.3519 0.2806 0.036 Uiso calc 1
C C5 0.4762(8) -0.1707(6) 0.3473(2) 0.0261(9) Uani d 1
H H5 0.3881 -0.2413 0.3507 0.031 Uiso calc 1
C C6 0.4009(7) -0.0008(6) 0.3843(2) 0.0207(8) Uani d 1
C C7 0.0514(7) 0.2243(6) 0.4479(2) 0.0209(8) Uani d 1
C C8 0.0801(6) 0.3843(6) 0.4061(2) 0.0207(8) Uani d 1
H H8A -0.0362 0.5032 0.4243 0.025 Uiso calc 1
H H8B 0.0675 0.3779 0.3493 0.025 Uiso calc 1
Te Te2 0.10753(4) 0.14841(4) 0.93304(2) 0.02181(8) Uani d 1
O O2 0.6095(5) 0.2517(4) 0.99498(19) 0.0272(7) Uani d 1
N N2 0.3192(6) 0.4592(5) 0.9293(2) 0.0230(7) Uani d 1
H H2N 0.348(8) 0.550(7) 0.952(3) 0.028 Uiso d 1
C C9 -0.0003(6) 0.4149(6) 0.8795(2) 0.0199(8) Uani d 1
C C10 -0.1962(7) 0.4915(7) 0.8380(2) 0.0278(9) Uani d 1
H H10 -0.2850 0.4228 0.8343 0.033 Uiso calc 1
C C11 -0.2630(8) 0.6654(7) 0.8022(3) 0.0343(11) Uani d 1
H H11 -0.3995 0.7174 0.7760 0.041 Uiso calc 1
C C12 -0.1298(8) 0.7634(7) 0.8048(3) 0.0306(10) Uani d 1
H H12 -0.1728 0.8809 0.7787 0.037 Uiso calc 1
C C13 0.0656(8) 0.6909(6) 0.8452(3) 0.0273(9) Uani d 1
H H13 0.1560 0.7588 0.8471 0.033 Uiso calc 1
C C14 0.1292(7) 0.5174(6) 0.8833(2) 0.0198(8) Uani d 1
C C15 0.4612(6) 0.2831(6) 0.9473(2) 0.0201(8) Uani d 1
C C16 0.4388(6) 0.1299(6) 0.9057(2) 0.0204(8) Uani d 1
H H16A 0.5509 0.0081 0.9234 0.025 Uiso calc 1
H H16B 0.4614 0.1442 0.8488 0.025 Uiso calc 1
loop_
_atom_site_aniso_label
_atom_site_aniso_U_11
_atom_site_aniso_U_22
_atom_site_aniso_U_33
_atom_site_aniso_U_12
_atom_site_aniso_U_13
_atom_site_aniso_U_23
Te1 0.02183(14) 0.02075(16) 0.02670(15) -0.01071(11) -0.00028(10) -0.00319(11)
O1 0.0228(15) 0.0230(17) 0.0381(18) -0.0089(13) 0.0050(13) -0.0028(13)
N1 0.0233(17) 0.0160(18) 0.0302(19) -0.0080(15) 0.0023(14) 0.0015(14)
C1 0.0194(18) 0.020(2) 0.0195(18) -0.0050(16) -0.0038(14) 0.0009(15)
C2 0.024(2) 0.036(3) 0.024(2) -0.0085(19) 0.0006(16) -0.0042(18)
C3 0.027(2) 0.035(3) 0.026(2) -0.001(2) 0.0027(17) -0.0066(19)
C4 0.036(2) 0.021(2) 0.021(2) 0.0017(19) -0.0025(17) -0.0024(17)
C5 0.034(2) 0.017(2) 0.024(2) -0.0064(18) -0.0036(17) 0.0002(16)
C6 0.0239(19) 0.016(2) 0.0192(18) -0.0050(16) -0.0027(15) 0.0017(15)
C7 0.0186(18) 0.019(2) 0.026(2) -0.0078(16) -0.0048(15) -0.0015(16)
C8 0.0188(18) 0.017(2) 0.0236(19) -0.0050(15) -0.0025(14) 0.0001(15)
Te2 0.02169(14) 0.02145(16) 0.02455(15) -0.01097(12) -0.00357(10) 0.00162(11)
O2 0.0223(14) 0.0217(16) 0.0369(17) -0.0071(13) -0.0108(12) -0.0001(13)
N2 0.0243(17) 0.0159(18) 0.0293(18) -0.0078(14) -0.0076(14) -0.0014(14)
C9 0.0188(18) 0.020(2) 0.0178(17) -0.0053(16) -0.0005(14) -0.0001(15)
C10 0.023(2) 0.035(3) 0.023(2) -0.0085(19) -0.0028(16) 0.0023(18)
C11 0.024(2) 0.039(3) 0.024(2) 0.002(2) -0.0032(17) 0.005(2)
C12 0.037(2) 0.022(2) 0.022(2) -0.0006(19) -0.0008(18) 0.0033(17)
C13 0.034(2) 0.020(2) 0.026(2) -0.0082(18) -0.0005(17) -0.0008(17)
C14 0.0206(18) 0.015(2) 0.0199(18) -0.0028(15) -0.0026(14) -0.0019(15)
C15 0.0159(17) 0.020(2) 0.0251(19) -0.0082(16) 0.0003(14) 0.0008(16)
C16 0.0193(18) 0.017(2) 0.0236(19) -0.0057(15) -0.0010(14) -0.0011(15)
loop_
_atom_type_symbol
_atom_type_description
_atom_type_scat_dispersion_real
_atom_type_scat_dispersion_imag
_atom_type_scat_source
C C 0.0033 0.0016 'International Tables Vol C Tables 4.2.6.8 and 6.1.1.4'
H H 0.0000 0.0000 'International Tables Vol C Tables 4.2.6.8 and 6.1.1.4'
N N 0.0061 0.0033 'International Tables Vol C Tables 4.2.6.8 and 6.1.1.4'
O O 0.0106 0.0060 'International Tables Vol C Tables 4.2.6.8 and 6.1.1.4'
Te Te -0.5308 1.6751 'International Tables Vol C Tables 4.2.6.8 and 6.1.1.4'
loop_
_geom_angle_atom_site_label_1
_geom_angle_atom_site_label_2
_geom_angle_atom_site_label_3
_geom_angle
C1 Te1 C8 85.89(15)
C7 N1 C6 127.9(4)
C7 N1 H1N 116(3)
C6 N1 H1N 116(3)
C2 C1 C6 118.7(4)
C2 C1 Te1 121.8(3)
C6 C1 Te1 119.5(3)
C3 C2 C1 121.5(4)
C3 C2 H2 119.3
C1 C2 H2 119.3
C2 C3 C4 119.4(4)
C2 C3 H3 120.3
C4 C3 H3 120.3
C5 C4 C3 120.2(4)
C5 C4 H4 119.9
C3 C4 H4 119.9
C4 C5 C6 120.1(4)
C4 C5 H5 119.9
C6 C5 H5 119.9
C5 C6 C1 120.2(4)
C5 C6 N1 117.0(4)
C1 C6 N1 122.7(4)
O1 C7 N1 120.4(4)
O1 C7 C8 121.8(4)
N1 C7 C8 117.8(4)
C7 C8 Te1 107.2(3)
C7 C8 H8A 110.3
Te1 C8 H8A 110.3
C7 C8 H8B 110.3
Te1 C8 H8B 110.3
H8A C8 H8B 108.5
C9 Te2 C16 85.49(15)
C15 N2 C14 127.6(4)
C15 N2 H2N 115(3)
C14 N2 H2N 117(3)
C14 C9 C10 118.4(4)
C14 C9 Te2 119.6(3)
C10 C9 Te2 121.9(3)
C11 C10 C9 121.2(4)
C11 C10 H10 119.4
C9 C10 H10 119.4
C10 C11 C12 119.7(4)
C10 C11 H11 120.2
C12 C11 H11 120.2
C13 C12 C11 120.4(4)
C13 C12 H12 119.8
C11 C12 H12 119.8
C12 C13 C14 119.7(4)
C12 C13 H13 120.1
C14 C13 H13 120.1
C9 C14 C13 120.5(4)
C9 C14 N2 122.6(4)
C13 C14 N2 116.8(4)
O2 C15 N2 120.7(4)
O2 C15 C16 121.7(4)
N2 C15 C16 117.6(4)
C15 C16 Te2 106.7(3)
C15 C16 H16A 110.4
Te2 C16 H16A 110.4
C15 C16 H16B 110.4
Te2 C16 H16B 110.4
H16A C16 H16B 108.6
loop_
_geom_bond_atom_site_label_1
_geom_bond_atom_site_label_2
_geom_bond_distance
Te1 C1 2.109(4)
Te1 C8 2.147(4)
O1 C7 1.243(5)
N1 C7 1.356(5)
N1 C6 1.418(5)
N1 H1N 0.93(5)
C1 C2 1.397(6)
C1 C6 1.399(6)
C2 C3 1.383(7)
C2 H2 0.9500
C3 C4 1.396(7)
C3 H3 0.9500
C4 C5 1.387(6)
C4 H4 0.9500
C5 C6 1.398(6)
C5 H5 0.9500
C7 C8 1.497(6)
C8 H8A 0.9900
C8 H8B 0.9900
Te2 C9 2.110(4)
Te2 C16 2.147(4)
O2 C15 1.248(5)
N2 C15 1.354(6)
N2 C14 1.415(5)
N2 H2N 0.92(5)
C9 C14 1.397(6)
C9 C10 1.399(6)
C10 C11 1.384(7)
C10 H10 0.9500
C11 C12 1.387(8)
C11 H11 0.9500
C12 C13 1.386(7)
C12 H12 0.9500
C13 C14 1.400(6)
C13 H13 0.9500
C15 C16 1.494(6)
C16 H16A 0.9900
C16 H16B 0.9900
loop_
_geom_hbond_atom_site_label_D
_geom_hbond_atom_site_label_H
_geom_hbond_atom_site_label_A
_geom_hbond_site_symmetry_A
_geom_hbond_distance_DH
_geom_hbond_distance_HA
_geom_hbond_distance_DA
_geom_hbond_angle_DHA
N1 H1N O1 2_556 0.93(5) 1.96(5) 2.890(5) 179(5)
N2 H2N O2 2_667 0.92(5) 1.97(5) 2.888(5) 176(5)
loop_
_geom_torsion_atom_site_label_1
_geom_torsion_atom_site_label_2
_geom_torsion_atom_site_label_3
_geom_torsion_atom_site_label_4
_geom_torsion
C6 C1 C2 C3 -1.2(6)
Te1 C1 C2 C3 -179.3(3)
C1 C2 C3 C4 2.5(7)
C2 C3 C4 C5 -2.0(7)
C3 C4 C5 C6 0.2(7)
C4 C5 C6 C1 1.1(6)
C4 C5 C6 N1 -175.2(4)
C2 C1 C6 C5 -0.6(6)
Te1 C1 C6 C5 177.5(3)
C2 C1 C6 N1 175.4(4)
Te1 C1 C6 N1 -6.4(5)
C7 N1 C6 C5 -153.1(4)
C7 N1 C6 C1 30.8(6)
C6 N1 C7 O1 -173.3(4)
C6 N1 C7 C8 8.5(6)
O1 C7 C8 Te1 123.3(4)
N1 C7 C8 Te1 -58.6(4)
C14 C9 C10 C11 -0.8(6)
Te2 C9 C10 C11 -179.1(3)
C9 C10 C11 C12 2.5(7)
C10 C11 C12 C13 -2.2(7)
C11 C12 C13 C14 0.3(7)
C10 C9 C14 C13 -1.1(6)
Te2 C9 C14 C13 177.2(3)
C10 C9 C14 N2 174.4(4)
Te2 C9 C14 N2 -7.4(5)
C12 C13 C14 C9 1.4(6)
C12 C13 C14 N2 -174.4(4)
C15 N2 C14 C9 31.2(6)
C15 N2 C14 C13 -153.2(4)
C14 N2 C15 O2 -172.7(4)
C14 N2 C15 C16 9.5(6)
O2 C15 C16 Te2 122.1(4)
N2 C15 C16 Te2 -60.1(4)
