#------------------------------------------------------------------------------
#$Date: 2016-06-17 04:52:39 +0300 (Fri, 17 Jun 2016) $
#$Revision: 183642 $
#$URL: file:///home/coder/svn-repositories/cod/cif/2/02/04/2020492.cif $
#------------------------------------------------------------------------------
#
# This file is available in the Crystallography Open Database (COD),
# http://www.crystallography.net/. The original data for this entry
# were provided by IUCr Journals, http://journals.iucr.org/.
#
# The file may be used within the scientific community so long as
# proper attribution is given to the journal article from which the
# data were obtained.
#
data_2020492
loop_
_publ_author_name
'Bednarchuk, Tamara J.'
'Kinzhybalo, Vasyl'
'Pietraszko, Adam'
_publ_section_title
;
 Synthesis, structure and characterization of five new organically
 templated metal sulfates with 2-aminopyridinium
;
_journal_issue                   5
_journal_name_full               'Acta Crystallographica Section C'
_journal_page_first              432
_journal_page_last               441
_journal_paper_doi               10.1107/S2053229616006458
_journal_volume                  72
_journal_year                    2016
_chemical_formula_iupac          '(C5 H7 N2)2 [Ni (H2 O)6] (S O4)2'
_chemical_formula_moiety         '2(C5 H7 N2 +), H12 Ni O6 2+, 2(O4 S 2-)'
_chemical_formula_sum            'C10 H26 N4 Ni O14 S2'
_chemical_formula_weight         549.18
_chemical_name_systematic
;
Bis(2-aminopyridinium) hexaaquanickel(II) bis(sulfate)
;
_space_group_crystal_system      triclinic
_space_group_IT_number           2
_space_group_name_Hall           '-P 1'
_space_group_name_H-M_alt        'P -1'
_symmetry_space_group_name_Hall  '-P 1'
_symmetry_space_group_name_H-M   'P -1'
_atom_sites_solution_hydrogens   mixed
_audit_creation_method
;
Olex2 1.2
(compiled 2015.09.30 svn.r3233 for OlexSys, GUI svn.r5103)
;
_cell_angle_alpha                72.31(3)
_cell_angle_beta                 89.57(3)
_cell_angle_gamma                64.20(3)
_cell_formula_units_Z            1
_cell_length_a                   6.970(3)
_cell_length_b                   7.913(3)
_cell_length_c                   11.391(4)
_cell_measurement_reflns_used    6242
_cell_measurement_temperature    99.99(17)
_cell_measurement_theta_max      29.0740
_cell_measurement_theta_min      2.9800
_cell_volume                     533.2(4)
_computing_cell_refinement
;
CrysAlis PRO (Rigaku Oxford Diffraction, 2015)
;
_computing_data_collection
;
CrysAlis PRO (Rigaku Oxford Diffraction, 2015)
;
_computing_data_reduction
;
CrysAlis PRO (Rigaku Oxford Diffraction, 2015)
;
_computing_molecular_graphics
;
DIAMOND (Brandenburg, 1997)
;
_computing_publication_material
;
OLEX2 (Dolomanov <i>et al.</i>,  2009)
;
_computing_structure_refinement
;
SHELXL2014 (Sheldrick, 2015b)
;
_computing_structure_solution
;
SHELXT (Sheldrick, 2015a)
;
_diffrn_ambient_temperature      99.99(17)
_diffrn_detector_area_resol_mean 10.6249
_diffrn_measured_fraction_theta_full 0.998
_diffrn_measured_fraction_theta_max 0.888
_diffrn_measurement_device       'four-circle diffractometer'
_diffrn_measurement_device_type  'Rigaku Oxford Diffraction Xcalibur Atlas'
_diffrn_measurement_method       '\w scans'
_diffrn_radiation_monochromator  graphite
_diffrn_radiation_type           MoK\a
_diffrn_radiation_wavelength     0.71073
_diffrn_reflns_av_R_equivalents  0.0258
_diffrn_reflns_limit_h_max       9
_diffrn_reflns_limit_h_min       -9
_diffrn_reflns_limit_k_max       11
_diffrn_reflns_limit_k_min       -10
_diffrn_reflns_limit_l_max       15
_diffrn_reflns_limit_l_min       -15
_diffrn_reflns_number            11780
_diffrn_reflns_theta_full        26.000
_diffrn_reflns_theta_max         29.615
_diffrn_reflns_theta_min         2.993
_exptl_absorpt_coefficient_mu    1.181
_exptl_absorpt_correction_T_max  0.909
_exptl_absorpt_correction_T_min  0.879
_exptl_absorpt_correction_type   analytical
_exptl_absorpt_process_details
;
[<i>CrysAlis PRO</i> (Rigaku Oxford Diffraction, 2015), based on
expressions
derived  by Clark & Reid (1995)]
;
_exptl_crystal_colour            'light green'
_exptl_crystal_density_diffrn    1.710
_exptl_crystal_description       block
_exptl_crystal_F_000             286
_exptl_crystal_size_max          0.146
_exptl_crystal_size_mid          0.118
_exptl_crystal_size_min          0.1
_refine_diff_density_max         0.309
_refine_diff_density_min         -0.438
_refine_ls_extinction_method     none
_refine_ls_goodness_of_fit_ref   1.068
_refine_ls_hydrogen_treatment    mixed
_refine_ls_matrix_type           full
_refine_ls_number_parameters     160
_refine_ls_number_reflns         2662
_refine_ls_number_restraints     6
_refine_ls_restrained_S_all      1.067
_refine_ls_R_factor_all          0.0330
_refine_ls_R_factor_gt           0.0260
_refine_ls_shift/su_max          0.000
_refine_ls_shift/su_mean         0.000
_refine_ls_structure_factor_coef Fsqd
_refine_ls_weighting_details
'w=1/[\s^2^(Fo^2^)+(0.0220P)^2^+0.3380P] where P=(Fo^2^+2Fc^2^)/3'
_refine_ls_weighting_scheme      calc
_refine_ls_wR_factor_gt          0.0571
_refine_ls_wR_factor_ref         0.0596
_reflns_number_gt                2341
_reflns_number_total             2662
_reflns_threshold_expression     'I > 2\s(I)'
_cod_data_source_file            wq3112sup1.cif
_cod_data_source_block           IV
_cod_depositor_comments
'Adding full bibliography for 2020489--2020493.cif.'
_cod_database_code               2020492
_cod_database_fobs_code          2020492
_shelx_space_group_comment
;
The symmetry employed for this shelxl refinement is uniquely defined
by the following loop, which should always be used as a source of
symmetry information in preference to the above space-group names.
They are only intended as comments.
;
_shelx_hkl_file
;
   0   0  -1   -0.59    0.91
   0   0  -1    0.19    0.71
   0   0  -1   -0.10    0.72
   0   0  -2  317.97    7.25
   0   0   2  334.07    8.61
   0   0  -2  328.48    8.55
   0   0  -2  323.02    8.62
   0   0  -2  335.53    7.73
   0   0  -2  329.65    7.09
   0   0   2  320.02    7.66
   0   0   2  331.03    7.05
   0   0   2  317.79    8.46
   0   0   2  321.78    7.25
   0   0  -3  214.01    6.80
   0   0   3  222.49    7.17
   0   0   3  228.70    8.72
   0   0  -3  201.30    7.40
   0   0   3  216.91    8.56
   0   0  -3  214.72    8.50
   0   0   3  222.78    7.01
   0   0   3  199.63    7.41
   0   0  -3  209.27    6.92
   0   0   4 2659.70   38.08
   0   0   4 2583.54   40.25
   0   0   4 2617.27   40.31
   0   0  -4 2596.59   35.95
   0   0   4 2667.45   40.72
   0   0   4 2614.38   36.23
   0   0  -4 2620.91   36.69
   0   0   4 2636.41   36.82
   0   0  -4 2643.57   37.78
   0   0   5  677.19   19.50
   0   0   5  722.11   19.62
   0   0   5  723.34   16.47
   0   0   5  710.60   19.70
   0   0   5  688.20   16.74
   0   0  -5  707.93   17.69
   0   0  -5  728.44   16.33
   0   0   5  728.02   17.94
   0   0  -5  719.21   16.77
   0   0   6    4.80    3.56
   0   0   6    0.49    4.51
   0   0  -6   -2.74    2.89
   0   0   6    4.84    4.34
   0   0   6    5.81    3.24
   0   0   6   -1.25    4.27
   0   0   6   -1.39    3.00
   0   0  -6    7.47    3.59
   0   0  -6    2.18    2.92
   0   0   7   82.14    8.73
   0   0  -7   92.03    7.68
   0   0   7   97.85    7.99
   0   0   7   94.22    9.28
   0   0   7   96.45    9.22
   0   0   7  106.32    7.73
   0   0   7   93.16    7.18
   0   0  -7   83.58    6.82
   0   0  -8  490.92   16.92
   0   0   8  498.91   18.57
   0   0   8  490.44   16.94
   0   0  -8  473.86   17.67
   0   0   8  517.13   17.55
   0   0   8  495.56   20.74
   0   0   9  276.73   14.12
   0   0  -9  280.48   14.55
   0   0   9  285.84   14.08
   0   0   9  288.34   13.69
   0   0   9  290.35   17.08
   0   0  -9  280.94   13.63
   0   0  10   32.90    5.98
   0   0  10   24.65    5.78
   0   0  10   34.64    8.62
   0   0  10   27.06    5.99
   0   0 -10   25.12    6.58
   0   0 -10   31.85    5.93
   0   0  11  707.11   25.81
   0   0 -11  703.60   26.11
   0   0  11  715.47   28.58
   0   0  11  767.10   30.96
   0   0  11  757.68   24.63
   0   0 -11  736.61   24.88
   0   0  12   63.72    8.72
   0   0  12   66.26    8.32
   0   0  12   53.03    9.30
   0   0 -12   77.39    8.81
   0   0 -12   59.53    8.89
   0   0  12   58.52   10.35
   0   0  13    8.54    5.25
   0   0 -13   13.13    5.53
   0   0  13    4.79    7.05
   0   0  13    1.10    6.35
   0   0  14  113.73   13.66
   0   0 -14  121.96   13.44
   0  -1  13   32.24    9.30
   0  -1  13   29.10    7.85
   0  -1  12  818.34   34.31
   0  -1  12  774.98   29.47
   0  -1  12  826.20   32.93
   0   1 -12  860.32   29.35
   0   1 -12  791.01   29.82
   0  -1  12  783.40   34.72
   0   1 -11  342.80   18.91
   0  -1  11  376.35   16.94
   0  -1  11  329.29   19.93
   0  -1  11  371.99   22.77
   0   1 -11  367.94   18.50
   0  -1  11  392.01   22.47
   0  -1  11  330.02   17.85
   0  -1  10  174.94   14.77
   0  -1  10  192.61   15.13
   0  -1  10  166.94   12.43
   0   1 -10  199.82   13.20
   0   1 -10  179.52   13.10
   0  -1  10  187.60   11.59
   0   1  -9  401.18   17.96
   0  -1   9  381.73   19.20
   0  -1   9  406.68   15.77
   0  -1   9  396.73   20.14
   0  -1   9  358.49   16.90
   0   1  -9  415.24   17.77
   0  -1   8 1094.88   31.30
   0  -1   8 1082.33   28.67
   0  -1   8 1128.62   29.09
   0   1  -8 1156.30   29.11
   0  -1   8 1152.56   26.11
   0  -1   8 1120.13   32.25
   0   1  -8 1108.01   29.30
   0  -1   8 1119.83   29.75
   0  -1   7  346.22   16.21
   0  -1   7  347.03   14.91
   0   1  -7  346.68   15.03
   0   1  -7  338.69   14.18
   0  -1   7  354.33   16.42
   0  -1   7  372.79   15.06
   0  -1   7  337.65   12.80
   0  -1   7  326.30   14.31
   0  -1   6 1035.16   26.38
   0  -1   6 1020.70   27.81
   0   1  -6 1051.06   24.87
   0   1  -6 1039.97   24.44
   0  -1   6 1034.62   27.19
   0  -1   6 1037.89   25.02
   0  -1   6 1002.06   26.16
   0  -1   6 1018.91   24.64
   0  -1   6 1056.24   24.93
   0  -1   6 1037.36   21.97
   0   1  -6 1031.39   28.12
   0  -1   5  133.66    6.94
   0  -1   5  123.15    8.56
   0  -1   5  123.47    9.05
   0   1  -5  120.91    9.05
   0  -1   5  107.47    7.24
   0   1  -5  120.02    7.76
   0  -1   5  121.36    7.71
   0   1  -5  115.32    7.59
   0  -1   5  116.78    8.43
   0  -1   5  130.30    7.89
   0  -1   4    8.91    2.73
   0  -1   4    7.56    3.98
   0   1  -4    2.34    3.03
   0  -1   4    3.87    2.95
   0   1  -4    7.43    4.84
   0  -1   4    5.73    3.92
   0   1  -4    3.61    3.00
   0  -1   4    2.93    2.85
   0  -1   4    6.04    2.71
   0  -1   4    3.59    3.59
   0  -1   3 1534.88   28.01
   0   1  -3 1469.15   25.48
   0  -1   3 1536.68   26.94
   0   1  -3 1535.07   26.06
   0  -1   3 1527.89   25.45
   0   1  -3 1518.14   26.43
   0   1  -3 1505.42   27.82
   0  -1   3 1574.64   26.03
   0  -1   3 1514.18   25.60
   0  -1   3 1555.09   26.86
   0  -1   2  867.63   16.53
   0   1  -2  818.86   15.89
   0   1  -2  840.69   16.36
   0  -1   2  840.65   17.29
   0  -1   2  852.61   16.88
   0  -1   2  821.78   15.95
   0   1  -2  817.80   16.65
   0  -1   2  836.30   16.14
   0   1  -2  840.21   17.52
   0  -1   2  842.46   16.08
   0   1  -2  832.98   15.98
   0  -1   1 9098.49   99.59
   0   1  -1 8954.13   96.79
   0  -1   1 8779.15   96.70
   0  -1   1 9126.79   99.05
   0   1  -1 9209.62   99.85
   0  -1   1 9232.80   99.73
   0  -1   1 9202.50   98.21
   0   1  -1 9145.50   99.51
   0  -1   1 9154.96   99.65
   0   1  -1 9133.92   98.95
   0  -1   1 9046.42   99.80
   0   1   0  106.49    4.30
   0  -1   0  103.02    3.21
   0   1   0   97.20    3.99
   0   1   0   92.51    4.05
   0  -1   0  108.47    4.21
   0   1   0   88.77    3.68
   0   1   0   99.27    3.62
   0  -1  -1  218.99    6.01
   0   1   1  221.14    4.95
   0  -1  -1  222.84    5.82
   0   1   1  200.74    5.52
   0   1   2    5.14    2.29
   0   1   2   -0.05    2.33
   0  -1  -2    4.21    2.35
   0   1   2    3.25    2.57
   0   1   2    2.11    1.84
   0  -1  -2    2.73    1.72
   0   1   2    1.13    2.28
   0  -1  -2    3.36    2.56
   0  -1  -3 6208.63   71.01
   0  -1  -3 5734.66   70.24
   0  -1  -3 6083.84   68.56
   0   1   3 6043.69   68.73
   0   1   3 5871.92   70.73
   0   1   3 6107.08   71.16
   0  -1  -3 5978.02   71.41
   0   1   3 6097.91   70.78
   0   1   3 6088.18   71.82
   0   1   4 3408.62   46.61
   0  -1  -4 3450.79   45.98
   0  -1  -4 3383.79   46.67
   0   1   4 3406.75   47.44
   0   1   4 3402.62   46.00
   0  -1  -4 3387.26   44.15
   0   1   4 3374.67   44.11
   0   1   4 3376.09   48.09
   0   1   5  151.35    7.99
   0   1   5  146.07    8.58
   0  -1  -5  152.04    8.26
   0   1   5  148.43    8.90
   0   1   5  146.00    7.03
   0   1   5  153.44    8.00
   0  -1  -5  148.30    7.53
   0  -1  -5  156.73    7.16
   0   1   6   33.82    5.40
   0   1   6   26.24    3.81
   0   1   6   32.22    4.74
   0   1   6   29.73    4.78
   0  -1  -6   37.57    5.11
   0  -1  -6   40.44    4.55
   0   1   6   39.11    6.14
   0   1   6   34.38    5.13
   0  -1  -6   26.32    4.28
   0  -1  -7  893.73   21.08
   0   1   7  856.39   21.24
   0  -1  -7  919.72   23.56
   0   1   7  890.26   22.56
   0  -1  -7  880.27   22.12
   0   1   7  885.98   25.47
   0   1   7  872.33   25.10
   0   1   7  867.43   23.14
   0   1   7  920.74   25.82
   0  -1  -8  333.80   14.17
   0  -1  -8  320.56   14.86
   0   1   8  357.81   14.12
   0   1   8  376.09   15.16
   0   1   8  352.49   17.24
   0  -1  -8  350.59   13.62
   0   1   8  352.79   15.37
   0   1   9   11.33    5.22
   0   1   9    9.47    7.35
   0  -1  -9    7.85    5.20
   0   1   9    9.32    5.14
   0   1   9   16.87    5.03
   0  -1  -9    9.05    4.22
   0  -1  -9    9.06    4.00
   0   1  10   70.12    7.68
   0  -1 -10   82.10    9.02
   0   1  10   66.96   10.16
   0   1  10   80.15    8.73
   0  -1 -10   90.96    8.15
   0   1  11   75.54   11.33
   0  -1 -11   67.33    7.69
   0   1  11   77.53    8.64
   0  -1 -11   61.60    8.19
   0  -1 -12   22.01    5.47
   0   1  12   26.86    8.09
   0   1  12    8.71    5.42
   0  -1 -12   15.12    6.10
   0   1  13  252.98   19.81
   0  -1 -13  271.87   15.66
   0  -1 -13  239.60   16.71
   0   1  13  239.72   16.06
   0   1  13  247.23   16.08
   0   1  14  203.72   19.39
   0   1  14  191.09   15.31
   0  -1 -14  194.79   16.17
   0   1  14  193.64   17.59
   0   1  15   91.95   13.67
   0  -2  13  178.75   17.42
   0  -2  13  178.17   17.38
   0  -2  12  443.82   25.87
   0  -2  12  493.90   28.17
   0  -2  12  465.61   23.42
   0  -2  12  502.25   27.22
   0  -2  11   14.34    5.76
   0  -2  11   16.48    8.50
   0  -2  11   14.56    7.24
   0  -2  11   14.54    7.05
   0  -2  10   48.35    9.24
   0  -2  10   33.18    7.31
   0  -2  10   37.38    8.47
   0  -2  10   30.62    7.74
   0  -2  10   38.32    5.56
   0  -2   9  940.00   31.25
   0  -2   9  877.31   30.96
   0  -2   9  893.48   24.19
   0  -2   9  893.23   28.74
   0   2  -9  933.83   29.30
   0  -2   9  841.01   31.56
   0  -2   8 1024.90   30.89
   0  -2   8 1101.83   25.71
   0   2  -8 1043.75   29.99
   0   2  -8 1037.04   34.13
   0  -2   8  994.27   29.39
   0  -2   8 1070.49   32.44
   0  -2   8  991.92   32.60
   0  -2   7  765.90   24.04
   0  -2   7  770.41   25.02
   0  -2   7  739.29   23.56
   0  -2   7  765.97   20.09
   0  -2   7  767.26   26.45
   0   2  -7  753.12   24.07
   0   2  -7  762.41   27.22
   0  -2   7  746.05   23.96
   0  -2   7  752.33   25.60
   0  -2   6  304.76   14.06
   0  -2   6  307.10   11.74
   0  -2   6  308.43   14.84
   0   2  -6  328.76   14.83
   0  -2   6  318.30   15.74
   0  -2   6  304.80   15.83
   0   2  -6  354.19   17.10
   0  -2   6  286.05   14.01
   0  -2   6  297.39   14.12
   0   2  -5  723.74   21.21
   0  -2   5  756.74   21.08
   0  -2   5  709.23   22.05
   0  -2   5  738.12   22.37
   0  -2   5  752.28   21.67
   0  -2   5  703.41   20.47
   0  -2   5  703.97   23.16
   0  -2   5  730.85   17.55
   0  -2   5  701.14   20.88
   0   2  -5  724.90   23.23
   0  -2   4   20.40    5.47
   0  -2   4   37.31    6.03
   0   2  -4   31.11    4.70
   0  -2   4   23.99    4.72
   0  -2   4   18.79    4.59
   0  -2   4   15.49    4.05
   0   2  -4   12.34    4.67
   0  -2   4   12.94    4.16
   0  -2   4   26.92    4.83
   0   2  -4   22.57    4.78
   0  -2   3   14.73    3.89
   0  -2   3   19.54    4.20
   0   2  -3   23.78    4.35
   0   2  -3   24.09    5.48
   0  -2   3   19.10    3.67
   0  -2   3   21.37    3.94
   0   2  -3   19.37    4.05
   0  -2   3   16.54    3.97
   0  -2   3   12.36    4.17
   0  -2   3   23.21    5.12
   0   2  -3   26.65    4.64
   0  -2   2  357.30   11.46
   0  -2   2  339.43   12.38
   0  -2   2  338.66   11.75
   0   2  -2  344.43   11.66
   0  -2   2  328.68   12.41
   0   2  -2  344.15   12.36
   0   2  -2  363.50   10.40
   0   2  -2  343.95   12.08
   0  -2   2  339.68   10.12
   0  -2   2  343.58   12.29
   0  -2   2  337.75   12.10
   0   2  -1  436.38   13.15
   0  -2   1  458.59   13.51
   0  -2   1  418.76   12.60
   0  -2   1  453.55    9.72
   0   2  -1  475.30    9.87
   0  -2   1  452.01   13.47
   0   2  -1  436.76   11.09
   0  -2   1  430.62   12.92
   0  -2   1  455.83   11.47
   0   2  -1  436.70   13.14
   0  -2   1  439.01   13.00
   0   2  -1  432.32   12.94
   0  -2   1  443.39   10.00
   0   2  -1  422.39   12.64
   0   2   0 1011.17   15.44
   0  -2   0  980.33   20.04
   0   2   0  990.25   19.39
   0   2   0 1006.69   20.18
   0   2   0  991.83   19.72
   0   2   0  977.25   16.60
   0  -2   0  999.73   15.65
   0  -2   0 1011.43   18.43
   0  -2   0 1009.20   13.23
   0   2   0  961.69   19.96
   0   2   0 1000.44   13.19
   0  -2  -1  366.62   11.31
   0   2   1  375.97   11.36
   0   2   1  368.95   10.76
   0  -2  -1  373.23   10.85
   0  -2  -1  376.47    8.60
   0   2   1  376.84    8.79
   0   2   2  258.61    8.22
   0  -2  -2  267.81    9.95
   0   2   2  271.22    9.78
   0   2   2  266.08    6.12
   0   2   2  268.97    9.68
   0  -2  -2  266.34    8.01
   0  -2  -2  273.16    9.58
   0  -2  -3 2838.38   42.41
   0  -2  -3 2816.25   39.79
   0   2   3 2905.09   40.31
   0  -2  -3 2873.74   41.86
   0  -2  -3 2869.58   41.73
   0   2   3 2879.59   37.23
   0   2   3 2834.55   41.51
   0   2   3 2898.54   41.96
   0   2   4  300.69   11.50
   0  -2  -4  284.85   11.03
   0   2   4  284.06   11.31
   0   2   4  284.00    9.83
   0  -2  -4  289.21   11.47
   0   2   4  292.43   11.14
   0   2   4  287.33   10.99
   0  -2  -4  292.30   10.73
   0  -2  -4  283.58   10.31
   0   2   5 1163.43   24.74
   0   2   5 1249.18   26.37
   0   2   5 1213.78   25.49
   0  -2  -5 1242.45   26.00
   0  -2  -5 1200.10   25.85
   0  -2  -5 1212.74   23.59
   0  -2  -5 1161.90   25.65
   0   2   5 1222.04   26.14
   0   2   5 1194.67   25.46
   0   2   6 4325.82   63.40
   0  -2  -6 4350.22   59.45
   0   2   6 4383.76   63.19
   0   2   6 4373.39   62.43
   0  -2  -6 4300.52   62.43
   0  -2  -6 4359.61   63.23
   0   2   6 4330.01   64.74
   0   2   6 4354.54   62.89
   0  -2  -7 2366.55   39.01
   0   2   7 2306.89   42.04
   0   2   7 2322.23   44.76
   0   2   7 2292.68   43.43
   0   2   7 2271.96   42.95
   0  -2  -7 2271.81   41.60
   0  -2  -7 2253.73   42.16
   0   2   8  455.18   18.31
   0  -2  -8  473.54   15.87
   0  -2  -8  475.58   18.30
   0   2   8  459.87   19.92
   0  -2  -8  456.18   17.50
   0   2   8  459.60   17.77
   0   2   8  483.00   16.37
   0  -2  -9   49.90    7.33
   0  -2  -9   55.67    6.80
   0   2   9   53.98    6.75
   0   2   9   41.58    7.22
   0   2   9   49.79    8.15
   0  -2  -9   54.46    7.32
   0  -2 -10   85.04    9.23
   0   2  10   85.52    9.32
   0  -2 -10   83.17    7.80
   0   2  10   73.34   10.46
   0   2  10   67.96    7.86
   0   2  11   98.64   10.45
   0   2  11   82.13    8.54
   0  -2 -11   94.17   10.31
   0   2  11   73.99   10.48
   0  -2 -11  101.64    8.73
   0   2  12   48.96    8.91
   0  -2 -12   33.69    6.17
   0   2  12   45.03   10.20
   0  -2 -12   49.76    8.80
   0  -2 -13   38.96    8.70
   0  -2 -13   37.98    6.94
   0   2  13   21.26    6.62
   0   2  13   59.17   11.56
   0  -2 -14   -4.72    6.59
   0   2  14  -13.56    9.56
   0  -2 -15   11.25    7.89
   0  -3  12   19.97    7.75
   0  -3  12   19.57    8.63
   0  -3  11    8.59    7.20
   0  -3  11    2.92    5.62
   0  -3  11    5.33    7.91
   0  -3  11    3.16    5.78
   0  -3  10   22.20    8.21
   0  -3  10   23.62    6.98
   0  -3  10   46.48   10.18
   0  -3  10   47.65    8.75
   0  -3   9  499.63   23.08
   0  -3   9  498.19   23.10
   0  -3   9  488.26   25.07
   0  -3   9  506.96   18.15
   0   3  -9  482.85   25.88
   0  -3   9  486.78   24.59
   0  -3   8   71.02   10.26
   0  -3   8   76.39    7.15
   0  -3   8   83.37   10.68
   0   3  -8   79.45   11.54
   0  -3   8   83.80    9.74
   0  -3   8   58.81    8.36
   0  -3   7   87.19    9.32
   0  -3   7   80.50   10.38
   0  -3   7   95.36   10.82
   0   3  -7   74.80   10.62
   0  -3   7   80.15    9.34
   0  -3   7  100.01    7.83
   0   3  -6  429.25   20.40
   0  -3   6  418.43   18.46
   0  -3   6  398.73   19.20
   0  -3   6  398.82   18.91
   0  -3   6  444.85   15.24
   0  -3   5  610.72   20.86
   0  -3   5  624.88   20.40
   0   3  -5  643.62   23.62
   0  -3   5  636.26   23.13
   0  -3   5  590.00   20.92
   0   3  -5  619.62   21.05
   0  -3   5  620.01   21.76
   0   3  -4  207.99   13.00
   0  -3   4  224.18   13.15
   0  -3   4  230.30   11.34
   0  -3   4  202.72   11.53
   0   3  -4  226.71   12.77
   0   3  -4  222.47   12.06
   0  -3   4  206.51   12.77
   0  -3   4  216.48   12.17
   0  -3   4  222.10   12.38
   0  -3   4  221.41   12.01
   0  -3   4  226.16   13.37
   0   3  -3  184.82   11.45
   0  -3   3  169.68   10.42
   0  -3   3  173.54    8.89
   0  -3   3  171.31   10.81
   0  -3   3  178.58   10.25
   0   3  -3  166.60    9.93
   0  -3   3  169.29   10.86
   0  -3   3  179.42   11.43
   0  -3   3  175.02   10.37
   0   3  -3  192.01   11.01
   0  -3   3  183.37   10.10
   0  -3   2 1145.80   27.13
   0  -3   2 1115.87   24.22
   0  -3   2 1195.60   28.10
   0  -3   2 1195.07   27.05
   0   3  -2 1145.70   27.28
   0  -3   2 1132.09   27.54
   0  -3   2 1112.52   26.72
   0   3  -2 1197.09   27.65
   0  -3   2 1171.60   21.81
   0  -3   2 1171.92   21.93
   0  -3   2 1117.14   23.12
   0   3  -2 1152.34   26.40
   0  -3   1  418.74   15.72
   0   3  -1  408.75   14.70
   0  -3   1  400.91   15.38
   0  -3   1  405.80   10.91
   0   3  -1  429.31   14.78
   0   3  -1  430.96   15.25
   0  -3   1  425.43   13.07
   0  -3   1  404.03   12.41
   0   3  -1  424.36   12.52
   0  -3   1  425.77   10.16
   0   3  -1  421.55   14.96
   0  -3   1  412.82   14.96
   0  -3   1  451.27   15.42
   0  -3   0   50.48    3.84
   0   3   0   53.01    6.14
   0   3   0   45.67    5.64
   0  -3   0   49.87    2.69
   0   3   0   52.56    5.46
   0   3   0   42.41    5.91
   0   3   0   47.80    4.13
   0  -3   0   50.61    6.00
   0  -3   0   41.80    4.59
   0   3   1  223.76   10.49
   0  -3  -1  250.71   10.29
   0   3   1  233.62    8.06
   0   3   1  217.52    7.47
   0   3   1  252.31   10.34
   0  -3  -1  240.80   11.04
   0  -3  -1  226.11    7.59
   0   3   1  233.28   11.08
   0   3   1  240.97   11.37
   0  -3  -2  777.20   19.38
   0   3   2  782.24   16.19
   0  -3  -2  770.85   19.97
   0   3   2  724.53   18.92
   0   3   2  780.24   20.01
   0  -3  -2  787.57   15.98
   0  -3  -3   96.03    6.01
   0   3   3  111.42    6.58
   0   3   3  115.47    8.28
   0   3   3  106.58    7.53
   0  -3  -3  105.05    7.88
   0   3   3  112.24    4.64
   0  -3  -3  105.73    7.38
   0   3   4  524.01   12.84
   0  -3  -4  554.76   15.46
   0   3   4  506.38   16.63
   0  -3  -4  512.75   17.23
   0   3   4  503.41   15.12
   0  -3  -4  525.78   16.81
   0  -3  -4  530.87   17.27
   0   3   4  550.04   17.35
   0  -3  -5  950.92   24.95
   0  -3  -5  924.64   24.10
   0   3   5  908.88   24.05
   0   3   5  961.61   23.24
   0   3   5  911.31   20.27
   0   3   5  967.99   24.25
   0  -3  -5  965.87   22.88
   0   3   6 2361.03   40.55
   0   3   6 2454.93   44.65
   0  -3  -6 2398.19   41.27
   0   3   6 2401.42   43.69
   0  -3  -6 2393.62   44.16
   0  -3  -6 2380.63   44.14
   0   3   6 2367.81   43.16
   0  -3  -6 2348.80   42.67
   0   3   7  885.08   23.92
   0  -3  -7  875.44   25.37
   0   3   7  884.61   25.10
   0   3   7  901.75   26.42
   0  -3  -7  892.50   25.49
   0   3   7  863.35   25.32
   0   3   7  899.69   26.10
   0  -3  -7  895.75   23.09
   0  -3  -8    7.36    5.99
   0   3   8   -2.10    5.12
   0   3   8   -2.11    4.90
   0   3   8   -0.23    4.39
   0   3   8   -5.02    6.08
   0   3   8   -0.32    5.22
   0  -3  -8    2.98    4.26
   0   3   9   60.16    8.94
   0   3   9   57.79    8.47
   0  -3  -9   84.52    9.80
   0  -3  -9   64.03    7.12
   0   3  10  387.32   20.47
   0   3  10  384.88   18.99
   0  -3 -10  343.80   15.43
   0  -3 -10  396.17   19.14
   0  -3 -11  553.81   23.84
   0   3  11  609.80   27.09
   0  -3 -11  574.86   20.63
   0   3  11  528.52   23.23
   0   3  12  217.49   15.68
   0   3  12  219.41   17.74
   0  -3 -12  209.52   15.59
   0  -3 -12  218.69   13.33
   0   3  13   -1.86    6.35
   0   3  13    6.58    5.96
   0  -3 -13   -4.30    3.95
   0  -3 -13   -0.82    6.26
   0   3  14   10.32    6.73
   0  -3 -14    8.42    7.76
   0   3  14   11.14    9.12
   0   3  15    5.73    7.13
   0  -3 -15   13.49    7.86
   0   4 -10  101.57   14.67
   0  -4  10  114.15   14.82
   0  -4  10  113.21   13.11
   0  -4  10  105.06   12.73
   0  -4  10  111.49   14.70
   0  -4   9    5.47    5.96
   0  -4   9    1.42    5.61
   0  -4   9    8.44    9.83
   0  -4   9   21.14    7.75
   0   4  -9    2.59    6.39
   0   4  -8  139.91   14.79
   0  -4   8  142.62   14.69
   0  -4   8  131.59   12.02
   0  -4   8  117.18   12.89
   0  -4   8  121.55   12.32
   0   4  -7   45.93    9.41
   0  -4   7   45.55    9.71
   0  -4   7   34.35    7.32
   0  -4   7   39.33    8.51
   0  -4   7   45.53    7.50
   0  -4   7   31.74    5.38
   0  -4   6  401.49   20.03
   0  -4   6  381.04   20.65
   0  -4   6  413.20   20.12
   0   4  -6  425.74   21.90
   0  -4   5  960.99   26.98
   0  -4   5  916.94   29.33
   0  -4   5  942.87   31.28
   0   4  -5  964.74   31.64
   0  -4   5  950.03   29.00
   0  -4   4  176.70   10.37
   0  -4   4  150.70    9.50
   0  -4   4  169.18   13.23
   0  -4   4  150.96   11.84
   0   4  -4  161.34   12.82
   0  -4   4  164.83   11.57
   0  -4   4  169.69    9.87
   0  -4   3  393.14   17.23
   0  -4   3  391.56   13.85
   0  -4   3  404.12   13.91
   0  -4   3  387.71   18.89
   0   4  -3  398.87   18.12
   0  -4   3  369.97   14.39
   0  -4   3  408.51   16.43
   0  -4   3  412.44   18.02
   0   4  -2 1427.34   33.43
   0  -4   2 1401.57   29.61
   0  -4   2 1358.51   26.06
   0  -4   2 1442.20   35.08
   0   4  -2 1422.19   33.88
   0  -4   2 1387.84   29.65
   0  -4   2 1403.96   25.46
   0  -4   2 1353.84   33.35
   0  -4   1 1059.37   18.38
   0   4  -1 1009.69   27.01
   0  -4   1 1031.10   24.82
   0   4  -1 1084.52   27.89
   0  -4   1 1033.73   23.21
   0  -4   1  995.46   27.52
   0   4  -1 1019.16   22.83
   0   4  -1 1035.45   28.27
   0  -4   1  982.61   20.41
   0   4  -1 1068.88   28.38
   0  -4   1 1024.79   27.87
   0   4   0 2070.47   33.85
   0  -4   0 2094.11   31.57
   0   4   0 2107.25   40.82
   0   4   0 1987.29   41.09
   0   4   0 2039.79   41.26
   0  -4   0 2095.44   38.16
   0  -4   0 2037.40   40.76
   0   4   0 2035.84   39.55
   0   4   1 1530.30   34.15
   0   4   1 1571.03   33.74
   0  -4  -1 1583.14   34.36
   0   4   1 1539.92   32.16
   0   4   1 1589.45   27.21
   0  -4  -1 1472.97   25.49
   0   4   1 1539.38   25.63
   0   4   1 1522.09   34.27
   0  -4  -1 1515.44   31.90
   0  -4  -2   22.67    3.54
   0   4   2   27.16    3.99
   0  -4  -2   18.19    5.40
   0   4   2   21.01    6.68
   0   4   2   19.12    5.61
   0   4   2   27.36    5.10
   0  -4  -2   18.86    4.62
   0   4   2   18.52    4.84
   0  -4  -3 1074.71   22.19
   0   4   3 1062.40   27.42
   0   4   3 1105.37   27.14
   0  -4  -3 1034.32   26.57
   0  -4  -3 1081.98   27.74
   0   4   3 1098.54   22.94
   0   4   4   79.25    4.48
   0  -4  -4   78.26    8.45
   0   4   4   63.93    6.35
   0  -4  -4   78.12    6.31
   0   4   4   68.84    7.22
   0   4   4   62.97    7.78
   0  -4  -4   82.75    7.74
   0  -4  -4   70.57    8.10
   0   4   5 1390.23   24.82
   0  -4  -5 1345.05   32.39
   0  -4  -5 1363.23   33.52
   0   4   5 1394.14   32.88
   0  -4  -5 1350.59   29.11
   0   4   5 1369.66   29.73
   0  -4  -5 1402.21   33.07
   0   4   5 1355.73   32.45
   0   4   6   28.72    6.90
   0  -4  -6   11.26    5.74
   0   4   6   23.58    5.68
   0  -4  -6   24.48    4.90
   0   4   6   27.20    6.93
   0  -4  -6   16.94    5.60
   0   4   6   19.36    3.91
   0   4   7  271.39   14.64
   0  -4  -7  287.62   14.47
   0  -4  -7  288.83   14.45
   0  -4  -7  297.25   16.32
   0   4   7  260.84   12.31
   0   4   7  250.37   14.73
   0   4   7  287.85   15.01
   0   4   8  287.10   16.01
   0   4   8  309.37   16.93
   0   4   8  299.02   14.46
   0  -4  -8  289.77   16.54
   0  -4  -8  313.33   14.86
   0  -4  -9  853.70   25.72
   0   4   9  856.37   29.10
   0   4   9  876.24   29.03
   0  -4  -9  814.94   28.45
   0   4  10 1788.02   45.85
   0   4  10 1737.11   44.30
   0  -4 -10 1736.38   44.12
   0  -4 -10 1747.87   39.56
   0  -4 -11  319.24   19.05
   0   4  11  331.07   20.42
   0   4  11  315.19   18.82
   0  -4 -11  294.13   15.60
   0  -4 -12   86.24   10.97
   0   4  12   58.77   10.10
   0   4  12   89.91   11.54
   0  -4 -12   72.54    8.48
   0  -4 -13   54.14    7.78
   0   4  13   64.71   12.56
   0  -4 -13   61.40   10.79
   0   4  13   63.71   10.31
   0   4  14  354.56   24.32
   0  -4 -14  324.64   21.96
   0   4  14  371.03   22.83
   0   4  15   82.64   12.37
   0  -4 -15   87.97   12.11
   0  -5   9   82.38   12.03
   0  -5   9   85.44   13.00
   0  -5   9   90.25   13.81
   0  -5   8    9.45    8.40
   0  -5   8   -2.67    8.58
   0   5  -8   24.49    9.05
   0  -5   8   14.47    7.31
   0  -5   7  599.53   27.25
   0  -5   7  575.36   22.91
   0  -5   7  575.91   27.03
   0  -5   7  554.05   28.37
   0   5  -7  570.78   28.48
   0  -5   6  471.60   25.19
   0  -5   6  463.20   23.45
   0  -5   6  464.14   22.63
   0   5  -6  446.99   24.28
   0  -5   5   86.25   11.71
   0  -5   5   92.93   10.06
   0  -5   5   73.44   10.21
   0   5  -5   99.68   12.07
   0  -5   4   71.99    9.72
   0   5  -4   87.79   10.62
   0  -5   4   91.40   11.90
   0  -5   4   77.42    7.89
   0  -5   4   60.75    6.66
   0  -5   4   62.31    6.83
   0  -5   4   78.77    9.48
   0  -5   3  544.86   24.26
   0  -5   3  532.47   16.55
   0  -5   3  522.89   19.23
   0  -5   3  470.08   21.93
   0   5  -3  540.90   23.37
   0  -5   3  525.33   16.94
   0  -5   3  523.22   19.85
   0  -5   2  640.49   16.10
   0  -5   2  630.21   21.20
   0  -5   2  629.81   17.43
   0  -5   2  614.34   20.61
   0   5  -2  594.71   23.65
   0  -5   2  622.32   24.44
   0  -5   1 1561.92   38.98
   0  -5   1 1535.84   34.97
   0  -5   1 1545.19   28.45
   0  -5   1 1547.33   24.46
   0   5  -1 1569.82   38.14
   0   5   0  120.80    7.79
   0  -5   0  125.15    7.23
   0  -5   0  111.87    9.59
   0   5   0  129.13   11.02
   0   5   0  148.58   12.62
   0  -5   0  109.93   10.34
   0   5   1   27.42    4.46
   0  -5  -1   31.80    4.25
   0  -5  -1   32.59    7.86
   0  -5  -1   27.64    6.08
   0   5   1   33.10    7.92
   0   5   1   35.03    7.42
   0   5   1   22.67    3.76
   0   5   2   89.33    6.50
   0  -5  -2   89.32    9.47
   0  -5  -2   86.39    6.22
   0  -5  -2  106.94    9.44
   0   5   2   91.23    6.66
   0   5   2   81.32    9.50
   0   5   3  624.88   22.00
   0  -5  -3  667.19   17.55
   0   5   3  661.64   17.96
   0   5   3  656.14   24.02
   0  -5  -3  676.74   23.89
   0  -5  -4 1642.67   39.15
   0   5   4 1613.55   37.71
   0  -5  -4 1570.97   31.22
   0   5   4 1596.95   31.95
   0   5   5  106.99    5.59
   0  -5  -5   83.97    7.26
   0  -5  -5  117.10   11.67
   0   5   5  105.47    8.58
   0   5   5   90.46   10.04
   0  -5  -5   92.99    9.87
   0   5   6    1.06    2.75
   0  -5  -6   -7.86    6.79
   0   5   6    1.24    5.03
   0   5   6   -6.88    6.80
   0  -5  -6   -0.58    6.76
   0  -5  -6    1.91    4.10
   0   5   7  633.46   18.59
   0   5   7  654.15   25.45
   0  -5  -7  684.72   26.41
   0   5   7  631.97   22.84
   0   5   8 1931.54   46.70
   0  -5  -8 1933.15   43.57
   0  -5  -8 1843.44   46.03
   0   5   8 1889.45   43.78
   0   5   8 1885.72   38.11
   0  -5  -9  177.76   14.54
   0   5   9  199.32   14.86
   0  -5  -9  189.45   13.27
   0   5   9  182.49   15.14
   0   5  10   94.09   11.64
   0  -5 -10   68.14   10.13
   0  -5 -10   83.15    9.39
   0   5  10   65.70   10.27
   0  -5 -11   10.08    6.71
   0   5  11   12.20    6.56
   0  -5 -11   10.56    5.41
   0   5  11   18.41    7.75
   0   5  12  287.72   20.48
   0   5  12  274.63   19.40
   0  -5 -12  302.89   20.57
   0  -5 -12  280.60   16.63
   0   5  13  329.27   23.17
   0   5  13  355.59   22.57
   0  -5 -13  307.43   21.87
   0  -5 -13  351.03   18.61
   0   5  14  206.55   18.33
   0  -5 -14  210.89   18.70
   0   5  14  182.76   18.75
   0   5  15   91.57   13.98
   0  -5 -15   97.58   13.64
   0  -6   8  539.11   28.58
   0  -6   8  559.59   30.00
   0   6  -7  187.36   18.13
   0  -6   7  179.81   19.09
   0  -6   7  166.11   16.32
   0  -6   7  166.57   16.55
   0  -6   6   48.28    9.77
   0   6  -6   59.35   10.73
   0  -6   6   42.91    9.51
   0  -6   6   43.90   11.27
   0  -6   5  113.29   14.08
   0   6  -5   96.84   12.52
   0  -6   5  105.21   11.82
   0  -6   5  140.43   14.48
   0  -6   4   97.11   11.89
   0   6  -4   89.24   11.50
   0  -6   4   90.13   10.45
   0  -6   3  107.77   12.35
   0   6  -3  136.02   13.52
   0   6  -2  230.00   16.25
   0  -6   2  221.78   16.62
   0  -6   1  386.81   13.38
   0  -6   1  372.92   20.46
   0   6  -1  364.93   19.70
   0   6   0  270.03   17.53
   0  -6   0  301.28   11.57
   0   6   0  271.37   12.66
   0  -6   0  286.02   18.00
   0   6   0  275.99   16.61
   0  -6  -1  288.60   11.31
   0   6   1  301.53   16.91
   0   6   1  288.91   18.09
   0   6   1  284.02   12.43
   0  -6  -1  290.99   17.92
   0  -6  -2  835.30   30.05
   0   6   2  867.09   28.37
   0   6   2  824.63   21.57
   0   6   2  836.49   30.26
   0   6   2  822.98   19.98
   0  -6  -2  809.50   19.90
   0   6   3  481.15   16.09
   0   6   3  496.50   23.20
   0  -6  -3  492.11   22.74
   0   6   3  496.87   16.01
   0  -6  -3  494.02   15.78
   0   6   4 1002.07   31.35
   0  -6  -4 1055.58   33.85
   0  -6  -4 1002.50   24.56
   0   6   4  947.83   32.71
   0   6   4 1009.93   25.18
   0   6   5  167.65   11.04
   0   6   5  166.05   13.18
   0  -6  -5  177.34   14.44
   0  -6  -5  175.51   10.58
   0  -6  -5  206.49   15.97
   0   6   6  236.33   13.53
   0  -6  -6  219.49   16.43
   0   6   6  232.92   16.08
   0  -6  -6  232.80   16.74
   0   6   6  210.99    7.82
   0  -6  -6  212.88   12.37
   0  -6  -7 1044.53   34.95
   0   6   7  995.32   22.03
   0   6   7  999.93   29.74
   0   6   7  995.62   33.60
   0  -6  -7  989.81   34.24
   0  -6  -8   32.17    8.50
   0   6   8   24.11    4.61
   0   6   8   22.88    6.92
   0   6   8   26.77    7.46
   0   6   9   17.92    5.15
   0  -6  -9   15.86    6.19
   0   6   9   19.69    8.27
   0  -6  -9   11.18    6.04
   0   6   9   11.67    6.08
   0  -6 -10   90.94   11.86
   0   6  10  102.76   12.72
   0  -6 -10   99.82   11.35
   0   6  10   94.81   12.46
   0   6  11   98.20   12.29
   0  -6 -11   97.82   12.98
   0   6  11  107.11   13.77
   0  -6 -11  101.47   11.48
   0  -6 -12   58.39    9.15
   0  -6 -12   39.90    9.70
   0   6  12   66.63   11.83
   0   6  12   58.22   11.31
   0   6  13   71.59   12.06
   0  -6 -13   90.41   13.04
   0   6  13   70.65   12.32
   0  -6 -14   75.62   12.09
   0  -7   6   40.66   11.99
   0  -7   5   41.50   11.20
   0   7  -5   33.14    9.32
   0   7  -4  505.30   27.52
   0  -7   4  491.33   27.86
   0   7  -3   -1.97    6.47
   0  -7   3    4.30    6.98
   0  -7   2   26.65    9.25
   0   7  -2   16.53    7.07
   0  -7   1   84.26   11.84
   0   7  -1  108.72   12.73
   0  -7   0  148.01   15.02
   0   7   0  145.47   13.51
   0   7   1  131.83   13.84
   0  -7  -1  115.72   13.66
   0   7   1   92.06   11.34
   0   7   2   -0.69    6.52
   0   7   2   10.85    6.94
   0  -7  -2   13.62    6.88
   0  -7  -3  230.71   17.69
   0   7   3  224.03   17.47
   0   7   3  235.32   11.22
   0   7   3  262.79   16.93
   0   7   4  101.14   13.50
   0  -7  -4   55.36   10.24
   0   7   4   78.71    7.62
   0   7   5  659.32   29.13
   0  -7  -5  638.29   28.76
   0   7   5  631.82   21.25
   0  -7  -5  638.61   29.56
   0   7   5  660.42   27.42
   0   7   6  144.14   11.24
   0  -7  -6  151.91   15.54
   0  -7  -6  155.92   15.40
   0   7   6  132.09   13.58
   0  -7  -7  406.51   23.57
   0  -7  -7  455.34   25.39
   0   7   7  392.52   18.89
   0   7   7  413.65   22.70
   0   7   8    9.99    6.63
   0  -7  -8   18.73    9.43
   0   7   8   16.45    8.15
   0   7   9   14.90    6.35
   0  -7  -9   13.67    7.86
   0  -7  -9   11.80    6.95
   0   7   9    3.38    5.66
   0   7  10   83.20   11.49
   0  -7 -10   87.89   12.04
   0   7  10   86.41   12.54
   0  -7 -10   94.84   13.31
   0  -7 -11  298.76   22.19
   0   7  11  303.94   21.60
   0  -7 -11  312.24   20.26
   0   7  11  334.04   21.78
   0  -7 -12   25.13    7.79
   0  -7 -12   49.23   10.29
   0   7  12   34.17   10.12
   0   7  12   40.98   10.26
   0   7  13   57.51   11.95
   0   8  -3   89.46   12.96
   0   8  -2   11.33    7.66
   0  -8   2   22.49    9.04
   0   8  -1  371.70   23.71
   0  -8   1  434.13   26.71
   0   8   0   99.74   12.65
   0  -8   0   85.63   12.76
   0   8   1   -0.12    7.22
   0  -8  -1   -4.60    9.32
   0   8   1   10.07    7.43
   0   8   2   41.48    8.85
   0   8   2   38.22   10.20
   0  -8  -2   30.46    9.98
   0   8   3  -13.56    8.26
   0   8   3   14.15    7.46
   0  -8  -3    2.73    8.78
   0   8   4  153.86   16.20
   0  -8  -4  158.22   16.29
   0   8   4  157.99   14.75
   0  -8  -5   88.76   13.09
   0   8   5   73.74   12.43
   0  -8  -5   78.19   13.23
   0   8   5   99.58   12.50
   0  -8  -6  141.32   16.06
   0   8   6  148.23   16.40
   0   8   6  118.36   10.14
   0  -8  -6  105.80   14.18
   0   8   7  -13.05    8.72
   0  -8  -7    3.92    8.37
   0   8   7    9.66    5.08
   0   8   7   -3.18    9.28
   0  -8  -7  -11.50    9.59
   0   8   8   24.87    7.17
   0  -8  -8   35.34    9.54
   0  -8  -8   42.45   10.26
   0   8   8   49.87   10.83
   0   8   9  391.21   21.40
   0   8   9  374.16   24.03
   0  -8  -9  345.33   24.29
   0   8  10  662.88   29.35
   0   8  10  670.31   33.07
   0  -8 -10  642.75   31.46
   0  -8 -10  692.32   34.82
   0  -8 -11  300.40   21.84
   0   8  11  353.94   22.36
   0  -8 -12   14.06    8.09
   0   8  12   11.89    8.92
   0   9   0    3.16    7.37
   0   9   1   -5.83    7.97
   0   9   2    3.66    6.98
   0   9   3  424.40   25.34
   0   9   4   92.41   13.21
   0   9   5    0.78    7.42
   0   9   6    7.99    7.63
   0  -9 -10  119.59   15.33
  -1   9   5  214.77   20.39
  -1   8  11  151.28   15.88
   1  -8 -10   90.42   13.09
  -1   8  10   86.24   13.28
  -1   8   9   16.44    8.05
   1  -8  -9   16.23    8.80
   1  -8  -8   21.76    9.00
  -1   8   8   23.87    7.46
   1  -8  -8   28.53   10.01
  -1   8   7  155.89   17.62
   1  -8  -7  128.64   15.65
  -1   8   7  154.29   13.39
   1  -8  -7  150.51   16.94
   1  -8  -6  161.92   17.36
   1  -8  -6  184.73   18.55
  -1   8   6  151.08   17.32
  -1   8   5   -9.08    7.89
   1  -8  -5    2.98    7.07
  -1   8   5    7.41    9.09
  -1   8   4    8.56    8.16
   1  -8  -4   16.13    9.70
  -1   8   4  -10.72    9.13
  -1   8   3   99.23   13.95
   1  -8  -3   92.74   13.72
  -1   8   3   74.77   12.61
   1  -8  -2  225.03   20.54
  -1   8   2  194.10   18.29
  -1   8   2  199.10   18.69
  -1   8   1  193.37   18.06
   1  -8  -1  244.08   21.48
  -1   8   1  225.11   20.12
  -1   8   0    0.55    8.02
  -1   8  -1   16.18    7.81
   1  -7 -12   12.96    9.29
  -1   7  12   13.48    9.66
   1  -7 -11   39.67    9.54
  -1   7  11   43.80   10.91
   1  -7 -11   47.92    9.41
  -1   7  11   36.21    9.39
  -1   7  10   36.35   10.30
   1  -7 -10   24.03    8.34
  -1   7  10   28.47    9.30
   1  -7 -10   21.88    7.55
   1  -7  -9  151.69   16.56
  -1   7   9  168.34   16.27
  -1   7   9  147.77   14.22
   1  -7  -8  420.24   25.49
  -1   7   8  436.10   22.45
   1  -7  -8  419.16   24.98
  -1   7   8  393.28   24.05
   1  -7  -7  229.81   18.82
   1  -7  -7  203.87   18.37
  -1   7   7  210.72   15.33
   1  -7  -6   69.59   10.71
   1  -7  -6   79.47   12.93
  -1   7   6   78.93    9.83
  -1   7   5   12.78    6.01
  -1   7   5    6.08    9.02
   1  -7  -5   18.83    9.06
  -1   7   4  384.28   23.97
  -1   7   4  399.61   17.97
  -1   7   4  368.08   22.23
   1  -7  -4  399.87   23.95
  -1   7   3  194.92   16.35
   1  -7  -3  199.93   17.30
  -1   7   3  185.22   11.79
  -1   7   3  175.13   16.50
  -1   7   2  174.76   16.90
   1  -7  -2  220.64   18.48
  -1   7   2  170.95   15.87
  -1   7   1   -1.16    7.01
   1  -7  -1    1.56    6.76
  -1   7   1    0.93    6.63
   1  -7   0   25.91    9.31
  -1   7   0   12.30    7.58
  -1   7   0   29.30    8.60
  -1   7  -1   38.02    9.67
   1  -7   1   27.20    8.35
  -1   7  -2  233.53   19.17
   1  -7   2  262.03   20.73
  -1   7  -3  106.14   13.91
   1  -7   3   94.21   14.13
   1  -6 -14  177.43   17.32
  -1   6  13    2.24    6.90
   1  -6 -13   16.96    8.79
  -1   6  13   -9.63   10.58
  -1   6  12   97.06   14.56
   1  -6 -12  105.52   14.25
  -1   6  12  114.22   14.11
  -1   6  11   13.06    7.87
  -1   6  11    9.44    9.31
   1  -6 -11   12.99    5.89
   1  -6 -11   12.55    8.37
  -1   6  10  201.37   16.82
   1  -6 -10  177.56   16.41
  -1   6  10  164.22   15.31
   1  -6 -10  165.04   13.72
  -1   6   9  657.79   29.13
   1  -6  -9  683.13   30.55
  -1   6   9  633.39   27.59
  -1   6   8  193.30   14.72
   1  -6  -8  179.97   15.60
   1  -6  -8  209.45   17.04
  -1   6   8  205.46   16.52
  -1   6   7   29.75    7.94
   1  -6  -7   32.05    8.24
   1  -6  -7   12.67    7.33
  -1   6   7   31.42    7.85
   1  -6  -6   27.22    8.34
  -1   6   6   12.06    5.72
   1  -6  -6   28.13    8.34
  -1   6   6   20.03    7.12
  -1   6   5  231.90    9.82
  -1   6   5  225.92   13.98
   1  -6  -5  224.11   16.85
  -1   6   4  544.43   14.16
  -1   6   4  582.11   20.98
   1  -6  -4  533.36   19.89
  -1   6   4  561.09   26.11
   1  -6  -4  597.05   26.30
  -1   6   3  415.79   22.54
  -1   6   3  396.95   16.55
   1  -6  -3  383.48   16.26
  -1   6   3  404.89   11.53
   1  -6  -3  409.03   21.68
   1  -6  -2   18.27    8.21
  -1   6   2   31.61    8.41
  -1   6   2   18.34    4.90
   1  -6  -2   17.32    5.08
  -1   6   2   28.84    7.69
   1  -6  -1  197.85   16.13
  -1   6   1  211.95   16.27
   1  -6  -1  176.85   11.19
  -1   6   1  188.90   15.05
  -1   6   0  282.95   18.47
   1  -6   0  252.10   18.28
  -1   6   0  274.64   18.65
  -1   6  -1   79.53   10.81
   1  -6   1   66.50   11.22
  -1   6  -2  471.09   24.90
   1  -6   2  518.31   26.24
   1  -6   3    5.13    6.75
  -1   6  -3   -2.97    7.03
   1  -6   4    8.72    7.49
  -1   6  -4   14.69    7.39
   1  -6   4    1.11    4.95
  -1   6  -5   31.08   10.58
   1  -6   5   42.18   11.40
  -1   6  -6  402.05   26.30
   1  -6   6  422.56   26.23
   1  -5 -15  180.99   17.22
   1  -5 -14   97.28   12.99
  -1   5  14   93.49   13.70
  -1   5  13    2.24    8.12
  -1   5  13    4.44    6.87
   1  -5 -13    5.60    7.46
  -1   5  12   23.84    9.68
  -1   5  12   24.73    7.96
   1  -5 -12   10.67    7.02
   1  -5 -11  312.16   16.56
  -1   5  11  286.16   20.27
  -1   5  11  276.68   18.78
   1  -5 -11  265.40   18.48
   1  -5 -10  893.43   28.27
   1  -5 -10  858.74   32.36
  -1   5  10  901.47   33.35
  -1   5  10  866.34   32.49
  -1   5   9    4.44    6.93
  -1   5   9    4.30    6.84
   1  -5  -9   -0.86    6.78
   1  -5  -9    2.73    4.75
  -1   5   9   -0.92    4.68
   1  -5  -8    6.03    6.35
  -1   5   8    8.63    4.10
  -1   5   8    4.54    6.17
  -1   5   8   11.67    5.85
   1  -5  -7  106.02   11.64
  -1   5   7   82.72   10.27
  -1   5   7   81.77    6.63
  -1   5   7   77.95    9.95
   1  -5  -7  102.45   11.59
   1  -5  -6  188.25   14.65
  -1   5   6  198.92   13.43
   1  -5  -6  201.73   14.58
  -1   5   6  191.87   14.03
  -1   5   6  185.15    8.16
  -1   5   5 1070.73   29.38
   1  -5  -5 1032.69   27.97
   1  -5  -5 1045.54   32.29
  -1   5   5 1035.10   16.54
  -1   5   5 1029.34   31.50
   1  -5  -4  564.61   19.54
  -1   5   4  562.16   19.94
   1  -5  -4  607.24   24.06
  -1   5   3    0.30    4.95
  -1   5   3    3.87    2.09
   1  -5  -3   14.07    6.80
   1  -5  -3    2.51    3.97
  -1   5   2    7.29    2.26
  -1   5   2    6.20    4.72
   1  -5  -2    2.75    4.18
   1  -5  -2    1.31    5.47
  -1   5   2   -1.07    6.00
  -1   5   1 1001.82   31.47
   1  -5  -1 1021.36   25.79
  -1   5   1 1043.74   25.80
   1  -5  -1 1090.68   32.96
  -1   5   1 1077.30   33.25
  -1   5   0  466.08   21.68
   1  -5   0  449.33   16.59
   1  -5   0  486.74   22.31
  -1   5   0  446.88   21.21
  -1   5  -1 1379.05   38.40
   1  -5   1 1410.16   39.18
  -1   5  -1 1462.59   39.29
   1  -5   1 1388.64   31.37
   1  -5   1 1321.22   19.76
   1  -5   2   18.62    3.34
   1  -5   2   20.50    5.19
   1  -5   2   18.85    5.12
   1  -5   2   17.54    6.97
  -1   5  -2   11.98    5.44
   1  -5   3    6.96    6.41
   1  -5   3    8.05    4.69
  -1   5  -3    3.48    5.48
   1  -5   3   12.23    5.04
  -1   5  -4   64.77   10.71
   1  -5   4   60.05    8.15
   1  -5   4   75.97   11.34
  -1   5  -5  650.14   29.73
   1  -5   5  631.14   24.25
   1  -5   5  674.51   29.71
   1  -5   6    7.20    6.79
   1  -5   6   14.99    6.76
  -1   5  -6   12.78    7.94
   1  -5   7    2.82    6.70
   1  -5   7    4.43    6.65
  -1   5  -7   17.23    9.40
   1  -5   7    5.16    8.83
   1  -5   8  -12.16    8.07
   1  -5   8    9.80    8.77
   1  -5   8   -6.82    7.44
   1  -5   9   71.50   11.80
   1  -4 -15   34.21    8.88
  -1   4  15    4.56    6.94
  -1   4  14   97.00   12.63
   1  -4 -14  108.00   13.62
  -1   4  13   28.36    9.69
   1  -4 -13   11.28    6.68
  -1   4  13   22.09    7.36
   1  -4 -12  629.89   21.52
  -1   4  12  615.89   27.34
   1  -4 -12  607.38   26.97
  -1   4  12  605.11   29.38
   1  -4 -11  300.49   14.69
  -1   4  11  296.38   18.58
   1  -4 -11  270.25   17.66
  -1   4  11  292.13   20.04
  -1   4  10    0.64    6.97
   1  -4 -10   -5.06    4.54
   1  -4 -10   -0.20    5.38
  -1   4  10   -4.44    6.95
   1  -4  -9    3.44    3.94
  -1   4   9    1.06    5.91
  -1   4   9   -1.94    7.00
   1  -4  -9   -1.77    5.77
   1  -4  -8    2.60    4.69
  -1   4   8   10.21    6.66
  -1   4   8    7.65    5.89
  -1   4   8    3.39    4.08
   1  -4  -8    5.65    6.11
  -1   4   7  825.90   27.36
   1  -4  -7  866.69   28.10
  -1   4   7  889.51   27.93
  -1   4   7  879.57   22.70
  -1   4   6  755.24   24.38
  -1   4   6  709.95   18.23
   1  -4  -6  721.54   23.18
   1  -4  -6  691.50   24.27
  -1   4   6  733.33   23.92
   1  -4  -6  726.82   25.38
  -1   4   6  690.72   24.00
   1  -4  -5  252.77   14.64
  -1   4   5  222.61   12.84
  -1   4   5  244.28    8.76
   1  -4  -5  247.87   12.67
  -1   4   5  241.41   13.43
  -1   4   5  225.09   13.65
   1  -4  -5  257.28   14.29
  -1   4   4   50.50    6.68
   1  -4  -4   69.05    7.68
   1  -4  -4   61.53    6.67
  -1   4   4   64.03    7.74
  -1   4   4   60.52    7.82
  -1   4   4   58.66    3.48
   1  -4  -4   65.88    8.67
   1  -4  -3 1654.75   37.19
  -1   4   3 1656.85   33.49
   1  -4  -3 1607.94   36.84
   1  -4  -3 1670.75   33.04
  -1   4   3 1627.76   36.70
   1  -4  -2  501.70   19.70
   1  -4  -2  516.90   16.58
  -1   4   2  485.44   18.82
  -1   4   2  514.27   16.47
   1  -4  -2  486.74   18.75
  -1   4   2  502.77   10.97
  -1   4   1 1358.98   21.33
  -1   4   1 1371.63   33.58
   1  -4  -1 1349.64   32.69
   1  -4  -1 1334.65   33.54
   1  -4  -1 1375.74   28.53
  -1   4   1 1321.65   33.67
  -1   4   1 1382.15   33.43
   1  -4  -1 1332.26   32.23
  -1   4   1 1302.08   27.77
  -1   4   1 1360.74   33.61
  -1   4   0  126.60   10.68
   1  -4   0  126.18    8.57
  -1   4   0  111.88   10.62
   1  -4   0  120.44    9.40
   1  -4   0  142.66   11.46
  -1   4   0  126.47   10.50
  -1   4  -1   66.55    8.74
   1  -4   1   70.59    7.57
   1  -4   1   67.68    5.81
   1  -4   1   68.20    4.24
   1  -4   1   67.10    7.10
  -1   4  -1   65.17    8.86
   1  -4   1   72.45    9.55
  -1   4  -2  272.88   15.86
   1  -4   2  277.55   11.87
   1  -4   2  281.35   14.28
   1  -4   2  290.25   13.31
   1  -4   2  287.17   16.09
   1  -4   2  287.21   10.22
   1  -4   3  716.42   19.20
   1  -4   3  721.83   21.13
   1  -4   3  692.73   21.66
  -1   4  -3  736.56   27.03
   1  -4   3  749.93   26.80
   1  -4   4  314.71   18.24
   1  -4   4  277.58   14.24
   1  -4   4  285.99   14.51
   1  -4   4  272.92   16.78
  -1   4  -4  266.11   17.32
   1  -4   4  278.53   12.82
   1  -4   5    5.09    4.67
   1  -4   5   10.65    4.46
   1  -4   5   16.80    6.86
   1  -4   5   -2.80    7.47
  -1   4  -5    7.48    5.48
   1  -4   6    5.30    5.50
  -1   4  -6    5.65    6.01
   1  -4   6    1.95    7.31
   1  -4   6   14.34    7.53
  -1   4  -7   -9.61    7.97
   1  -4   7   -8.06    6.84
   1  -4   7    5.36    5.40
   1  -4   7   -1.02    6.78
   1  -4   8  494.14   24.72
  -1   4  -8  477.10   26.95
   1  -4   8  501.37   21.42
   1  -4   8  524.91   26.67
   1  -4   8  518.62   26.46
  -1   4  -9  121.37   15.70
   1  -4   9  104.17   13.45
   1  -4   9  154.41   16.27
   1  -4   9  143.62   13.81
   1  -4   9  118.97   14.33
   1  -4  10   12.27    9.40
   1  -4  10   -2.88    7.52
   1  -4  10    4.01    6.16
   1  -4  10   -5.24    8.17
   1  -3 -14   35.83    7.75
  -1   3  14   44.17   10.79
   1  -3 -13  561.90   25.33
  -1   3  13  530.36   28.69
  -1   3  13  467.05   23.61
  -1   3  12   13.87    6.59
  -1   3  12    7.52    7.71
   1  -3 -12   22.28    4.61
   1  -3 -12   27.69    7.42
   1  -3 -11  110.69   11.00
   1  -3 -11   93.74    7.80
  -1   3  11  109.85   13.04
  -1   3  11  124.47   11.91
   1  -3 -10   10.00    4.07
   1  -3 -10    4.67    5.49
  -1   3  10   12.22    7.73
  -1   3  10    5.07    5.78
  -1   3   9  844.47   27.43
  -1   3   9  889.17   30.07
   1  -3  -9  858.35   22.40
   1  -3  -9  853.58   27.12
  -1   3   9  824.03   25.66
  -1   3   8  863.13   26.47
   1  -3  -8  825.84   21.53
  -1   3   8  821.41   24.51
  -1   3   8  797.62   27.26
  -1   3   8  795.81   24.39
   1  -3  -8  810.47   25.47
   1  -3  -7  421.49   14.89
  -1   3   7  387.90   17.90
  -1   3   7  440.83   16.23
  -1   3   7  412.81   17.56
   1  -3  -7  437.59   17.83
  -1   3   7  406.55   16.39
   1  -3  -7  401.47   17.28
  -1   3   6   22.20    4.31
   1  -3  -6   18.26    5.22
   1  -3  -6   21.46    5.84
  -1   3   6   26.10    5.82
  -1   3   6   16.43    4.63
   1  -3  -6   20.67    5.78
   1  -3  -6   14.14    4.91
  -1   3   6   21.89    6.41
   1  -3  -5  277.07   13.37
   1  -3  -5  264.82   12.56
   1  -3  -5  256.17   12.66
  -1   3   5  260.29   12.95
  -1   3   5  263.73   12.38
  -1   3   5  251.16    9.84
   1  -3  -5  261.94   13.21
  -1   3   5  259.95   12.89
  -1   3   4 1594.72   33.48
   1  -3  -4 1568.89   33.03
   1  -3  -4 1628.26   34.27
  -1   3   4 1669.73   33.33
  -1   3   4 1657.79   33.08
  -1   3   4 1607.90   25.54
   1  -3  -4 1626.36   32.36
  -1   3   3  161.97   10.06
  -1   3   3  171.03    9.80
  -1   3   3  174.12    9.69
  -1   3   3  166.19    5.42
   1  -3  -3  163.31    9.04
   1  -3  -3  165.07   10.06
   1  -3  -3  156.86   10.00
   1  -3  -2  162.19    8.66
   1  -3  -2  163.16    9.72
  -1   3   2  160.50    9.56
   1  -3  -2  155.32    9.66
  -1   3   2  148.34    4.90
  -1   3   2  156.42    8.57
  -1   3   1  668.60   19.88
   1  -3  -1  694.24   20.79
  -1   3   1  671.90   11.59
   1  -3  -1  682.23   19.83
   1  -3  -1  674.09   19.67
   1  -3  -1  656.46   17.47
  -1   3   1  678.84   17.62
   1  -3   0  243.25   10.44
   1  -3   0  229.29   11.78
   1  -3   0  230.53    5.67
  -1   3   0  269.98   13.20
   1  -3   0  275.57   13.08
  -1   3   0  247.52   12.59
  -1   3   0  244.90   10.27
   1  -3   0  248.76   11.64
  -1   3   0  250.05   12.24
  -1   3   0  253.17   12.34
   1  -3   1  879.18   24.44
  -1   3  -1  899.34   24.35
   1  -3   1  908.50   16.33
   1  -3   1  875.05   18.00
  -1   3  -1  888.81   24.04
  -1   3  -1  914.67   24.57
   1  -3   1  908.48   24.94
  -1   3  -1  923.73   25.41
   1  -3   1  898.96   21.18
   1  -3   2  826.63   21.16
  -1   3  -2  838.46   25.05
   1  -3   2  797.50   19.07
   1  -3   2  816.59   17.88
  -1   3  -2  833.29   24.27
   1  -3   2  865.73   24.58
  -1   3  -2  811.68   23.24
   1  -3   2  822.18   24.53
   1  -3   2  845.47   24.30
   1  -3   3  311.67   15.38
  -1   3  -3  321.45   15.44
  -1   3  -3  337.39   16.72
  -1   3  -3  338.20   15.20
   1  -3   3  325.53   15.61
   1  -3   3  314.89   13.33
   1  -3   3  312.51   11.88
   1  -3   3  322.15   15.60
   1  -3   3  318.86   13.04
   1  -3   3  297.21   14.91
  -1   3  -4   22.85    6.20
   1  -3   4   31.51    5.84
   1  -3   4   30.85    5.15
   1  -3   4   30.85    5.75
   1  -3   4   34.12    7.44
   1  -3   4   22.09    5.58
   1  -3   5  169.97   12.61
   1  -3   5  154.60   12.42
   1  -3   5  154.46   10.65
  -1   3  -5  150.15   12.90
   1  -3   5  150.86   11.19
  -1   3  -6  356.51   19.73
   1  -3   6  330.31   18.10
   1  -3   6  319.46   16.58
   1  -3   6  369.89   19.18
   1  -3   7  964.16   28.03
   1  -3   7  978.00   31.76
   1  -3   7  967.69   32.55
   1  -3   7  984.86   32.48
  -1   3  -7 1013.53   34.88
   1  -3   8  294.95   18.66
   1  -3   8  334.95   19.71
   1  -3   8  303.11   15.93
   1  -3   8  279.33   18.19
  -1   3  -8  273.91   19.54
   1  -3   9   -1.37    6.19
   1  -3   9   -6.25    5.71
   1  -3   9    7.62    7.59
   1  -3   9    2.60    7.37
  -1   3  -9   -5.50    6.68
   1  -3  10   12.45    7.43
   1  -3  10   13.47    7.11
   1  -3  10    9.70    7.45
  -1   3 -10    7.13    7.85
   1  -3  10   27.72    9.15
   1  -3  11   20.28    7.17
   1  -3  11   33.22    9.65
   1  -3  11   32.03    9.10
   1  -3  11   24.89    9.37
  -1   2  14  307.40   23.26
   1  -2 -14  325.20   19.11
  -1   2  13   32.99    9.88
  -1   2  13   26.28    7.21
   1  -2 -13   39.93    7.38
  -1   2  12   68.88   11.17
  -1   2  12   59.94    8.51
   1  -2 -12   82.51    6.85
   1  -2 -12   73.36    9.16
   1  -2 -11  177.24    9.82
  -1   2  11  205.50   16.65
  -1   2  11  169.79   12.89
   1  -2 -11  172.32   12.51
  -1   2  10  703.88   24.46
   1  -2 -10  755.33   19.61
  -1   2  10  673.56   23.06
   1  -2 -10  734.31   24.50
  -1   2  10  721.92   28.74
   1  -2  -9  451.10   18.20
  -1   2   9  504.65   18.46
  -1   2   9  509.65   19.80
  -1   2   9  445.58   21.36
  -1   2   9  487.71   19.39
   1  -2  -9  479.94   18.67
   1  -2  -9  492.39   14.92
  -1   2   8   59.48    7.77
   1  -2  -8   67.38    5.76
   1  -2  -8   49.45    6.47
  -1   2   8   64.82    6.93
  -1   2   8   63.59    9.49
  -1   2   8   61.86    7.18
   1  -2  -8   53.49    7.22
   1  -2  -7   87.48    8.45
  -1   2   7   77.09    7.51
  -1   2   7   81.04    7.76
   1  -2  -7   88.86    7.96
   1  -2  -7   73.57    7.29
   1  -2  -7   89.55    8.55
  -1   2   7   87.62    7.47
  -1   2   7   87.68    9.43
   1  -2  -7   74.39    5.80
  -1   2   6   26.48    5.07
   1  -2  -6   27.82    4.68
   1  -2  -6   31.72    5.33
  -1   2   6   24.12    4.70
  -1   2   6   27.77    6.03
  -1   2   6   30.12    4.95
   1  -2  -6   32.60    5.60
   1  -2  -6   30.72    4.11
   1  -2  -6   29.02    4.90
   1  -2  -5 1548.66   31.43
  -1   2   5 1627.08   29.68
  -1   2   5 1627.45   33.12
   1  -2  -5 1635.76   32.91
  -1   2   5 1591.99   29.94
   1  -2  -5 1669.71   29.90
  -1   2   5 1602.04   31.50
   1  -2  -5 1633.48   31.42
   1  -2  -4  438.10   13.71
  -1   2   4  417.70   14.23
  -1   2   4  407.77   14.43
  -1   2   4  402.21   13.17
   1  -2  -4  407.20   14.14
   1  -2  -4  433.18   12.11
   1  -2  -4  377.60   13.66
   1  -2  -4  413.38   14.19
  -1   2   4  423.92   12.02
  -1   2   3    2.81    2.28
  -1   2   3    0.64    3.24
   1  -2  -3    2.53    2.11
   1  -2  -3    5.71    3.68
   1  -2  -3   -0.15    3.01
  -1   2   3    2.95    3.57
   1  -2  -3   -2.27    3.48
  -1   2   3    1.06    3.65
  -1   2   2  257.67   10.11
   1  -2  -2  266.11   10.58
   1  -2  -2  245.55   10.37
   1  -2  -2  232.84    9.63
  -1   2   2  245.30    6.34
   1  -2  -2  235.58    6.10
  -1   2   2  216.16    9.95
   1  -2  -1   39.49    4.83
   1  -2  -1   31.99    4.66
  -1   2   1   34.28    4.48
  -1   2   1   44.32    4.99
   1  -2  -1   31.91    5.41
   1  -2  -1   24.85    2.10
   1  -2  -1   24.06    4.66
  -1   2   0 1769.63   32.91
  -1   2   0 1872.21   30.03
   1  -2   0 1794.95   29.88
   1  -2   0 1828.44   32.20
  -1   2   0 1822.24   32.22
  -1   2   0 1844.81   32.14
  -1   2   0 1824.85   32.27
   1  -2   0 1894.17   32.58
   1  -2   0 1812.77   23.20
   1  -2   1  836.19   20.78
   1  -2   1  816.70   15.25
   1  -2   1  818.88   18.53
  -1   2  -1  856.21   19.94
  -1   2  -1  838.83   21.20
  -1   2  -1  824.79   19.88
  -1   2  -1  806.04   20.26
   1  -2   1  802.47   20.49
  -1   2  -2 1247.83   27.36
   1  -2   2 1255.30   28.32
  -1   2  -2 1311.43   28.17
   1  -2   2 1242.75   27.41
  -1   2  -2 1249.44   28.17
   1  -2   2 1290.63   27.20
   1  -2   2 1264.25   27.70
  -1   2  -2 1242.32   25.89
   1  -2   2 1282.02   23.09
   1  -2   2 1240.13   27.50
   1  -2   2 1246.36   26.67
   1  -2   2 1231.78   22.52
   1  -2   2 1295.85   25.37
   1  -2   3    0.18    4.19
  -1   2  -3    7.57    4.78
   1  -2   3    5.26    4.90
   1  -2   3    7.57    4.30
  -1   2  -3   12.40    4.09
  -1   2  -3    7.28    3.48
   1  -2   3    6.60    4.13
   1  -2   3    0.85    3.75
   1  -2   3   12.86    4.91
   1  -2   3    4.10    3.12
  -1   2  -3    7.51    4.36
  -1   2  -4  970.99   26.13
   1  -2   4  963.66   23.70
  -1   2  -4  974.42   24.62
  -1   2  -4  971.84   27.32
   1  -2   4  981.04   26.10
   1  -2   4  994.51   25.12
   1  -2   4  967.51   26.18
   1  -2   4  950.20   24.93
   1  -2   4  984.65   25.96
   1  -2   4  947.33   27.16
  -1   2  -4  979.43   26.36
  -1   2  -5  121.02   11.01
   1  -2   5  109.70    9.70
   1  -2   5  111.04    9.41
   1  -2   5  109.41    9.61
   1  -2   5  105.27    9.31
   1  -2   5  106.61    8.72
   1  -2   5  100.49    8.83
  -1   2  -5  103.59    9.60
   1  -2   6 1418.51   34.11
  -1   2  -6 1329.05   34.61
   1  -2   6 1410.97   35.40
  -1   2  -6 1348.46   36.74
   1  -2   6 1339.67   33.38
   1  -2   6 1319.03   33.33
   1  -2   6 1386.26   31.08
  -1   2  -7  924.25   29.11
   1  -2   7  887.24   25.12
   1  -2   7  865.67   28.43
   1  -2   7  868.15   27.69
  -1   2  -7  879.51   30.45
   1  -2   8   63.24    9.10
  -1   2  -8   82.65    9.73
   1  -2   8   71.43    7.89
   1  -2   8   60.10    9.35
  -1   2  -8   68.39   10.15
   1  -2   8   60.10    8.84
  -1   2  -9   25.73    6.86
   1  -2   9   41.23    8.24
   1  -2   9   48.91    7.27
   1  -2   9   26.64    7.79
   1  -2   9   30.31    7.87
  -1   2  -9   38.27    9.80
   1  -2  10   63.88   10.21
  -1   2 -10   49.51    9.17
   1  -2  10   66.98    8.16
   1  -2  10   57.22    8.93
   1  -2  10   74.36   11.57
   1  -2  10   69.20   10.78
  -1   2 -10   59.05   10.42
  -1   2 -11  267.61   19.19
   1  -2  11  250.50   19.52
   1  -2  11  256.11   18.50
   1  -2  11  263.85   19.16
   1  -2  11  268.91   19.85
   1  -2  12   41.45   10.47
   1  -2  12   28.88    8.82
   1  -2  12   29.80    8.12
   1  -2  12   31.54    8.70
  -1   1  14   -1.23    8.41
  -1   1  14    5.62    7.82
  -1   1  13   23.19    6.13
  -1   1  13   38.12   10.09
   1  -1 -13   33.32    6.93
   1  -1 -12   58.99    6.23
  -1   1  12   70.78   11.40
  -1   1  12   50.85    7.88
   1  -1 -12   59.78    8.28
  -1   1  11  297.99   15.39
   1  -1 -11  328.48   16.36
  -1   1  11  299.06   19.25
   1  -1 -11  316.64   13.02
   1  -1 -10  510.03   19.15
  -1   1  10  483.11   22.94
  -1   1  10  455.11   15.38
   1  -1 -10  479.14   15.25
  -1   1  10  475.86   18.37
   1  -1 -10  464.16   17.95
  -1   1  10  457.81   18.97
   1  -1  -9    0.05    2.80
  -1   1   9    0.06    5.29
  -1   1   9    5.12    5.05
   1  -1  -9    0.01    4.12
  -1   1   9    5.06    3.79
  -1   1   9   -2.70    4.43
   1  -1  -9    3.60    3.90
  -1   1   8   24.87    6.51
  -1   1   8   18.88    4.94
   1  -1  -8   22.59    4.88
  -1   1   8   14.90    4.75
   1  -1  -8   15.91    5.64
  -1   1   8   18.56    3.73
   1  -1  -8   18.05    3.45
   1  -1  -8   13.75    4.15
  -1   1   7   76.24    6.61
   1  -1  -7   53.74    5.66
   1  -1  -7   52.40    7.15
  -1   1   7   51.92    5.90
  -1   1   7   52.55    7.24
  -1   1   7   55.26    7.02
   1  -1  -7   50.74    6.87
   1  -1  -7   59.20    4.56
   1  -1  -7   56.25    5.77
  -1   1   7   62.78    6.06
   1  -1  -6 2457.53   44.35
  -1   1   6 2474.64   39.93
   1  -1  -6 2473.37   39.96
  -1   1   6 2468.43   44.68
  -1   1   6 2470.42   39.86
   1  -1  -6 2507.05   43.64
  -1   1   6 2489.89   43.65
  -1   1   6 2503.42   38.42
   1  -1  -6 2435.23   33.80
   1  -1  -6 2444.71   39.32
  -1   1   5  710.53   17.18
   1  -1  -5  662.09   18.44
  -1   1   5  699.84   19.67
   1  -1  -5  674.94   19.27
   1  -1  -5  676.29   16.65
  -1   1   5  684.75   15.82
  -1   1   5  674.66   17.11
  -1   1   5  680.73   18.44
   1  -1  -5  673.86   13.24
   1  -1  -5  680.66   17.03
  -1   1   4 3534.48   51.33
   1  -1  -4 3514.13   42.52
  -1   1   4 3540.06   46.03
   1  -1  -4 3549.69   48.24
   1  -1  -4 3347.42   46.90
   1  -1  -4 3538.18   51.13
  -1   1   4 3609.20   48.37
   1  -1  -4 3602.85   49.16
  -1   1   4 3613.20   49.21
  -1   1   3  190.11    8.00
   1  -1  -3  189.75    8.49
  -1   1   3  167.75    7.09
  -1   1   3  156.42    8.29
   1  -1  -3  168.90    7.69
  -1   1   3  171.85    6.77
   1  -1  -3  174.28    7.19
   1  -1  -3  176.32    7.66
   1  -1  -3  169.32    7.02
  -1   1   2   25.13    4.54
  -1   1   2   32.49    3.56
  -1   1   2   36.60    4.58
   1  -1  -2   29.48    3.07
   1  -1  -2   36.14    4.74
   1  -1  -2   35.08    4.20
  -1   1   2   34.51    3.41
   1  -1  -2   30.02    3.71
  -1   1   1 4188.04   51.62
   1  -1  -1 4251.02   47.56
   1  -1  -1 4266.18   52.76
   1  -1  -1 4236.77   51.87
   1  -1  -1 4215.79   50.87
  -1   1   1 4132.96   52.54
  -1   1   0 5273.31   63.42
  -1   1   0 5404.78   63.01
   1  -1   0 5240.48   63.02
   1  -1   0 5190.63   63.24
   1  -1   0 5298.12   63.61
  -1   1   0 5257.43   63.60
   1  -1   1  675.44   15.82
  -1   1  -1  680.69   16.53
   1  -1   1  665.45   16.25
   1  -1   1  664.32   15.83
   1  -1   1  685.78   15.89
  -1   1  -1  667.64   14.55
  -1   1  -1  664.71   15.49
   1  -1   1  666.88   15.00
  -1   1  -1  666.42   15.79
  -1   1  -1  594.76   14.00
  -1   1  -2   10.10    3.42
  -1   1  -2   11.59    4.15
  -1   1  -2   11.44    2.91
   1  -1   2   14.78    3.47
   1  -1   2   19.11    3.93
   1  -1   2   14.66    3.74
  -1   1  -2   17.27    3.92
   1  -1   2   19.90    4.43
   1  -1   2   18.41    3.66
   1  -1   2   16.42    3.95
   1  -1   3   55.65    6.12
   1  -1   3   56.01    5.23
  -1   1  -3   64.30    6.34
   1  -1   3   61.32    6.12
   1  -1   3   63.65    5.78
   1  -1   3   58.04    5.58
  -1   1  -3   57.93    5.90
  -1   1  -3   57.47    6.12
  -1   1  -3   70.85    5.42
   1  -1   3   56.71    5.59
  -1   1  -4    8.15    3.80
   1  -1   4    8.24    4.06
  -1   1  -4   11.61    4.56
  -1   1  -4   18.66    4.70
   1  -1   4   12.66    4.15
   1  -1   4   13.56    3.92
   1  -1   4    6.88    3.85
   1  -1   4   10.25    4.29
   1  -1   4   15.86    4.43
   1  -1   5  778.04   20.15
  -1   1  -5  805.54   22.53
   1  -1   5  794.24   22.50
  -1   1  -5  782.90   22.42
  -1   1  -5  774.43   23.31
   1  -1   5  759.26   22.09
   1  -1   5  795.91   22.32
   1  -1   5  766.89   20.73
   1  -1   5  752.55   23.40
   1  -1   5  763.00   21.96
  -1   1  -6  605.57   21.92
  -1   1  -6  616.66   20.83
   1  -1   6  580.22   19.23
   1  -1   6  586.22   18.40
   1  -1   6  630.51   21.00
  -1   1  -6  591.78   20.29
   1  -1   6  620.02   21.18
   1  -1   6  605.46   20.65
   1  -1   6  588.81   20.32
  -1   1  -7    2.44    6.26
   1  -1   7   15.55    6.06
   1  -1   7    9.49    4.26
  -1   1  -7   13.20    5.63
  -1   1  -7    3.54    5.18
   1  -1   7    4.75    5.07
   1  -1   8   34.06    6.37
  -1   1  -8   23.79    6.86
  -1   1  -8   37.55    7.07
   1  -1   8   41.28    7.82
   1  -1   8   34.65    7.26
  -1   1  -8   29.04    8.22
   1  -1   9  150.06   12.25
   1  -1   9  145.01   11.07
  -1   1  -9  126.68   11.49
   1  -1   9  124.18   11.26
  -1   1  -9  121.65   12.98
  -1   1  -9  130.21   11.99
  -1   1 -10  650.99   26.14
   1  -1  10  663.59   28.53
   1  -1  10  644.78   26.04
  -1   1 -10  685.26   27.12
   1  -1  10  666.12   23.82
   1  -1  10  647.47   26.31
   1  -1  11  310.51   19.05
  -1   1 -11  336.45   19.73
  -1   1 -11  300.55   19.35
   1  -1  11  293.27   18.64
   1  -1  11  331.77   17.55
   1  -1  11  297.50   20.41
   1  -1  12    6.24    6.89
  -1   1 -12   -3.73    6.66
   1  -1  12  -12.26    8.50
   1  -1  12    4.70    5.84
   1  -1  13    1.18    5.98
   1  -1  13   14.86    8.80
  -1   1 -13    9.99    7.14
  -1   0  14    5.30    6.86
  -1   0  13    1.25    7.98
  -1   0  13   -8.28    8.31
  -1   0  13   12.59    7.35
   1   0 -13    8.47    5.07
  -1   0  12  629.41   29.40
  -1   0  12  600.45   29.26
  -1   0  12  608.55   22.70
  -1   0  12  641.17   22.06
   1   0 -12  621.38   23.50
   1   0 -11  324.69   16.31
   1   0 -11  337.22   14.37
  -1   0  11  339.36   20.59
  -1   0  11  376.97   16.81
  -1   0  11  352.10   15.61
  -1   0  10   13.03    4.89
  -1   0  10    5.25    5.54
   1   0 -10   11.78    4.45
  -1   0  10   16.91    4.65
   1   0 -10   11.74    3.76
  -1   0  10   -0.57    3.63
   1   0 -10   19.12    4.56
  -1   0  10   11.60    4.97
  -1   0   9  139.81    9.91
   1   0  -9  140.29    8.40
   1   0  -9  123.96    8.26
  -1   0   9  152.37    8.91
   1   0  -9  121.18    9.23
  -1   0   9  126.68   11.95
  -1   0   9  135.26    8.93
   1   0  -8  369.45   13.12
   1   0  -8  381.88   14.43
   1   0  -8  363.40   12.32
  -1   0   8  387.60   13.68
  -1   0   8  362.81   12.67
  -1   0   8  364.63   14.42
  -1   0   8  388.34   18.12
   1   0  -8  332.84   17.02
  -1   0   7 1069.56   23.88
  -1   0   7 1073.68   29.18
   1   0  -7 1101.55   21.06
   1   0  -7 1059.84   23.56
   1   0  -7 1014.20   28.60
  -1   0   7 1045.42   28.37
  -1   0   7 1036.56   28.63
  -1   0   7 1059.69   22.53
   1   0  -7 1085.92   22.43
  -1   0   7 1081.09   21.50
   1   0  -6 2631.10   39.82
  -1   0   6 2651.02   38.79
  -1   0   6 2644.22   40.07
  -1   0   6 2531.90   45.96
  -1   0   6 2650.11   46.04
  -1   0   6 2546.04   46.46
  -1   0   6 2651.52   36.61
   1   0  -6 2652.47   35.97
   1   0  -6 2611.29   38.47
   1   0  -6 2732.16   46.77
   1   0  -5 1376.46   23.73
  -1   0   5 1350.26   23.84
  -1   0   5 1366.03   28.60
   1   0  -5 1408.68   29.32
  -1   0   5 1368.69   28.84
   1   0  -5 1391.05   28.58
   1   0  -5 1406.09   20.69
   1   0  -5 1339.10   22.94
  -1   0   5 1419.83   21.14
  -1   0   5 1370.03   23.37
   1   0  -4  306.93   11.98
  -1   0   4  321.72    8.95
  -1   0   4  323.31   11.83
   1   0  -4  309.20    6.85
  -1   0   4  318.73    7.18
   1   0  -4  325.75    8.98
   1   0  -4  324.65   11.65
  -1   0   4  344.02    9.16
  -1   0   4  333.02   11.85
   1   0  -4  305.61    8.77
   1   0  -3  179.14    5.91
  -1   0   3  183.16    5.79
   1   0  -3  179.90    8.31
  -1   0   3  176.51    7.75
  -1   0   3  160.83    7.77
   1   0  -3  167.39    5.58
  -1   0   3  186.26    6.10
   1   0  -3  161.42    7.73
  -1   0   2 6727.97   76.69
  -1   0   2 6678.90   76.09
   1   0  -2 6609.14   76.46
  -1   0   2 6769.59   72.45
   1   0  -2 6595.66   72.64
  -1   0   2 6554.93   69.72
   1   0  -2 6545.32   76.18
  -1   0   2 6790.03   75.03
   1   0  -2 6604.97   70.89
  -1   0   1 3004.36   33.50
  -1   0   1 2937.02   36.35
   1   0  -1 3024.50   33.49
   1   0  -1 2867.67   36.11
   1   0  -1 3054.99   35.38
  -1   0   1 3008.36   35.40
   1   0  -1 3051.00   31.91
  -1   0   0    0.62    1.29
  -1   0   0    5.05    1.61
   1   0   0    6.57    1.71
  -1   0   0    8.12    1.96
   1   0   0    9.97    2.28
   1   0   0    5.28    1.56
   1   0   0    7.63    1.75
   1   0   1    7.22    2.17
   1   0   1    4.33    2.44
  -1   0  -1    7.42    1.63
  -1   0  -1    4.27    2.70
  -1   0  -1    0.85    2.67
   1   0   1    6.30    1.47
  -1   0  -1    6.95    1.55
  -1   0  -1    5.30    2.70
   1   0   1    8.02    1.66
   1   0   1    4.05    2.29
   1   0   1    6.10    2.45
   1   0   2    9.05    3.07
  -1   0  -2   10.41    3.57
  -1   0  -2    9.27    2.15
   1   0   2    8.75    2.32
  -1   0  -2   11.77    4.07
   1   0   2   10.32    3.91
   1   0   2   21.24    4.05
  -1   0  -2    7.41    3.20
   1   0   3  847.05   18.70
  -1   0  -3  824.59   18.43
  -1   0  -3  835.48   18.40
   1   0   3  817.59   18.49
  -1   0  -3  844.48   18.65
   1   0   3  831.42   15.55
   1   0   3  808.06   18.37
   1   0   3  819.98   17.52
   1   0   4  170.59    8.35
  -1   0  -4  180.75    9.29
   1   0   4  185.37    9.30
   1   0   4  162.52    8.96
  -1   0  -4  156.31    8.98
   1   0   4  173.83    9.18
  -1   0  -4  176.16    9.11
   1   0   4  168.68    7.65
   1   0   5   39.26    6.12
   1   0   5   28.09    4.93
  -1   0  -5   24.63    5.16
   1   0   5   38.95    4.89
   1   0   5   38.87    5.36
  -1   0  -5   46.52    5.87
  -1   0  -5   41.23    5.75
   1   0   5   35.58    5.82
   1   0   5   42.46    5.35
   1   0   6   -0.01    4.06
  -1   0  -6    4.66    4.65
   1   0   6    1.51    4.20
   1   0   6    5.31    3.98
   1   0   6   -0.97    3.60
   1   0   6    5.09    3.93
  -1   0  -6    8.81    5.44
   1   0   6   -3.34    4.16
  -1   0  -6    1.20    3.55
   1   0   7  868.15   23.46
  -1   0  -7  845.69   24.15
   1   0   7  841.32   25.15
  -1   0  -7  840.79   26.45
   1   0   7  871.74   24.82
   1   0   7  838.30   23.30
   1   0   7  815.57   24.64
  -1   0  -7  875.79   24.87
   1   0   8  155.46   11.85
   1   0   8  157.55   11.43
   1   0   8  165.75   11.09
  -1   0  -8  178.89   12.61
   1   0   8  146.41   10.81
  -1   0  -8  180.26   11.57
  -1   0  -9  857.54   28.20
  -1   0  -9  838.34   26.74
   1   0   9  868.26   25.90
   1   0   9  850.35   26.75
   1   0   9  830.33   27.76
   1   0   9  861.15   30.24
   1   0  10   86.43   10.03
  -1   0 -10  108.65   10.44
   1   0  10  109.09   10.07
   1   0  10  105.35   11.89
  -1   0 -10  100.79   10.74
   1   0  10   99.33   10.31
   1   0  11   22.84    6.81
  -1   0 -11   18.06    6.21
   1   0  11   27.90    6.45
   1   0  11   11.91    6.00
  -1   0 -11   16.76    6.24
   1   0  11   21.07    8.62
   1   0  12   80.43   10.66
  -1   0 -12   79.99   10.34
  -1   0 -12   79.02   11.17
   1   0  12   67.80    9.84
   1   0  12   79.56   12.34
   1   0  12   71.30    9.54
  -1   0 -13 1019.98   35.60
  -1   0 -13 1040.50   37.41
   1   0  13  967.54   36.07
   1   0  13 1049.48   41.42
   1   0  13  955.82   35.57
   1   0  14  112.58   13.59
   1   0  14  110.85   13.83
  -1   0 -14  118.04   14.10
  -1  -1  13  497.16   28.36
  -1  -1  13  511.47   28.16
  -1  -1  13  529.16   29.83
  -1  -1  12  118.76   13.69
  -1  -1  12  119.12   10.15
   1   1 -12  136.76   11.60
  -1  -1  12  133.47   15.06
  -1  -1  12  129.17   14.38
   1   1 -11    9.52    5.13
  -1  -1  11    5.87    5.91
  -1  -1  11   -1.75    4.04
  -1  -1  11   -2.52    5.89
  -1  -1  11   -1.90    5.57
   1   1 -10   22.57    4.96
  -1  -1  10   16.23    4.84
   1   1 -10   15.23    4.93
  -1  -1  10   17.93    6.79
  -1  -1  10   19.37    4.92
  -1  -1  10   17.23    4.29
  -1  -1  10   19.32    7.54
  -1  -1  10   24.13    7.55
  -1  -1   9  864.80   21.30
   1   1  -9  872.37   23.24
   1   1  -9  849.65   24.26
  -1  -1   9  833.79   29.37
  -1  -1   9  851.51   30.59
  -1  -1   9  848.13   23.24
  -1  -1   9  821.36   28.66
  -1  -1   9  845.13   24.40
  -1  -1   9  889.15   24.21
  -1  -1   8  428.06   15.18
  -1  -1   8  458.95   14.06
   1   1  -8  462.37   20.68
   1   1  -8  449.82   15.16
  -1  -1   8  417.72   20.08
   1   1  -8  439.99   15.87
  -1  -1   8  477.28   20.12
  -1  -1   8  411.15   15.82
  -1  -1   8  442.06   15.63
   1   1  -7 1099.17   30.19
  -1  -1   7 1116.90   24.42
  -1  -1   7 1092.54   23.73
  -1  -1   7 1138.68   25.06
   1   1  -7 1103.36   24.44
  -1  -1   7 1065.57   30.23
  -1  -1   7 1153.11   21.83
  -1  -1   7 1098.47   29.17
   1   1  -7 1088.64   23.60
  -1  -1   6    5.76    4.78
   1   1  -6    4.54    3.02
  -1  -1   6   -1.67    3.14
  -1  -1   6    4.45    3.09
  -1  -1   6    0.51    4.31
  -1  -1   6    2.59    2.44
  -1  -1   6    4.99    3.69
   1   1  -6    3.67    4.49
  -1  -1   6   -3.89    4.95
   1   1  -6    3.42    2.50
  -1  -1   6    0.79    2.62
   1   1  -5   11.23    2.94
  -1  -1   5    6.52    4.44
  -1  -1   5    8.95    3.50
  -1  -1   5    9.99    2.72
   1   1  -5    1.27    2.51
  -1  -1   5    6.31    2.44
  -1  -1   5    4.94    3.48
  -1  -1   5    4.34    4.11
  -1  -1   5    8.26    2.29
   1   1  -5    4.03    4.39
  -1  -1   5   10.56    3.05
  -1  -1   4  667.60   18.37
  -1  -1   4  660.00   17.99
  -1  -1   4  677.12   13.85
  -1  -1   4  658.71   13.72
  -1  -1   4  677.19   13.67
  -1  -1   4  635.14   16.86
   1   1  -4  635.77   13.35
  -1  -1   4  649.62   17.99
   1   1  -4  683.77   18.43
  -1  -1   4  683.69   11.62
  -1  -1   3  675.83   12.78
  -1  -1   3  707.09   16.54
  -1  -1   3  726.39   17.58
   1   1  -3  723.55   12.58
  -1  -1   3  741.99   12.59
  -1  -1   3  705.05   15.62
   1   1  -3  735.84   17.28
  -1  -1   3  705.38   17.03
   1   1  -3  724.66   15.62
  -1  -1   3  710.15   10.19
  -1  -1   3  714.01   12.51
   1   1  -2    2.79    2.30
  -1  -1   2    2.65    3.15
  -1  -1   2    3.62    1.65
  -1  -1   2    2.41    3.76
   1   1  -2    1.60    3.25
  -1  -1   2    6.98    3.13
   1   1  -2    4.10    1.46
  -1  -1   2    1.91    1.42
   1   1  -2    5.62    3.76
  -1  -1   2    2.46    2.88
  -1  -1   1   18.63    2.28
  -1  -1   1   17.41    1.60
   1   1  -1   24.51    3.46
  -1  -1   1   17.93    2.89
  -1  -1   1   18.42    2.98
  -1  -1   1   20.49    2.21
   1   1  -1   17.65    2.77
   1   1  -1   15.87    2.07
  -1  -1   1   20.31    2.98
  -1  -1   0    1.96    1.69
  -1  -1   0    2.49    1.19
  -1  -1   0    4.62    1.53
  -1  -1   0   -0.41    1.05
   1   1   0    1.94    1.24
  -1  -1   0    1.64    1.15
   1   1   0    1.20    1.25
   1   1   0    1.03    1.09
   1   1   0    2.86    1.32
   1   1   1 3620.96   41.77
  -1  -1  -1 3455.73   41.60
  -1  -1  -1 3445.98   42.31
  -1  -1  -1 3449.23   41.49
   1   1   1 3451.88   42.37
   1   1   1 3404.47   41.55
   1   1   2 5255.57   63.19
   1   1   2 5346.79   63.07
  -1  -1  -2 5198.60   63.45
   1   1   2 5381.29   63.80
  -1  -1  -2 5328.76   63.56
   1   1   2 5387.22   59.94
  -1  -1  -2 5299.86   63.03
  -1  -1  -2 5413.55   60.01
   1   1   3  396.26   10.87
  -1  -1  -3  413.85   12.34
   1   1   3  428.09   12.04
  -1  -1  -3  437.60   11.91
  -1  -1  -3  410.26   12.02
   1   1   3  400.01   11.93
   1   1   3  402.90   12.03
  -1  -1  -3  405.89   10.95
   1   1   4 1149.11   23.01
  -1  -1  -4 1129.28   23.67
  -1  -1  -4 1131.30   22.79
  -1  -1  -4 1191.40   23.45
   1   1   4 1186.97   23.45
   1   1   4 1190.76   22.94
   1   1   4 1150.83   23.84
   1   1   5 3295.87   48.94
   1   1   5 3274.65   49.26
   1   1   5 3198.58   49.00
  -1  -1  -5 3245.47   48.62
  -1  -1  -5 3300.27   49.80
   1   1   5 3306.29   50.29
  -1  -1  -5 3201.66   48.21
   1   1   6 1836.34   34.27
   1   1   6 1785.71   34.86
  -1  -1  -6 1765.07   35.46
   1   1   6 1734.38   36.43
  -1  -1  -6 1810.94   34.12
  -1  -1  -6 1822.75   34.17
   1   1   6 1792.25   35.83
   1   1   6 1833.99   36.26
   1   1   7 1011.16   26.08
  -1  -1  -7 1003.19   25.75
   1   1   7 1042.75   27.37
  -1  -1  -7  996.35   25.34
   1   1   7  997.64   27.42
   1   1   7 1033.23   25.85
   1   1   7 1037.90   28.48
  -1  -1  -7  977.68   26.67
   1   1   8   23.76    5.73
  -1  -1  -8    8.47    4.88
  -1  -1  -8   15.84    4.72
  -1  -1  -8   15.81    6.18
   1   1   8   15.52    5.51
   1   1   8   16.61    6.47
  -1  -1  -9    9.08    5.31
  -1  -1  -9   10.67    5.88
   1   1   9    3.01    4.77
   1   1   9    0.73    6.50
   1   1   9   14.24    5.52
  -1  -1 -10    2.41    4.24
   1   1  10    6.62    6.31
   1   1  10   -3.33    4.87
  -1  -1 -10    3.65    5.32
  -1  -1 -11  194.15   13.38
  -1  -1 -11  205.66   14.84
   1   1  11  190.90   14.09
   1   1  11  179.65   15.89
   1   1  11  237.44   15.24
   1   1  12  461.21   25.66
   1   1  12  455.23   22.56
  -1  -1 -12  456.01   21.38
   1   1  12  463.71   22.00
  -1  -1 -12  475.51   23.70
   1   1  12  424.60   22.36
  -1  -1 -13   27.05    7.15
   1   1  13   21.96    7.55
   1   1  13   31.94    7.87
   1   1  13   17.53    8.89
   1   1  13   30.66    7.64
  -1  -1 -13   31.97    9.20
  -1  -1 -14    5.13    7.50
   1   1  14   27.09    8.85
   1   1  14   21.19    8.35
  -1  -1 -15   50.36   10.54
  -1  -2  13   16.01    8.45
  -1  -2  12   24.97    7.91
  -1  -2  12   30.86    9.59
  -1  -2  12   16.08    8.27
  -1  -2  11  149.81   14.61
  -1  -2  11  163.18   12.03
  -1  -2  11  143.89   14.01
  -1  -2  11  150.28   15.76
  -1  -2  10  317.31   19.66
  -1  -2  10  286.32   19.51
  -1  -2  10  299.30   18.57
  -1  -2  10  314.07   15.96
  -1  -2   9  175.58    8.64
  -1  -2   9  152.79   12.71
  -1  -2   9  156.05   14.15
  -1  -2   9  153.34   10.82
  -1  -2   9  143.02   10.46
  -1  -2   9  158.61   13.93
  -1  -2   9  159.75   10.98
  -1  -2   8    1.34    3.85
  -1  -2   8   -0.43    3.61
  -1  -2   8   -2.37    5.54
  -1  -2   8   -0.18    6.03
  -1  -2   8    5.53    6.57
   1   2  -8    2.43    6.04
  -1  -2   8    3.41    3.78
  -1  -2   8    0.90    2.89
  -1  -2   7    1.17    5.92
  -1  -2   7    3.65    3.77
  -1  -2   7    1.24    3.40
  -1  -2   7    0.98    5.10
  -1  -2   7   -1.26    3.88
   1   2  -7    7.53    6.35
  -1  -2   7   -0.75    2.57
  -1  -2   7   -3.61    4.41
   1   2  -6  256.52   14.27
  -1  -2   6  254.96   14.31
  -1  -2   6  254.61   11.19
  -1  -2   6  257.64   12.98
  -1  -2   6  255.12   11.16
  -1  -2   6  253.50   14.00
  -1  -2   6  254.52   13.59
  -1  -2   6  271.52    8.49
  -1  -2   6  239.64   13.91
  -1  -2   6  257.13   11.52
  -1  -2   5 1501.57   33.53
  -1  -2   5 1468.13   30.03
   1   2  -5 1558.84   33.09
  -1  -2   5 1383.59   31.69
  -1  -2   5 1523.54   28.10
   1   2  -5 1532.18   33.57
  -1  -2   5 1442.27   33.31
  -1  -2   5 1483.28   33.10
  -1  -2   5 1453.72   27.52
  -1  -2   5 1510.55   22.19
  -1  -2   5 1469.04   28.67
  -1  -2   4   65.71    6.55
  -1  -2   4   60.02    4.72
   1   2  -4   55.42    6.27
  -1  -2   4   67.89    5.58
  -1  -2   4   55.93    5.03
   1   2  -4   58.65    4.95
  -1  -2   4   66.48    6.74
  -1  -2   4   82.90    7.90
  -1  -2   4   65.95    5.55
  -1  -2   4   61.10    3.32
   1   2  -4   66.21    6.35
  -1  -2   4   66.14    6.45
  -1  -2   3  406.16   13.62
  -1  -2   3  407.27   10.93
  -1  -2   3  408.25   14.28
  -1  -2   3  419.99   12.22
   1   2  -3  402.53   13.25
  -1  -2   3  404.81   13.22
   1   2  -3  392.29   13.30
   1   2  -3  403.02   11.15
  -1  -2   3  397.27   11.35
  -1  -2   3  419.67   11.42
  -1  -2   3  417.43   14.46
   1   2  -2   51.43    3.94
   1   2  -2   56.89    5.45
  -1  -2   2   53.72    5.73
  -1  -2   2   53.20    4.88
  -1  -2   2   54.24    4.89
   1   2  -2   51.93    5.07
  -1  -2   2   44.92    4.17
   1   2  -2   60.34    5.05
   1   2  -2   47.52    4.67
  -1  -2   2   50.54    3.56
  -1  -2   2   48.99    2.55
  -1  -2   2   56.94    5.82
   1   2  -1 1527.31   23.30
   1   2  -1 1510.39   25.64
   1   2  -1 1443.34   25.50
   1   2  -1 1487.38   23.21
  -1  -2   1 1511.29   19.98
  -1  -2   1 1462.73   25.66
   1   2  -1 1511.92   19.90
  -1  -2   1 1507.81   23.14
   1   2  -1 1493.97   23.73
  -1  -2   1 1538.00   23.60
  -1  -2   1 1527.11   18.80
  -1  -2   1 1474.42   25.78
  -1  -2   1 1435.77   23.61
  -1  -2   0 3509.19   44.52
  -1  -2   0 3521.86   45.54
   1   2   0 3518.74   45.81
  -1  -2   0 3601.80   41.29
   1   2   0 3509.06   45.10
   1   2   0 3537.01   44.50
   1   2   0 3542.52   41.10
   1   2   0 3460.35   42.09
  -1  -2   0 3425.50   45.50
  -1  -2   0 3454.33   42.03
   1   2   0 3416.45   43.15
  -1  -2  -1 5137.05   61.75
  -1  -2  -1 5148.10   61.96
   1   2   1 5103.33   61.88
   1   2   1 5078.12   60.46
   1   2   1 4943.79   60.46
   1   2   1 5127.28   60.71
  -1  -2  -1 5286.01   60.61
   1   2   2   73.61    5.56
   1   2   2   73.62    6.15
  -1  -2  -2   81.05    5.50
   1   2   2   79.57    5.96
  -1  -2  -2   74.53    5.79
  -1  -2  -2   71.01    6.28
   1   2   3  148.44    8.04
  -1  -2  -3  150.04    8.08
  -1  -2  -3  159.12    7.71
   1   2   3  154.50    8.02
  -1  -2  -3  155.16    8.04
  -1  -2  -4 3447.02   49.64
   1   2   4 3361.29   49.41
   1   2   4 3314.58   49.67
   1   2   4 3303.58   48.42
  -1  -2  -4 3428.54   48.76
  -1  -2  -4 3273.55   48.38
   1   2   5 2016.61   36.10
   1   2   5 1956.81   34.12
   1   2   5 2019.09   36.55
  -1  -2  -5 1987.30   35.02
   1   2   5 1964.02   35.20
  -1  -2  -5 1982.97   36.38
  -1  -2  -5 1975.70   35.21
   1   2   5 1972.97   35.55
   1   2   6 2238.21   40.28
  -1  -2  -6 2362.95   42.45
   1   2   6 2274.39   42.18
   1   2   6 2327.35   40.53
   1   2   6 2275.63   41.96
  -1  -2  -6 2294.35   39.90
  -1  -2  -6 2353.27   41.18
   1   2   6 2311.34   41.61
   1   2   7  159.96   10.34
  -1  -2  -7  161.38   10.70
   1   2   7  170.56   11.21
   1   2   7  160.69   10.65
  -1  -2  -7  152.04    9.81
   1   2   7  165.10   10.20
  -1  -2  -7  166.23   10.29
   1   2   7  159.68   10.90
   1   2   7  154.61   10.99
   1   2   8   -1.23    4.07
   1   2   8    5.55    5.33
  -1  -2  -8    7.56    4.76
  -1  -2  -8    5.91    5.11
   1   2   8   -6.42    5.85
  -1  -2  -8   -1.98    4.20
   1   2   8   -6.34    4.82
   1   2   8   -0.11    4.94
   1   2   9   27.85    7.84
  -1  -2  -9   24.01    5.88
  -1  -2  -9   28.66    6.59
   1   2   9   29.01    6.22
   1   2   9   19.70    6.02
   1   2  10  172.65   12.94
   1   2  10  161.23   14.11
  -1  -2 -10  167.82   11.84
  -1  -2 -10  141.69   12.41
   1   2  11   99.45   10.62
  -1  -2 -11   95.04    9.75
   1   2  11  114.10   12.99
  -1  -2 -11   97.86   10.98
   1   2  12   66.45   10.73
  -1  -2 -12   57.28    8.06
   1   2  12   74.03    9.91
  -1  -2 -12   45.49    8.67
  -1  -2 -13   29.08    6.72
  -1  -2 -13   21.37    8.88
   1   2  13   23.57    7.21
   1   2  13   24.92    8.55
   1   2  14   13.46    6.98
   1   2  14   27.66   10.08
  -1  -2 -14   20.93    9.10
   1   2  15  105.81   13.49
   1   2  15  138.79   15.02
  -1  -2 -15  119.31   14.34
  -1  -3  12   40.44   10.88
  -1  -3  12   69.76   11.65
  -1  -3  11  255.53   20.39
  -1  -3  11  245.28   20.06
  -1  -3  11  265.10   19.23
  -1  -3  10   40.64    8.47
  -1  -3  10   42.23    9.58
  -1  -3  10   37.96    7.59
  -1  -3  10   44.49    9.95
  -1  -3   9   15.09    6.44
  -1  -3   9   15.46    5.48
  -1  -3   9   18.65    7.80
  -1  -3   9   29.30    8.35
  -1  -3   8   15.33    5.12
  -1  -3   8   25.72    8.03
  -1  -3   8   17.91    3.27
  -1  -3   8   28.33    7.90
  -1  -3   8   23.92    6.40
   1   3  -7  382.04   19.82
  -1  -3   7  368.81   16.03
  -1  -3   7  375.14   16.28
   1   3  -7  397.48   18.95
  -1  -3   7  362.81   19.34
  -1  -3   7  385.99   17.22
  -1  -3   7  382.40   19.92
  -1  -3   7  375.42   11.44
  -1  -3   7  353.29   16.25
   1   3  -6  921.91   27.88
  -1  -3   6  939.33   25.23
  -1  -3   6  928.59   24.93
  -1  -3   6  913.37   25.71
  -1  -3   6  964.42   18.66
  -1  -3   6  922.26   29.23
   1   3  -6  932.41   29.13
  -1  -3   6  896.55   24.24
  -1  -3   6  899.95   28.89
  -1  -3   5  135.11   11.13
  -1  -3   5  113.46   10.12
  -1  -3   5  126.60    9.11
  -1  -3   5  129.76    8.52
  -1  -3   5  131.27    6.15
   1   3  -5  116.22   10.35
  -1  -3   5  135.45    8.57
   1   3  -5  123.98   10.20
  -1  -3   5  133.18    9.07
  -1  -3   5  121.15    9.57
   1   3  -5  137.20    8.93
  -1  -3   5  119.91   10.15
   1   3  -4  593.41   18.51
  -1  -3   4  553.83   19.51
  -1  -3   4  572.39   18.12
  -1  -3   4  571.53   19.52
  -1  -3   4  577.28   15.90
  -1  -3   4  565.74   16.85
  -1  -3   4  536.01   19.75
  -1  -3   4  556.49   17.95
  -1  -3   4  570.40   12.66
   1   3  -4  560.69   19.26
  -1  -3   4  597.81   17.61
   1   3  -4  568.25   17.18
  -1  -3   3   83.65    6.53
  -1  -3   3   84.44    6.29
   1   3  -3  108.45    8.13
  -1  -3   3   87.13    7.67
  -1  -3   3   95.30    7.37
  -1  -3   3   88.41    4.68
  -1  -3   3   96.43    7.08
  -1  -3   3  101.64    8.08
   1   3  -3  101.29    8.26
  -1  -3   3   80.16    8.13
  -1  -3   3   94.63    5.50
   1   3  -3   93.39    6.92
   1   3  -3   87.09    6.52
   1   3  -2  837.89   21.12
  -1  -3   2  843.90   22.43
   1   3  -2  884.45   22.46
   1   3  -2  839.29   18.97
  -1  -3   2  837.10   20.09
   1   3  -2  863.33   20.75
  -1  -3   2  865.03   20.84
  -1  -3   2  834.86   16.05
  -1  -3   2  876.38   22.58
  -1  -3   2  864.10   21.35
  -1  -3   2  869.88   19.12
   1   3  -2  815.60   19.64
  -1  -3   2  864.51   15.28
  -1  -3   1 1341.84   17.71
  -1  -3   1 1353.60   27.93
   1   3  -1 1329.69   25.10
   1   3  -1 1396.51   23.42
  -1  -3   1 1338.14   22.45
  -1  -3   1 1364.89   17.67
  -1  -3   1 1383.60   26.23
   1   3  -1 1351.51   25.79
   1   3  -1 1332.72   27.60
   1   3  -1 1401.43   26.93
  -1  -3   1 1382.81   23.52
  -1  -3   1 1337.59   27.88
  -1  -3   1 1337.80   25.15
  -1  -3   1 1347.48   26.67
   1   3   0 2238.33   30.73
  -1  -3   0 2189.12   37.14
   1   3   0 2201.35   36.58
  -1  -3   0 2238.05   36.08
   1   3   0 2235.28   32.84
   1   3   0 2161.07   35.55
   1   3   0 2150.88   36.56
  -1  -3   0 2237.91   37.29
   1   3   0 2215.11   32.66
   1   3   0 2204.61   35.26
  -1  -3   0 2201.60   32.58
   1   3   1  727.85   15.02
   1   3   1  724.66   16.73
  -1  -3  -1  764.28   18.56
   1   3   1  729.61   18.00
  -1  -3  -1  712.58   16.59
   1   3   1  737.39   18.22
   1   3   1  714.72   18.15
   1   3   2 1094.05   23.62
  -1  -3  -2 1061.89   23.49
  -1  -3  -2 1168.44   24.25
   1   3   2 1131.86   17.37
  -1  -3  -2 1103.75   22.55
   1   3   2 1005.23   22.03
   1   3   3   -1.83    4.00
  -1  -3  -3    5.21    3.81
   1   3   3   -1.64    2.52
  -1  -3  -3    6.71    3.34
   1   3   3    2.85    3.62
  -1  -3  -4 1266.92   27.71
   1   3   4 1229.53   27.72
  -1  -3  -4 1268.80   27.28
   1   3   4 1270.48   28.07
   1   3   4 1281.20   24.56
   1   3   4 1279.43   27.33
  -1  -3  -4 1266.50   27.00
  -1  -3  -5 1361.23   29.95
  -1  -3  -5 1333.00   29.29
   1   3   5 1344.40   30.27
   1   3   5 1329.74   30.04
   1   3   5 1359.38   29.81
  -1  -3  -5 1324.95   29.28
   1   3   5 1306.35   27.50
   1   3   6   64.77    7.44
   1   3   6   49.68    6.17
   1   3   6   48.09    6.53
  -1  -3  -6   45.29    6.36
   1   3   6   47.35    6.62
  -1  -3  -6   48.42    6.73
  -1  -3  -6   54.51    7.16
   1   3   7    8.21    5.36
   1   3   7    1.80    4.80
  -1  -3  -7    6.67    4.83
   1   3   7    7.19    5.42
  -1  -3  -7   -4.12    4.93
  -1  -3  -7   11.51    4.34
   1   3   7    8.05    4.55
  -1  -3  -8  442.81   17.72
   1   3   8  450.63   18.44
   1   3   8  484.23   19.50
   1   3   8  446.90   19.39
  -1  -3  -8  484.47   20.03
   1   3   9  431.11   20.53
  -1  -3  -9  421.35   18.12
  -1  -3  -9  417.86   19.78
   1   3   9  391.75   18.69
  -1  -3 -10  646.77   23.34
   1   3  10  638.79   26.66
  -1  -3 -10  704.94   26.29
   1   3  10  647.75   25.04
   1   3  11   68.51    9.84
  -1  -3 -11   70.01    9.75
  -1  -3 -11   71.42    8.90
   1   3  11   57.79    9.60
  -1  -3 -12  261.48   15.86
  -1  -3 -12  258.15   17.60
   1   3  12  275.81   17.83
   1   3  12  242.94   18.73
   1   3  13    0.62    6.33
  -1  -3 -13    0.82    4.91
  -1  -3 -13   10.92    7.95
   1   3  13   -4.20    6.89
   1   3  14   76.17   12.48
  -1  -3 -14   75.91    9.93
  -1  -3 -14   88.60   13.04
   1   3  14   79.98   12.38
  -1  -3 -15  138.71   15.28
   1   3  15  148.87   15.59
  -1  -4  10   -7.73    6.77
  -1  -4  10    2.10    7.16
  -1  -4  10   -2.43    6.03
  -1  -4  10   14.28    9.50
  -1  -4   9   15.45    5.16
  -1  -4   9   19.27    7.99
  -1  -4   9   22.52    6.46
  -1  -4   9    4.07    5.99
  -1  -4   8  212.71   14.36
  -1  -4   8  225.69   17.21
  -1  -4   8  222.91   14.24
   1   4  -8  255.97   18.72
  -1  -4   8  229.63   17.66
   1   4  -7 1066.37   35.30
  -1  -4   7 1063.46   29.74
  -1  -4   7 1040.04   30.80
  -1  -4   7 1002.75   34.85
  -1  -4   7 1111.12   22.53
  -1  -4   7 1062.60   35.02
  -1  -4   6  281.42   10.51
   1   4  -6  293.63   17.49
  -1  -4   6  306.21   18.54
  -1  -4   6  308.06   15.72
  -1  -4   6  300.86   17.55
  -1  -4   6  294.79   14.12
   1   4  -6  255.48   14.92
  -1  -4   6  267.66   10.33
  -1  -4   5   37.82    6.50
  -1  -4   5   40.36    4.64
  -1  -4   5   25.88    5.98
   1   4  -5   33.12    7.63
  -1  -4   5   37.73    8.82
  -1  -4   5   29.94    5.49
   1   4  -5   34.34    6.35
  -1  -4   5   36.34    5.49
   1   4  -5   39.96    6.21
  -1  -4   5   41.07    7.91
  -1  -4   4   20.42    3.73
  -1  -4   4   24.08    5.38
  -1  -4   4   21.97    4.91
  -1  -4   4   21.42    5.78
  -1  -4   4   29.89    7.04
   1   4  -4   27.67    5.43
  -1  -4   4   23.44    5.73
  -1  -4   4   15.77    6.84
   1   4  -4   17.05    4.93
  -1  -4   4   22.10    4.47
   1   4  -4   19.26    5.80
  -1  -4   3   80.99    8.01
  -1  -4   3   72.19    8.06
   1   4  -3   67.85    7.10
  -1  -4   3   64.92    8.19
  -1  -4   3   79.98    5.42
  -1  -4   3   73.40    6.71
   1   4  -3   69.06    7.59
   1   4  -3   74.83    6.99
  -1  -4   3   72.04    9.05
  -1  -4   3   73.79    5.67
  -1  -4   3   74.93    8.01
   1   4  -2  790.13   22.01
   1   4  -2  798.68   22.38
  -1  -4   2  766.11   21.97
  -1  -4   2  773.47   22.07
   1   4  -2  779.69   22.03
  -1  -4   2  786.92   14.91
  -1  -4   2  798.09   24.44
  -1  -4   2  783.93   19.08
   1   4  -2  724.62   22.99
  -1  -4   2  781.36   24.30
   1   4  -2  776.21   18.72
  -1  -4   2  744.68   18.02
  -1  -4   2  790.09   22.48
  -1  -4   1  894.82   20.05
  -1  -4   1  834.91   24.51
   1   4  -1  880.03   22.52
  -1  -4   1  858.42   13.73
   1   4  -1  847.96   22.67
   1   4  -1  891.16   18.38
  -1  -4   1  916.26   25.31
   1   4  -1  873.77   24.33
  -1  -4   1  847.17   18.48
  -1  -4   1  870.68   23.41
   1   4  -1  854.03   21.93
  -1  -4   0  462.37   16.72
   1   4   0  481.38   17.32
   1   4   0  482.29   15.48
  -1  -4   0  461.15   14.39
  -1  -4   0  497.10   17.86
   1   4   0  480.53   17.15
  -1  -4   0  479.77   17.44
   1   4   0  506.87   16.93
   1   4   0  504.68   15.35
   1   4   0  513.88   12.02
   1   4   0  484.08   14.61
  -1  -4  -1 1160.59   15.82
   1   4   1 1155.17   24.06
   1   4   1 1203.42   27.57
   1   4   1 1189.03   25.28
  -1  -4  -1 1172.27   27.50
   1   4   1 1189.82   25.15
  -1  -4  -1 1176.37   25.14
   1   4   1 1247.73   28.20
   1   4   1 1207.41   19.56
   1   4   1 1216.06   28.31
  -1  -4  -2  182.79    9.65
   1   4   2  199.87   10.77
  -1  -4  -2  197.30   10.96
   1   4   2  221.18   11.59
  -1  -4  -2  198.31    6.21
   1   4   2  199.01    6.47
   1   4   2  199.48   10.36
   1   4   2  188.70   10.77
   1   4   3  129.85    6.43
  -1  -4  -3  139.21    9.83
  -1  -4  -3  129.19    9.63
   1   4   3  128.91    9.12
   1   4   3  122.17    8.79
  -1  -4  -3  125.72    8.73
   1   4   4 3135.21   45.63
  -1  -4  -4 3161.26   53.34
   1   4   4 3084.36   52.74
  -1  -4  -4 3171.80   53.04
  -1  -4  -4 3157.24   51.81
   1   4   4 3136.72   52.27
   1   4   5   22.47    6.40
   1   4   5   31.01    6.69
  -1  -4  -5   26.90    6.09
   1   4   5   26.36    4.95
  -1  -4  -5   17.53    6.59
  -1  -4  -5   23.66    5.10
  -1  -4  -6   20.98    6.34
  -1  -4  -6   11.98    5.79
   1   4   6   20.12    5.59
   1   4   6   29.26    6.65
   1   4   6   22.46    5.55
   1   4   6   17.45    5.16
  -1  -4  -6   26.43    6.02
  -1  -4  -7  576.50   21.80
   1   4   7  528.89   19.59
   1   4   7  546.59   18.85
   1   4   7  528.78   21.04
  -1  -4  -7  496.37   19.55
  -1  -4  -8 1812.83   42.33
  -1  -4  -8 1791.94   40.13
   1   4   8 1725.90   38.88
   1   4   8 1828.45   42.16
   1   4   8 1773.55   40.55
   1   4   9  401.37   20.13
  -1  -4  -9  422.61   18.87
   1   4   9  409.28   20.01
  -1  -4  -9  397.33   20.31
   1   4  10   31.31    7.73
  -1  -4 -10   17.46    5.95
  -1  -4 -10   10.34    6.72
   1   4  10   17.52    6.90
  -1  -4 -11  265.13   15.87
  -1  -4 -11  335.89   19.80
   1   4  11  310.29   19.05
   1   4  11  290.55   18.96
   1   4  12  129.23   13.52
   1   4  12  107.97   12.78
  -1  -4 -12  104.22   10.70
  -1  -4 -12  119.25   13.33
   1   4  13  253.23   19.87
  -1  -4 -13  259.95   16.90
  -1  -4 -13  314.98   21.31
   1   4  13  229.15   18.03
   1   4  14   77.25   13.75
   1   4  14   68.51   11.85
  -1  -4 -14   64.62    9.44
  -1  -4 -14   49.94   10.58
   1   4  15    1.83    6.93
  -1  -4 -15   -9.68    8.76
  -1  -5   9  345.45   23.32
  -1  -5   9  300.98   22.66
  -1  -5   9  330.31   20.12
  -1  -5   8  655.85   30.36
  -1  -5   8  720.92   32.62
  -1  -5   8  717.25   28.46
   1   5  -8  716.00   32.54
  -1  -5   7   16.80    6.21
  -1  -5   7   11.92    5.16
   1   5  -7   26.20    8.21
  -1  -5   7   17.72    7.66
  -1  -5   7   25.17    9.72
  -1  -5   6    6.55    5.70
   1   5  -6    7.90    6.01
  -1  -5   6   19.25    8.35
  -1  -5   6    3.51    3.60
  -1  -5   6   10.60    5.88
  -1  -5   5   16.80    4.08
  -1  -5   5   15.95    6.61
  -1  -5   5   19.49    4.25
   1   5  -5   22.46    7.87
  -1  -5   5   31.70    9.76
  -1  -5   5   15.10    5.79
  -1  -5   4  373.56   16.00
  -1  -5   4  416.26   13.86
   1   5  -4  389.57   19.12
  -1  -5   4  401.10   19.24
  -1  -5   4  413.75   21.61
  -1  -5   4  408.74   18.90
   1   5  -4  431.85   17.06
  -1  -5   4  370.82   14.01
  -1  -5   4  380.64   13.45
   1   5  -3  306.43   16.35
  -1  -5   3  294.70   16.11
  -1  -5   3  307.17   10.48
  -1  -5   3  281.36   15.72
  -1  -5   3  311.93   18.55
   1   5  -3  297.90   13.07
  -1  -5   3  296.93   12.62
  -1  -5   3  278.09   12.91
  -1  -5   3  292.78   10.32
  -1  -5   2  331.96   15.72
   1   5  -2  324.82   15.72
  -1  -5   2  323.27   16.16
   1   5  -2  329.57   12.30
  -1  -5   2  311.44    9.22
   1   5  -2  305.64   14.52
  -1  -5   2  337.76   18.15
  -1  -5   2  298.60   12.14
  -1  -5   2  307.98   12.88
  -1  -5   1   47.34    7.83
  -1  -5   1   28.92    5.00
   1   5  -1   24.33    5.76
   1   5  -1   16.97    5.61
   1   5  -1   31.98    5.65
  -1  -5   1   30.81    2.77
  -1  -5   1   37.48    7.77
   1   5  -1   23.75    3.55
   1   5   0  334.20   14.10
  -1  -5   0  319.92   13.48
  -1  -5   0  332.19   15.95
  -1  -5   0  312.36    6.78
   1   5   0  301.04   13.98
   1   5   0  328.11   15.48
   1   5   0  336.09    9.79
   1   5   0  298.87   15.78
  -1  -5  -1  285.70   14.73
   1   5   1  309.40   13.67
   1   5   1  292.95   14.94
  -1  -5  -1  297.55    6.90
   1   5   1  267.27   13.02
   1   5   1  295.09   15.56
   1   5   1  297.88   15.25
   1   5   1  293.39   13.31
  -1  -5  -1  314.75   13.66
   1   5   1  309.01    8.61
  -1  -5  -2  831.84   14.87
   1   5   2  799.37   21.90
   1   5   2  817.68   25.39
  -1  -5  -2  849.28   25.54
   1   5   2  823.41   23.56
  -1  -5  -2  832.95   23.46
   1   5   2  777.27   24.69
   1   5   2  822.54   22.03
   1   5   2  840.03   15.20
   1   5   2  794.82   25.00
   1   5   2  833.28   15.09
   1   5   3 1622.14   37.43
   1   5   3 1665.72   27.17
  -1  -5  -3 1692.07   38.53
   1   5   3 1610.77   37.35
  -1  -5  -3 1692.63   38.26
   1   5   3 1587.75   36.76
   1   5   3 1638.47   35.92
  -1  -5  -3 1627.76   35.74
  -1  -5  -3 1649.37   26.42
  -1  -5  -4    4.96    4.03
   1   5   4    2.21    5.57
  -1  -5  -4    7.39    6.69
   1   5   4    4.60    3.13
  -1  -5  -4   14.87    5.47
   1   5   5   29.62    6.87
  -1  -5  -5   18.35    6.77
  -1  -5  -5   32.29    7.22
   1   5   5   30.78    5.26
  -1  -5  -6  919.95   29.23
   1   5   6  918.07   24.49
   1   5   6  902.94   22.20
   1   5   6  897.32   28.35
  -1  -5  -7 1643.99   41.44
  -1  -5  -7 1672.87   39.82
   1   5   7 1638.43   34.08
   1   5   7 1648.99   36.85
   1   5   7 1616.31   40.40
   1   5   8   82.80    9.44
   1   5   8   82.05   10.64
  -1  -5  -8   87.23   10.12
  -1  -5  -8   67.07    9.94
   1   5   8   76.47    8.37
   1   5   9   -0.23    6.49
  -1  -5  -9   19.66    6.67
  -1  -5  -9   30.03    8.23
   1   5   9    8.08    6.05
   1   5  10    5.60    7.08
  -1  -5 -10   -0.98    5.47
  -1  -5 -10   -5.93    6.92
   1   5  10   -2.38    5.51
  -1  -5 -11  728.86   27.84
   1   5  11  785.74   30.97
  -1  -5 -11  718.97   30.32
   1   5  11  771.71   31.20
  -1  -5 -12  396.27   20.79
   1   5  12  394.29   23.55
  -1  -5 -12  401.32   23.59
   1   5  12  398.73   23.50
   1   5  13   -0.72    7.66
   1   5  13    8.44    6.76
  -1  -5 -13   11.16    6.44
  -1  -5 -13    6.54    7.92
   1   5  14   26.99    8.76
   1   5  14   31.60    8.75
  -1  -5 -14   29.12    7.18
  -1  -5 -14   27.45    8.52
   1   5  15  105.78   14.76
  -1  -6   8   14.91    7.33
  -1  -6   8   43.56   10.94
   1   6  -8   23.91    9.91
  -1  -6   7    7.88    6.38
   1   6  -7   12.89    7.55
  -1  -6   7    4.35    7.46
  -1  -6   7   20.29    8.58
   1   6  -6   41.52    9.36
  -1  -6   6   62.17   10.04
  -1  -6   6   78.25   11.22
  -1  -6   6   52.07   10.64
  -1  -6   5  750.68   29.61
  -1  -6   5  766.56   29.86
   1   6  -5  824.68   31.76
  -1  -6   5  830.23   34.30
   1   6  -4  129.23   12.80
  -1  -6   4  117.86   12.29
  -1  -6   4  115.78   13.67
  -1  -6   4  140.31    7.98
  -1  -6   4  138.74   13.02
  -1  -6   3   16.88    3.23
   1   6  -3   18.99    7.09
  -1  -6   3   13.40    6.71
  -1  -6   3   13.99    4.61
  -1  -6   3   15.22    4.63
  -1  -6   3    5.87    8.46
  -1  -6   2    1.03    5.91
  -1  -6   2    1.93    3.70
   1   6  -2    8.08    5.39
  -1  -6   2    7.62    2.10
  -1  -6   2    1.45    2.14
  -1  -6   2   -0.20    8.44
   1   6  -1 1769.04   41.15
   1   6  -1 1700.38   38.36
  -1  -6   1 1763.69   24.24
   1   6  -1 1860.64   30.03
  -1  -6   1 1634.46   37.22
  -1  -6   1 1681.88   42.77
   1   6   0  168.87   12.23
  -1  -6   0  166.26    4.85
   1   6   0  182.81    7.07
  -1  -6   0  164.78   11.21
   1   6   0  164.72   11.09
  -1  -6   0  174.35   13.95
   1   6   1  722.08   22.38
  -1  -6  -1  746.64   27.00
  -1  -6  -1  724.11   12.42
   1   6   1  747.00   13.38
   1   6   1  745.35   24.01
   1   6   1  746.93   27.34
   1   6   2    4.52    1.85
   1   6   2    3.71    4.93
   1   6   2   -0.35    5.19
   1   6   2    8.28    4.85
  -1  -6  -2   -7.82    6.58
   1   6   2    3.99    6.94
  -1  -6  -2    9.42    2.14
   1   6   2    6.17    1.49
   1   6   3   26.89    7.95
   1   6   3   31.13    6.13
  -1  -6  -3   36.56    3.82
   1   6   3   38.08    7.73
   1   6   3   35.25    4.05
   1   6   3   31.55    2.68
  -1  -6  -3   30.65    7.87
  -1  -6  -3   25.13    8.43
   1   6   4  190.25   14.53
   1   6   4  193.48    9.55
  -1  -6  -4  213.03   14.73
  -1  -6  -4  207.12   15.08
   1   6   4  193.48   13.50
  -1  -6  -5  865.62   29.85
   1   6   5  844.15   22.16
  -1  -6  -5  859.26   30.14
   1   6   5  847.91   28.62
   1   6   5  837.35   18.25
   1   6   6  392.40   16.03
   1   6   6  387.26   19.87
   1   6   6  403.39   13.47
  -1  -6  -6  376.52   20.35
   1   6   7    7.98    6.47
  -1  -6  -7    8.13    6.62
   1   6   7    8.88    5.22
  -1  -6  -7   14.68    7.67
   1   6   7   22.87    4.86
  -1  -6  -8   83.88   10.99
   1   6   8   88.43    8.08
  -1  -6  -8   94.71   10.93
   1   6   8   82.02    9.35
   1   6   8   88.27   10.84
   1   6   9   -1.75    5.83
  -1  -6  -9    2.11    6.49
   1   6   9    8.69    7.53
  -1  -6  -9   -1.87    5.40
  -1  -6 -10 1020.24   36.33
  -1  -6 -10 1016.64   34.20
   1   6  10  959.46   33.13
   1   6  10 1001.98   36.18
  -1  -6 -11  404.08   23.95
  -1  -6 -11  411.86   22.11
   1   6  11  381.28   23.47
   1   6  11  396.97   22.43
   1   6  12   79.43   11.86
  -1  -6 -12   82.85   10.93
   1   6  12   63.07   11.75
  -1  -6 -12   62.80   11.08
   1   6  13   11.64    8.69
   1   6  13    6.40    7.38
  -1  -6 -13   25.53    7.32
  -1  -6 -13   18.78    9.09
  -1  -6 -14  180.03   17.96
   1   6  14  172.63   18.35
   1   6  14  198.17   18.62
  -1  -7   7  250.70   20.51
  -1  -7   7  243.49   19.66
   1   7  -6  377.78   24.61
  -1  -7   6  323.42   21.64
  -1  -7   6  306.01   21.35
  -1  -7   5   56.42   10.09
   1   7  -5   86.26   12.43
  -1  -7   5   74.04   13.98
   1   7  -4   12.26    6.45
  -1  -7   4   13.25    7.19
  -1  -7   3   94.02   12.54
   1   7  -3   82.81   11.26
  -1  -7   2  625.44   28.06
   1   7  -2  602.36   26.17
   1   7  -1  334.98   18.86
  -1  -7   1  320.53   19.89
  -1  -7   0   90.63   12.20
   1   7   0   83.54    9.81
   1   7   1   15.09    7.61
   1   7   1   31.34    6.54
  -1  -7  -1   48.24    9.51
   1   7   1   30.20    6.83
   1   7   2   21.99    6.49
   1   7   2   24.53    5.67
  -1  -7  -2   24.77    8.71
   1   7   2   32.70    8.99
   1   7   3  368.09   18.20
  -1  -7  -3  372.08   21.16
   1   7   3  368.72   16.70
   1   7   3  402.42   22.24
   1   7   3  367.18   10.82
   1   7   3  370.70   19.17
   1   7   4  149.98   10.98
   1   7   4  134.58   12.23
  -1  -7  -4  162.26   15.16
   1   7   4  172.22   15.21
  -1  -7  -4  180.29   15.28
   1   7   4  138.07    8.04
   1   7   5  387.77   20.40
  -1  -7  -5  414.01   23.13
  -1  -7  -5  355.33   21.02
   1   7   5  358.36    8.98
   1   7   5  357.57    9.31
   1   7   5  361.56   20.65
   1   7   5  361.90   14.27
   1   7   6   48.13    6.74
  -1  -7  -6   49.64    9.38
   1   7   6   44.80    9.40
   1   7   6   58.49    4.62
   1   7   6   50.34    9.03
  -1  -7  -6   61.25   10.94
  -1  -7  -7   -0.26    7.28
   1   7   7    4.58    4.78
   1   7   7   -5.28    7.34
   1   7   8   46.79    9.82
   1   7   8   74.63    8.99
  -1  -7  -8   61.31    9.99
  -1  -7  -8   73.82   11.85
  -1  -7  -9  832.89   32.46
  -1  -7  -9  818.45   33.46
   1   7   9  774.75   28.54
   1   7   9  760.26   32.11
   1   7  10  406.97   21.68
  -1  -7 -10  436.76   24.03
  -1  -7 -10  430.71   25.40
   1   7  10  434.21   24.91
  -1  -7 -11   -0.80    7.86
   1   7  11    7.03    6.29
   1   7  11    9.71    8.17
  -1  -7 -11   17.55    7.59
   1   7  12    9.44    7.35
  -1  -7 -12   39.18   10.06
  -1  -7 -12   38.21   10.16
   1   7  12   25.35    9.41
  -1  -7 -13   19.45    9.47
   1   7  13   29.17    9.59
  -1  -7 -13   27.15    9.95
  -1  -8   5    3.13    8.31
   1   8  -4   -3.14    6.49
  -1  -8   4   -2.66    8.94
  -1  -8   3  168.76   17.01
   1   8  -3  140.11   14.73
   1   8  -2  313.03   20.53
  -1  -8   2  384.54   24.00
   1   8  -1   10.46    6.43
  -1  -8   1   21.49    9.07
   1   8   0    1.40    5.69
  -1  -8   0   -4.14    6.34
  -1  -8  -1   13.66    7.49
   1   8   1   10.07    5.89
   1   8   2  316.00   21.48
   1   8   2  289.81   17.92
  -1  -8  -2  304.64   21.02
  -1  -8  -3  129.34   14.67
   1   8   3  126.19   12.39
   1   8   3  124.08   13.85
  -1  -8  -3  140.03   14.79
   1   8   4  328.43   18.63
  -1  -8  -4  345.28   22.47
  -1  -8  -4  345.04   22.39
   1   8   4  343.26   22.22
   1   8   4  341.45   20.22
  -1  -8  -5  127.76   14.65
   1   8   5  104.75   13.23
  -1  -8  -5   90.97   12.59
   1   8   5   92.96   11.72
   1   8   5   99.14   11.05
   1   8   6   28.37    5.50
   1   8   6   34.88    8.38
  -1  -8  -6   25.51    7.74
   1   8   6   39.27   10.11
  -1  -8  -6   33.21   10.00
   1   8   7   69.47   11.25
   1   8   7   86.31   13.22
  -1  -8  -7   56.01   11.16
   1   8   7   58.58    7.83
   1   8   8  351.44   22.62
  -1  -8  -8  393.20   24.67
   1   8   8  352.41   18.11
  -1  -8  -9  416.10   25.69
   1   8   9  430.43   21.15
   1   8   9  417.46   25.27
  -1  -8  -9  460.54   26.27
   1   8  10    9.43    7.86
  -1  -8 -10   13.55    8.88
   1   8  10   -1.25    5.85
  -1  -8 -10   21.01   10.99
   1   8  11    0.40    6.74
  -1  -8 -11   -0.93    8.29
   1   8  11    4.73    6.96
  -1  -8 -11    5.20    8.86
  -1  -8 -12   63.25   12.02
   1   8  12   40.33   10.33
  -1  -8 -13  175.56   17.35
   1   8  13  172.80   17.32
   1   9  -2   19.74    8.19
   1   9  -1    3.75    6.83
   1   9   0   11.02    7.47
  -1  -9   0    6.20    7.36
  -1  -9  -1  403.06   26.08
   1   9   1  373.58   22.14
   1   9   2  211.03   17.02
  -1  -9  -2  197.48   18.52
   1   9   3   61.87   10.03
  -1  -9  -3   51.20   11.28
  -1  -9  -3   54.84   11.98
   1   9   3   46.00   10.71
   1   9   4   44.49   11.11
   1   9   4   43.18    9.31
  -1  -9  -4   23.35    8.69
  -1  -9  -4   42.30   11.21
  -1  -9  -5   25.82    9.81
   1   9   5   23.14    9.43
  -1  -9  -5   20.15    8.25
   1   9   5   42.10    9.26
   1   9   6  128.83   14.59
   1   9   6  142.84   15.65
   1   9   6  112.80   12.94
  -1  -9  -6  113.03   14.59
  -1  -9  -6  127.53   16.21
  -1  -9  -7  118.35   15.63
  -1  -9  -7  118.83   14.70
   1   9   7   82.01   13.45
   1   9   7   99.29   14.73
   1   9   8  133.54   15.27
  -1  -9  -8  120.46   15.50
   1   9   8  106.17   14.94
   1   9   9   23.17   10.27
  -1  -9  -9   21.15    9.35
  -1  -9 -10   43.64   11.17
  -1  -9 -11   78.40   13.54
  -2   8  10    9.35    8.81
  -2   8   9  219.00   18.75
  -2   8   5  122.61   16.67
  -2   8   4  497.35   29.26
  -2   7  11   15.87    8.97
   2  -7 -11   13.94    8.50
   2  -7 -10  219.75   20.19
  -2   7  10  236.16   19.64
   2  -7  -9  187.33   18.75
   2  -7  -9  171.29   17.35
  -2   7   9  182.16   16.88
   2  -7  -8   34.50    9.82
  -2   7   8   33.71    9.47
   2  -7  -8   46.33   10.25
  -2   7   7  103.39   12.52
   2  -7  -7  120.04   14.52
   2  -7  -6   79.33   12.13
  -2   7   6   92.32   11.38
   2  -7  -5  229.72   19.63
  -2   7   5  254.22   16.99
  -2   7   5  277.61   21.40
  -2   7   4  555.20   29.69
  -2   7   4  617.49   30.83
   2  -7  -4  594.35   30.40
  -2   7   4  552.18   23.85
  -2   7   3    1.78    6.99
  -2   7   3    2.44    7.70
  -2   7   3   -4.76    4.57
   2  -7  -3   16.88    8.32
  -2   7   2   13.56    8.10
  -2   7   2   14.02    7.40
   2  -7  -2    6.50    6.77
   2  -7  -1  141.02   15.89
  -2   7   1  140.49   15.75
  -2   7   1  136.74   15.63
  -2   7   0  243.32   19.83
   2  -7   0  255.19   21.38
  -2   7   0  203.25   18.61
   2  -7   1  105.02   15.19
  -2   7  -1  114.59   14.94
   2  -6 -13   16.90    7.52
   2  -6 -12  193.67   18.29
  -2   6  12  148.71   17.39
  -2   6  12  167.13   17.08
   2  -6 -11  170.93   17.08
  -2   6  11  156.57   16.65
  -2   6  11  191.87   17.42
   2  -6 -10  248.16   20.31
   2  -6 -10  242.70   16.11
  -2   6  10  249.51   19.98
  -2   6   9   14.26    8.46
   2  -6  -9   15.66    8.53
   2  -6  -9   13.63    8.15
   2  -6  -8   22.02    9.28
  -2   6   8    7.53    7.88
   2  -6  -8   19.57    8.63
   2  -6  -7   62.19   11.81
   2  -6  -7   54.33   10.18
  -2   6   7   33.03    8.40
  -2   6   6   69.69   10.17
   2  -6  -6   93.10   11.92
  -2   6   5  547.35   23.37
   2  -6  -5  515.96   25.93
   2  -6  -4    6.57    7.00
  -2   6   4    6.42    5.47
  -2   6   4   17.14    9.03
  -2   6   3   28.85    9.17
  -2   6   3   34.87    7.06
  -2   6   3   30.98    9.43
   2  -6  -3   36.55    9.64
   2  -6  -2  140.80   14.87
  -2   6   2  182.02   16.47
  -2   6   2  132.90   11.31
  -2   6   2  174.01   16.09
  -2   6   1  781.78   32.78
  -2   6   1  739.88   31.46
   2  -6  -1  795.13   33.07
  -2   6   0  136.15   14.98
   2  -6   0  118.55   14.01
  -2   6   0  112.67   14.03
  -2   6  -1  426.74   24.83
   2  -6   1  518.05   27.35
   2  -6   2   34.75   10.25
  -2   6  -2   37.77    9.24
  -2   6  -3  209.59   18.46
   2  -6   3  184.84   17.84
   2  -6   4   99.06   14.66
  -2   6  -4  126.46   15.78
   2  -5 -14   -6.78    8.21
  -2   5  14    7.43    7.39
  -2   5  13  235.88   21.02
   2  -5 -13  197.06   16.74
  -2   5  13  186.71   17.08
   2  -5 -12   73.28   12.01
  -2   5  12   92.76   13.82
  -2   5  12   89.75   12.31
   2  -5 -11  276.88   19.24
  -2   5  11  298.33   21.48
  -2   5  11  284.35   19.73
  -2   5  10   59.40    9.90
   2  -5 -10   57.70    8.32
  -2   5  10   37.95    9.75
   2  -5 -10   56.68   10.30
   2  -5  -9  307.76   19.61
  -2   5   9  310.37   20.29
  -2   5   9  265.86   18.40
   2  -5  -8   70.38    9.75
   2  -5  -8   94.86   11.43
  -2   5   8   96.89   12.14
  -2   5   7 1250.08   37.38
   2  -5  -7 1224.94   37.59
   2  -5  -7 1261.58   39.03
  -2   5   7 1279.35   26.52
  -2   5   6  181.52   14.41
   2  -5  -6  192.16   14.82
  -2   5   5   30.44    7.34
  -2   5   5   25.04    2.21
   2  -5  -5   40.93    8.82
  -2   5   4   28.77    7.10
   2  -5  -4   18.89    6.85
   2  -5  -3  170.25   14.04
  -2   5   3  159.31   12.10
  -2   5   2  694.12   28.53
  -2   5   2  672.63   23.40
  -2   5   2  710.63   27.87
   2  -5  -2  685.16   27.45
  -2   5   1   89.40   11.14
   2  -5  -1  122.63   12.75
  -2   5   1  110.10    9.82
  -2   5   1  102.08   12.33
   2  -5   0   11.97    7.88
  -2   5   0   10.88    7.35
  -2   5   0    2.09    5.75
  -2   5  -1   29.45    8.10
  -2   5  -1   26.02    8.39
   2  -5   1   48.50    9.15
  -2   5  -2 1139.70   38.58
   2  -5   2 1133.62   38.65
  -2   5  -3  293.13   20.45
   2  -5   3  282.18   13.15
   2  -5   3  298.89   20.34
   2  -5   4  121.14    9.94
  -2   5  -4  121.03   14.35
   2  -5   4  101.12   13.49
   2  -5   5   16.73    8.56
  -2   5  -5   10.41    8.43
  -2   5  -6  -10.94    9.22
   2  -5   6   10.12    9.36
  -2   4  14   57.02   10.35
  -2   4  13   78.56   13.80
  -2   4  13   87.33   11.67
   2  -4 -13   90.74   11.58
  -2   4  12    6.76    7.52
  -2   4  12    8.72    6.43
   2  -4 -12    5.61    6.43
   2  -4 -11   44.01    9.19
  -2   4  11   49.56    9.39
  -2   4  11   42.06    9.87
   2  -4 -10  335.30   14.82
  -2   4  10  362.55   21.79
  -2   4  10  344.77   19.76
   2  -4 -10  301.87   18.19
  -2   4   9  495.59   24.36
   2  -4  -9  466.31   22.02
   2  -4  -9  482.26   18.07
  -2   4   9  473.74   22.25
  -2   4   8 1666.22   43.83
  -2   4   8 1585.02   35.06
   2  -4  -8 1571.91   41.08
  -2   4   8 1552.64   41.25
  -2   4   7   89.31    7.51
   2  -4  -7   86.94    9.92
  -2   4   7   72.19    9.94
   2  -4  -7   99.05   10.72
  -2   4   7   98.14   10.70
  -2   4   6  328.77   17.85
   2  -4  -6  324.02   17.10
   2  -4  -6  322.21   18.23
  -2   4   6  315.27   12.22
  -2   4   5   16.06    7.36
   2  -4  -5   18.67    4.89
   2  -4  -5   38.36    8.00
   2  -4  -4  640.10   23.83
   2  -4  -4  624.33   22.21
   2  -4  -4  646.33   21.71
  -2   4   4  633.47   22.63
   2  -4  -3  926.04   26.66
   2  -4  -3  930.38   28.77
  -2   4   3  910.60   26.67
   2  -4  -2    5.93    5.40
  -2   4   2    5.84    5.72
   2  -4  -2    8.75    4.72
  -2   4   1  961.63   30.26
  -2   4   1 1006.01   31.55
   2  -4  -1 1012.24   27.76
   2  -4  -1  997.12   30.79
  -2   4   1  999.96   27.28
  -2   4   0   74.39    9.84
   2  -4   0   69.71    9.99
  -2   4   0   64.25    9.92
   2  -4   0   63.00    7.91
   2  -4   0   64.07    3.39
  -2   4  -1 1301.15   37.58
   2  -4   1 1275.53   32.58
  -2   4  -1 1308.55   35.25
   2  -4   1 1299.06   37.02
   2  -4   1 1276.02   21.99
  -2   4  -2  411.26   21.10
   2  -4   2  433.13   21.48
   2  -4   2  456.91   13.56
   2  -4   2  431.42   13.79
   2  -4   3   16.62    7.48
   2  -4   3   25.46    4.96
   2  -4   3   15.39    3.99
  -2   4  -3   16.69    6.81
   2  -4   4   -1.01    5.32
   2  -4   4   -0.63    4.02
  -2   4  -4   11.03    7.58
   2  -4   4    6.69    4.16
   2  -4   5   71.03   11.11
  -2   4  -5   75.09   11.81
   2  -4   5   69.87    8.43
  -2   4  -6  983.59   37.61
   2  -4   6  937.56   30.12
   2  -4   6  988.99   36.77
  -2   4  -7  487.01   27.48
   2  -4   7  496.56   23.16
   2  -4   7  466.39   26.21
   2  -4   8  158.91   16.65
  -2   4  -8  145.50   16.43
   2  -4   8  167.24   14.97
   2  -4   8  152.93   15.44
   2  -4   8  140.34   13.46
   2  -4   9   -0.95    6.98
   2  -4   9    2.83    9.12
  -2   3  14  143.21   13.85
  -2   3  14  131.56   14.90
  -2   3  13   48.54    9.19
   2  -3 -13   69.46    9.54
  -2   3  13   61.25   11.09
   2  -3 -12    5.15    4.89
  -2   3  12   -3.18    6.30
  -2   3  12   16.45    9.43
  -2   3  11  271.12   19.41
  -2   3  11  298.80   17.63
   2  -3 -11  281.16   16.70
  -2   3  10  849.71   32.44
   2  -3 -10  826.32   27.73
   2  -3 -10  834.65   20.33
  -2   3  10  848.10   28.88
  -2   3   9   40.50    8.46
   2  -3  -9   31.09    4.76
   2  -3  -9   31.28    6.87
   2  -3  -9   39.04    7.27
  -2   3   9   36.70    6.15
  -2   3   9   35.88    7.29
  -2   3   8   28.53    6.54
  -2   3   8   23.81    6.24
  -2   3   8   19.78    5.14
  -2   3   8   30.69    9.26
   2  -3  -8   14.30    4.44
   2  -3  -8   15.99    5.74
   2  -3  -8   25.28    6.52
  -2   3   7   69.96    8.87
   2  -3  -7   61.00    7.95
   2  -3  -7   77.27    8.74
  -2   3   7   80.08   10.06
   2  -3  -7   72.43    7.55
  -2   3   7   64.33    7.21
  -2   3   7   64.70    7.33
   2  -3  -6  606.96   18.06
   2  -3  -6  600.30   20.72
   2  -3  -6  609.85   22.04
  -2   3   6  598.59   22.68
  -2   3   6  587.40   19.84
  -2   3   6  585.52   17.96
  -2   3   6  572.63   21.31
   2  -3  -5 1041.48   27.14
   2  -3  -5 1046.25   22.31
  -2   3   5 1062.34   29.48
   2  -3  -5 1015.25   28.87
  -2   3   5 1027.38   26.73
   2  -3  -5 1023.91   28.86
  -2   3   5 1034.25   22.75
   2  -3  -4 1783.68   34.75
   2  -3  -4 1849.30   29.33
  -2   3   4 1835.94   37.30
   2  -3  -4 1897.31   38.19
   2  -3  -4 1797.49   38.34
   2  -3  -4 1794.37   39.31
  -2   3   4 1864.64   39.38
   2  -3  -3   21.20    5.53
   2  -3  -3   24.42    3.06
  -2   3   3   24.26    5.24
   2  -3  -3   21.89    4.96
   2  -3  -3   20.32    5.48
   2  -3  -3   25.77    5.47
  -2   3   3   18.18    5.70
   2  -3  -2   64.63    7.64
  -2   3   2   77.13    7.82
  -2   3   2   75.63    7.83
   2  -3  -2   70.42    7.07
   2  -3  -2   59.44    6.78
   2  -3  -2   79.70    8.23
   2  -3  -2   80.09    4.07
   2  -3  -1  112.91    9.96
   2  -3  -1  103.70    8.74
   2  -3  -1   89.04    8.17
  -2   3   1  109.26    8.79
  -2   3   1  108.21    8.89
   2  -3  -1  105.53    4.77
   2  -3  -1   96.99    8.71
  -2   3   0 1755.32   39.93
  -2   3   0 1756.25   38.12
   2  -3   0 1661.06   37.59
   2  -3   0 1773.07   39.05
   2  -3   0 1786.24   36.64
  -2   3   0 1773.68   36.21
  -2   3   0 1843.89   39.18
  -2   3   0 1753.17   37.51
  -2   3  -1  624.76   21.54
   2  -3   1  684.38   14.05
  -2   3  -1  676.39   24.05
   2  -3   1  638.55   23.09
  -2   3  -1  671.64   21.85
   2  -3   1  649.53   21.09
   2  -3   2    7.51    5.15
  -2   3  -2   15.87    6.55
   2  -3   2   13.52    4.97
  -2   3  -2   10.53    5.71
   2  -3   2   10.37    3.49
  -2   3  -2   24.89    5.91
   2  -3   2   11.42    3.27
   2  -3   3   39.37    5.33
   2  -3   3   35.68    7.97
   2  -3   3   40.30    6.71
  -2   3  -3   52.18    9.01
   2  -3   3   48.28    5.94
  -2   3  -4  181.97   14.08
   2  -3   4  170.37   10.53
   2  -3   4  160.03   10.38
   2  -3   4  180.28   14.18
  -2   3  -5  705.53   28.34
   2  -3   5  683.17   22.64
   2  -3   5  664.06   26.90
   2  -3   5  653.93   22.29
   2  -3   5  720.20   26.17
  -2   3  -6  195.01   15.84
   2  -3   6  212.97   13.71
   2  -3   6  196.87   15.46
   2  -3   6  163.25   13.46
   2  -3   7   53.20   10.14
  -2   3  -7   31.99    9.45
   2  -3   7   27.33    6.97
   2  -3   7   25.88    7.50
   2  -3   8   42.35    9.36
   2  -3   8   27.82    7.90
   2  -3   8   40.31    7.83
   2  -3   8   39.43    8.95
  -2   3  -8   48.25   10.13
   2  -3   9   72.70   11.69
  -2   3  -9   79.65   13.16
   2  -3   9   62.33   11.25
   2  -3   9   50.54    9.81
   2  -3   9   58.59    9.17
   2  -3  10  171.34   16.82
   2  -3  10  187.71   18.37
   2  -3  10  202.05   17.35
  -2   2  14    7.38    7.65
   2  -2 -13    3.65    5.07
  -2   2  13   -3.72    6.95
  -2   2  13    2.95    5.09
  -2   2  13    7.33    8.80
  -2   2  12  428.55   20.27
  -2   2  12  423.25   25.14
   2  -2 -12  466.20   20.36
  -2   2  11  448.63   24.76
   2  -2 -11  467.50   19.75
  -2   2  11  435.71   19.90
  -2   2  10   15.27    5.68
   2  -2 -10   17.63    2.83
  -2   2  10   24.49    7.66
   2  -2 -10   20.46    5.67
   2  -2 -10   23.06    6.73
  -2   2  10   18.63    4.99
  -2   2   9  284.06   18.16
  -2   2   9  272.38   13.00
   2  -2  -9  271.49    9.11
   2  -2  -9  275.34   13.96
   2  -2  -9  303.22   16.44
  -2   2   9  279.85   14.78
  -2   2   8    7.08    3.77
  -2   2   8    8.11    5.08
   2  -2  -8    5.06    4.43
   2  -2  -8    4.85    2.44
   2  -2  -8    7.55    4.92
  -2   2   8   -6.50    7.82
   2  -2  -8    3.55    5.20
   2  -2  -7  345.90   14.82
   2  -2  -7  346.63   10.61
  -2   2   7  362.42   13.84
  -2   2   7  349.69   17.77
   2  -2  -7  327.36   15.33
  -2   2   7  359.76   15.67
   2  -2  -7  355.65   15.60
  -2   2   7  343.01   15.09
  -2   2   6  259.84   11.12
   2  -2  -6  246.27   12.23
   2  -2  -6  230.43   11.31
   2  -2  -6  258.72   14.11
  -2   2   6  228.68   13.76
   2  -2  -6  226.08   11.42
  -2   2   6  241.72   12.09
   2  -2  -6  244.76   13.01
  -2   2   6  228.69   12.22
   2  -2  -5  670.56   21.68
   2  -2  -5  665.44   18.60
  -2   2   5  646.37   18.08
  -2   2   5  707.33   22.62
   2  -2  -5  674.06   18.35
   2  -2  -5  643.62   19.68
  -2   2   5  677.08   18.43
   2  -2  -5  683.71   20.86
  -2   2   5  693.96   20.64
   2  -2  -4 1430.08   31.44
   2  -2  -4 1387.66   25.82
  -2   2   4 1392.21   22.65
   2  -2  -4 1353.31   24.96
   2  -2  -4 1419.27   28.44
  -2   2   4 1359.21   27.71
  -2   2   4 1379.77   31.50
   2  -2  -4 1387.89   30.52
  -2   2   4 1353.24   25.94
   2  -2  -3  913.97   23.64
  -2   2   3  833.18   13.68
   2  -2  -3  858.33   19.61
   2  -2  -3  867.56   21.53
  -2   2   3  870.07   23.51
  -2   2   3  877.40   21.16
   2  -2  -3  848.94   22.66
   2  -2  -3  856.33   17.89
   2  -2  -2 1130.14   25.63
   2  -2  -2 1133.93   24.14
  -2   2   2 1201.25   26.92
   2  -2  -2 1149.78   26.63
  -2   2   2 1150.07   25.43
   2  -2  -2 1134.35   19.78
   2  -2  -2 1136.96   26.55
   2  -2  -1 2076.77   37.24
   2  -2  -1 2104.97   38.08
  -2   2   1 2048.71   37.94
  -2   2   1 2156.11   38.07
   2  -2  -1 2137.21   38.43
   2  -2  -1 2122.50   30.17
   2  -2   0 2991.81   48.49
  -2   2   0 2889.05   47.13
  -2   2   0 3052.31   50.89
   2  -2   0 3047.46   49.08
   2  -2   0 2976.99   49.15
  -2   2   0 2977.63   48.84
  -2   2   0 2998.14   47.91
  -2   2  -1  212.10   12.20
   2  -2   1  174.97   10.58
  -2   2  -1  192.89   10.65
   2  -2   1  201.05    6.63
  -2   2  -1  198.06   11.25
   2  -2   1  201.05   11.20
  -2   2  -1  228.56   11.79
   2  -2   1  192.25   11.47
  -2   2  -1  193.32   10.50
   2  -2   1  198.87   10.79
   2  -2   2  122.87    8.75
   2  -2   2  125.20    9.93
  -2   2  -2  121.61    8.61
  -2   2  -2  116.44    9.83
  -2   2  -2  127.38    9.85
   2  -2   2  117.74    9.42
  -2   2  -2  111.86    9.15
  -2   2  -2  119.30    8.25
   2  -2   2  112.32    9.26
  -2   2  -3   11.98    6.63
   2  -2   3    5.57    5.57
   2  -2   3   -0.26    3.96
  -2   2  -3    7.80    4.07
  -2   2  -3    8.94    5.81
   2  -2   3   13.42    5.59
   2  -2   3    4.10    4.15
  -2   2  -3    6.91    3.68
   2  -2   3   -0.38    6.09
  -2   2  -4  324.84   14.02
  -2   2  -4  319.01   17.10
   2  -2   4  302.42   14.44
  -2   2  -4  296.27   16.05
   2  -2   4  303.44   16.05
   2  -2   4  309.32   13.70
   2  -2   4  323.40   14.79
   2  -2   4  301.79   15.02
  -2   2  -5    8.45    6.51
   2  -2   5    3.58    4.91
  -2   2  -5   15.88    7.47
  -2   2  -5   -1.17    4.03
   2  -2   5   -3.94    4.54
   2  -2   5   -5.45    5.90
   2  -2   5    0.91    4.96
  -2   2  -6   12.16    6.45
  -2   2  -6   34.48    7.75
   2  -2   6   21.62    7.47
   2  -2   6   22.43    7.27
  -2   2  -7    2.96    6.11
   2  -2   7   13.93    5.85
  -2   2  -7    7.21    6.09
   2  -2   7   11.75    5.69
   2  -2   7    8.70    5.69
  -2   2  -8  132.28   13.88
   2  -2   8  125.42   12.96
  -2   2  -8  141.74   13.80
   2  -2   8  134.74   12.38
   2  -2   8  134.57   11.78
  -2   2  -9  244.71   18.67
   2  -2   9  202.44   16.64
   2  -2   9  244.25   16.51
   2  -2   9  237.85   15.80
  -2   2  -9  222.04   17.32
  -2   2 -10   30.12    8.49
   2  -2  10   47.55    9.78
   2  -2  10   12.46    9.16
  -2   2 -10   31.49    8.85
   2  -2  10   36.32    8.72
   2  -2  10   31.06    8.22
   2  -2  11  164.21   16.48
   2  -2  11  145.92   15.59
  -2   2 -11  168.76   16.52
   2  -2  11  179.69   17.25
   2  -2  11  216.56   17.32
  -2   1  14    9.66    6.99
  -2   1  13  247.42   20.45
  -2   1  13  237.82   19.32
   2  -1 -12  882.62   27.09
  -2   1  12  865.14   34.23
  -2   1  12  842.90   34.62
  -2   1  12  855.36   26.91
  -2   1  11  153.62   13.94
  -2   1  11  153.89   11.07
  -2   1  11  148.33   14.54
   2  -1 -11  165.79   11.12
  -2   1  10   11.40    4.83
   2  -1 -10    6.71    3.77
  -2   1  10    1.24    3.60
   2  -1 -10    5.99    1.89
  -2   1  10   14.84    6.96
   2  -1 -10    3.97    3.68
   2  -1 -10    2.07    5.53
   2  -1  -9  107.99    4.69
  -2   1   9  110.46    8.09
   2  -1  -9  129.26    9.13
   2  -1  -9   95.80    8.24
  -2   1   9  122.16    9.56
  -2   1   9  120.00   12.72
   2  -1  -9  101.30   11.13
  -2   1   8  524.59   22.20
   2  -1  -8  540.10   10.46
  -2   1   8  521.29   15.78
   2  -1  -8  593.17   22.23
   2  -1  -8  525.19   18.07
  -2   1   8  555.29   18.27
   2  -1  -8  553.98   17.45
  -2   1   7   70.09    8.00
   2  -1  -7   61.90    6.66
  -2   1   7   72.15    7.07
   2  -1  -7   59.06    3.03
  -2   1   7   73.02    9.17
   2  -1  -7   65.84    6.09
   2  -1  -7   63.59    7.89
  -2   1   7   65.69    5.56
   2  -1  -6  233.51    5.99
   2  -1  -6  245.73   13.30
   2  -1  -6  266.32   12.88
  -2   1   6  252.65   14.26
   2  -1  -6  246.31   10.35
  -2   1   6  241.41   12.26
   2  -1  -6  253.55   11.29
  -2   1   6  243.41   11.00
  -2   1   6  259.31    9.59
   2  -1  -5  342.27   11.85
  -2   1   5  333.90   12.38
  -2   1   5  328.59   14.74
   2  -1  -5  346.46    7.94
  -2   1   5  360.61   10.88
  -2   1   5  360.83   13.81
   2  -1  -5  354.13   13.61
   2  -1  -5  352.74   12.95
   2  -1  -5  365.48   14.98
  -2   1   5  340.53   12.72
   2  -1  -4  139.64    8.15
   2  -1  -4  139.16    9.36
  -2   1   4  142.48    7.11
   2  -1  -4  142.33    5.36
   2  -1  -4  139.80    6.95
  -2   1   4  145.89    9.80
  -2   1   4  159.97    8.68
  -2   1   4  154.97    6.91
   2  -1  -4  147.00    8.31
   2  -1  -3   73.31    5.62
  -2   1   3   71.16    4.44
   2  -1  -3   77.66    4.46
   2  -1  -3   84.79    5.58
   2  -1  -3   86.27    6.24
   2  -1  -3   76.39    6.75
  -2   1   3   78.29    5.11
  -2   1   3   81.39    7.12
  -2   1   3   91.02    6.21
   2  -1  -2  519.96   15.91
  -2   1   2  550.07   13.83
  -2   1   2  509.49    9.80
   2  -1  -2  517.01   12.72
  -2   1   2  552.34   16.48
   2  -1  -2  535.40   13.83
   2  -1  -2  527.37   13.20
   2  -1  -2  519.84   15.02
  -2   1   1 1562.65   29.43
   2  -1  -1 1542.95   26.53
  -2   1   1 1565.21   26.81
   2  -1  -1 1514.99   27.05
  -2   1   1 1521.59   27.02
   2  -1  -1 1524.30   29.45
   2  -1  -1 1496.42   24.83
  -2   1   0 1798.69   31.20
   2  -1   0 1728.89   30.78
   2  -1   0 1791.53   31.28
   2  -1   0 1788.15   32.10
  -2   1   0 1772.94   31.06
  -2   1   0 1771.48   31.91
  -2   1  -1  261.19   11.99
   2  -1   1  271.99   11.61
  -2   1  -1  266.43   10.09
  -2   1  -1  286.80   12.04
   2  -1   1  280.46   11.57
   2  -1   1  251.34   11.46
   2  -1   1  263.40   11.51
  -2   1  -1  260.50   11.29
  -2   1  -1  266.05    9.89
  -2   1  -1  289.87   11.74
  -2   1  -2  166.45   10.07
  -2   1  -2  146.10    9.78
   2  -1   2  130.63    8.80
   2  -1   2  153.57    9.50
   2  -1   2  147.21    9.23
  -2   1  -2  149.26    9.31
   2  -1   2  141.87    8.84
  -2   1  -2  158.33    7.74
  -2   1  -2  154.33    7.63
   2  -1   3 2655.60   46.05
   2  -1   3 2550.37   45.76
   2  -1   3 2600.02   45.44
   2  -1   3 2545.33   44.44
  -2   1  -3 2509.18   45.59
   2  -1   3 2616.11   46.02
   2  -1   3 2505.87   40.11
   2  -1   3 2557.42   40.18
  -2   1  -3 2567.08   39.48
  -2   1  -3 2602.16   45.78
  -2   1  -4   87.74    8.52
  -2   1  -4   98.59    8.95
   2  -1   4   77.84    8.05
   2  -1   4   76.54    8.26
   2  -1   4   75.21    8.11
  -2   1  -4   67.85    7.69
   2  -1   4   96.17    7.23
  -2   1  -4   84.96    6.43
   2  -1   4   71.22    6.55
   2  -1   4   67.63    7.40
  -2   1  -5    7.24    6.23
   2  -1   5    3.57    5.22
   2  -1   5    9.29    4.33
  -2   1  -5    7.13    5.66
   2  -1   5   11.29    4.47
  -2   1  -5    4.14    5.45
   2  -1   6    6.77    4.36
   2  -1   6   -8.33    5.89
  -2   1  -6   18.05    6.75
  -2   1  -6    4.49    5.33
   2  -1   6    0.18    4.53
  -2   1  -6    2.42    5.57
   2  -1   6    6.65    5.21
  -2   1  -7  917.90   30.66
   2  -1   7  920.16   26.42
  -2   1  -7  939.32   30.38
  -2   1  -7  964.12   30.35
   2  -1   7  928.85   26.48
   2  -1   7  869.15   29.25
   2  -1   7  918.69   27.79
  -2   1  -8  103.02   11.67
   2  -1   8   81.66    9.99
   2  -1   8   89.96    9.26
  -2   1  -8   84.34   10.46
  -2   1  -8   97.83   10.91
   2  -1   8   90.08    9.77
  -2   1  -9  356.32   19.88
  -2   1  -9  360.75   21.26
  -2   1  -9  350.34   19.87
   2  -1   9  362.06   18.57
   2  -1   9  364.33   18.26
   2  -1   9  346.40   19.99
  -2   1 -10   61.32   11.57
   2  -1  10   37.30    8.39
   2  -1  10   38.93    7.59
  -2   1 -10   29.20    7.91
  -2   1 -10   61.07   10.65
   2  -1  10   52.19    8.80
   2  -1  11   22.91    8.26
  -2   1 -11   16.04    9.60
   2  -1  11   25.73    7.06
   2  -1  11   19.60    6.77
  -2   1 -12  304.15   21.67
   2  -1  12  269.44   21.41
   2  -1  12  274.93   18.96
   2  -1  12  270.58   20.87
  -2   1 -13  276.51   20.83
  -2   0  13  638.10   31.72
  -2   0  13  615.59   31.32
  -2   0  12  231.51   18.71
  -2   0  12  247.52   19.18
   2   0 -12  234.38   13.22
  -2   0  11   13.46    4.68
  -2   0  11    5.08    3.34
  -2   0  11    7.58    7.62
  -2   0  11   26.19    9.43
   2   0 -11    6.16    3.72
   2   0 -11   14.82    7.67
  -2   0  10  747.44   19.90
  -2   0  10  722.81   28.40
  -2   0  10  715.11   21.72
  -2   0  10  719.42   20.06
   2   0 -10  715.11   28.71
   2   0 -10  719.81   20.82
   2   0 -10  686.05   20.09
  -2   0  10  763.75   29.78
  -2   0  10  734.71   20.95
  -2   0   9  855.28   29.30
  -2   0   9  860.66   22.60
  -2   0   9  840.22   20.70
  -2   0   9  877.77   29.74
   2   0  -9  785.25   20.90
   2   0  -9  848.43   29.78
   2   0  -9  860.00   21.72
  -2   0   9  873.66   21.78
  -2   0   8 1390.39   36.82
  -2   0   8 1432.54   36.38
  -2   0   8 1417.19   28.47
  -2   0   8 1405.91   26.24
   2   0  -8 1425.37   27.81
   2   0  -8 1475.02   37.59
   2   0  -8 1410.04   27.80
  -2   0   8 1441.43   28.04
   2   0  -7   68.58    7.87
  -2   0   7   64.29    5.70
   2   0  -7   55.53    4.90
  -2   0   7   69.40    8.36
  -2   0   7   61.84    8.00
  -2   0   7   62.94    5.59
   2   0  -7   68.68    5.88
  -2   0   7   62.88    4.96
   2   0  -7   68.89    8.31
  -2   0   6   19.94    4.97
  -2   0   6   20.99    6.15
  -2   0   6   27.90    3.89
  -2   0   6   33.81    5.38
   2   0  -6   24.35    3.39
  -2   0   6   29.59    3.31
   2   0  -6   28.70    3.90
   2   0  -6   25.04    5.45
   2   0  -6   27.48    5.12
  -2   0   5  413.32   14.73
  -2   0   5  390.30    9.06
  -2   0   5  407.97   15.64
  -2   0   5  429.27   15.51
   2   0  -5  394.53   15.13
   2   0  -5  400.69   11.75
   2   0  -5  424.43   15.59
  -2   0   5  398.70   11.48
   2   0  -5  401.09   10.48
   2   0  -4    5.21    2.88
  -2   0   4    6.44    1.87
  -2   0   4    4.29    3.66
  -2   0   4    6.22    3.70
   2   0  -4    7.49    3.65
   2   0  -4    3.37    1.91
   2   0  -4    3.64    3.52
  -2   0   4    1.93    4.16
   2   0  -3    9.79    3.96
   2   0  -3   12.31    3.05
  -2   0   3   17.17    4.26
  -2   0   3   17.03    2.11
  -2   0   3   21.73    4.00
   2   0  -3   11.85    4.12
  -2   0   3   16.83    5.33
   2   0  -3    7.22    1.82
  -2   0   2 2163.85   35.33
   2   0  -2 2140.44   33.60
   2   0  -2 2204.70   35.23
  -2   0   2 2151.90   30.73
   2   0  -2 2127.52   30.48
   2   0  -2 2202.69   27.37
   2   0  -2 2162.56   28.17
  -2   0   2 2163.04   27.22
  -2   0   2 2197.97   34.06
  -2   0   2 2149.53   27.99
  -2   0   1 1931.86   27.26
   2   0  -1 1938.55   27.54
   2   0  -1 1881.12   27.67
   2   0  -1 1970.13   26.62
   2   0  -1 1961.81   32.10
  -2   0   1 1947.44   32.05
   2   0  -1 1969.28   27.48
  -2   0   1 1942.39   27.49
   2   0  -1 1897.62   30.42
   2   0   0 3071.64   41.56
  -2   0   0 3066.50   41.59
   2   0   0 3086.75   42.01
   2   0   0 3041.76   44.23
  -2   0   0 3106.76   44.26
   2   0   0 3136.63   41.58
  -2   0   0 3147.18   41.71
   2   0   1 7576.14   90.45
  -2   0  -1 7655.98   90.39
   2   0   1 7641.13   91.91
  -2   0  -1 7741.94   91.03
   2   0   1 7738.01   91.45
  -2   0  -1 7801.60   90.95
  -2   0  -1 7633.87   92.47
   2   0   1 7736.81   91.01
  -2   0  -2 3161.75   45.26
  -2   0  -2 3203.79   46.73
   2   0   2 2928.87   46.12
  -2   0  -2 3123.12   38.07
   2   0   2 3006.27   46.08
   2   0   2 2951.50   45.36
   2   0   2 2978.64   44.77
   2   0   2 2981.88   45.94
  -2   0  -2 3136.24   46.27
   2   0   3 1287.75   27.01
  -2   0  -3 1335.85   27.26
  -2   0  -3 1319.43   27.81
   2   0   3 1315.39   21.62
   2   0   3 1321.42   27.87
   2   0   3 1336.52   28.24
  -2   0  -3 1376.61   27.96
   2   0   3 1355.53   21.70
  -2   0  -3 1318.39   21.15
   2   0   3 1357.40   28.21
  -2   0  -4   29.27    5.50
  -2   0  -4   32.84    5.69
   2   0   4   23.37    5.22
   2   0   4   20.57    5.95
   2   0   4   22.92    4.95
   2   0   4   23.11    4.85
   2   0   4   22.89    3.69
  -2   0  -4   27.19    6.12
   2   0   4   23.54    3.98
   2   0   5  762.99   18.07
  -2   0  -5  745.60   22.34
   2   0   5  748.88   22.56
  -2   0  -5  722.02   22.36
   2   0   5  749.34   22.93
  -2   0  -5  746.57   22.67
   2   0   5  755.32   21.76
   2   0   5  722.58   22.72
   2   0   5  761.40   22.83
  -2   0  -6 3161.04   55.29
   2   0   6 3002.05   54.71
  -2   0  -6 3187.53   55.40
  -2   0  -6 3039.19   55.12
   2   0   6 3036.18   47.38
   2   0   6 3104.02   55.58
   2   0   6 3094.39   53.08
   2   0   6 3072.01   55.57
   2   0   7  960.35   24.55
  -2   0  -7 1024.88   30.47
  -2   0  -7  997.61   29.47
  -2   0  -7  962.21   28.78
   2   0   7  946.93   27.36
   2   0   7  937.12   29.06
  -2   0  -8  332.78   18.20
  -2   0  -8  309.08   16.96
  -2   0  -8  336.42   17.99
   2   0   8  339.81   15.10
   2   0   8  295.27   17.01
   2   0   8  330.80   16.55
  -2   0  -9  905.81   32.12
  -2   0  -9  826.64   29.02
   2   0   9  856.13   28.04
  -2   0  -9  926.07   31.42
   2   0   9  893.80   26.61
   2   0   9  846.95   30.23
   2   0  10  148.07   13.79
  -2   0 -10  155.27   14.02
   2   0  10  146.60   11.81
   2   0  10  178.26   13.80
  -2   0 -10  141.55   12.89
  -2   0 -11   90.20   12.06
   2   0  11  106.16   12.49
   2   0  11  133.87   14.80
  -2   0 -11  115.16   12.33
   2   0  11   97.33   10.62
   2   0  11   98.43   11.05
  -2   0 -12  263.29   19.17
   2   0  12  242.07   16.60
   2   0  12  234.31   19.50
   2   0  12  235.56   18.44
  -2   0 -12  263.93   19.80
   2   0  12  256.38   17.80
  -2   0 -13    0.65    6.74
   2   0  13    0.46    6.48
  -2   0 -13   -4.43    7.11
  -2  -1  13   10.06    7.58
  -2  -1  13  -11.49    9.42
  -2  -1  13   11.05    8.23
  -2  -1  12   30.07    9.83
  -2  -1  12   47.14   10.83
  -2  -1  12   24.06    7.36
  -2  -1  11  365.96   22.32
   2   1 -11  366.96   15.68
  -2  -1  11  346.62   21.33
   2   1 -11  350.60   21.91
  -2  -1  10  253.31   11.48
   2   1 -10  255.92   12.26
  -2  -1  10  249.23   17.08
  -2  -1  10  264.98   18.17
   2   1 -10  249.83   17.89
  -2  -1  10  243.13   10.22
  -2  -1   9 1452.58   30.38
  -2  -1   9 1496.95   41.33
  -2  -1   9 1498.52   27.00
  -2  -1   9 1443.97   39.09
   2   1  -9 1549.51   41.52
  -2  -1   9 1497.20   28.58
   2   1  -9 1487.16   29.88
  -2  -1   9 1523.52   27.10
  -2  -1   8  463.27   20.83
  -2  -1   8  479.78   14.85
   2   1  -8  487.86   12.86
  -2  -1   8  505.62   13.13
  -2  -1   8  505.94   14.02
   2   1  -8  504.15   14.75
   2   1  -8  492.78   21.48
  -2  -1   8  495.79   13.04
  -2  -1   8  482.45   20.73
  -2  -1   7  105.96    6.35
  -2  -1   7  108.43    5.33
  -2  -1   7  115.67   10.35
   2   1  -7  110.29    6.19
   2   1  -7   98.87    5.22
  -2  -1   7   96.22    5.44
  -2  -1   7   84.19    9.80
  -2  -1   7  103.46    5.47
   2   1  -7  107.55   10.05
  -2  -1   6 1789.56   38.49
  -2  -1   6 1895.36   26.81
  -2  -1   6 1928.87   28.52
  -2  -1   6 1872.79   39.42
  -2  -1   6 1891.57   26.06
   2   1  -6 1862.37   37.66
  -2  -1   6 1865.98   38.06
   2   1  -6 1848.76   27.80
   2   1  -6 1809.04   39.11
   2   1  -6 1896.49   26.73
  -2  -1   6 1861.32   39.44
  -2  -1   6 1875.12   26.73
  -2  -1   5 3414.25   54.56
  -2  -1   5 3334.99   41.16
  -2  -1   5 3366.55   39.43
   2   1  -5 3401.03   52.61
  -2  -1   5 3344.33   52.79
   2   1  -5 3341.61   40.56
   2   1  -5 3361.57   54.74
  -2  -1   5 3380.36   39.46
   2   1  -5 3440.01   40.78
  -2  -1   5 3348.94   54.86
  -2  -1   5 3383.37   40.71
   2   1  -4   54.05    7.30
  -2  -1   4   83.13    7.42
  -2  -1   4   66.38    2.72
  -2  -1   4   66.99    6.92
  -2  -1   4   37.31    2.28
   2   1  -4   47.10    2.47
   2   1  -4   54.30    5.63
  -2  -1   4   65.55    6.59
   2   1  -4   38.83    2.71
  -2  -1   3  424.26   14.26
  -2  -1   3  436.51   13.73
   2   1  -3  409.85   13.26
  -2  -1   3  420.43    7.39
   2   1  -3  436.41   14.36
   2   1  -3  431.49   12.97
  -2  -1   3  430.82   13.35
   2   1  -3  417.85    8.56
   2   1  -2   16.64    4.02
   2   1  -2   19.28    3.74
  -2  -1   2   31.77    4.75
  -2  -1   2   22.28    2.30
  -2  -1   2   17.94    4.10
   2   1  -2   24.32    3.93
  -2  -1   2   17.96    3.89
   2   1  -1   27.23    5.37
   2   1  -1   26.93    3.77
   2   1  -1   31.10    2.22
   2   1  -1   27.29    4.06
  -2  -1   1   37.05    2.37
  -2  -1   1   29.05    4.26
   2   1  -1   36.72    3.27
  -2  -1   1   30.64    3.02
  -2  -1   0 9575.85  105.63
   2   1   0 9628.12  107.32
   2   1   0 9236.06  105.73
  -2  -1   0 9999.00  107.34
  -2  -1   0 9641.23  103.32
   2   1   0 9458.59  103.40
  -2  -1  -1  175.41    6.07
   2   1   1  179.09    7.80
  -2  -1  -1  175.85    7.85
   2   1   1  181.00    7.93
  -2  -1  -1  168.65    7.06
   2   1   1  168.66    7.05
  -2  -1  -2  186.97    8.42
   2   1   2  204.23    7.43
  -2  -1  -2  180.03    8.66
   2   1   2  187.43    8.84
  -2  -1  -2  193.70    7.12
   2   1   2  200.79    8.89
   2   1   2  188.43    8.54
   2   1   3  322.38    6.47
  -2  -1  -3  324.61   10.74
   2   1   3  333.36   10.70
  -2  -1  -3  326.17   12.71
   2   1   3  335.55   12.58
  -2  -1  -3  330.55   12.42
   2   1   3  351.23   12.46
   2   1   3  354.36   12.59
  -2  -1  -4  897.02   20.88
   2   1   4  929.25   21.26
   2   1   4  928.15   22.41
  -2  -1  -4  937.95   22.96
   2   1   4  962.74   23.46
   2   1   4  975.10   23.32
  -2  -1  -4  917.23   22.79
   2   1   4  936.32   15.69
  -2  -1  -5 2474.50   41.79
   2   1   5 2448.81   41.75
   2   1   5 2472.67   44.25
  -2  -1  -5 2385.11   43.59
   2   1   5 2416.02   43.85
  -2  -1  -5 2402.26   43.98
   2   1   5 2432.30   34.71
   2   1   5 2409.09   42.85
  -2  -1  -6 2151.21   41.06
   2   1   6 2012.56   40.19
  -2  -1  -6 2116.47   41.59
   2   1   6 2100.54   40.54
   2   1   6 2101.81   42.00
   2   1   6 2058.21   33.87
  -2  -1  -6 2222.04   42.49
   2   1   6 2056.76   41.94
   2   1   7   12.42    5.80
   2   1   7    1.60    3.48
  -2  -1  -7    3.18    4.96
   2   1   7   -4.04    5.58
  -2  -1  -7   -3.13    5.89
  -2  -1  -7   -0.26    5.38
   2   1   7    1.84    5.22
  -2  -1  -8   58.94    8.25
   2   1   8   72.82    7.38
  -2  -1  -8   81.82   10.25
   2   1   8   67.92    8.70
  -2  -1  -9  458.77   21.53
  -2  -1  -9  512.44   22.71
   2   1   9  508.49   18.76
   2   1   9  464.20   20.47
  -2  -1 -10  365.92   19.20
  -2  -1 -10  329.15   19.27
   2   1  10  319.14   15.86
   2   1  10  356.75   18.77
   2   1  11  163.36   15.34
  -2  -1 -11  179.71   14.49
  -2  -1 -11  177.80   15.14
   2   1  11  162.86   14.34
   2   1  11  159.38   13.76
   2   1  11  156.22   12.55
   2   1  12   -0.99    5.22
   2   1  12   16.10    7.77
  -2  -1 -12    9.95    6.63
   2   1  12    1.10    7.22
  -2  -1 -12    9.41    7.06
   2   1  12    2.70    6.45
  -2  -1 -13   14.54    7.80
   2   1  13    1.42    6.86
   2   1  13    4.74    8.05
  -2  -1 -13   21.24    8.27
   2   1  13   14.03    6.55
   2   1  13   25.07    8.44
   2   1  14   44.88   10.28
  -2  -1 -14   78.51   11.70
  -2  -1 -14   56.76   10.38
  -2  -2  13    5.60    6.84
  -2  -2  12   30.73    9.15
  -2  -2  12   36.92    9.84
  -2  -2  12    5.12    6.59
  -2  -2  11  178.12   16.73
  -2  -2  11  210.45   16.93
  -2  -2  11  212.03   17.75
  -2  -2  10   36.55    8.17
  -2  -2  10   29.49    4.78
  -2  -2  10   30.03    8.30
  -2  -2  10   23.88    8.93
   2   2 -10   16.41    7.88
  -2  -2   9  513.12   17.31
  -2  -2   9  543.31   23.09
  -2  -2   9  546.34   17.43
  -2  -2   9  554.52   25.89
  -2  -2   9  559.06   17.26
  -2  -2   9  518.53   24.46
   2   2  -9  541.08   24.83
  -2  -2   9  543.63   11.59
  -2  -2   8   76.75    6.60
  -2  -2   8   74.60   10.38
  -2  -2   8   94.38    6.83
  -2  -2   8   92.92   10.74
  -2  -2   8   81.01    9.64
  -2  -2   8   87.63    6.95
  -2  -2   8   85.06    3.98
   2   2  -8   72.90    9.47
  -2  -2   7 1263.31   35.05
  -2  -2   7 1146.56   16.53
  -2  -2   7 1251.12   24.97
  -2  -2   7 1292.98   31.89
  -2  -2   7 1244.43   34.40
  -2  -2   7 1282.21   24.05
   2   2  -7 1265.60   34.19
  -2  -2   7 1254.33   24.45
  -2  -2   6 3641.11   61.35
   2   2  -6 3642.31   61.85
  -2  -2   6 3576.07   62.55
  -2  -2   6 3655.62   49.80
  -2  -2   6 3581.31   62.33
  -2  -2   6 3661.04   48.28
  -2  -2   6 3575.50   57.60
  -2  -2   6 3730.83   48.67
  -2  -2   5  348.01   14.79
  -2  -2   5  350.65    9.61
  -2  -2   5  359.90   16.05
  -2  -2   5  368.83   16.18
   2   2  -5  338.05   15.25
  -2  -2   5  358.94   10.95
  -2  -2   5  370.04   14.21
  -2  -2   5  367.39    9.73
  -2  -2   5  369.02   15.81
  -2  -2   4  385.77   14.03
  -2  -2   4  377.84   15.05
  -2  -2   4  378.00   15.31
  -2  -2   4  377.66   10.68
  -2  -2   4  360.73   14.65
  -2  -2   4  396.42    9.32
   2   2  -4  403.29   13.05
  -2  -2   4  412.77   13.46
   2   2  -4  387.86   15.11
  -2  -2   4  386.97    8.70
  -2  -2   3  490.46   10.09
  -2  -2   3  489.65   14.55
   2   2  -3  496.77   16.31
  -2  -2   3  525.95   13.91
  -2  -2   3  522.24   16.41
   2   2  -3  486.68    9.63
  -2  -2   3  502.62    8.93
   2   2  -3  499.00   16.36
  -2  -2   3  494.68   16.20
   2   2  -3  488.60   13.41
  -2  -2   3  526.72   16.97
  -2  -2   2 7611.30   87.25
  -2  -2   2 7811.99   93.93
   2   2  -2 7652.18   93.39
   2   2  -2 7571.95   81.67
  -2  -2   2 7620.62   81.94
  -2  -2   2 7721.76   86.53
  -2  -2   2 7542.31   80.13
  -2  -2   2 7712.97   92.77
  -2  -2   2 7772.04   91.78
   2   2  -2 7639.20   92.47
   2   2  -2 6946.04   85.51
   2   2  -1 1452.87   27.81
  -2  -2   1 1451.80   20.94
  -2  -2   1 1820.12   27.66
   2   2  -1 1456.59   21.77
   2   2  -1 1530.35   20.77
   2   2  -1 1408.99   22.63
  -2  -2   1 1652.07   22.78
   2   2  -1 1549.55   28.49
  -2  -2   1 1686.76   23.98
  -2  -2   0   50.11    3.86
  -2  -2   0   90.09    4.81
   2   2   0   48.88    3.79
  -2  -2   0   43.03    7.06
  -2  -2   0   93.64    6.25
   2   2   0   50.16    3.73
   2   2   0   86.96    5.48
   2   2   0   43.31    4.76
   2   2   0   50.73    4.01
   2   2   1  192.07    7.71
  -2  -2  -1  217.40    9.17
   2   2   1  200.80    8.92
   2   2   1  211.98    7.67
  -2  -2  -1  244.08    7.18
  -2  -2  -1  186.93    7.65
   2   2   1  228.05    6.65
   2   2   1  206.29    8.44
  -2  -2  -1  231.85    8.94
  -2  -2  -1  266.72    7.36
   2   2   2   72.43    6.50
   2   2   2   97.24    3.82
   2   2   2   84.92    6.15
  -2  -2  -2   76.95    5.76
  -2  -2  -2   95.87    8.62
   2   2   2   84.76    4.08
   2   2   2   94.07    4.44
   2   2   2   77.68    6.31
  -2  -2  -2   94.59    6.16
   2   2   3  279.14   11.19
   2   2   3  251.82    7.94
  -2  -2  -3  306.00   11.95
   2   2   3  296.55   11.72
  -2  -2  -3  264.57   10.54
   2   2   3  278.68   11.14
  -2  -2  -3  282.27   11.29
   2   2   4  131.19    8.53
   2   2   4  121.63    6.51
   2   2   4  120.26    8.36
  -2  -2  -4  122.27    8.47
  -2  -2  -4  129.69    8.14
   2   2   4  129.11    8.45
  -2  -2  -4  132.32    8.65
   2   2   5   85.63    6.43
  -2  -2  -5   84.62    8.09
   2   2   5  102.46    8.34
  -2  -2  -5   81.99    8.44
  -2  -2  -5   81.07    7.25
   2   2   5   82.91    7.84
   2   2   5   87.20    7.90
   2   2   6    8.64    4.86
   2   2   6   11.17    3.67
  -2  -2  -6    4.55    4.90
   2   2   6   18.65    5.28
  -2  -2  -6   16.37    5.38
   2   2   6   13.90    4.96
  -2  -2  -6   10.00    4.48
   2   2   7  278.69   13.66
  -2  -2  -7  291.35   14.75
   2   2   7  280.18   14.62
  -2  -2  -7  310.33   14.68
   2   2   7  279.32   14.47
  -2  -2  -7  270.75   14.72
   2   2   8  665.07   23.47
  -2  -2  -8  712.87   24.39
  -2  -2  -8  686.15   24.73
  -2  -2  -9  793.88   26.86
  -2  -2  -9  808.85   28.33
   2   2   9  782.08   26.98
  -2  -2 -10  373.02   19.03
   2   2  10  357.30   20.42
  -2  -2 -10  362.43   20.01
   2   2  10  348.34   18.72
  -2  -2 -11  119.01   11.85
   2   2  11  141.21   14.23
  -2  -2 -11  113.37   11.98
   2   2  11  141.02   12.87
  -2  -2 -12  118.56   12.23
   2   2  12  133.01   13.73
   2   2  12  124.93   11.55
  -2  -2 -12  127.43   13.81
   2   2  12  123.35   14.46
   2   2  13  321.72   23.25
  -2  -2 -13  307.21   19.88
  -2  -2 -13  314.35   21.20
   2   2  13  270.25   17.16
   2   2  13  276.53   19.60
   2   2  14  136.20   14.64
   2   2  14  136.84   14.99
  -2  -2 -14  147.42   14.57
  -2  -2 -14  149.01   15.84
  -2  -3  13   76.61   12.27
  -2  -3  12  313.97   21.63
  -2  -3  11   -3.54    6.79
  -2  -3  11   -3.03    7.11
  -2  -3  11    0.58    7.23
  -2  -3  10   15.17    8.93
  -2  -3  10    8.22    6.83
  -2  -3  10   16.70    6.04
   2   3 -10   20.48    8.76
  -2  -3   9   20.13    4.48
  -2  -3   9   21.31    8.78
  -2  -3   9   11.43    7.52
  -2  -3   9   15.53    6.61
   2   3  -9   13.28    6.55
  -2  -3   8  326.70   19.60
  -2  -3   8  310.33   14.36
  -2  -3   8  344.81   17.36
  -2  -3   8  335.74   19.75
   2   3  -8  307.34   18.32
  -2  -3   8  336.00   13.76
  -2  -3   8  334.38   13.90
  -2  -3   7  555.07   24.19
  -2  -3   7  560.73   18.48
  -2  -3   7  555.13   20.47
  -2  -3   7  571.38   17.50
  -2  -3   7  563.04   24.15
  -2  -3   7  538.51   16.83
   2   3  -7  553.71   23.23
  -2  -3   6  101.83    7.70
  -2  -3   6  115.05   11.54
  -2  -3   6  119.91    9.02
  -2  -3   6  124.31    7.91
  -2  -3   6  109.83    7.22
  -2  -3   6  138.50   12.05
   2   3  -6  107.60   10.83
  -2  -3   5    5.28    3.21
  -2  -3   5    1.94    4.65
  -2  -3   5    3.95    5.07
  -2  -3   5    7.98    5.97
  -2  -3   5    1.80    3.34
  -2  -3   5   -3.04    3.99
  -2  -3   5    3.01    5.56
  -2  -3   5   -2.84    2.66
   2   3  -5   -0.20    4.34
  -2  -3   4  206.14   12.57
   2   3  -4  185.43   11.45
  -2  -3   4  190.91    9.43
  -2  -3   4  187.20   10.50
  -2  -3   4  209.61    8.73
   2   3  -4  198.20    8.29
  -2  -3   4  180.24   11.81
  -2  -3   4  188.77    8.85
   2   3  -4  190.85   11.13
  -2  -3   4  198.31   11.26
  -2  -3   4  181.52    7.72
   2   3  -3 2298.59   38.75
  -2  -3   3 2298.80   38.63
  -2  -3   3 2259.75   42.56
   2   3  -3 2276.01   42.47
  -2  -3   3 2310.00   33.91
  -2  -3   3 2352.21   42.52
   2   3  -3 2292.67   40.48
  -2  -3   3 2305.72   34.80
  -2  -3   3 2257.03   40.56
   2   3  -3 2246.67   34.20
   2   3  -2  704.77   16.92
   2   3  -2  671.78   19.48
   2   3  -2  708.60   15.82
  -2  -3   2  729.13   17.17
  -2  -3   2  741.75   20.90
  -2  -3   2  707.52   13.80
   2   3  -2  730.58   20.51
  -2  -3   2  734.69   16.37
  -2  -3   2  679.02   11.23
  -2  -3   2  730.18   20.18
   2   3  -2  746.79   19.48
  -2  -3   2  711.16   19.11
   2   3  -1  577.78   10.04
   2   3  -1  578.40   13.07
  -2  -3   1  576.87   13.07
   2   3  -1  539.47   16.79
  -2  -3   1  579.28   14.50
  -2  -3   1  584.69   10.27
  -2  -3   1  567.51   11.58
   2   3  -1  595.71   14.52
   2   3  -1  556.94   16.05
   2   3  -1  578.92   15.94
  -2  -3   1  609.11   16.93
   2   3  -1  566.58   11.78
   2   3   0  906.23   14.68
   2   3   0  934.32   22.04
  -2  -3   0  911.19   18.74
  -2  -3   0  926.13   14.86
  -2  -3   0  968.51   20.70
   2   3   0  874.75   19.39
   2   3   0  868.85   12.87
  -2  -3   0  879.27   19.69
   2   3   0  921.94   19.96
  -2  -3   0  875.81   19.93
  -2  -3   0  943.83   17.38
   2   3   0  902.42   17.27
   2   3   0  925.51   20.24
   2   3   1 1108.05   14.36
  -2  -3  -1 1106.84   22.21
   2   3   1 1042.29   22.48
   2   3   1 1091.00   16.39
  -2  -3  -1 1121.84   21.79
   2   3   1 1113.82   21.25
  -2  -3  -1 1129.21   21.78
  -2  -3  -1 1136.43   21.30
   2   3   1 1107.18   21.37
  -2  -3  -2  247.82   10.43
  -2  -3  -2  253.73   10.15
   2   3   2  248.56   10.68
   2   3   2  238.81   10.34
  -2  -3  -2  226.18   10.97
   2   3   2  245.17    8.96
   2   3   2  244.57    8.78
   2   3   2  214.46    9.65
  -2  -3  -3   17.29    4.94
  -2  -3  -3   18.95    4.32
   2   3   3    8.50    4.16
  -2  -3  -3    2.90    4.12
   2   3   3   18.19    4.97
  -2  -3  -4  208.34   11.19
   2   3   4  211.41    7.75
   2   3   4  214.67   11.14
  -2  -3  -4  223.26   11.59
  -2  -3  -4  216.62   10.69
   2   3   4  223.15   11.30
   2   3   5   83.39    6.12
   2   3   5   85.73    7.98
   2   3   5   97.29    8.29
  -2  -3  -5  113.13    9.23
  -2  -3  -5  111.85    9.03
   2   3   5  106.88    8.65
  -2  -3  -5   85.33    7.68
   2   3   6  263.15   13.95
  -2  -3  -6  281.74   14.21
   2   3   6  255.30   11.34
   2   3   6  272.90   13.95
  -2  -3  -6  268.21   13.35
   2   3   6  280.24   13.92
  -2  -3  -6  234.91   12.99
   2   3   7  263.71   12.58
   2   3   7  263.17   14.60
  -2  -3  -7  248.92   14.39
  -2  -3  -7  273.52   14.59
   2   3   7  292.13   15.14
   2   3   8  417.32   19.41
   2   3   8  418.71   17.55
  -2  -3  -8  446.94   19.44
   2   3   8  402.48   18.78
  -2  -3  -8  432.14   19.84
  -2  -3  -9  109.78   10.60
  -2  -3  -9  126.56   12.09
   2   3   9  110.24   11.11
   2   3   9   95.24   10.46
  -2  -3 -10   76.07    9.98
  -2  -3 -10   66.52    9.00
   2   3  10   58.55    9.35
   2   3  10   71.44    9.68
   2   3  11  214.19   17.00
  -2  -3 -11  237.54   15.94
  -2  -3 -11  202.53   15.70
   2   3  11  228.29   16.22
  -2  -3 -12  349.44   19.86
  -2  -3 -12  355.20   22.03
   2   3  12  307.78   19.78
   2   3  12  363.84   22.76
  -2  -3 -13  308.21   19.49
   2   3  13  273.57   21.11
  -2  -3 -13  302.18   20.94
   2   3  13  306.27   20.54
   2   3  14    5.66    6.94
  -2  -3 -14    3.04    6.45
  -2  -3 -14   22.77    8.66
   2   3  15   -5.62    8.33
  -2  -4  11  116.66   13.13
  -2  -4  10   61.91   11.46
  -2  -4  10   61.00    9.66
  -2  -4  10   89.98   13.43
  -2  -4   9  152.35   11.24
  -2  -4   9  155.51   12.87
  -2  -4   9  140.92   14.82
  -2  -4   9  148.18   15.41
   2   4  -9  140.13   13.93
  -2  -4   8  218.60   17.33
  -2  -4   8  253.21   14.88
  -2  -4   8  239.40   13.56
  -2  -4   8  241.21   17.99
   2   4  -8  218.50   16.39
  -2  -4   7   -1.86    3.28
  -2  -4   7    2.27    3.62
  -2  -4   7    3.70    4.01
  -2  -4   7    5.38    6.69
   2   4  -7    3.20    5.47
  -2  -4   7   13.18    6.69
  -2  -4   6   34.58    5.15
  -2  -4   6   51.10    6.64
  -2  -4   6   26.66    7.34
  -2  -4   6   41.12    6.37
  -2  -4   6   44.79    6.14
  -2  -4   6   41.72    8.75
   2   4  -6   41.63    7.54
   2   4  -5   62.50    8.31
  -2  -4   5   68.04    9.73
   2   4  -5   63.18    6.49
  -2  -4   5   71.30    7.80
  -2  -4   5   59.47    6.23
  -2  -4   5   55.32    6.00
  -2  -4   5   65.90    9.98
  -2  -4   5   59.66    6.55
   2   4  -5   62.10    8.12
   2   4  -4  161.10   11.14
  -2  -4   4  185.06   11.54
  -2  -4   4  176.38   12.75
  -2  -4   4  181.17   10.44
  -2  -4   4  170.32   10.68
  -2  -4   4  175.29    9.36
  -2  -4   4  169.44   11.12
  -2  -4   4  196.29    8.83
  -2  -4   4  160.98    5.10
  -2  -4   4  181.49   13.04
   2   4  -4  194.40   11.83
   2   4  -4  169.12    9.55
  -2  -4   3  162.20   10.35
   2   4  -3  180.16   10.56
  -2  -4   3  167.61    9.49
  -2  -4   3  148.87    9.50
  -2  -4   3  161.98   11.63
   2   4  -3  151.44   10.73
   2   4  -3  176.86   10.43
  -2  -4   3  165.41    6.97
   2   4  -3  164.76    9.24
  -2  -4   3  174.43   12.14
  -2  -4   3  166.49    5.91
   2   4  -2    5.74    3.99
   2   4  -2    5.38    3.45
   2   4  -2    5.73    3.72
  -2  -4   2    1.22    3.39
  -2  -4   2   -1.52    4.98
   2   4  -2    5.86    3.71
  -2  -4   2   -5.91    4.43
  -2  -4   2    4.74    1.78
  -2  -4   2    8.90    5.24
   2   4  -2    9.16    4.22
  -2  -4   2   11.84    5.98
  -2  -4   2    7.22    4.13
  -2  -4   2   11.45    2.60
   2   4  -1  469.35   13.79
  -2  -4   1  445.97   13.60
   2   4  -1  468.83   17.05
   2   4  -1  474.18   12.33
   2   4  -1  464.90   16.74
  -2  -4   1  475.01   17.28
   2   4  -1  456.60   15.04
  -2  -4   1  472.80   12.36
  -2  -4   1  478.40   15.52
   2   4  -1  454.21   14.76
  -2  -4   1  470.48   17.16
   2   4   0 1558.17   26.24
  -2  -4   0 1627.48   31.65
  -2  -4   0 1620.89   33.23
  -2  -4   0 1608.51   33.02
  -2  -4   0 1644.26   28.05
   2   4   0 1625.00   33.19
   2   4   0 1602.64   28.00
   2   4   0 1543.71   28.98
   2   4   0 1599.29   32.32
   2   4   0 1633.61   31.60
   2   4   1 2549.80   34.38
  -2  -4  -1 2503.83   42.48
  -2  -4  -1 2490.17   43.33
   2   4   1 2528.98   39.55
   2   4   1 2504.35   42.33
  -2  -4  -1 2556.30   42.84
   2   4   1 2509.89   42.26
   2   4   1 2519.64   42.75
  -2  -4  -1 2618.44   40.18
   2   4   1 2549.13   40.26
  -2  -4  -1 2612.76   43.21
   2   4   2 1564.63   22.04
   2   4   2 1534.46   23.30
  -2  -4  -2 1579.40   31.86
  -2  -4  -2 1587.49   32.34
   2   4   2 1558.06   32.03
   2   4   2 1604.58   30.60
   2   4   2 1584.72   30.31
  -2  -4  -2 1553.52   30.08
   2   4   2 1539.19   30.18
   2   4   3 1570.48   30.22
  -2  -4  -3 1649.98   33.27
   2   4   3 1509.27   32.93
   2   4   3 1579.86   25.19
   2   4   3 1569.88   30.00
  -2  -4  -3 1550.09   31.40
   2   4   3 1506.74   31.57
  -2  -4  -4  320.37   14.47
   2   4   4  286.39   14.06
  -2  -4  -4  250.94   14.10
   2   4   4  281.87   14.61
   2   4   4  255.47   10.12
  -2  -4  -4  272.01   13.52
   2   4   4  264.62   12.95
  -2  -4  -5  819.06   24.34
   2   4   5  815.99   20.74
   2   4   5  783.24   24.35
   2   4   5  769.49   24.13
  -2  -4  -5  751.00   23.61
  -2  -4  -5  782.87   23.08
   2   4   5  773.55   23.90
  -2  -4  -6  945.12   27.65
   2   4   6  953.43   24.71
   2   4   6  966.25   28.27
   2   4   6  948.07   27.74
  -2  -4  -6  938.51   27.35
   2   4   6  912.35   27.07
  -2  -4  -6  922.37   26.39
   2   4   7  151.15    9.93
  -2  -4  -7  177.55   12.65
   2   4   7  176.05   11.52
  -2  -4  -7  155.33   12.36
   2   4   7  159.12   12.29
   2   4   8   39.99    8.39
   2   4   8   33.74    6.14
  -2  -4  -8   36.36    7.32
   2   4   8   34.39    7.38
  -2  -4  -8   25.12    6.99
   2   4   9  103.85   11.15
  -2  -4  -9  118.40   12.24
  -2  -4  -9  126.64   11.70
   2   4   9  122.40   11.68
   2   4  10   -2.28    5.57
  -2  -4 -10    4.05    6.52
   2   4  10   14.39    7.20
  -2  -4 -10   12.17    5.96
  -2  -4 -11  513.99   23.65
   2   4  11  480.74   24.59
  -2  -4 -11  507.04   25.24
   2   4  11  513.97   24.84
  -2  -4 -12  234.06   16.81
   2   4  12  183.59   16.56
  -2  -4 -12  258.65   18.77
   2   4  12  227.31   17.42
   2   4  13    7.89    7.45
  -2  -4 -13    6.62    7.12
  -2  -4 -13    6.64    5.73
   2   4  13   18.93    8.57
   2   4  14   24.08    9.39
  -2  -4 -14   11.53    7.65
  -2  -4 -14   13.14    7.00
   2   4  15  206.22   19.06
  -2  -5   9  179.92   17.69
  -2  -5   9  172.00   17.29
  -2  -5   8   39.80    7.25
  -2  -5   8   32.88    9.15
  -2  -5   8   32.66    6.57
  -2  -5   8   38.02    9.69
   2   5  -8   34.00    8.85
  -2  -5   7   39.33    6.75
  -2  -5   7   32.31    8.20
  -2  -5   7   36.67    6.27
  -2  -5   7   42.00    9.26
   2   5  -7   38.76    7.81
  -2  -5   6   59.00    8.07
   2   5  -6   50.52    8.64
  -2  -5   6   51.35    9.17
  -2  -5   6   69.05    7.07
  -2  -5   6   48.60    9.76
   2   5  -6   52.42    8.28
   2   5  -5  694.72   25.91
  -2  -5   5  719.38   27.91
  -2  -5   5  743.36   19.53
  -2  -5   5  626.96   21.32
  -2  -5   5  744.38   24.00
  -2  -5   5  709.23   28.43
   2   5  -5  709.37   25.10
  -2  -5   5  746.09   14.56
  -2  -5   4  103.27    9.21
  -2  -5   4   97.68    9.49
   2   5  -4   91.44    9.49
   2   5  -4   91.92    8.53
  -2  -5   4  101.25   11.28
  -2  -5   4   99.43    8.44
  -2  -5   4  119.27    6.78
  -2  -5   4  113.63   12.23
  -2  -5   4   95.92    5.44
   2   5  -4   97.99    9.20
   2   5  -3  198.46   12.29
  -2  -5   3  190.23   13.66
  -2  -5   3  200.69   12.30
   2   5  -3  198.63   11.70
  -2  -5   3  196.92    6.96
  -2  -5   3  225.98   12.82
   2   5  -3  189.48   11.40
  -2  -5   3  214.73   15.02
  -2  -5   3  198.54    8.51
  -2  -5   3  196.33   11.81
   2   5  -2    9.63    4.16
  -2  -5   2    6.67    2.96
  -2  -5   2    4.51    4.82
  -2  -5   2    6.73    4.78
   2   5  -2    4.44    3.92
   2   5  -2   11.54    4.89
  -2  -5   2    7.74    4.89
  -2  -5   2    9.12    6.46
   2   5  -1  412.31   14.86
  -2  -5   1  415.40   17.10
   2   5  -1  359.72   16.23
   2   5  -1  382.96   16.06
  -2  -5   1  421.47   18.86
  -2  -5   1  391.10   13.26
   2   5  -1  401.93   14.28
   2   5   0 1803.31   32.59
   2   5   0 1754.15   37.54
  -2  -5   0 1840.29   40.05
  -2  -5   0 1756.44   37.45
   2   5   0 1785.33   37.38
   2   5   0 1756.83   38.44
  -2  -5   0 1832.82   39.68
   2   5   0 1759.82   31.96
  -2  -5   0 1844.80   33.33
   2   5   0 1787.46   33.05
   2   5   1  479.76   14.09
   2   5   1  453.31   17.55
  -2  -5  -1  465.75   18.07
  -2  -5  -1  474.25   18.08
   2   5   1  462.84   18.03
   2   5   1  466.41   17.82
   2   5   1  466.32   18.06
  -2  -5  -1  457.10   15.73
   2   5   1  501.27   14.66
   2   5   1  490.65   16.39
   2   5   2   46.90    6.92
   2   5   2   49.23    6.36
  -2  -5  -2   57.61    7.80
   2   5   2   51.50    5.08
   2   5   2   46.74    6.89
   2   5   2   52.06    6.62
  -2  -5  -2   58.50    7.95
  -2  -5  -2   59.12    6.41
   2   5   3   57.14    7.20
   2   5   3   54.64    7.37
  -2  -5  -3   51.26    7.42
   2   5   3   62.12    4.25
   2   5   3   57.72    7.37
  -2  -5  -3   61.65    8.18
   2   5   3   57.46    7.57
  -2  -5  -3   56.62    6.58
  -2  -5  -4 1297.73   33.08
   2   5   4 1223.61   30.24
   2   5   4 1211.00   29.65
   2   5   4 1275.58   24.08
   2   5   4 1232.68   32.36
  -2  -5  -4 1266.30   31.21
   2   5   4 1312.58   32.04
  -2  -5  -5 2922.67   54.82
  -2  -5  -5 2974.54   55.36
   2   5   5 2881.19   45.64
   2   5   5 2895.01   53.48
  -2  -5  -6   97.19   10.21
   2   5   6   59.38    6.87
  -2  -5  -6   89.20   10.42
   2   5   6   68.35    9.36
  -2  -5  -7  191.94   14.21
  -2  -5  -7  149.76   12.24
   2   5   7  137.39   10.43
   2   5   7  164.18   13.38
  -2  -5  -8  493.36   22.88
  -2  -5  -8  511.22   22.51
   2   5   8  516.71   20.59
   2   5   8  535.53   23.26
  -2  -5  -9  447.63   21.26
   2   5   9  449.13   22.03
  -2  -5  -9  417.72   21.75
   2   5   9  425.68   20.05
  -2  -5 -10  658.68   26.78
   2   5  10  658.45   26.62
   2   5  10  627.91   27.13
  -2  -5 -10  658.26   28.25
   2   5  11  131.66   14.06
   2   5  11  131.59   13.43
  -2  -5 -11  142.82   14.79
  -2  -5 -11  143.18   13.37
   2   5  12   27.52    8.80
  -2  -5 -12    8.35    6.55
  -2  -5 -12   23.10    7.93
   2   5  13  -13.47    8.07
  -2  -5 -13   -1.55    6.92
  -2  -5 -13   12.43    7.26
   2   5  13   -8.72    7.95
   2   5  14  192.72   18.59
   2   5  14  220.81   19.86
  -2  -5 -14  219.86   18.06
  -2  -5 -14  223.14   19.42
  -2  -6   8  148.86   16.19
  -2  -6   8  139.84   16.52
   2   6  -7  822.85   33.84
  -2  -6   7  835.29   30.32
  -2  -6   7  773.95   33.61
  -2  -6   7  770.75   34.74
  -2  -6   6  726.55   32.60
   2   6  -6  717.20   29.71
  -2  -6   6  687.14   30.52
  -2  -6   6  801.53   28.80
   2   6  -6  731.67   27.73
   2   6  -5  138.48   12.90
  -2  -6   5  150.21   14.28
  -2  -6   5  157.94   12.97
   2   6  -5  142.72   11.83
  -2  -6   5  140.57   15.12
  -2  -6   4   22.79    6.40
   2   6  -4   16.86    5.78
  -2  -6   4    7.89    6.81
  -2  -6   4   24.04    3.15
  -2  -6   4   17.97    8.11
   2   6  -4   25.99    6.07
   2   6  -3  222.03   14.07
  -2  -6   3  198.06    5.31
  -2  -6   3  191.01   13.45
  -2  -6   3  182.24    5.18
  -2  -6   3  242.85   17.96
   2   6  -3  204.60   11.89
  -2  -6   3  208.99   10.01
  -2  -6   3  203.20   12.24
   2   6  -2  160.10   11.55
  -2  -6   2  150.07   11.94
   2   6  -2  160.92    9.91
  -2  -6   2  162.35   15.14
  -2  -6   2  149.95    9.29
   2   6  -1 1409.06   32.90
  -2  -6   1 1412.79   36.53
  -2  -6   1 1430.63   39.52
   2   6  -1 1445.79   29.67
  -2  -6   1 1375.76   30.27
   2   6   0  250.96   12.54
  -2  -6   0  249.45   15.04
   2   6   0  230.48   10.47
  -2  -6   0  235.25   12.19
   2   6   0  202.11   11.44
   2   6   1  533.26   17.59
  -2  -6  -1  536.69   21.86
   2   6   1  509.95   19.96
   2   6   1  495.82   15.09
  -2  -6  -1  504.21   18.23
   2   6   1  494.50   18.15
   2   6   2   51.76    6.97
   2   6   2   63.38    5.82
   2   6   2   43.56    5.85
  -2  -6  -2   51.87    8.82
   2   6   2   52.33    7.79
  -2  -6  -2   54.70    7.06
   2   6   2   47.72    7.95
  -2  -6  -2   43.94    7.96
   2   6   3  796.64   26.35
   2   6   3  809.34   21.18
  -2  -6  -3  834.97   27.36
  -2  -6  -3  791.15   27.05
   2   6   3  762.62   14.10
   2   6   3  802.23   25.22
   2   6   3  787.12   19.37
   2   6   4  635.60   23.75
  -2  -6  -4  615.21   23.95
  -2  -6  -4  665.50   25.15
   2   6   4  646.50   15.64
   2   6   4  639.34   23.40
   2   6   5  130.64   11.85
   2   6   5  128.48    8.26
   2   6   5  138.26   11.66
  -2  -6  -5  125.82   12.37
  -2  -6  -6  151.54   13.20
  -2  -6  -6  154.35   13.50
   2   6   6  160.59   10.09
   2   6   6  161.61   13.20
   2   6   7    8.61    6.96
  -2  -6  -7   -8.79    6.99
   2   6   7    4.49    4.63
  -2  -6  -7   16.62    7.65
   2   6   8 2283.25   53.35
  -2  -6  -8 2317.18   54.32
  -2  -6  -8 2267.49   52.90
   2   6   8 2231.35   46.65
  -2  -6  -9  455.70   23.88
  -2  -6  -9  427.74   21.96
   2   6   9  438.22   20.34
   2   6   9  434.65   22.93
   2   6  10  275.09   17.61
  -2  -6 -10  278.54   18.67
   2   6  10  264.17   18.91
  -2  -6 -10  332.40   21.15
   2   6  11    1.73    5.92
   2   6  11   10.02    7.17
  -2  -6 -11    5.42    6.54
  -2  -6 -11   15.55    7.68
   2   6  12  162.99   16.32
  -2  -6 -12  149.37   15.70
   2   6  12  151.51   14.86
  -2  -6 -12  131.72   14.05
   2   6  13   41.69    9.73
  -2  -6 -13   33.01    8.88
   2   6  13   58.63   11.88
  -2  -6 -13   50.47   10.58
   2   6  14  115.77   15.49
  -2  -6 -14   87.48   12.37
   2   7  -7   64.54   11.71
  -2  -7   7  100.70   14.45
  -2  -7   6  -12.95    7.33
   2   7  -6    2.75    6.50
  -2  -7   6    5.84    7.84
  -2  -7   6    1.78    9.05
  -2  -7   5   66.86    9.83
   2   7  -5   57.15    9.90
  -2  -7   5   56.00   11.08
   2   7  -4  122.35   12.57
   2   7  -4  134.36   10.68
  -2  -7   4  145.39   16.45
  -2  -7   4  128.03   12.74
   2   7  -3  528.53   23.46
  -2  -7   3  507.69   24.09
  -2  -7   3  479.07   25.82
   2   7  -3  532.48   19.52
   2   7  -2  694.01   25.91
  -2  -7   2  692.67   27.79
  -2  -7   2  704.38   30.74
   2   7  -2  707.75   21.32
  -2  -7   1   14.93    5.24
   2   7  -1   15.47    5.80
  -2  -7   1   10.64    6.39
   2   7  -1   15.99    3.93
  -2  -7   0   19.51    7.60
   2   7   0   14.65    5.32
   2   7   0   15.20    3.64
   2   7   1   33.78    4.13
   2   7   1   24.10    5.87
   2   7   1   35.30    6.37
  -2  -7  -1   36.31    7.80
   2   7   2  440.39   17.38
  -2  -7  -2  446.82   21.91
  -2  -7  -2  463.04   22.62
   2   7   2  405.43   21.30
   2   7   2  456.49   13.41
   2   7   2  447.87   19.57
   2   7   3   25.35    4.02
   2   7   3   18.83    5.31
   2   7   3   20.84    6.90
  -2  -7  -3   20.61    8.00
   2   7   3   27.25    8.30
  -2  -7  -3   16.62    6.78
   2   7   4  118.15   11.33
   2   7   4   93.34    8.47
   2   7   4  112.02    5.86
   2   7   4  131.97   12.79
  -2  -7  -4  124.87   12.98
  -2  -7  -4   97.72   11.50
   2   7   4  111.86    7.44
   2   7   5   16.18    7.22
  -2  -7  -5   12.22    6.33
   2   7   5   12.95    3.40
   2   7   5   23.70    8.09
   2   7   6  422.88   15.67
  -2  -7  -6  427.67   23.14
   2   7   6  424.14   21.25
   2   7   6  411.67   21.56
  -2  -7  -7  462.24   23.79
  -2  -7  -7  455.32   23.57
   2   7   7  416.51   17.27
   2   7   7  415.78   22.50
  -2  -7  -8  260.47   18.70
  -2  -7  -8  236.46   17.42
   2   7   8  253.06   14.71
   2   7   8  277.01   19.01
   2   7   9   74.18   11.84
   2   7   9   55.36    8.56
  -2  -7  -9   62.83   11.19
  -2  -7  -9   78.57   11.44
   2   7  10   91.14   13.09
  -2  -7 -10   83.88   12.05
   2   7  10   93.86   11.10
  -2  -7 -10  101.67   13.36
   2   7  11  204.31   16.65
  -2  -7 -11  214.73   18.13
   2   7  11  233.11   19.51
  -2  -7 -11  217.78   18.57
  -2  -7 -12  200.93   17.43
   2   7  12  182.81   16.63
  -2  -7 -12  173.26   16.91
   2   7  12  215.48   19.16
  -2  -7 -13  124.25   14.99
   2   7  13   91.23   13.41
  -2  -7 -14   40.87    9.54
   2   8  -6   25.12    9.15
   2   8  -5   -2.05    6.92
  -2  -8   5    5.82    7.56
   2   8  -4  340.58   21.53
  -2  -8   4  323.98   22.12
   2   8  -3   34.76    8.66
  -2  -8   3   55.44   10.59
  -2  -8   2  228.24   18.16
   2   8  -2  257.33   17.36
  -2  -8   1  132.48   14.34
   2   8  -1  139.07   12.53
   2   8   0  441.51   20.39
  -2  -8   0  402.05   23.02
   2   8   1  413.64   19.40
  -2  -8  -1  454.82   24.27
   2   8   2  200.54   13.45
  -2  -8  -2  202.44   16.83
  -2  -8  -2  187.94   16.37
   2   8   3   70.43    9.59
   2   8   3   81.81    9.06
   2   8   3   83.40   11.51
  -2  -8  -3   63.47   11.24
  -2  -8  -3   66.19   11.41
   2   8   4    7.41    6.00
   2   8   4    0.76    4.84
   2   8   4   -3.69    6.84
  -2  -8  -4   -7.55    7.64
  -2  -8  -4    8.90    7.61
   2   8   5  212.21   13.75
  -2  -8  -5  208.34   17.62
   2   8   5  195.85   16.54
  -2  -8  -5  189.81   16.98
   2   8   5  190.46   15.38
   2   8   6   12.08    6.41
   2   8   6   15.22    4.37
   2   8   6   28.04    9.17
  -2  -8  -6   16.23    7.50
   2   8   7   36.24    9.52
  -2  -8  -7   29.79    9.38
   2   8   7   31.48    6.05
   2   8   7   49.07   10.49
  -2  -8  -7   48.40    9.89
   2   8   8   30.25    9.81
  -2  -8  -8   31.81    8.82
  -2  -8  -8   24.89    7.80
   2   8   8   28.52    9.09
   2   8   8   17.75    5.83
   2   8   9   -5.65    6.10
  -2  -8  -9    5.11    7.20
  -2  -8  -9   -2.12    7.98
   2   8   9   -6.16    4.81
   2   8  10  116.79   14.37
  -2  -8 -10  135.41   15.90
  -2  -8 -10  125.43   15.25
   2   8  10  114.39   12.07
  -2  -8 -11  335.48   23.88
   2   8  11  311.21   19.94
  -2  -8 -11  344.94   24.21
   2   8  11  327.90   23.53
   2   8  12  173.96   16.33
  -2  -8 -12  194.85   18.61
   2   8  13    3.83    7.19
  -2  -8 -13   12.41    8.80
  -2  -9   3   11.78    9.41
   2   9  -2   17.03    6.75
  -2  -9   2   15.12    8.54
   2   9  -1  144.60   13.77
  -2  -9   1  181.44   18.03
   2   9   0  307.81   19.17
  -2  -9   0  325.04   23.17
  -2  -9  -1   75.28   12.88
   2   9   1   75.27   10.24
  -2  -9  -1   65.71   11.05
   2   9   2   48.26    8.44
  -2  -9  -2   53.36   10.92
  -2  -9  -2   56.51   11.84
   2   9   3   29.45    6.90
  -2  -9  -3   25.73    8.45
   2   9   3   39.45   10.30
  -2  -9  -3   13.55    8.55
   2   9   4  335.93   18.41
   2   9   4  298.56   21.22
  -2  -9  -4  339.21   23.32
  -2  -9  -4  312.19   22.42
   2   9   4  312.32   20.40
   2   9   5  348.54   18.31
  -2  -9  -5  337.88   23.50
  -2  -9  -5  327.79   23.00
   2   9   5  338.13   22.74
   2   9   5  320.10   21.03
   2   9   6   18.63    8.39
  -2  -9  -6   24.05    8.43
   2   9   6   27.50    6.90
   2   9   6   27.68   10.00
   2   9   7    8.73    8.31
   2   9   7   27.37   10.41
  -2  -9  -7   -3.28    9.07
   2   9   8    9.38    8.37
  -2  -9  -8   24.03   10.10
  -2  -9  -8    5.61    6.53
   2   9   8   27.11    9.66
   2   9   9  143.36   16.50
  -2  -9  -9  180.77   18.23
   2   9   9  168.27   17.48
  -2  -9  -9  183.62   18.22
  -2  -9 -10  224.93   20.34
   2   9  10  212.22   19.78
  -2  -9 -11  179.66   18.35
   2  10   6   21.33    8.38
   3  -7  -9    2.67    8.62
  -3   7   9   21.28    9.99
  -3   7   8   -7.16    9.40
   3  -7  -8    3.99    9.29
   3  -7  -7  220.00   19.87
   3  -7  -7  234.72   21.36
  -3   7   7  223.52   18.64
  -3   7   6  214.52   17.65
   3  -7  -6  221.32   20.23
  -3   7   5   54.25   12.37
  -3   7   5   69.44   14.20
  -3   7   5   72.23   11.30
   3  -7  -5   78.30   13.83
  -3   7   4    1.38    6.44
  -3   7   4   -7.47   10.07
  -3   7   4    2.58    8.41
   3  -7  -4    4.17    6.76
  -3   7   3  322.78   19.90
  -3   7   3  294.75   22.77
  -3   7   2  241.24   20.32
   3  -6 -12    6.35    6.66
   3  -6 -11   21.61    8.75
  -3   6  11   38.79   11.82
   3  -6 -10   11.89    8.75
  -3   6  10   -6.12    8.69
  -3   6   9   14.38    8.79
   3  -6  -9    9.79    8.78
   3  -6  -9   -6.64    9.40
   3  -6  -8  143.43   16.28
  -3   6   8  154.01   16.26
   3  -6  -8  119.27   14.93
   3  -6  -7  133.75   16.07
  -3   6   7  137.23   14.49
   3  -6  -7  128.92   16.07
  -3   6   6   -0.71    7.14
   3  -6  -6    4.65    7.82
  -3   6   5  -10.27    7.73
   3  -6  -5   -2.56    8.22
   3  -6  -4  335.04   22.53
  -3   6   4  305.22   19.20
  -3   6   4  334.41   22.93
  -3   6   3  488.94   28.15
  -3   6   3  474.15   23.45
   3  -6  -3  498.91   27.58
  -3   6   3  537.95   28.51
  -3   6   2  210.96   15.69
  -3   6   2  192.90   18.38
  -3   6   2  210.92   18.67
   3  -6  -2  203.18   17.82
   3  -6  -1   91.87   12.81
  -3   6   1  107.47   14.43
  -3   6   1  101.92   13.75
   3  -6   0   17.21    9.49
  -3   6   0   12.82    8.83
  -3   6   0   -3.71    7.41
  -3   6  -1  273.99   21.69
   3  -6   1  326.56   23.83
   3  -5 -12   93.59   13.24
   3  -5 -11   77.14   12.07
  -3   5  11   84.37   13.88
  -3   5  10   97.10   13.99
   3  -5 -10   98.16   13.12
   3  -5  -9  624.37   28.95
   3  -5  -9  698.13   28.74
  -3   5   9  628.73   30.27
   3  -5  -8  128.03   13.68
  -3   5   8  156.16   15.54
   3  -5  -8  131.62   13.44
  -3   5   7    2.33    7.07
   3  -5  -7   -5.48    7.08
   3  -5  -7    9.98    7.53
   3  -5  -6   25.21    8.16
  -3   5   6   23.37    7.51
   3  -5  -5   18.15    6.88
  -3   5   5   10.59    7.39
   3  -5  -4  451.78   23.44
  -3   5   4  436.62   21.78
  -3   5   3  202.34   15.01
  -3   5   3  194.95   16.58
   3  -5  -3  251.61   17.81
   3  -5  -2   24.13    8.40
  -3   5   2   15.08    7.87
  -3   5   2   12.64    9.10
  -3   5   2    1.36    5.49
  -3   5   1  217.82   17.77
   3  -5  -1  227.50   17.65
  -3   5   1  207.70   16.60
  -3   5   0  772.06   33.07
   3  -5   0  775.63   32.99
  -3   5   0  791.15   31.24
  -3   5  -1  214.61   17.89
   3  -5   1  261.20   19.58
  -3   5  -1  253.34   18.15
  -3   5  -2  541.08   28.41
   3  -5   2  591.31   29.52
   3  -5   3   22.73    7.75
  -3   5  -3   46.76   10.28
   3  -5   4   67.58   11.00
  -3   5  -4   81.75   12.97
  -3   4  12   24.88    6.91
  -3   4  12   45.52   12.35
   3  -4 -12   21.70    7.75
   3  -4 -11  377.11   21.08
  -3   4  11  416.25   19.89
  -3   4  11  447.86   26.44
   3  -4 -10  838.36   31.33
  -3   4  10  872.23   26.96
  -3   4  10  882.40   36.03
   3  -4  -9   66.83    9.97
   3  -4  -9   47.66    6.52
  -3   4   9   53.49    6.70
  -3   4   9   60.80   11.39
   3  -4  -9   46.31    7.28
   3  -4  -8   67.64    9.89
  -3   4   8   77.93    8.35
  -3   4   8   54.27    5.87
   3  -4  -8   63.51    8.91
   3  -4  -8   66.03    7.60
  -3   4   8   55.94   10.36
   3  -4  -7   58.94    9.43
  -3   4   7   45.63    6.34
  -3   4   7   46.12    4.59
   3  -4  -7   47.74    6.16
  -3   4   7   59.65   10.32
   3  -4  -7   50.96    8.67
   3  -4  -7   42.41    5.86
  -3   4   6  116.25    5.06
   3  -4  -6  134.48    8.35
   3  -4  -6  132.70   10.00
  -3   4   6  124.98   12.84
   3  -4  -6  126.92   11.85
   3  -4  -5  733.79   26.85
  -3   4   5  737.74   27.76
   3  -4  -5  709.65   17.48
  -3   4   4  568.94   23.84
   3  -4  -4  584.15   24.02
   3  -4  -4  563.36   13.79
  -3   4   3  520.92   22.56
   3  -4  -3  530.97   22.97
   3  -4  -3  539.51   12.10
   3  -4  -2   47.39    9.21
  -3   4   2   65.34    9.05
   3  -4  -2   50.36    3.41
  -3   4   1  342.74   20.78
  -3   4   1  362.73   18.62
   3  -4  -1  341.60   19.44
  -3   4   1  349.62   19.24
   3  -4  -1  326.72    9.13
  -3   4   0  725.93   29.72
   3  -4   0  778.39   29.68
  -3   4   0  796.75   28.64
   3  -4   0  743.90   15.89
   3  -4   0  750.38   16.37
  -3   4  -1  293.82   19.61
   3  -4   1  274.39   18.37
  -3   4  -1  307.19   17.79
  -3   4  -2   -2.72    6.74
   3  -4   2    1.50    2.38
   3  -4   3  124.02   13.55
   3  -4   3  139.47    8.30
  -3   4  -3  140.83   14.77
  -3   4  -4  433.93   24.97
   3  -4   4  431.09   24.67
  -3   4  -5  583.43   29.83
   3  -4   5  610.61   30.12
   3  -4   6   37.90   10.26
  -3   4  -6   24.27    8.60
   3  -4   8    0.26    7.15
  -3   3  14   81.80   12.30
  -3   3  13   11.43    7.24
  -3   3  13    3.17    8.83
  -3   3  12  542.65   25.37
  -3   3  12  625.55   31.76
   3  -3 -12  621.23   25.12
   3  -3 -11   59.09    8.07
  -3   3  11   60.66    9.00
   3  -3 -11   54.77    9.61
  -3   3  11   58.02   11.34
   3  -3 -10   23.57    6.51
  -3   3  10   16.27    5.42
  -3   3  10   13.78    7.80
   3  -3 -10   29.47    7.56
  -3   3   9    6.55    7.17
  -3   3   9    1.95    3.93
   3  -3  -9    2.80    2.94
   3  -3  -9    9.36    5.61
   3  -3  -9   -3.04    5.13
  -3   3   8  100.47    9.14
  -3   3   8  104.46    8.31
   3  -3  -8  113.98    7.34
   3  -3  -8  117.43   10.91
  -3   3   8  112.97   12.54
   3  -3  -8  102.10    9.57
  -3   3   7  561.88   17.10
   3  -3  -7  536.40   16.64
   3  -3  -7  554.01   20.65
   3  -3  -7  514.03   21.42
  -3   3   7  591.17   25.53
   3  -3  -7  534.35   19.44
  -3   3   7  544.32   19.72
  -3   3   7  482.95   18.98
  -3   3   6 1058.29   21.54
   3  -3  -6 1084.92   25.52
   3  -3  -6 1086.63   29.69
  -3   3   6 1065.11   33.86
  -3   3   6 1036.26   28.44
   3  -3  -6 1108.89   26.42
  -3   3   6 1019.82   26.53
  -3   3   5  700.25   13.76
   3  -3  -5  718.55   20.97
   3  -3  -5  680.23   23.31
  -3   3   5  702.49   26.25
  -3   3   5  706.39   22.69
   3  -3  -5  703.27   19.14
   3  -3  -4    3.83    3.00
   3  -3  -4    1.40    5.12
  -3   3   4    5.47    3.89
  -3   3   4    0.44    7.34
   3  -3  -4    1.05    3.68
   3  -3  -3  427.53   18.60
   3  -3  -3  415.70   17.17
  -3   3   3  417.70   19.53
   3  -3  -3  464.89   13.20
   3  -3  -2  304.58   15.05
  -3   3   2  252.67   15.40
   3  -3  -2  256.06   15.02
   3  -3  -2  316.65   10.56
  -3   3   1 1359.77   35.01
   3  -3  -1 1402.90   36.35
   3  -3  -1 1428.27   25.33
   3  -3   0   46.89    8.55
  -3   3   0   33.77    9.58
  -3   3   0   20.30    6.00
  -3   3   0   36.94    7.57
   3  -3   1  103.34   10.75
   3  -3   1  107.24    4.48
  -3   3  -1  116.80   13.31
  -3   3  -1  129.06   11.45
  -3   3  -2   81.16    9.02
   3  -3   2   72.02    9.59
   3  -3   2   75.01    5.39
  -3   3  -2   63.81    9.88
  -3   3  -3  674.66   27.73
   3  -3   3  688.13   18.52
   3  -3   3  661.24   27.07
   3  -3   3  664.43   20.48
   3  -3   4   94.48   11.25
  -3   3  -4   71.49   10.78
   3  -3   4   83.19    7.47
   3  -3   4   66.48    7.47
   3  -3   5   33.83    7.94
  -3   3  -5   44.51   10.25
   3  -3   5   34.96    6.08
  -3   3  -5   31.36    8.20
   3  -3   6   65.32   10.80
  -3   3  -6   82.79   12.54
   3  -3   6   59.55    8.42
  -3   3  -6   61.54   10.41
  -3   3  -7  251.15   20.11
   3  -3   7  233.29   15.51
   3  -3   7  224.48   18.62
  -3   3  -8  422.72   26.34
   3  -3   8  448.23   22.69
   3  -3   8  457.19   27.06
   3  -3   8  441.29   23.80
   3  -3   9  162.63   15.25
   3  -3   9  141.84   14.41
  -3   2  14   43.99   10.23
  -3   2  13  366.98   22.89
  -3   2  13  426.74   27.17
  -3   2  12    3.93    4.94
  -3   2  12    1.94    5.59
   3  -2 -12   13.64    5.18
  -3   2  12    3.04    7.75
   3  -2 -12   -4.47    7.08
  -3   2  11    2.49    4.79
  -3   2  11    5.91    6.16
   3  -2 -11    2.71    4.52
  -3   2  11    3.73    7.16
   3  -2 -11   -2.28    6.74
  -3   2  10   -1.34    5.51
  -3   2  10   14.16    9.09
   3  -2 -10    3.17    4.27
   3  -2 -10    4.20    5.29
   3  -2  -9  503.67   19.03
  -3   2   9  490.05   20.23
  -3   2   9  457.64   16.46
   3  -2  -9  499.37   22.09
  -3   2   9  522.85   24.94
   3  -2  -8  341.37   15.43
  -3   2   8  330.25   15.33
   3  -2  -8  337.85    8.88
   3  -2  -8  335.21    8.99
  -3   2   8  373.97   21.03
   3  -2  -8  300.63   16.19
  -3   2   8  341.68   14.03
  -3   2   7   93.84    9.35
  -3   2   7  114.03    8.47
   3  -2  -7  107.12    5.70
   3  -2  -7  123.96    9.69
  -3   2   7  109.86   11.72
  -3   2   7  111.36    8.12
   3  -2  -7  107.67    8.12
   3  -2  -7  105.30    9.29
  -3   2   6  450.06   14.88
   3  -2  -6  458.12   12.76
   3  -2  -6  455.74   16.47
   3  -2  -6  447.74   17.41
  -3   2   6  486.56   21.63
   3  -2  -6  471.81   17.35
  -3   2   6  415.89   16.88
  -3   2   6  421.24   15.26
   3  -2  -5  713.60   17.75
   3  -2  -5  758.31   21.35
  -3   2   5  755.58   25.88
  -3   2   5  724.25   16.90
  -3   2   5  697.98   20.13
   3  -2  -5  701.93   20.26
   3  -2  -5  746.65   23.83
  -3   2   5  685.14   20.75
  -3   2   4  926.64   17.01
   3  -2  -4  910.38   21.61
   3  -2  -4  949.43   24.65
  -3   2   4  983.33   28.95
  -3   2   4  934.55   23.74
   3  -2  -4  992.52   22.94
   3  -2  -4  957.50   26.99
   3  -2  -3  571.17   20.39
   3  -2  -3  595.68   19.40
   3  -2  -3  592.57   17.91
  -3   2   3  609.44   18.94
  -3   2   3  629.73   22.17
   3  -2  -3  603.19   16.53
   3  -2  -3  652.57   22.57
   3  -2  -2  708.81   20.62
   3  -2  -2  747.07   23.83
  -3   2   2  750.54   23.80
   3  -2  -2  723.84   21.97
  -3   2   2  769.66   22.28
   3  -2  -2  711.95   17.94
   3  -2  -2  696.67   22.75
   3  -2  -1   31.15    5.02
   3  -2  -1   32.31    5.89
  -3   2   1   27.53    5.28
   3  -2  -1   25.69    5.34
   3  -2  -1   28.49    6.38
  -3   2   1   37.59    7.49
   3  -2   0   56.85    8.02
  -3   2   0   46.66    8.61
  -3   2   0   56.43    7.21
  -3   2   0   43.45    6.70
   3  -2   0   45.55    6.58
   3  -2   0   56.11    7.47
   3  -2   0   48.43    7.51
  -3   2   0   61.44    8.18
   3  -2   1  334.67   16.77
  -3   2  -1  345.07   17.70
  -3   2  -1  389.50   17.59
   3  -2   1  327.09   16.24
  -3   2  -1  369.08   15.05
  -3   2  -1  350.76   14.86
  -3   2  -2  433.54   19.89
  -3   2  -2  481.77   20.56
  -3   2  -2  498.44   17.95
   3  -2   2  480.84   20.49
  -3   2  -2  488.42   17.61
  -3   2  -3  147.01   12.29
   3  -2   3  154.92   12.63
  -3   2  -3  144.58   12.46
  -3   2  -3  164.98   10.39
  -3   2  -4  607.16   25.27
  -3   2  -4  584.54   24.32
  -3   2  -4  612.06   20.42
   3  -2   4  571.06   24.13
  -3   2  -5   11.47    6.97
   3  -2   5   27.36    7.89
  -3   2  -5   18.05    6.91
  -3   2  -5   30.86    5.57
  -3   2  -6  368.45   21.16
  -3   2  -6  360.69   20.89
   3  -2   6  370.88   21.22
  -3   2  -7  587.41   27.74
   3  -2   7  533.66   26.55
  -3   2  -7  590.60   27.82
   3  -2   7  585.34   23.45
   3  -2   7  572.66   25.04
  -3   2  -8   90.78   12.93
   3  -2   8  121.20   13.96
  -3   2  -8  126.72   14.21
   3  -2   8  119.24   11.89
   3  -2   8  115.96   12.36
  -3   2  -9   76.72   12.26
   3  -2   9   66.32   11.42
  -3   2  -9  101.70   13.56
   3  -2   9   86.83   11.01
   3  -2   9   91.71   11.77
   3  -2  10   91.32   13.63
   3  -2  10  113.86   14.24
  -3   2 -10   78.11   12.53
   3  -2  10   95.82   12.36
   3  -2  11   63.02   11.10
  -3   1  14  372.83   25.03
  -3   1  13   53.23   10.45
  -3   1  13   63.06   11.99
  -3   1  12   20.14    7.38
  -3   1  12   23.97    9.23
   3  -1 -12   17.80    8.25
  -3   1  11  183.81   15.45
  -3   1  11  183.21   16.82
   3  -1 -11  178.61   15.72
   3  -1 -11  203.71   11.36
  -3   1  11  199.04   12.54
  -3   1  10  525.38   23.44
  -3   1  10  527.27   25.87
   3  -1 -10  465.68   23.28
   3  -1 -10  538.20   18.18
  -3   1   9  320.82   17.41
  -3   1   9  341.65   12.14
  -3   1   9  284.67   18.44
   3  -1  -9  342.80   18.67
   3  -1  -9  319.59   15.27
   3  -1  -9  355.35   14.00
   3  -1  -8   68.83    7.54
  -3   1   8   85.99    9.10
  -3   1   8   87.77    6.09
  -3   1   8   82.27   10.82
   3  -1  -8   79.04    7.10
   3  -1  -8   68.88    9.22
   3  -1  -7   45.75    6.46
  -3   1   7   50.50    4.84
  -3   1   7   56.35    7.32
   3  -1  -7   45.04    5.65
  -3   1   7   40.51    7.94
   3  -1  -7   43.81    7.27
   3  -1  -6   -1.88    3.59
   3  -1  -6    4.11    1.17
  -3   1   6    7.05    5.65
  -3   1   6    5.11    3.00
   3  -1  -6    5.31    3.86
  -3   1   6    8.60    4.68
  -3   1   6    9.97    6.34
   3  -1  -6    2.75    5.09
  -3   1   5 1013.84   22.89
   3  -1  -5  985.58   16.86
   3  -1  -5 1010.99   21.41
   3  -1  -5 1021.17   28.81
  -3   1   5 1043.97   29.45
  -3   1   5 1021.32   20.98
   3  -1  -5 1007.46   25.72
  -3   1   5 1005.97   26.17
   3  -1  -5 1037.21   25.67
   3  -1  -4   24.32    4.99
   3  -1  -4   21.15    4.57
  -3   1   4   16.50    4.66
  -3   1   4   23.40    3.80
  -3   1   4   21.23    4.01
  -3   1   4   32.63    6.46
   3  -1  -4   20.55    2.98
   3  -1  -4   13.19    4.10
   3  -1  -4   26.54    4.43
   3  -1  -3  439.18   12.69
   3  -1  -3  460.64   17.87
   3  -1  -3  450.15   14.21
  -3   1   3  490.78   14.40
   3  -1  -3  455.28   15.26
   3  -1  -3  446.97   16.16
  -3   1   3  498.34   18.88
  -3   1   2  464.04   14.10
   3  -1  -2  460.11   14.22
   3  -1  -2  467.39   17.64
   3  -1  -2  478.28   14.88
  -3   1   2  438.84   14.33
   3  -1  -2  461.11   14.73
  -3   1   2  478.37   17.86
   3  -1  -1   38.80    5.27
   3  -1  -1   38.90    5.56
   3  -1  -1   37.46    2.73
  -3   1   1   46.09    5.67
  -3   1   1   53.54    6.55
   3  -1  -1   42.73    5.63
   3  -1  -1   40.00    5.34
   3  -1  -1   34.37    5.80
  -3   1   1   33.78    7.37
  -3   1   0  708.03   20.42
   3  -1   0  699.11   20.09
   3  -1   0  695.22   20.46
   3  -1   0  708.40   21.95
  -3   1   0  679.18   21.18
   3  -1   0  699.12   20.29
  -3   1   0  715.62   20.53
  -3   1  -1 2841.25   49.76
  -3   1  -1 2853.83   49.06
   3  -1   1 2742.46   48.45
   3  -1   1 2792.17   48.41
  -3   1  -1 2855.24   49.90
   3  -1   1 2834.15   49.71
  -3   1  -1 2752.73   42.96
  -3   1  -1 2776.09   48.62
   3  -1   1 2716.86   48.12
  -3   1  -1 2748.78   43.37
  -3   1  -2 2026.64   41.53
  -3   1  -2 2042.64   41.42
   3  -1   2 2102.98   41.97
   3  -1   2 2093.71   41.81
   3  -1   2 1997.02   41.13
  -3   1  -2 2062.59   34.90
  -3   1  -2 2036.24   34.80
   3  -1   2 2018.20   41.25
  -3   1  -3  128.85   10.84
  -3   1  -3  154.21   11.42
   3  -1   3  130.42   10.41
  -3   1  -3  135.41    7.84
   3  -1   3  123.24   10.31
  -3   1  -4   36.00    7.82
   3  -1   4   29.08    7.32
  -3   1  -4   38.24    7.42
  -3   1  -4   32.45    4.75
  -3   1  -5  279.21   16.50
  -3   1  -5  275.60   17.04
   3  -1   5  283.33   16.48
  -3   1  -6  586.68   24.63
  -3   1  -6  623.04   25.41
   3  -1   6  643.56   20.84
   3  -1   6  610.07   25.32
   3  -1   6  608.32   20.55
  -3   1  -7  113.03   12.27
   3  -1   7  106.06   11.11
   3  -1   7  122.98   12.67
  -3   1  -7   99.70   10.94
   3  -1   7  104.22    9.39
   3  -1   7  120.55   10.30
  -3   1  -8   43.23    9.63
   3  -1   8   41.35    8.57
  -3   1  -8   49.69    9.69
   3  -1   8   57.58    8.34
   3  -1   8   69.28    9.79
  -3   1  -9    5.27    5.76
   3  -1   9   -5.52    7.25
  -3   1  -9   -8.36    7.98
   3  -1   9    7.59    5.60
   3  -1   9   -2.48    6.44
  -3   1 -10   77.18   12.30
   3  -1  10   90.11   12.77
  -3   1 -10   86.04   12.64
   3  -1  10   83.48    9.99
   3  -1  10   78.90   11.36
   3  -1  11   96.61   13.18
  -3   1 -11  110.48   14.55
   3  -1  11  101.86   12.89
  -3   0  13   35.90   10.37
  -3   0  13   37.91   10.97
  -3   0  12   29.56    9.27
  -3   0  12   29.03    9.35
   3   0 -12   29.00    8.24
  -3   0  11  587.42   28.55
  -3   0  11  580.53   27.51
   3   0 -11  601.72   28.44
  -3   0  10  549.46   26.09
  -3   0  10  557.28   25.30
   3   0 -10  582.53   16.71
   3   0 -10  602.67   26.75
  -3   0  10  561.31   13.99
  -3   0   9   12.81    2.53
   3   0  -9    5.09    2.78
  -3   0   9    3.07    5.19
  -3   0   9   -1.41    7.65
   3   0  -9   14.55    7.51
   3   0  -9    0.06    3.12
  -3   0   8  219.85   14.29
  -3   0   8  227.97   15.59
  -3   0   8  219.60    7.31
   3   0  -8  223.57    8.91
   3   0  -8  217.30   14.80
   3   0  -8  192.64   10.11
   3   0  -7   72.96    6.35
  -3   0   7   93.85    9.42
  -3   0   7   85.03   10.91
  -3   0   7   87.46    4.30
   3   0  -7   83.48    5.45
   3   0  -7   78.37    9.08
   3   0  -6  938.98   18.08
  -3   0   6  960.63   28.38
  -3   0   6  915.06   25.34
   3   0  -6  923.83   26.93
  -3   0   6  907.29   15.13
  -3   0   6  938.03   26.96
   3   0  -6  916.71   21.66
   3   0  -5    2.51    4.42
   3   0  -5   -1.25    3.40
  -3   0   5   -1.69    4.35
  -3   0   5    3.30    1.58
  -3   0   5    8.21    4.39
  -3   0   5   14.46    6.73
   3   0  -5    5.96    4.86
   3   0  -5    4.43    2.58
  -3   0   4  272.53   11.44
   3   0  -4  284.03    8.03
   3   0  -4  297.44   13.91
  -3   0   4  298.93    7.92
   3   0  -4  282.53   12.96
  -3   0   4  264.15   13.01
   3   0  -4  279.03   10.96
  -3   0   4  283.16   14.02
   3   0  -3   10.34    4.72
   3   0  -3    9.37    3.25
   3   0  -3    8.32    2.58
   3   0  -3    9.38    2.36
  -3   0   3    4.91    4.09
  -3   0   3    7.84    3.66
  -3   0   3    9.16    2.33
   3   0  -3    9.27    2.97
  -3   0   3   10.16    2.40
   3   0  -3    7.35    4.56
  -3   0   3   13.53    6.08
   3   0  -2    4.54    4.38
   3   0  -2    5.12    2.62
   3   0  -2    7.30    2.74
  -3   0   2    4.38    5.26
   3   0  -2    9.34    2.74
  -3   0   2   10.41    3.03
  -3   0   2    7.38    2.57
   3   0  -2    8.40    4.45
   3   0  -2    2.82    2.24
   3   0  -1  758.14   17.75
   3   0  -1  747.58   15.59
  -3   0   1  773.75   17.62
   3   0  -1  781.30   17.81
  -3   0   1  766.56   21.19
   3   0  -1  745.50   17.37
  -3   0   1  756.10   17.47
   3   0  -1  734.50   19.64
   3   0  -1  744.42   21.09
  -3   0   0 5350.29   69.42
   3   0   0 5285.07   69.97
   3   0   0 5213.45   73.53
  -3   0   0 5300.70   73.35
   3   0   0 5229.95   69.09
   3   0   0 5307.02   69.51
  -3   0  -1 2684.67   43.76
  -3   0  -1 2667.56   44.36
   3   0   1 2643.57   44.39
   3   0   1 2738.41   46.50
  -3   0  -1 2718.10   46.24
   3   0   1 2679.76   43.77
   3   0   1 2757.02   44.05
  -3   0  -2  319.38   13.38
  -3   0  -2  308.24   13.44
   3   0   2  321.10   13.77
  -3   0  -2  319.66   13.65
   3   0   2  304.10   13.23
  -3   0  -2  321.80    9.27
  -3   0  -2  326.81    9.28
   3   0   2  343.19   13.94
   3   0   2  294.87   13.60
   3   0   3   24.65    4.85
  -3   0  -3   18.87    2.73
  -3   0  -3   31.30    5.55
   3   0   3    9.46    3.84
   3   0   3   20.88    5.38
   3   0   3   15.67    4.62
  -3   0  -3   15.22    5.42
  -3   0  -3   18.64    5.22
  -3   0  -4  712.78   22.20
   3   0   4  760.92   23.15
  -3   0  -4  689.89   22.86
   3   0   4  725.61   23.74
  -3   0  -4  725.37   23.28
   3   0   4  678.83   22.98
   3   0   4  718.53   23.38
   3   0   4  732.29   23.51
  -3   0  -5 1847.05   40.26
   3   0   5 1866.59   40.83
   3   0   5 1843.88   41.76
  -3   0  -5 1865.20   41.90
  -3   0  -5 1809.34   41.57
   3   0   5 1904.19   32.04
   3   0   5 1871.27   40.56
   3   0   5 1881.06   31.98
   3   0   6  277.15   11.74
   3   0   6  267.59   11.52
  -3   0  -6  265.23   15.78
  -3   0  -6  258.58   15.13
  -3   0  -6  265.15   15.85
   3   0   6  268.00   15.89
   3   0   6  260.52   15.21
  -3   0  -7  623.42   24.52
   3   0   7  649.35   24.51
  -3   0  -7  609.54   24.78
   3   0   7  609.35   19.07
  -3   0  -7  600.08   24.79
   3   0   7  672.97   19.60
   3   0   7  634.33   25.48
  -3   0  -8   54.53    8.58
   3   0   8   37.96    8.73
  -3   0  -8   33.23    7.23
  -3   0  -8   40.22    7.95
   3   0   8   36.94    6.00
   3   0   8   40.32    6.05
   3   0   8   51.01    8.92
  -3   0  -9   65.14   10.49
  -3   0  -9   68.76   10.72
   3   0   9   75.46   10.68
  -3   0  -9   62.49    9.76
   3   0   9   80.44    8.45
   3   0   9   81.57   10.42
  -3   0 -10   91.82   12.58
   3   0  10   78.56   11.36
  -3   0 -10  111.55   14.08
  -3   0 -10  102.25   12.61
   3   0  10   99.31    9.79
   3   0  10   89.11   11.15
   3   0  11    4.01    6.36
  -3   0 -11    2.66    8.00
  -3   0 -11   -6.25    7.38
   3   0  11   -1.32    5.49
   3   0  12   37.82   10.49
  -3   0 -12   28.02    8.19
  -3   0 -12   43.91   10.36
   3   0  12   47.59   10.15
  -3  -1  13    7.20    9.07
  -3  -1  12  561.41   29.00
   3   1 -12  534.41   28.79
  -3  -1  12  509.56   27.52
  -3  -1  11  501.15   26.43
  -3  -1  11  540.44   26.86
   3   1 -11  526.22   27.46
   3   1 -10    4.96    2.47
  -3  -1  10   18.65    7.27
  -3  -1  10   16.96    8.01
   3   1 -10    2.32    7.16
  -3  -1   9  283.10   17.59
  -3  -1   9  297.13   18.45
  -3  -1   9  291.62    7.87
   3   1  -9  294.30    9.78
  -3  -1   9  286.71    7.98
   3   1  -9  276.02   18.34
   3   1  -9  292.25   10.05
  -3  -1   8  947.46   30.69
   3   1  -8  985.63   17.47
  -3  -1   8  970.98   30.49
  -3  -1   8  898.74   13.75
  -3  -1   8  895.87   13.68
   3   1  -8  954.06   31.26
   3   1  -8  922.48   18.70
   3   1  -7 1585.40   22.69
  -3  -1   7 1673.07   39.64
  -3  -1   7 1651.20   39.09
   3   1  -7 1572.11   39.45
   3   1  -7 1617.92   26.30
  -3  -1   6 1674.61   37.27
   3   1  -6 1780.11   37.77
  -3  -1   6 1717.00   37.88
   3   1  -6 1520.55   20.18
   3   1  -6 1661.35   38.29
   3   1  -6 1701.18   26.40
   3   1  -5   55.27    7.77
   3   1  -5   47.58    4.05
  -3  -1   5   62.29    8.67
  -3  -1   5   74.67    8.63
   3   1  -5   52.53    6.43
  -3  -1   5   65.61    8.50
   3   1  -4    1.37    4.62
   3   1  -4    3.35    2.18
  -3  -1   4    3.89    4.50
  -3  -1   4    1.58    4.33
   3   1  -4    4.63    3.89
   3   1  -4    3.43    3.78
  -3  -1   4    5.97    5.15
  -3  -1   3  277.68   11.81
   3   1  -3  233.17   10.79
  -3  -1   3  254.59    6.49
   3   1  -3  239.69   11.49
   3   1  -3  262.96   12.75
  -3  -1   3  270.55   13.01
  -3  -1   3  264.06   12.38
   3   1  -2  898.47   20.62
  -3  -1   2  921.96   16.47
   3   1  -2  935.72   16.90
   3   1  -2  907.37   22.30
  -3  -1   2  899.34   22.31
   3   1  -2  915.96   15.09
   3   1  -2  920.79   14.88
   3   1  -2  905.83   22.83
   3   1  -1   49.09    6.32
  -3  -1   1   47.67    6.22
   3   1  -1   45.29    4.92
   3   1  -1   48.97    3.71
  -3  -1   1   49.75    4.52
   3   1  -1   40.18    4.19
   3   1  -1   41.08    5.52
   3   1  -1   55.16    4.08
  -3  -1   0  312.11   10.83
   3   1   0  297.38   10.85
  -3  -1   0  303.05   10.14
   3   1   0  284.00   11.85
  -3  -1   0  311.46   12.32
   3   1   0  303.58   10.03
   3   1   0  302.74   10.34
   3   1   1   23.10    4.10
  -3  -1  -1   24.78    4.32
   3   1   1   18.60    4.64
   3   1   1   26.45    4.57
  -3  -1  -1   24.71    4.10
  -3  -1  -1   29.61    5.90
  -3  -1  -1   27.57    4.65
  -3  -1  -2  181.48    8.55
  -3  -1  -2  175.59    9.83
   3   1   2  173.54    9.71
  -3  -1  -2  161.58    8.99
   3   1   2  169.23    9.62
   3   1   2  167.97    9.20
  -3  -1  -3  470.13   14.72
   3   1   3  518.36   15.66
  -3  -1  -3  521.94   17.72
   3   1   3  501.01   17.55
   3   1   3  519.84   17.62
  -3  -1  -3  517.00   17.16
   3   1   3  482.51   16.72
  -3  -1  -4 3452.26   53.04
   3   1   4 3383.53   53.27
  -3  -1  -4 3513.71   57.38
   3   1   4 3397.88   57.33
  -3  -1  -4 3444.25   56.85
   3   1   4 3501.36   57.33
   3   1   4 3504.05   56.35
  -3  -1  -5   32.27    5.86
   3   1   5   41.01    6.16
   3   1   5   35.90    6.07
   3   1   5   33.20    3.38
  -3  -1  -5   29.17    6.54
   3   1   5   39.30    7.21
   3   1   5   33.55    3.44
  -3  -1  -5   41.55    7.05
   3   1   5   28.30    6.74
  -3  -1  -6   -1.89    4.62
   3   1   6    5.09    5.19
  -3  -1  -6    1.89    4.53
   3   1   6    1.86    2.57
   3   1   6   -0.47    2.77
  -3  -1  -6   -2.29    5.43
   3   1   6    9.79    6.05
  -3  -1  -7  654.89   23.72
  -3  -1  -7  714.18   25.84
   3   1   7  641.10   16.97
  -3  -1  -7  734.97   26.22
   3   1   7  632.12   23.85
  -3  -1  -8 1290.39   35.81
  -3  -1  -8 1306.19   37.18
  -3  -1  -8 1244.90   36.63
   3   1   8 1243.99   27.24
   3   1   8 1265.40   35.56
   3   1   8 1213.09   36.88
  -3  -1  -9  358.67   19.93
  -3  -1  -9  350.97   19.62
  -3  -1  -9  409.20   21.64
   3   1   9  387.29   15.35
   3   1   9  366.93   19.64
   3   1   9  358.04   20.30
   3   1  10   18.02    6.64
  -3  -1 -10   36.38    8.38
  -3  -1 -10   12.66    6.96
   3   1  10   18.30    5.73
   3   1  10   19.20    6.84
   3   1  11    3.09    5.69
  -3  -1 -11   -2.39    6.79
  -3  -1 -11    9.61    7.29
   3   1  11    2.85    4.39
   3   1  11    4.05    6.65
   3   1  12  103.07   13.72
  -3  -1 -12   88.85   12.36
  -3  -1 -12  108.20   14.00
   3   1  12   98.40   12.85
  -3  -1 -13  421.75   25.51
   3   1  13  398.29   25.65
   3   1  13  413.09   24.54
  -3  -2  13  288.70   22.10
  -3  -2  12  185.76   18.06
  -3  -2  12  178.61   16.97
  -3  -2  12  180.85   17.54
   3   2 -12  193.24   18.09
  -3  -2  11    3.72    7.08
  -3  -2  11    5.16    6.19
  -3  -2  11   -4.10    7.02
   3   2 -11    4.27    6.58
  -3  -2  10   -8.57    7.89
  -3  -2  10   -9.06    7.01
  -3  -2  10    3.25    6.74
   3   2 -10    9.74    7.35
  -3  -2   9  485.83   24.18
  -3  -2   9  454.56   23.44
  -3  -2   9  437.97   21.56
  -3  -2   9  473.82   11.29
   3   2  -9  452.17   23.47
  -3  -2   8 1195.67   36.93
  -3  -2   8 1258.71   20.91
  -3  -2   8 1220.99   20.41
  -3  -2   8 1222.90   34.40
  -3  -2   8 1246.42   18.83
   3   2  -8 1226.34   37.05
  -3  -2   7  753.98   25.02
  -3  -2   7  768.72   27.21
  -3  -2   7  754.41   14.17
  -3  -2   7  732.08   12.77
  -3  -2   7  680.96   10.71
   3   2  -7  721.41   26.56
  -3  -2   6   -2.39    4.72
  -3  -2   6   -2.86    6.54
  -3  -2   6    0.11    1.49
   3   2  -6   -1.18    4.03
  -3  -2   6    3.94    4.99
   3   2  -6   -6.09    6.85
   3   2  -5   21.63    5.74
  -3  -2   5   24.69    5.99
  -3  -2   5   33.21    5.65
  -3  -2   5   31.78    7.21
  -3  -2   5   34.68    6.15
  -3  -2   5   29.13    2.67
   3   2  -5   27.48    5.14
  -3  -2   4 3501.22   56.94
   3   2  -4 3413.06   55.82
  -3  -2   4 3446.98   42.27
   3   2  -4 3488.71   52.81
   3   2  -4 3465.95   56.99
   3   2  -4 3245.34   38.33
  -3  -2   4 3504.50   57.42
  -3  -2   4 3522.27   52.91
  -3  -2   3  280.53   13.29
   3   2  -3  278.30   12.67
  -3  -2   3  275.57    8.43
  -3  -2   3  269.17   11.83
   3   2  -3  284.66   11.48
   3   2  -3  278.92   13.21
  -3  -2   3  283.72   13.49
   3   2  -2   90.43    7.91
   3   2  -2  109.96    7.97
  -3  -2   2  104.42    5.74
   3   2  -2   99.09    3.79
   3   2  -2  100.75    6.68
  -3  -2   2  102.16    7.00
   3   2  -1   72.03    7.41
   3   2  -1   85.37    4.19
   3   2  -1   80.93    6.70
  -3  -2   1   85.76    5.68
   3   2  -1   80.73    5.97
  -3  -2   1   83.66    6.25
  -3  -2   1   72.43    3.79
   3   2  -1   84.07    5.13
  -3  -2   0  450.43   13.40
   3   2   0  440.99   13.48
   3   2   0  445.79   13.59
  -3  -2   0  432.67   13.42
  -3  -2   0  438.55   11.31
  -3  -2   0  453.38   11.06
   3   2   0  441.18   12.64
   3   2   0  442.96   11.54
  -3  -2  -1   47.24    4.69
  -3  -2  -1   44.45    3.28
  -3  -2  -1   45.63    5.31
   3   2   1   49.12    5.47
   3   2   1   46.79    5.13
   3   2   1   51.14    4.91
  -3  -2  -1   47.66    2.92
   3   2   1   46.76    5.12
  -3  -2  -2   40.49    3.84
  -3  -2  -2   25.62    4.98
  -3  -2  -2   29.06    5.75
   3   2   2   21.00    4.93
   3   2   2   38.03    5.11
   3   2   2   21.90    4.80
   3   2   2   27.21    5.01
  -3  -2  -3  467.91   12.25
   3   2   3  477.00   12.62
  -3  -2  -3  481.35   16.90
   3   2   3  499.34   17.29
  -3  -2  -3  476.95   16.19
   3   2   3  491.77   16.54
   3   2   3  473.44   15.97
  -3  -2  -4   63.23    6.88
  -3  -2  -4   63.64    5.42
   3   2   4   53.43    4.98
  -3  -2  -4   62.44    7.08
   3   2   4   66.83    7.78
   3   2   4   66.41    7.07
   3   2   4   80.24    7.81
  -3  -2  -5  984.31   23.11
   3   2   5  964.06   23.12
  -3  -2  -5  992.44   27.00
   3   2   5  964.44   27.27
   3   2   5  935.84   14.61
  -3  -2  -5  984.18   26.76
   3   2   5  966.03   26.61
   3   2   5  957.48   26.94
  -3  -2  -6  640.44   20.06
   3   2   6  612.42   19.75
  -3  -2  -6  645.54   23.37
  -3  -2  -6  667.45   22.83
   3   2   6  620.02   13.36
   3   2   6  614.59   22.30
  -3  -2  -7 3372.02   57.83
   3   2   7 3329.49   57.58
  -3  -2  -7 3448.33   62.10
  -3  -2  -7 3349.23   61.94
   3   2   7 3446.61   46.49
   3   2   7 3418.84   61.34
  -3  -2  -8  443.72   21.29
  -3  -2  -8  444.01   21.22
   3   2   8  452.04   14.40
   3   2   8  457.22   21.04
  -3  -2  -9    6.81    6.44
   3   2   9    1.55    3.37
  -3  -2  -9    3.42    6.50
   3   2   9    0.76    5.97
  -3  -2 -10    7.53    5.74
   3   2  10    4.54    4.26
  -3  -2 -10   -7.38    7.17
   3   2  10   -6.69    6.70
  -3  -2 -11  633.30   28.32
   3   2  11  663.97   22.27
  -3  -2 -11  659.68   29.38
   3   2  11  660.11   28.65
  -3  -2 -12  443.32   24.78
   3   2  12  391.99   25.06
  -3  -2 -12  408.24   24.38
   3   2  12  446.63   24.30
   3   2  13   23.89    9.66
  -3  -2 -13    8.00    7.16
  -3  -2 -13   11.89    8.51
   3   2  13   17.08    7.60
  -3  -2 -14   10.15    6.81
   3   2  14   16.09    7.96
  -3  -3  13   21.02    8.68
  -3  -3  12   76.80   12.72
  -3  -3  11   29.07    8.73
  -3  -3  11   27.33    7.81
  -3  -3  11   41.67   10.14
   3   3 -11    7.07    6.26
  -3  -3  10  110.52   13.72
  -3  -3  10  106.63   12.31
  -3  -3  10  118.24   13.81
   3   3 -10   99.44   12.81
  -3  -3   9  284.31   19.98
  -3  -3   9  295.19   17.66
  -3  -3   9  281.01   19.15
   3   3  -9  268.73   18.91
  -3  -3   8   17.28    3.08
  -3  -3   8   14.68    6.57
  -3  -3   8   13.56    5.92
  -3  -3   8    5.12    6.61
   3   3  -8   20.07    7.09
  -3  -3   7   43.19    3.89
  -3  -3   7   50.04    4.22
  -3  -3   7   43.01    8.94
  -3  -3   7   48.93    5.31
  -3  -3   7   33.92    7.24
  -3  -3   7   49.27    8.72
   3   3  -7   28.43    7.40
  -3  -3   6   17.93    2.47
  -3  -3   6   23.09    8.44
  -3  -3   6   21.96    3.03
  -3  -3   6   14.85    5.40
  -3  -3   6   19.53    7.55
  -3  -3   6   20.44    4.02
   3   3  -6   15.36    6.76
  -3  -3   5 2058.10   40.98
   3   3  -5 1977.31   43.70
  -3  -3   5 2133.54   45.74
  -3  -3   5 2047.58   33.49
  -3  -3   5 2048.42   28.46
   3   3  -5 2040.54   37.86
  -3  -3   5 2089.13   38.53
  -3  -3   5 2046.34   44.17
  -3  -3   5 1984.67   25.91
  -3  -3   4  160.06   11.31
  -3  -3   4  148.47    9.45
  -3  -3   4  152.82   11.90
   3   3  -4  132.95   10.23
  -3  -3   4  118.59    3.99
  -3  -3   4  132.68    5.56
   3   3  -4  135.70    8.18
  -3  -3   4  155.63    9.07
  -3  -3   4  130.62    4.15
   3   3  -4  128.28    5.10
   3   3  -4  114.22    9.92
  -3  -3   4  167.56   11.99
   3   3  -3    6.26    4.09
  -3  -3   3    3.04    3.99
   3   3  -3    5.34    1.87
  -3  -3   3    4.30    2.83
  -3  -3   3    6.94    1.44
  -3  -3   3    8.43    5.79
   3   3  -3    9.74    4.50
  -3  -3   3    5.70    1.25
   3   3  -3    9.20    2.98
  -3  -3   3    2.53    3.23
  -3  -3   3    6.52    4.40
   3   3  -2    2.65    2.06
   3   3  -2    2.35    4.94
  -3  -3   2    1.33    1.78
  -3  -3   2    4.97    2.52
   3   3  -2   -0.72    4.30
  -3  -3   2    6.88    3.39
   3   3  -2    1.74    1.60
   3   3  -2   -3.14    2.36
  -3  -3   2    0.08    3.52
  -3  -3   1 3684.44   46.03
  -3  -3   1 3623.83   45.35
   3   3  -1 3746.99   57.75
  -3  -3   1 3660.62   52.62
   3   3  -1 3728.83   48.65
   3   3  -1 3683.53   46.62
   3   3  -1 3678.51   48.20
  -3  -3   1 3669.70   48.43
  -3  -3   1 3708.59   52.86
   3   3  -1 3618.52   56.47
   3   3   0 2818.34   47.21
  -3  -3   0 2838.37   38.93
   3   3   0 2791.09   39.64
   3   3   0 2710.58   40.65
  -3  -3   0 2823.41   44.60
  -3  -3   0 2900.57   41.16
   3   3   0 2741.58   39.16
   3   3   0 2670.77   39.57
   3   3   0 2790.17   46.31
  -3  -3   0 2776.34   39.12
   3   3   1  237.34    9.07
   3   3   1  234.21    9.92
  -3  -3  -1  237.93    8.58
  -3  -3  -1  241.47   11.28
  -3  -3  -1  240.28    8.66
   3   3   1  232.94    8.33
  -3  -3  -1  246.35   10.04
   3   3   1  243.01    9.97
  -3  -3  -1  222.21    9.60
   3   3   2   49.21    5.47
   3   3   2   46.75    4.72
  -3  -3  -2   51.44    6.57
   3   3   2   53.95    6.21
  -3  -3  -2   58.29    5.82
   3   3   2   56.33    3.76
  -3  -3  -2   53.02    5.50
   3   3   2   52.88    5.88
   3   3   3  110.23    8.08
   3   3   3  106.27    4.42
  -3  -3  -3  117.92    9.07
   3   3   3  117.79    8.96
   3   3   3  104.21    4.41
  -3  -3  -3  109.82    7.80
   3   3   3  100.87    8.30
  -3  -3  -3  107.68    7.94
   3   3   4  139.49    9.64
   3   3   4  154.73    6.63
  -3  -3  -4  169.06   10.96
   3   3   4  149.53   10.55
   3   3   4  150.20    5.43
   3   3   4  150.35    5.34
  -3  -3  -4  158.98    9.89
  -3  -3  -4  145.40    9.85
   3   3   4  134.95    9.59
   3   3   5   62.42    7.41
   3   3   5   62.00    5.25
  -3  -3  -5   56.38    7.43
  -3  -3  -5   57.99    7.55
   3   3   5   73.28    8.60
  -3  -3  -5   56.85    6.62
   3   3   5   59.81    7.28
   3   3   6  750.03   20.03
   3   3   6  734.58   24.48
  -3  -3  -6  791.78   25.50
  -3  -3  -6  784.87   25.21
   3   3   7  221.59   11.85
  -3  -3  -7  234.65   14.53
  -3  -3  -7  215.23   14.25
   3   3   7  226.31   14.42
  -3  -3  -8   66.16    9.45
   3   3   8   48.03    6.93
  -3  -3  -8   72.19    9.72
   3   3   8   52.81    8.42
  -3  -3  -9   -2.13    6.14
  -3  -3  -9   -3.22    5.18
   3   3   9   -6.44    6.77
  -3  -3 -10  388.75   21.06
  -3  -3 -10  425.42   22.58
   3   3  10  386.95   20.95
  -3  -3 -11 1053.67   36.06
   3   3  11 1042.71   37.89
  -3  -3 -11 1061.11   37.49
   3   3  11 1053.97   36.54
  -3  -3 -12   34.56    9.55
   3   3  12   28.23    8.39
  -3  -3 -12   36.96    9.16
   3   3  12   30.29    8.58
  -3  -3 -13    7.79    8.26
   3   3  13   -0.10    6.38
  -3  -3 -13    0.31    6.37
   3   3  13    5.58    7.93
  -3  -3 -14   21.93    8.57
   3   3  14   18.09    9.27
  -3  -4  11   61.58   10.84
   3   4 -11   77.08   12.79
  -3  -4  10   42.60   10.31
  -3  -4  10   51.23    8.72
  -3  -4  10   32.38   10.03
   3   4 -10   48.73   10.01
  -3  -4   9   -2.20    8.26
  -3  -4   9    1.78    4.97
  -3  -4   9    5.57    6.56
   3   4  -9   -4.44    6.76
  -3  -4   8   -1.77    4.96
  -3  -4   8    2.96    7.00
   3   4  -8   -1.57    6.40
  -3  -4   7    9.45    3.40
  -3  -4   7   13.56    6.96
  -3  -4   7    7.85    3.55
  -3  -4   7    4.90    4.49
  -3  -4   7   12.75    7.44
   3   4  -7    6.75    6.30
  -3  -4   6  695.71   27.58
  -3  -4   6  640.28   20.20
  -3  -4   6  675.72   21.11
  -3  -4   6  689.24   18.03
  -3  -4   6  689.26   16.38
  -3  -4   6  691.63   27.09
   3   4  -6  705.05   26.36
  -3  -4   5  608.19   21.59
  -3  -4   5  633.30   25.05
  -3  -4   5  593.10   19.03
  -3  -4   5  629.49   16.57
  -3  -4   5  630.58   18.64
  -3  -4   5  605.48   14.74
  -3  -4   5  592.09   24.01
   3   4  -5  602.04   23.08
   3   4  -5  591.11   15.93
   3   4  -4    2.74    5.12
  -3  -4   4    7.78    4.17
   3   4  -4    0.77    2.53
  -3  -4   4    1.53    6.16
  -3  -4   4    3.24    6.13
  -3  -4   4    3.58    3.31
  -3  -4   4    6.31    2.67
  -3  -4   4    4.58    3.51
   3   4  -3    1.61    4.73
  -3  -4   3    2.59    5.61
   3   4  -3    0.13    2.76
  -3  -4   3    4.09    3.53
  -3  -4   3   -9.10    6.98
  -3  -4   3    2.48    3.26
  -3  -4   3    8.03    5.16
  -3  -4   3    1.12    3.52
  -3  -4   2 1044.03   19.05
  -3  -4   2 1095.34   22.35
   3   4  -2 1103.70   29.29
  -3  -4   2 1069.99   21.04
  -3  -4   2 1071.15   22.75
   3   4  -2 1039.68   18.50
  -3  -4   2 1073.01   27.47
  -3  -4   2 1073.37   17.11
   3   4  -2 1037.11   26.94
   3   4  -2 1031.03   17.09
   3   4  -2  991.53   21.72
  -3  -4   1 3617.62   46.36
   3   4  -1 3581.85   59.10
  -3  -4   1 3560.78   43.25
  -3  -4   1 3470.21   49.26
   3   4  -1 3503.61   51.07
  -3  -4   1 3487.99   51.24
   3   4  -1 3489.85   43.20
  -3  -4   1 3560.38   55.88
   3   4  -1 3574.70   55.70
  -3  -4   1 3590.20   56.02
  -3  -4   1 3590.98   46.19
   3   4  -1 3591.64   56.20
   3   4  -1 3585.38   46.54
  -3  -4   0  592.84   17.82
   3   4   0  595.46   20.22
  -3  -4   0  593.77   15.15
  -3  -4   0  574.84   11.05
  -3  -4   0  591.68   16.24
   3   4   0  570.46   16.90
   3   4   0  577.67   11.76
  -3  -4   0  576.84   17.68
   3   4   0  550.68   17.14
   3   4   0  591.35   15.25
   3   4   0  554.45   18.52
  -3  -4  -1  782.14   19.81
  -3  -4  -1  787.96   22.44
   3   4   1  783.59   20.74
  -3  -4  -1  793.85   19.76
   3   4   1  802.25   15.28
  -3  -4  -1  762.02   19.47
   3   4   1  787.63   19.49
  -3  -4  -1  770.29   18.86
   3   4   1  781.62   19.40
  -3  -4  -2   10.92    4.40
  -3  -4  -2   11.95    5.92
   3   4   2   13.20    3.40
   3   4   2    7.51    3.80
   3   4   2    5.86    4.16
  -3  -4  -2   19.05    4.84
   3   4   2   11.39    2.72
   3   4   2    3.32    3.65
  -3  -4  -3  838.98   22.91
   3   4   3  815.42   23.32
   3   4   3  812.99   18.43
   3   4   3  833.55   23.82
  -3  -4  -3  884.80   24.93
  -3  -4  -3  842.88   22.50
   3   4   3  837.44   22.99
   3   4   3  803.56   18.39
   3   4   4    8.21    4.20
   3   4   4    1.59    1.62
  -3  -4  -4    7.51    4.90
   3   4   4    0.55    2.94
  -3  -4  -4   -0.51    4.43
   3   4   4    4.13    2.81
  -3  -4  -4   -2.64    3.32
   3   4   4   -0.76    4.54
   3   4   5  225.91    8.78
   3   4   5  233.32   13.55
  -3  -4  -5  270.57   15.26
  -3  -4  -5  222.78   13.00
   3   4   5  231.16   13.33
  -3  -4  -5  271.18   14.32
   3   4   6  224.70    9.98
  -3  -4  -6  220.86   14.37
   3   4   6  216.82   13.69
  -3  -4  -6  260.34   14.85
   3   4   7  107.21    8.18
  -3  -4  -7  102.98   10.49
  -3  -4  -7  106.26   11.18
   3   4   7  121.52   11.30
   3   4   8  156.67   10.53
  -3  -4  -8  159.12   13.31
  -3  -4  -8  182.12   14.03
   3   4   8  146.91   13.49
  -3  -4  -9  110.88   12.05
  -3  -4  -9  106.40   11.49
   3   4   9  108.34   11.84
  -3  -4 -10 1133.03   36.46
   3   4  10 1164.53   37.38
  -3  -4 -10 1163.37   37.90
   3   4  10 1102.34   36.69
  -3  -4 -11   45.67    9.01
  -3  -4 -11   41.97    8.12
   3   4  11   51.48    9.60
   3   4  11   48.90    9.65
   3   4  12   76.17   11.89
  -3  -4 -12   95.61   12.41
   3   4  12   61.29   11.54
  -3  -4 -12   76.95   11.49
   3   4  13   73.26   12.04
  -3  -4 -13   63.66   11.78
  -3  -4 -13   78.24   13.38
   3   4  13   55.38   11.14
  -3  -4 -14  424.35   25.40
   3   4  14  464.46   27.58
   3   5 -10   38.72    9.71
  -3  -5   9   34.57    9.61
  -3  -5   9   14.94    8.94
   3   5  -9   27.75    9.73
  -3  -5   8   36.48    9.48
  -3  -5   8   39.56    6.82
  -3  -5   8   31.18    9.06
   3   5  -8   30.67    9.89
  -3  -5   7  996.07   36.41
  -3  -5   7  932.13   26.28
  -3  -5   7  899.75   25.32
  -3  -5   7  969.36   36.20
   3   5  -7  921.26   33.10
  -3  -5   6  435.53   16.15
  -3  -5   6  448.06   23.65
  -3  -5   6  407.98   16.34
  -3  -5   6  436.41   23.41
   3   5  -6  427.75   21.44
   3   5  -6  419.97   15.96
  -3  -5   5   29.31    8.31
   3   5  -5   33.87    4.85
  -3  -5   5   39.05    5.34
  -3  -5   5   33.32    4.62
  -3  -5   5   38.15    9.29
  -3  -5   5   38.00    6.01
   3   5  -5   39.96    7.29
  -3  -5   4  197.64   15.18
  -3  -5   4  192.94   12.44
  -3  -5   4  190.42    9.97
  -3  -5   4  193.55   11.17
  -3  -5   4  222.75    9.30
  -3  -5   4  206.94   15.22
   3   5  -4  185.22   10.34
   3   5  -4  195.77   13.27
   3   5  -3   92.55    8.88
  -3  -5   3   91.27    9.52
   3   5  -3   89.15    8.15
  -3  -5   3   89.18    8.06
   3   5  -3  105.91    8.23
  -3  -5   3  100.49   11.44
  -3  -5   3   93.56    4.14
  -3  -5   3   97.83    5.13
  -3  -5   3   95.76    8.14
   3   5  -2 1146.78   25.86
  -3  -5   2 1210.58   26.12
  -3  -5   2 1232.28   27.98
  -3  -5   2 1206.34   26.56
  -3  -5   2 1030.03   15.25
   3   5  -2 1183.58   27.24
  -3  -5   2 1275.82   32.96
  -3  -5   2 1201.70   20.72
   3   5  -2 1192.15   29.84
   3   5  -1  793.90   18.80
  -3  -5   1  828.55   19.33
  -3  -5   1  850.01   23.07
  -3  -5   1  789.39   21.55
  -3  -5   1  773.82   24.83
   3   5  -1  815.46   22.31
   3   5  -1  785.31   24.55
  -3  -5   1  813.44   25.39
  -3  -5   1  809.95   18.20
   3   5  -1  804.71   23.13
   3   5  -1  827.77   18.48
   3   5   0  108.91    5.80
   3   5   0  121.60    9.12
   3   5   0  107.06    9.72
  -3  -5   0  127.15    8.93
  -3  -5   0  118.99    9.38
   3   5   0  115.53    8.69
   3   5   0  114.70    9.17
  -3  -5   0  115.26    9.95
  -3  -5   0  108.80    9.97
  -3  -5   0  106.06    7.13
   3   5   0  119.18    7.68
   3   5   1   62.13    6.17
   3   5   1   55.23    3.56
   3   5   1   62.76    7.33
   3   5   1   54.84    7.69
  -3  -5  -1   58.36    7.33
   3   5   1   57.73    6.60
  -3  -5  -1   56.24    7.47
  -3  -5  -1   60.03    6.08
  -3  -5  -1   63.02    7.17
   3   5   1   64.09    7.04
   3   5   2 1247.91   17.97
   3   5   2 1262.36   19.76
  -3  -5  -2 1274.69   30.15
   3   5   2 1300.11   19.68
   3   5   2 1264.91   31.08
   3   5   2 1250.16   28.62
  -3  -5  -2 1256.62   28.40
   3   5   2 1281.10   29.15
  -3  -5  -3  253.77   13.58
   3   5   3  228.65    6.24
  -3  -5  -3  256.90   14.65
   3   5   3  262.73   14.06
   3   5   3  236.40   11.80
   3   5   3  218.94   11.24
  -3  -5  -3  253.23   12.72
   3   5   3  230.87   12.77
  -3  -5  -4 1168.28   30.56
   3   5   4 1128.38   26.04
  -3  -5  -4 1066.73   31.35
   3   5   4 1122.98   31.12
   3   5   4 1134.32   31.18
   3   5   4 1074.82   25.42
  -3  -5  -4 1122.98   29.04
   3   5   4 1121.63   29.44
  -3  -5  -5  408.77   18.40
   3   5   5  379.56   11.03
  -3  -5  -5  393.27   19.12
   3   5   5  383.93   14.26
   3   5   5  379.82   14.69
   3   5   5  378.45   14.46
   3   5   5  390.81   18.57
   3   5   6  214.56    9.53
  -3  -5  -6  257.16   16.01
   3   5   6  228.40   12.18
   3   5   6  241.08   15.25
  -3  -5  -6  217.69   14.36
   3   5   7    4.03    5.90
   3   5   7    5.87    3.71
   3   5   7    8.59    5.14
  -3  -5  -7    3.42    6.67
  -3  -5  -7    6.74    5.22
   3   5   8  745.61   21.98
  -3  -5  -8  784.52   28.79
   3   5   8  802.16   26.37
   3   5   8  790.85   28.79
  -3  -5  -8  778.34   28.84
   3   5   9  139.29   10.58
  -3  -5  -9  179.04   14.48
   3   5   9  141.56   12.58
  -3  -5  -9  207.07   16.28
   3   5   9  175.02   14.72
   3   5  10   61.21   11.01
   3   5  10   61.37    9.75
  -3  -5 -10   51.81    9.28
  -3  -5 -10   75.64   11.01
   3   5  11    8.65    7.75
  -3  -5 -11    5.63    6.79
   3   5  11    9.04    6.17
   3   5  12   25.68    8.16
  -3  -5 -12   30.30    8.88
   3   5  12   20.74    8.12
  -3  -5 -12   17.22    7.81
  -3  -5 -13  333.08   22.79
   3   5  13  328.96   22.90
  -3  -5 -13  366.18   24.28
   3   5  13  326.06   22.73
  -3  -5 -14  195.71   17.67
   3   6  -9  359.78   23.28
  -3  -6   8  244.79   20.53
  -3  -6   8  288.16   22.52
   3   6  -8  273.49   19.98
  -3  -6   7  147.54   15.86
  -3  -6   7  141.54   16.29
   3   6  -7  128.39   13.19
  -3  -6   6   58.02   10.61
  -3  -6   6   57.47   11.04
   3   6  -6   56.44    9.59
  -3  -6   6   65.67    8.34
  -3  -6   5  116.78   13.69
  -3  -6   5  115.75   10.26
  -3  -6   5  118.73   13.54
   3   6  -5  122.57   11.81
   3   6  -4  185.61   12.95
  -3  -6   4  183.11   11.19
  -3  -6   4  192.27   12.52
   3   6  -4  206.32   13.96
  -3  -6   4  208.65   16.25
   3   6  -3  444.74   18.24
  -3  -6   3  421.84   18.08
  -3  -6   3  451.18   18.82
   3   6  -3  428.29   17.93
  -3  -6   3  455.25   22.70
   3   6  -3  456.94   19.34
  -3  -6   3  441.85   11.86
   3   6  -2  518.52   18.38
  -3  -6   2  527.11   18.69
  -3  -6   2  487.51   19.86
   3   6  -2  508.10   19.62
  -3  -6   2  519.24   23.38
   3   6  -2  519.44   19.68
  -3  -6   2  517.96   14.67
   3   6  -1  946.90   23.18
  -3  -6   1  888.12   27.02
   3   6  -1  905.90   21.84
  -3  -6   1  944.45   26.88
   3   6  -1  910.72   26.70
  -3  -6   1  877.08   29.53
   3   6  -1  930.60   25.66
  -3  -6   1  901.49   21.63
   3   6   0  197.20    9.53
  -3  -6   0  191.02   12.22
  -3  -6   0  206.85   13.16
   3   6   0  179.69   12.25
  -3  -6   0  202.39   14.54
  -3  -6   0  177.09    9.92
   3   6   0  177.27   10.83
   3   6   0  187.21   10.42
   3   6   1  503.90   13.81
  -3  -6  -1  462.03   19.29
  -3  -6  -1  460.52   19.75
  -3  -6  -1  468.99   16.97
   3   6   1  495.83   17.53
   3   6   1  461.07   17.33
   3   6   2 1155.01   21.15
  -3  -6  -2 1119.32   31.01
  -3  -6  -2 1096.56   28.05
   3   6   2 1103.93   28.93
   3   6   2 1134.06   27.81
   3   6   3   79.01    8.92
   3   6   3   76.34    5.27
   3   6   3   71.87    4.05
   3   6   3   70.37    4.00
   3   6   3   71.23    8.52
  -3  -6  -3   79.45    9.76
   3   6   3   60.74    7.56
  -3  -6  -3   82.90    8.56
   3   6   4   61.24    8.39
   3   6   4   51.30    7.69
  -3  -6  -4   64.13    8.77
   3   6   4   52.20    4.89
  -3  -6  -4   57.58    9.77
   3   6   4   61.02    7.61
  -3  -6  -5  692.03   25.83
  -3  -6  -5  673.30   26.73
   3   6   5  666.82   18.37
   3   6   5  709.29   23.29
   3   6   5  672.13   22.31
   3   6   5  704.29   25.13
  -3  -6  -6 1379.03   38.15
  -3  -6  -6 1335.56   38.94
   3   6   6 1356.18   30.35
   3   6   6 1348.14   33.29
   3   6   6 1299.24   32.48
   3   6   6 1350.83   37.48
  -3  -6  -7  827.20   29.72
  -3  -6  -7  773.31   29.53
   3   6   7  725.62   23.19
   3   6   7  715.39   27.48
   3   6   8    9.68    6.96
   3   6   8    5.26    3.91
  -3  -6  -8    9.90    5.69
   3   6   8    0.94    4.56
  -3  -6  -8    7.71    7.50
   3   6   9  116.15   13.00
  -3  -6  -9  141.02   13.71
   3   6   9  105.32   10.95
  -3  -6  -9  112.22   12.93
   3   6  10    1.44    7.84
  -3  -6 -10    7.63    7.03
  -3  -6 -10    4.66    6.55
   3   6  10    3.90    6.19
   3   6  11   95.19   12.92
  -3  -6 -11   94.39   12.76
  -3  -6 -11   80.98   12.26
   3   6  11   83.20   11.50
  -3  -6 -12  348.07   23.10
   3   6  12  316.54   21.21
  -3  -6 -12  340.68   23.64
   3   6  12  294.58   21.42
   3   6  13   -4.86    7.87
  -3  -6 -13   -2.82    6.62
  -3  -6 -13    9.85    7.42
   3   6  13   -1.42    7.24
  -3  -6 -14  169.27   17.01
  -3  -7   7   12.83    8.62
   3   7  -7    7.75    6.58
  -3  -7   6   83.26   13.38
   3   7  -6   66.12    9.48
   3   7  -5  201.09   15.38
  -3  -7   5  195.61   14.60
  -3  -7   5  204.06   18.92
   3   7  -5  197.48   14.62
   3   7  -4  325.55   18.22
  -3  -7   4  310.91   17.97
  -3  -7   4  318.66   21.97
   3   7  -4  296.59   16.85
   3   7  -3   82.83    9.40
  -3  -7   3   91.37   12.52
  -3  -7   3   80.17   10.05
   3   7  -3   92.42    9.32
   3   7  -2    2.67    4.33
  -3  -7   2   -0.02    8.42
  -3  -7   2   -3.63    5.45
   3   7  -2    5.06    4.38
   3   7  -1  445.03   17.42
  -3  -7   1  422.85   20.33
  -3  -7   1  439.56   20.10
  -3  -7   1  451.99   23.26
   3   7  -1  435.09   17.51
  -3  -7   1  418.58   15.85
   3   7   0  471.40   17.01
  -3  -7   0  493.50   21.98
  -3  -7   0  459.67   21.04
   3   7   0  485.78   17.79
  -3  -7   0  453.13   17.47
   3   7   0  467.55   17.66
   3   7   1  678.56   19.20
  -3  -7  -1  689.80   25.65
  -3  -7  -1  719.65   26.68
  -3  -7  -1  616.51   21.71
   3   7   1  661.66   20.46
   3   7   1  650.18   22.01
   3   7   2   61.17    8.05
   3   7   2   63.28    7.08
   3   7   2   67.19    6.00
  -3  -7  -2   53.30    8.59
  -3  -7  -2   67.28    9.19
  -3  -7  -3  108.01   11.90
   3   7   3  111.97   10.84
   3   7   3  134.75    7.98
   3   7   3  133.32   12.27
   3   7   3  112.63    8.96
   3   7   4  572.23   16.47
  -3  -7  -4  565.23   24.39
   3   7   4  577.21   12.80
   3   7   4  565.57   22.93
   3   7   4  571.93   23.24
  -3  -7  -5  860.72   31.17
  -3  -7  -5  822.70   31.77
   3   7   5  887.54   20.40
   3   7   5  886.05   28.88
   3   7   5  873.87   30.24
   3   7   6   84.59   10.55
  -3  -7  -6   74.14   10.95
   3   7   6   77.84    7.12
  -3  -7  -6   70.23   11.30
   3   7   6   90.48    9.92
   3   7   7   29.75    8.22
  -3  -7  -7   32.87    8.38
  -3  -7  -7   26.45    7.93
   3   7   7   18.13    6.69
   3   7   7   26.72    5.55
   3   7   8   45.84    9.62
   3   7   8   52.35    7.65
  -3  -7  -8   48.99    9.85
  -3  -7  -8   44.35    8.88
   3   7   9  141.31   14.43
   3   7   9  148.71   12.27
  -3  -7  -9  142.75   14.85
  -3  -7  -9  158.62   15.20
  -3  -7 -10  425.31   24.97
   3   7  10  394.06   21.02
   3   7  10  412.84   24.41
  -3  -7 -10  460.99   25.84
  -3  -7 -11  493.56   27.21
   3   7  11  476.68   24.15
   3   7  11  543.88   28.50
  -3  -7 -11  492.88   27.94
   3   7  12    1.01    6.49
  -3  -7 -12    4.72    6.99
  -3  -7 -12   -1.19    7.25
   3   7  12   15.60    8.70
  -3  -7 -13   10.74    7.31
   3   7  13   17.35    8.61
  -3  -7 -14  -16.15    9.62
   3   8  -5   44.25    9.38
   3   8  -4   44.53    9.22
  -3  -8   4   37.83   11.37
  -3  -8   4   37.42    8.79
   3   8  -3  117.00   11.56
  -3  -8   3  137.80   16.23
  -3  -8   3  109.09   12.51
   3   8  -2  139.35   11.94
   3   8  -2  153.05   11.15
  -3  -8   2  126.78   13.46
   3   8  -1  471.93   20.22
  -3  -8   1  493.04   24.21
  -3  -8   1  486.50   23.58
   3   8  -1  487.17   18.46
   3   8   0  230.36   13.54
  -3  -8   0  231.82   17.45
  -3  -8   0  235.31   17.27
   3   8   0  238.20   12.48
   3   8   1    7.38    4.00
   3   8   1    0.65    4.55
   3   8   1   -2.83    4.37
  -3  -8  -1    1.30    5.61
  -3  -8  -1    6.16    7.18
   3   8   2  119.99   11.13
   3   8   2  131.75    9.34
  -3  -8  -2  146.00   14.02
   3   8   2  125.23    8.77
  -3  -8  -2  119.58   12.94
   3   8   3  303.14   13.47
  -3  -8  -3  304.64   19.46
  -3  -8  -3  298.15   19.38
   3   8   3  287.46   13.09
   3   8   3  266.68   16.55
   3   8   4  300.57   13.13
  -3  -8  -4  298.42   19.76
   3   8   4  264.33   17.99
   3   8   4  295.87   13.79
   3   8   4  315.99   18.57
   3   8   5   93.64   11.25
   3   8   5   79.87    7.31
   3   8   5   70.26   10.04
  -3  -8  -5   75.83   11.23
   3   8   6   43.04    9.07
  -3  -8  -6   87.84   12.31
  -3  -8  -6   57.68   10.12
   3   8   6   68.68    6.16
   3   8   6   50.18    9.24
   3   8   7   -1.68    6.40
  -3  -8  -7    6.59    7.22
   3   8   7   -4.72    3.99
  -3  -8  -7   -2.79    6.73
   3   8   7    0.59    6.31
   3   8   8  183.24   16.74
  -3  -8  -8  196.86   17.47
   3   8   8  188.47   12.53
  -3  -8  -8  163.49   16.84
   3   8   8  191.69   15.62
  -3  -8  -9  349.46   22.92
  -3  -8  -9  386.73   24.27
   3   8   9  362.53   18.51
   3   8   9  327.50   20.40
   3   8   9  360.52   23.21
  -3  -8 -10  278.09   21.43
  -3  -8 -10  293.59   21.52
   3   8  10  289.15   17.71
   3   8  10  325.23   23.00
   3   8  11  128.48   15.59
  -3  -8 -11   98.54   13.66
  -3  -8 -11   92.00   13.61
   3   8  11  103.43   11.74
  -3  -8 -12  108.95   15.26
   3   8  12  100.29   13.59
   3   8  13   30.23    9.23
  -3  -9   3   41.19   10.74
  -3  -9   2  150.19   15.82
  -3  -9   2  166.79   16.08
  -3  -9   1  103.07   13.43
  -3  -9   1  107.08   13.88
  -3  -9   0   11.19    6.25
  -3  -9   0   13.37    7.39
  -3  -9  -1   12.14    7.59
  -3  -9  -1   12.83    7.97
   3   9   2  136.27   12.49
  -3  -9  -2  124.81   14.22
  -3  -9  -2  144.42   15.38
  -3  -9  -3  593.57   28.88
  -3  -9  -3  582.26   29.01
   3   9   3  588.01   26.05
  -3  -9  -4  249.46   19.57
   3   9   4  269.55   19.32
   3   9   4  233.17   16.90
   3   9   5    2.66    6.71
   3   9   5    4.69    6.34
  -3  -9  -5   -3.35    7.66
   3   9   6    9.32    8.47
   3   9   6   -1.19    6.70
  -3  -9  -6   -1.60    8.42
  -3  -9  -6   12.12    8.76
  -3  -9  -7  199.13   18.04
  -3  -9  -7  248.71   20.70
   3   9   7  212.19   17.96
   3   9   7  197.58   17.57
   3   9   8  139.97   14.93
  -3  -9  -8  133.69   15.99
  -3  -9  -8  145.51   17.22
   3   9   8  134.64   14.72
   3   9   9  148.00   16.36
  -3  -9  -9  135.30   15.51
  -3  -9  -9  129.12   16.69
   3   9   9  147.54   15.78
  -3  -9 -10  -12.42    9.72
   3   9  10    5.42    8.01
   3   9  11   26.27    9.85
  -3 -10   1   16.72    9.27
  -3 -10   0  -18.51   10.19
  -3 -10   0    5.86    9.90
  -3 -10  -1  173.77   17.60
  -3 -10  -1  188.15   19.05
  -3 -10  -2  348.14   24.59
  -3 -10  -2  371.88   25.40
  -3 -10  -3  192.28   18.97
  -3 -10  -3  178.08   18.21
   3  10   4   -1.04    7.17
  -3 -10  -4    0.27    7.93
   3  10   5   20.71    8.05
   3  10   5   12.05    8.55
  -3 -10  -5   38.61   11.75
   3  10   6  203.15   18.05
  -3 -10  -6  215.86   20.60
   3  10   6  188.09   17.84
   3  10   7  281.94   21.48
   3  10   7  274.43   21.58
   3  10   8    3.78    7.37
   3  10   9   48.77   10.99
   3  10  10   44.54   11.21
  -4   7   6   22.77    7.76
  -4   7   5   40.96   10.38
   4  -6 -10  436.49   27.08
   4  -6  -9  213.56   19.81
   4  -6  -9  246.04   20.04
   4  -6  -8   33.60   11.02
  -4   6   8   14.50    8.37
   4  -6  -8   28.82   10.28
  -4   6   7   16.62    9.48
   4  -6  -7    8.45    9.20
  -4   6   6  145.23   16.31
   4  -6  -6  140.26   16.48
  -4   6   5   41.47    9.92
   4  -6  -5   24.13    9.56
  -4   6   4  247.57   19.47
  -4   6   4  267.00   21.62
   4  -6  -4  290.76   22.05
   4  -6  -3    8.64    7.89
  -4   6   3   -0.25    7.89
  -4   6   3   -7.86    9.41
   4  -6  -2    5.18    9.89
  -4   6   2    7.06    8.48
  -4   6   1    7.95    8.66
  -4   6   0  187.58   17.66
   4  -5 -11  170.98   16.47
   4  -5 -10  304.43   21.67
  -4   5  10  289.48   23.20
   4  -5  -9   31.43   10.45
  -4   5   9   10.27    9.23
   4  -5  -9   34.11    8.75
   4  -5  -8  141.14   15.44
  -4   5   8  148.15   16.23
   4  -5  -8  113.10   13.35
  -4   5   7   -0.99    7.55
   4  -5  -7    0.97    7.05
   4  -5  -6  299.89   20.28
  -4   5   6  299.06   21.14
   4  -5  -5  270.69   19.60
  -4   5   5  256.68   19.19
   4  -5  -4   58.39   11.98
  -4   5   4   43.80   10.32
   4  -5  -3   -1.00    9.22
  -4   5   3   23.87    9.24
  -4   5   3    6.88    7.12
  -4   5   3   26.37   10.71
   4  -5  -2   23.58    8.24
  -4   5   2   36.54   10.14
  -4   5   2   27.74    8.95
  -4   5   2   20.12    9.79
  -4   5   1  251.50   20.19
   4  -5  -1  241.18   19.60
  -4   5   1  213.33   17.44
   4  -5   0   29.87    9.42
  -4   5   0   36.55    9.94
  -4   5   0   54.94   10.01
  -4   5  -1  308.08   23.00
   4  -5   1  363.98   24.65
  -4   5  -1  316.56   20.91
   4  -5   2   33.32   11.18
  -4   5  -2   29.06   10.81
   4  -4 -11   77.89   10.55
  -4   4  11   65.40   13.10
  -4   4  10   38.67   11.36
   4  -4 -10   34.26    8.47
   4  -4 -10   35.86    7.27
  -4   4   9   22.64   10.40
   4  -4  -9   22.15    7.82
   4  -4  -9   15.33    6.16
   4  -4  -9   10.16    4.26
  -4   4   8   18.12    9.78
   4  -4  -8    7.80    6.01
   4  -4  -8   23.43    8.20
   4  -4  -8    9.40    4.46
   4  -4  -7 1031.99   34.17
  -4   4   7 1043.66   38.16
   4  -4  -7 1077.23   27.82
  -4   4   6   82.58   12.81
   4  -4  -6   71.80    9.54
   4  -4  -6   61.90    6.34
  -4   4   5  107.97   13.09
   4  -4  -5  127.86    8.09
   4  -4  -5  127.47   13.07
   4  -4  -4   88.22   11.12
  -4   4   4   80.01   11.62
   4  -4  -3  417.42   21.99
  -4   4   3  409.43   22.05
  -4   4   2  437.56   24.87
   4  -4  -2  400.09   22.48
  -4   4   2  445.74   23.06
  -4   4   2  448.17   23.41
  -4   4   1  221.73   18.18
  -4   4   1  225.47   16.72
  -4   4   1  223.56   16.77
   4  -4  -1  205.82   16.61
   4  -4   0   27.93    9.43
  -4   4   0   13.95    7.27
  -4   4   0    9.12    6.01
   4  -4   1   27.88    9.07
  -4   4  -1   25.74    9.40
  -4   4  -1   42.35    8.47
  -4   4  -2  298.92   21.43
   4  -4   2  286.42   20.94
  -4   4  -3  183.59   17.46
   4  -4   3  199.82   18.20
   4  -4   4   28.33   10.00
  -4   4  -4   17.28    8.87
   4  -3 -12   45.33    9.72
  -4   3  11    8.75    7.27
   4  -3 -11    0.37    5.82
  -4   3  10   -4.72    5.44
  -4   3  10    2.38    7.92
   4  -3 -10   -1.85    4.71
   4  -3 -10    2.96    5.32
  -4   3   9  427.18   17.46
   4  -3  -9  440.87   20.75
   4  -3  -9  373.55   19.27
  -4   3   9  424.98   24.99
  -4   3   8  536.59   26.96
  -4   3   8  479.51   16.82
   4  -3  -8  525.77   22.60
   4  -3  -8  515.95   20.86
   4  -3  -8  517.02   21.34
  -4   3   7   -2.32    6.77
  -4   3   7    0.35    3.16
   4  -3  -7    2.82    5.62
   4  -3  -7    4.40    5.20
   4  -3  -7    1.68    4.10
   4  -3  -6    4.31    3.56
  -4   3   6    8.80    6.93
   4  -3  -6   13.63    4.56
   4  -3  -5  154.32   10.70
   4  -3  -5  181.04   12.92
  -4   3   5  180.16   14.88
   4  -3  -5  185.22   10.70
   4  -3  -4  606.63   23.43
  -4   3   4  572.44   25.10
   4  -3  -4  588.55   18.26
  -4   3   3  744.05   28.38
   4  -3  -3  688.28   25.90
   4  -3  -3  707.91   19.65
   4  -3  -2   21.65    4.52
   4  -3  -2   23.22    6.83
  -4   3   2   11.70    6.89
   4  -3  -1   58.22    6.19
   4  -3  -1   49.74    8.44
  -4   3   1   49.37    9.93
  -4   3   1   41.98    8.35
  -4   3   1   66.24    9.58
   4  -3   0   37.60    8.03
  -4   3   0   57.35   10.26
  -4   3   0   53.67    9.44
  -4   3   0   35.67    7.45
  -4   3  -1  897.01   33.59
   4  -3   1  846.70   31.47
  -4   3  -1  858.46   28.38
  -4   3  -2  478.10   24.69
   4  -3   2  444.65   23.35
  -4   3  -2  464.57   20.60
   4  -3   3    7.66    7.09
  -4   3  -3   15.13    7.58
   4  -3   4    0.70    6.56
  -4   3  -4    8.35    7.83
   4  -3   5    9.22    6.50
  -4   3  -5   15.33    8.71
  -4   3  -6  381.31   25.06
   4  -3   6  387.24   24.86
   4  -3   8   57.96   10.76
  -4   2  14  113.76   14.07
  -4   2  13   20.72    7.56
   4  -2 -13   47.84   10.59
  -4   2  12   16.11    7.15
  -4   2  12   38.38   12.30
   4  -2 -12   27.79    8.94
  -4   2  11  295.86   18.22
  -4   2  11  326.04   23.26
   4  -2 -11  323.19   20.36
   4  -2 -10  936.80   27.35
  -4   2  10  939.41   30.27
  -4   2  10  939.87   37.26
   4  -2 -10  861.13   32.13
   4  -2  -9  224.42   13.23
  -4   2   9  208.07   13.47
  -4   2   9  239.38   18.89
   4  -2  -9  227.60   15.65
   4  -2  -8    7.94    4.77
  -4   2   8   17.53    5.11
   4  -2  -8    9.58    1.85
  -4   2   8   13.18    8.52
   4  -2  -8    0.57    5.33
  -4   2   7  100.58    7.99
  -4   2   7   80.26    7.59
   4  -2  -7  101.13    5.82
   4  -2  -7   99.47    8.48
  -4   2   7   70.31   10.53
   4  -2  -7  101.19    9.20
   4  -2  -7   99.70    9.81
  -4   2   6  175.07    9.15
   4  -2  -6  177.47    8.98
   4  -2  -6  192.91   11.49
  -4   2   6  180.42   15.34
  -4   2   6  168.19   10.41
   4  -2  -6  193.06   12.09
   4  -2  -5  466.94   17.94
   4  -2  -5  477.26   15.68
   4  -2  -5  487.97   18.38
  -4   2   5  488.20   22.89
  -4   2   5  482.87   17.80
   4  -2  -4  163.99    9.92
   4  -2  -4  188.11   12.10
  -4   2   4  192.07   11.56
  -4   2   4  206.58   15.72
   4  -2  -4  194.85   11.14
   4  -2  -3   79.88    7.83
   4  -2  -3   82.76    8.75
  -4   2   3   59.74    7.21
   4  -2  -3   79.91    7.83
  -4   2   3   83.60   10.91
   4  -2  -2   75.29    7.28
   4  -2  -2   53.51    7.89
   4  -2  -2   57.71    7.24
  -4   2   2   42.29    7.77
  -4   2   1  304.59   17.19
   4  -2  -1  313.73   13.72
   4  -2  -1  296.26   16.03
  -4   2   0 1119.60   34.34
  -4   2   0 1110.71   32.00
  -4   2   0 1147.23   33.59
   4  -2   0 1084.39   32.06
  -4   2   0 1109.01   30.21
  -4   2   0 1068.20   28.84
  -4   2  -1 1060.05   33.71
  -4   2  -1 1077.65   32.39
   4  -2   1 1028.74   32.07
  -4   2  -1 1012.60   28.00
  -4   2  -1 1018.66   27.97
   4  -2   2   23.64    6.59
  -4   2  -2   15.80    6.86
  -4   2  -2   32.97    8.22
  -4   2  -2   53.95    7.61
  -4   2  -2   44.68    6.84
   4  -2   3   70.81    9.84
  -4   2  -3   78.95   10.85
  -4   2  -3   76.96   10.27
  -4   2  -3   63.72    7.46
  -4   2  -4  192.90   15.87
  -4   2  -4  230.65   17.16
   4  -2   4  189.10   15.68
  -4   2  -5  513.88   25.68
  -4   2  -5  483.53   25.34
   4  -2   5  534.98   26.82
  -4   2  -6  196.98   16.83
  -4   2  -6  198.09   17.10
   4  -2   6  222.01   18.17
  -4   2  -7   -6.66    6.42
   4  -2   7   11.62    7.25
  -4   2  -7   -3.09    8.21
   4  -2   7   16.93    8.07
  -4   2  -8   15.48    9.40
   4  -2   8   22.19   10.08
  -4   2  -8    9.52    7.38
   4  -2   8   15.12    7.06
   4  -2   9   11.74    7.30
  -4   1  13   12.37    7.48
   4  -1 -13   29.25    9.26
  -4   1  12  150.55   15.09
  -4   1  12  187.80   19.11
   4  -1 -12  199.90   17.69
  -4   1  11  371.38   21.25
  -4   1  11  427.19   25.94
   4  -1 -11  380.91   23.10
  -4   1  10  181.82   14.54
   4  -1 -10  183.21   15.53
   4  -1 -10  177.93    9.77
  -4   1  10  207.65   18.00
  -4   1   9   -0.57    4.79
  -4   1   9    4.18    6.37
   4  -1  -9   -1.48    3.20
   4  -1  -9    5.39    6.27
  -4   1   8    0.65    2.39
  -4   1   8    2.34    4.89
   4  -1  -8    4.13    3.34
  -4   1   8   13.43    8.71
   4  -1  -8   -1.24    5.72
  -4   1   7  449.69   18.11
   4  -1  -7  493.60   16.65
   4  -1  -7  488.08   20.73
  -4   1   7  481.01   13.92
  -4   1   7  449.36   22.62
  -4   1   6  596.67   19.00
   4  -1  -6  571.93   11.98
   4  -1  -6  577.18   16.66
   4  -1  -6  586.56   18.69
  -4   1   6  610.49   25.40
  -4   1   6  597.17   16.39
   4  -1  -6  622.20   22.60
  -4   1   5  302.27   12.39
   4  -1  -5  304.83   10.23
   4  -1  -5  303.44   12.37
  -4   1   5  294.37   17.70
  -4   1   5  299.02   11.78
   4  -1  -5  305.12   15.12
   4  -1  -5  300.11   14.96
   4  -1  -4   78.20    6.97
   4  -1  -4   89.28    8.91
   4  -1  -4   71.00    7.81
   4  -1  -4   75.40    5.97
  -4   1   4   76.74    9.72
  -4   1   4   93.24    7.13
   4  -1  -3    0.86    4.66
   4  -1  -3    2.66    3.85
  -4   1   3   -4.13    3.84
   4  -1  -3    2.08    3.26
  -4   1   3    6.65    7.21
   4  -1  -2  210.47    7.05
  -4   1   2  210.26   10.94
   4  -1  -2  221.01   11.31
   4  -1  -2  205.59   11.47
  -4   1   2  211.98   13.97
   4  -1  -2  189.02   11.13
  -4   1   2  225.15   11.69
   4  -1  -2  209.90   11.86
   4  -1  -1  613.54   12.49
  -4   1   1  599.50   20.22
   4  -1  -1  577.81   19.60
   4  -1  -1  571.55   20.06
  -4   1   1  610.08   23.03
   4  -1  -1  608.47   20.24
  -4   1   1  608.62   20.15
   4  -1  -1  603.69   19.60
  -4   1   0  678.81   23.94
  -4   1   0  645.18   23.60
  -4   1   0  661.11   21.96
   4  -1   0  636.00   21.96
   4  -1   0  674.45   22.27
   4  -1   0  687.33   22.46
  -4   1   0  667.97   21.98
   4  -1   1   37.41    7.26
  -4   1  -1   34.11    8.26
  -4   1  -1   38.92    7.08
  -4   1  -1   45.73    6.13
  -4   1  -1   26.15    4.97
  -4   1  -2  244.93   15.36
  -4   1  -2  232.33   14.37
  -4   1  -2  253.98   11.63
   4  -1   2  253.64   15.14
  -4   1  -2  219.30   10.81
  -4   1  -3   41.25    8.84
   4  -1   3   48.28    9.09
  -4   1  -3   49.74    8.33
  -4   1  -3   37.08    5.46
  -4   1  -4  676.77   25.97
  -4   1  -4  689.66   27.04
  -4   1  -4  644.56   19.11
   4  -1   4  683.85   26.79
  -4   1  -5   99.72   11.39
   4  -1   5  100.37   11.19
  -4   1  -5  100.24   11.38
  -4   1  -5   87.93    7.41
  -4   1  -6   48.20    9.01
   4  -1   6   53.54   10.25
  -4   1  -6   34.25    8.26
  -4   1  -7    0.49    5.48
   4  -1   7   -6.91    7.59
  -4   1  -7    0.93    6.83
   4  -1   7    6.98    6.42
  -4   1  -8  278.47   20.14
  -4   1  -8  318.23   21.24
   4  -1   8  278.41   20.32
   4  -1   8  284.03   19.51
  -4   1  -9   21.62    8.58
   4  -1   9   26.66    8.69
  -4   1  -9   24.25    7.77
   4  -1   9   36.13    8.81
   4  -1  10   65.90   11.54
   4  -1  11   67.55   11.54
  -4   0  13   10.27    8.60
  -4   0  12  135.65   15.15
  -4   0  12  147.60   16.58
   4   0 -12  126.42   15.32
  -4   0  11   90.27   11.90
  -4   0  11  106.59   13.65
   4   0 -11   89.19   12.51
  -4   0  10    8.11    5.46
  -4   0  10   20.99    8.19
   4   0 -10   12.89    7.87
  -4   0   9   84.08   10.17
  -4   0   9   97.16   12.58
   4   0  -9   82.64    5.24
   4   0  -9   73.54   10.02
   4   0  -9   77.90    7.33
  -4   0   8  353.84   18.31
  -4   0   8  371.69   20.78
   4   0  -8  320.79   18.53
   4   0  -8  341.19   10.49
   4   0  -8  325.05   14.18
   4   0  -7  819.77   17.21
  -4   0   7  767.94   25.01
  -4   0   7  809.97   29.22
  -4   0   7  759.21   12.32
   4   0  -7  799.46   27.56
   4   0  -7  782.12   22.59
  -4   0   6 1369.04   32.41
   4   0  -6 1418.21   25.02
  -4   0   6 1330.92   36.99
  -4   0   6 1387.76   20.90
   4   0  -6 1410.36   36.17
   4   0  -6 1352.47   30.72
  -4   0   5  257.86   12.97
   4   0  -5  281.07    8.94
  -4   0   5  294.12   17.22
  -4   0   5  281.44    8.67
   4   0  -5  290.69   15.39
   4   0  -5  275.27   12.95
  -4   0   4  304.40   13.20
   4   0  -4  303.22    9.38
   4   0  -4  312.64   10.90
   4   0  -4  310.18   10.48
  -4   0   4  313.40   16.92
  -4   0   4  322.76   10.31
   4   0  -4  318.92   15.58
   4   0  -4  303.37   13.44
   4   0  -3  151.69    8.21
  -4   0   3  155.57    7.61
   4   0  -3  156.36    7.70
   4   0  -3  162.26    8.43
   4   0  -3  156.72   11.58
   4   0  -3  169.05    8.43
  -4   0   3  167.51   12.59
  -4   0   3  147.58    7.61
   4   0  -3  144.38   10.20
   4   0  -2 1304.98   24.66
  -4   0   2 1327.96   26.49
   4   0  -2 1260.77   26.26
   4   0  -2 1324.42   27.09
   4   0  -2 1332.31   33.13
  -4   0   2 1277.76   32.60
   4   0  -2 1331.06   26.63
   4   0  -2 1312.34   30.73
   4   0  -1   49.98    6.71
   4   0  -1   37.36    5.29
   4   0  -1   28.94    3.93
  -4   0   1   36.22    5.39
   4   0  -1   26.64    4.69
   4   0  -1   66.98    8.74
  -4   0   1   50.75    7.90
   4   0  -1   43.77    5.63
  -4   0   0  584.74   18.74
   4   0   0  555.32   18.71
   4   0   0  581.59   21.36
   4   0   0  610.91   19.07
  -4   0   0  568.74   20.96
   4   0   0  540.76   18.23
  -4   0  -1  373.60   16.00
  -4   0  -1  375.90   15.90
   4   0   1  346.13   15.67
  -4   0  -1  360.97   16.97
   4   0   1  370.76   15.59
   4   0   1  362.54   15.36
  -4   0  -2   57.34    7.91
   4   0   2   52.49    7.54
  -4   0  -2   48.22    7.33
   4   0   2   41.68    7.00
  -4   0  -2   56.49    4.85
  -4   0  -2   43.39    4.23
   4   0   2   51.95    7.52
  -4   0  -3  567.60   20.82
  -4   0  -3  567.31   21.64
  -4   0  -3  551.67   13.78
   4   0   3  545.11   21.25
  -4   0  -4   75.61    8.84
   4   0   4   74.88    9.72
  -4   0  -4   81.86    9.52
  -4   0  -4   90.43   10.13
  -4   0  -4   79.28    5.37
  -4   0  -5   -4.08    6.64
   4   0   5    3.36    5.10
  -4   0  -5  -11.18    7.01
  -4   0  -5    3.50    5.91
  -4   0  -6   16.08    6.22
   4   0   6    9.92    5.56
  -4   0  -6   19.39    7.48
  -4   0  -6   14.05    6.88
   4   0   6   24.26    7.16
  -4   0  -7 1214.47   37.50
  -4   0  -7 1233.08   38.86
  -4   0  -7 1205.80   38.66
   4   0   7 1173.98   38.37
   4   0   7 1196.53   37.37
  -4   0  -8  110.58   12.98
   4   0   8  115.47   13.03
  -4   0  -8  103.43   12.83
  -4   0  -8  122.73   13.98
   4   0   8   98.79   11.82
  -4   0  -9  533.54   26.90
  -4   0  -9  570.04   28.50
  -4   0  -9  597.18   29.25
   4   0   9  543.25   27.70
   4   0   9  533.00   26.71
  -4   0 -10   53.15   10.68
   4   0  10   38.26    9.61
  -4   0 -10   78.39   12.25
  -4   0 -10   57.50   10.82
   4   0  10   45.55   10.33
  -4   0 -11  104.29   14.58
  -4   0 -11   83.96   12.56
   4   0  11  112.85   14.23
  -4  -1  13  145.50   17.59
  -4  -1  12   77.58   13.34
  -4  -1  12   63.72   12.02
   4   1 -12   60.21   11.38
  -4  -1  11   47.45    9.87
  -4  -1  11   44.50   10.10
   4   1 -11   56.86   10.58
  -4  -1  10  290.79   19.73
  -4  -1  10  285.09   19.54
   4   1 -10  311.95   20.38
  -4  -1   9   11.20    6.83
  -4  -1   9   12.62    7.27
   4   1  -9    6.56    6.70
  -4  -1   8  926.82   31.00
  -4  -1   8  926.08   31.83
   4   1  -8  945.99   32.45
   4   1  -8  916.99   20.83
   4   1  -7   32.54    7.78
   4   1  -7   57.75    5.32
  -4  -1   7   46.29    8.08
  -4  -1   7   48.23    8.81
   4   1  -6   10.74    6.48
   4   1  -6    8.28    2.77
  -4  -1   6   22.61    6.50
  -4  -1   6   13.02    7.56
  -4  -1   5  302.99   15.01
  -4  -1   5  339.52   17.21
   4   1  -5  300.71   16.21
   4   1  -5  310.93   11.81
  -4  -1   4  855.99   24.03
   4   1  -4  909.26   24.05
  -4  -1   4  935.69   14.63
   4   1  -4  828.66   12.80
   4   1  -4  892.15   26.35
  -4  -1   4  912.15   26.90
   4   1  -4  889.53   14.71
   4   1  -4  913.14   26.87
   4   1  -4  913.14   21.11
   4   1  -3  825.56   22.02
  -4  -1   3  889.86   16.98
   4   1  -3  856.26   17.49
   4   1  -3  840.71   25.14
  -4  -1   3  855.56   25.22
   4   1  -3  879.57   16.49
   4   1  -3  893.53   16.04
   4   1  -3  846.79   25.36
   4   1  -2   49.97    7.52
   4   1  -2   50.30    4.35
   4   1  -2   40.19    5.16
  -4  -1   2   48.22    4.70
   4   1  -2   52.63    5.07
   4   1  -2   45.10    6.56
  -4  -1   2   56.16    8.41
   4   1  -2   47.12    4.23
   4   1  -1  950.72   22.84
  -4  -1   1 1018.27   22.45
   4   1  -1  984.73   22.74
   4   1  -1 1005.03   26.92
  -4  -1   1  997.03   26.51
   4   1  -1  992.57   21.40
   4   1  -1 1000.11   21.37
   4   1  -1 1026.02   26.97
  -4  -1   0  643.80   18.52
   4   1   0  608.01   18.66
   4   1   0  623.44   20.84
  -4  -1   0  620.74   20.63
   4   1   0  641.35   17.90
   4   1   0  644.73   17.80
   4   1   1 3248.36   51.45
  -4  -1  -1 3229.97   49.86
  -4  -1  -1 3164.86   52.13
   4   1   1 3300.80   53.29
  -4  -1  -1 3159.19   50.95
   4   1   1 3274.16   55.54
  -4  -1  -1 3307.54   55.26
   4   1   1 3221.30   51.54
  -4  -1  -2  444.00   16.08
   4   1   2  460.45   18.53
  -4  -1  -2  420.23   17.25
   4   1   2  420.10   17.08
  -4  -1  -2  462.02   17.22
  -4  -1  -2  450.55    9.09
   4   1   2  428.62   16.78
  -4  -1  -2  437.14    8.95
   4   1   2  450.24   17.25
  -4  -1  -3  130.16    9.24
  -4  -1  -3  127.85   10.38
   4   1   3  137.96   10.62
  -4  -1  -3  146.53   10.59
   4   1   3  118.44    9.61
   4   1   3  141.94   10.75
  -4  -1  -4  258.42   13.20
  -4  -1  -4  263.92   14.88
  -4  -1  -4  266.61   14.69
   4   1   4  261.08   15.01
   4   1   4  286.56   15.42
  -4  -1  -5  173.83   11.99
   4   1   5  176.37   12.64
  -4  -1  -5  180.16   13.25
  -4  -1  -5  178.08   13.15
   4   1   5  175.79   12.72
   4   1   5  193.58   13.92
  -4  -1  -6 1204.72   32.92
  -4  -1  -6 1230.45   35.91
  -4  -1  -6 1206.42   35.10
   4   1   6 1230.13   35.46
   4   1   6 1183.32   35.54
  -4  -1  -7  863.20   28.68
  -4  -1  -7  888.85   31.46
  -4  -1  -7  917.31   31.90
   4   1   7  897.36   30.85
   4   1   7  909.00   32.12
  -4  -1  -8  110.66   11.53
   4   1   8  117.50   12.42
  -4  -1  -8  116.77   12.44
  -4  -1  -8  128.86   12.90
   4   1   8  122.23    7.69
   4   1   8  108.37   11.99
  -4  -1  -9  299.82   18.64
  -4  -1  -9  231.20   17.78
  -4  -1  -9  257.80   18.46
   4   1   9  262.38   18.98
   4   1   9  271.86   18.55
  -4  -1 -10  242.25   19.05
  -4  -1 -10  243.83   18.70
  -4  -1 -10  186.98   16.73
   4   1  10  211.57   17.87
   4   1  10  241.92   18.52
  -4  -1 -11  337.41   22.94
  -4  -1 -11  351.93   24.09
   4   1  11  338.76   23.33
   4   1  11  309.16   21.31
   4   1  12  123.83   14.58
  -4  -2  13    8.67    9.48
  -4  -2  12   29.37    9.84
  -4  -2  12   56.98   12.48
  -4  -2  11  313.55   22.37
  -4  -2  11  330.20   22.30
  -4  -2  11  322.41   22.69
   4   2 -11  346.52   23.44
  -4  -2  10  118.14   14.07
  -4  -2  10   85.10   12.17
   4   2 -10   92.80   13.02
  -4  -2   9  329.65   20.49
  -4  -2   9  325.13   19.60
   4   2  -9  348.27   21.56
  -4  -2   8  516.22   24.19
  -4  -2   8  478.25   22.34
   4   2  -8  588.53   25.66
  -4  -2   7   12.05    6.52
  -4  -2   7    2.27    6.14
   4   2  -7    6.12    1.21
   4   2  -7    2.59    6.56
   4   2  -6  142.84   12.80
  -4  -2   6  158.82   13.06
  -4  -2   6  141.48   12.26
   4   2  -6  125.47    5.26
  -4  -2   5 1172.37   32.14
  -4  -2   5 1036.34   14.48
  -4  -2   5 1152.62   14.99
   4   2  -5 1227.22   30.91
  -4  -2   5 1206.10   31.20
   4   2  -5 1258.39   33.65
   4   2  -5 1276.71   20.65
   4   2  -4    9.43    5.90
   4   2  -4    5.09    2.43
  -4  -2   4   -1.51    5.76
   4   2  -4    9.34    4.16
  -4  -2   4   10.12    2.26
   4   2  -4    2.32    4.24
  -4  -2   4    7.75    6.19
   4   2  -3   28.35    7.00
   4   2  -3   33.03    6.12
  -4  -2   3   22.46    3.39
   4   2  -3   24.77    5.42
  -4  -2   3   22.08    5.87
   4   2  -2   18.87    6.18
   4   2  -2   13.92    4.66
   4   2  -2   16.78    2.54
  -4  -2   2   11.14    3.11
   4   2  -2   13.51    4.69
  -4  -2   2   19.54    5.89
   4   2  -2   17.58    2.42
   4   2  -1 1879.62   36.48
  -4  -2   1 1836.53   32.46
   4   2  -1 1825.39   32.95
  -4  -2   1 1887.86   29.04
   4   2  -1 1889.91   36.94
  -4  -2   1 1907.75   36.37
   4   2  -1 1869.08   29.31
   4   2  -1 1834.96   38.84
  -4  -2   0 4524.45   63.04
   4   2   0 4427.21   63.57
  -4  -2   0 4499.19   59.37
   4   2   0 4489.03   66.43
  -4  -2   0 4502.80   65.51
   4   2   0 4406.36   59.69
  -4  -2  -1 1112.24   27.08
  -4  -2  -1 1109.25   21.75
  -4  -2  -1 1161.03   26.69
   4   2   1 1147.17   27.14
   4   2   1 1110.79   27.47
  -4  -2  -1 1128.86   24.75
  -4  -2  -1 1137.73   17.69
   4   2   1 1102.34   26.32
   4   2   1 1162.63   25.30
  -4  -2  -2  122.42    8.47
  -4  -2  -2  119.92    7.02
  -4  -2  -2  124.34    9.22
   4   2   2  118.57    9.27
   4   2   2   96.37    8.46
   4   2   2  117.95    8.99
   4   2   2  113.99    8.43
  -4  -2  -3    0.99    3.49
   4   2   3   -0.71    3.54
  -4  -2  -3    3.04    4.27
   4   2   3    0.01    3.96
   4   2   3    3.69    4.73
  -4  -2  -3    6.37    3.99
   4   2   3   -1.27    4.89
  -4  -2  -4  229.02   10.75
  -4  -2  -4  218.29   13.72
  -4  -2  -4  222.84   12.84
   4   2   4  205.23   12.76
   4   2   4  226.38   13.76
   4   2   4  227.52   13.33
  -4  -2  -5  968.77   24.53
   4   2   5  950.58   24.97
  -4  -2  -5  910.92   28.89
  -4  -2  -5  959.62   28.50
   4   2   5  971.76   29.02
  -4  -2  -6  775.11   23.52
   4   2   6  755.06   23.97
  -4  -2  -6  740.10   26.95
  -4  -2  -6  774.38   27.26
   4   2   6  785.66   27.13
  -4  -2  -7  158.68   11.71
  -4  -2  -7  130.30   12.41
  -4  -2  -7  154.71   13.40
   4   2   7  145.70    5.54
   4   2   7  152.27    5.62
   4   2   7  153.85   12.94
  -4  -2  -8  159.71   12.08
  -4  -2  -8  151.22   13.25
   4   2   8  157.50    7.08
  -4  -2  -8  161.18   13.93
   4   2   8  157.72   13.69
  -4  -2  -9  130.93   12.36
  -4  -2  -9  151.46   14.64
  -4  -2  -9  141.78   14.05
   4   2   9  149.77   13.95
  -4  -2 -10  462.03   24.77
  -4  -2 -10  440.11   24.49
   4   2  10  479.05   24.77
   4   2  10  412.75   24.12
   4   2  11   72.67   11.94
  -4  -2 -11   62.83   10.51
  -4  -2 -11   60.17   11.22
   4   2  11   70.86   11.47
   4   2  12   12.93    8.20
  -4  -2 -12   16.15    7.34
  -4  -2 -12    7.54    8.06
   4   2  12    8.69    7.51
   4   2  13    7.82    6.84
  -4  -3  12  170.32   16.84
  -4  -3  11  534.44   30.29
  -4  -3  11  543.62   27.45
  -4  -3  11  594.13   30.57
   4   3 -11  568.66   30.84
  -4  -3  10   -7.06    7.96
  -4  -3  10    5.72    7.16
  -4  -3  10   11.17    7.73
   4   3 -10   13.80    7.39
  -4  -3   9   50.47   11.73
  -4  -3   9   34.18    8.22
  -4  -3   9   13.83    6.93
   4   3  -9   35.22    8.95
  -4  -3   8   50.16   10.42
  -4  -3   8   40.25    8.30
  -4  -3   8   21.46    7.49
   4   3  -8   34.49    8.99
  -4  -3   7  596.16   26.22
  -4  -3   7  598.17   12.96
  -4  -3   7  606.89   13.41
  -4  -3   7  597.21   25.58
   4   3  -7  611.68   26.07
  -4  -3   7  611.70   23.14
  -4  -3   6  698.32   27.13
  -4  -3   6  677.76   14.72
  -4  -3   6  716.13   15.49
   4   3  -6  682.44   23.09
  -4  -3   6  702.11   26.47
  -4  -3   6  684.81   23.59
   4   3  -6  707.48   27.02
   4   3  -5    7.88    7.04
  -4  -3   5    3.84    4.45
  -4  -3   5   17.67    8.54
   4   3  -5    5.95    4.32
  -4  -3   5    6.84    3.12
  -4  -3   5    4.34    5.29
  -4  -3   5    6.98    5.58
   4   3  -4   16.84    6.83
   4   3  -4   16.43    1.61
  -4  -3   4   16.11    4.64
  -4  -3   4   11.77    7.13
   4   3  -4    8.79    3.99
  -4  -3   4   21.00    3.99
  -4  -3   4   25.79    5.96
  -4  -3   4   25.99    6.74
   4   3  -3    1.72    5.62
  -4  -3   3   -0.88    3.57
   4   3  -3    0.76    3.61
  -4  -3   3    1.47    3.44
   4   3  -3   -2.84    3.66
  -4  -3   3   -7.05    4.77
  -4  -3   3    1.20    4.64
   4   3  -3   -0.34    1.82
   4   3  -2 2007.83   41.12
  -4  -3   2 2001.91   34.48
   4   3  -2 2025.85   29.17
  -4  -3   2 1974.64   36.18
   4   3  -2 1938.41   36.23
  -4  -3   2 2030.13   25.98
  -4  -3   2 1996.00   37.42
   4   3  -2 1991.02   31.10
   4   3  -2 1992.04   41.96
   4   3  -1  907.33   25.74
   4   3  -1  903.90   17.73
  -4  -3   1  917.06   22.28
   4   3  -1  908.78   18.99
  -4  -3   1  944.32   22.61
   4   3  -1  915.70   22.51
  -4  -3   1  916.59   17.54
  -4  -3   1  946.19   21.86
   4   3  -1  895.95   20.13
   4   3  -1  908.42   26.27
   4   3   0  404.80   16.52
   4   3   0  430.03   12.91
  -4  -3   0  417.48   15.01
   4   3   0  405.26   14.62
  -4  -3   0  405.24   14.24
  -4  -3   0  377.30   12.03
  -4  -3   0  423.34   12.54
   4   3   0  413.01   13.96
   4   3   1  103.94    7.18
  -4  -3  -1   94.14    4.20
  -4  -3  -1   95.37    8.46
   4   3   1   96.68    7.62
   4   3   1   89.83    7.77
  -4  -3  -1   89.92    5.09
  -4  -3  -1   97.57    7.10
  -4  -3  -1   98.38    5.40
   4   3   1   82.31    7.26
   4   3   2  330.63   13.53
  -4  -3  -2  343.85    8.40
  -4  -3  -2  336.68   15.14
   4   3   2  366.36   15.65
   4   3   2  337.99   13.95
  -4  -3  -2  348.77   13.62
   4   3   2  353.87   14.53
   4   3   3  234.61   12.32
  -4  -3  -3  242.07    7.94
  -4  -3  -3  210.33   13.08
   4   3   3  230.40   13.15
   4   3   3  235.41   12.21
  -4  -3  -3  219.83   12.06
   4   3   3  232.81   12.89
   4   3   4  508.58   19.35
  -4  -3  -4  509.68   13.74
   4   3   4  485.97   13.85
  -4  -3  -4  503.21   20.22
   4   3   4  532.59   20.98
   4   3   4  526.62   19.24
  -4  -3  -4  505.61   19.17
   4   3   4  483.41   19.15
  -4  -3  -5  448.58   14.36
   4   3   5  442.27   14.69
  -4  -3  -5  441.02   19.42
  -4  -3  -5  452.17   18.98
   4   3   5  421.56   18.74
  -4  -3  -6    8.74    5.95
  -4  -3  -6    1.32    4.01
   4   3   6   -0.43    4.04
  -4  -3  -6    4.36    6.48
   4   3   6    3.95    5.36
  -4  -3  -7    1.56    6.18
   4   3   7    5.53    4.94
  -4  -3  -7   13.61    7.09
   4   3   7   10.46    6.94
  -4  -3  -8  142.37   12.83
  -4  -3  -8  170.83   14.61
   4   3   8  139.32    5.93
   4   3   8  151.32   13.32
  -4  -3  -9  479.05   23.94
  -4  -3  -9  450.11   23.17
   4   3   9  480.89   13.06
   4   3   9  427.11   22.45
  -4  -3 -10   84.41   11.87
  -4  -3 -10   85.01   11.67
   4   3  10   81.65   12.13
  -4  -3 -11    6.07    7.29
  -4  -3 -11    3.73    7.10
   4   3  11   -2.53    6.81
  -4  -3 -12   95.50   12.87
  -4  -3 -12  117.80   14.13
   4   3  12  120.68   14.65
  -4  -3 -13  271.64   21.33
   4   3  13  238.58   20.02
  -4  -4  10   55.65   11.89
  -4  -4  10   38.43    8.15
  -4  -4  10   61.32   11.54
   4   4 -10   41.58   10.04
  -4  -4   9  152.33   16.27
  -4  -4   9  185.50   14.76
  -4  -4   9  145.78   15.86
   4   4  -9  140.04   15.21
  -4  -4   8  709.96   31.45
  -4  -4   8  716.47   26.17
  -4  -4   8  747.77   31.75
   4   4  -8  785.27   32.05
  -4  -4   7  819.42   26.16
  -4  -4   7  786.77   31.81
  -4  -4   7  770.29   30.74
   4   4  -7  775.89   30.57
  -4  -4   6  196.45   12.05
  -4  -4   6  182.39   15.26
  -4  -4   6  180.83    9.43
  -4  -4   6  184.44   14.89
   4   4  -6  195.05   15.21
   4   4  -5   16.09    6.46
  -4  -4   5   19.36    5.18
  -4  -4   5   12.68    6.62
   4   4  -5   10.44    4.06
  -4  -4   5   10.56    5.25
  -4  -4   5   16.26    6.69
   4   4  -4   29.11    4.84
   4   4  -4   19.60    6.54
  -4  -4   4   31.62    5.51
  -4  -4   4   36.61    9.50
   4   4  -4   28.32    2.83
  -4  -4   4   32.76    6.14
  -4  -4   4   19.53    6.29
  -4  -4   3  264.29   11.53
  -4  -4   3  278.99   12.62
   4   4  -3  265.98   11.15
  -4  -4   3  281.41   11.97
   4   4  -3  262.77    8.80
  -4  -4   3  276.47   14.95
   4   4  -3  269.29   15.51
  -4  -4   3  268.51    6.87
  -4  -4   2  107.92    7.18
   4   4  -2  108.00   10.59
  -4  -4   2  106.49    6.40
   4   4  -2  104.71    6.27
   4   4  -2   92.47    6.66
  -4  -4   2   99.39    8.04
  -4  -4   2  112.45    9.36
   4   4  -2  102.15    5.41
  -4  -4   2  104.67    5.30
   4   4  -1   50.77    7.84
  -4  -4   1   36.52    3.50
  -4  -4   1   38.83    4.22
  -4  -4   1   34.68    6.34
   4   4  -1   36.27    4.50
  -4  -4   1   41.67    4.96
  -4  -4   1   46.61    6.58
   4   4  -1   37.42    4.70
   4   4  -1   37.77    4.50
   4   4   0   11.95    6.46
   4   4   0    1.16    4.33
   4   4   0    7.23    3.31
  -4  -4   0    1.45    2.95
  -4  -4   0   14.41    5.62
   4   4   0    4.21    3.08
  -4  -4   0    4.99    3.59
  -4  -4   0    3.77    3.78
   4   4   0    1.16    3.48
   4   4   0    1.54    3.36
   4   4   1  123.25    8.43
   4   4   1  124.91    8.69
  -4  -4  -1  133.90    9.94
   4   4   1  122.39    7.66
  -4  -4  -1  119.11    7.24
  -4  -4  -1  130.89    7.63
   4   4   1  116.96    8.02
  -4  -4  -1  115.50    7.78
   4   4   2  237.94   11.77
  -4  -4  -2  233.87   13.59
   4   4   2  230.69   10.67
   4   4   2  237.71   12.15
  -4  -4  -2  234.72   11.90
  -4  -4  -3   39.51    6.47
  -4  -4  -3   42.00    7.97
   4   4   3   36.87    6.02
   4   4   3   33.84    5.50
   4   4   3   34.57    3.40
  -4  -4  -3   44.97    5.97
   4   4   3   28.95    6.28
   4   4   4  932.79   27.19
  -4  -4  -4  919.06   28.28
   4   4   4  909.86   24.63
   4   4   4  929.05   16.10
  -4  -4  -4  872.77   25.92
  -4  -4  -4  899.48   26.22
   4   4   4  918.28   26.64
   4   4   5  463.25   12.70
  -4  -4  -5  488.14   21.24
   4   4   5  469.36   10.06
  -4  -4  -5  506.59   20.52
   4   4   5  488.90   20.36
   4   4   6  314.93   12.04
  -4  -4  -6  330.31   18.09
   4   4   6  332.55    8.63
   4   4   6  349.35    8.69
  -4  -4  -6  363.66   18.70
   4   4   6  350.39   18.24
   4   4   7  421.41   15.76
  -4  -4  -7  475.13   22.77
  -4  -4  -7  452.50   21.34
   4   4   7  486.13   21.91
   4   4   8  694.25   22.37
  -4  -4  -8  748.98   29.07
  -4  -4  -8  753.67   28.89
   4   4   8  780.60   29.12
  -4  -4  -9  123.53   13.16
  -4  -4  -9  112.62   12.85
   4   4   9   93.74   11.47
  -4  -4 -10    6.56    6.59
  -4  -4 -10   10.99    6.33
   4   4  10    8.59    6.15
  -4  -4 -11    9.06    6.76
  -4  -4 -11    3.65    7.94
   4   4  11   21.19    7.86
  -4  -4 -12  287.83   20.82
   4   4  12  277.02   21.26
  -4  -4 -12  312.45   22.46
   4   4  12  308.36   22.08
  -4  -4 -13  127.94   14.55
   4   4  13  161.08   17.25
  -4  -5   9  173.88   17.71
  -4  -5   9  154.19   16.34
   4   5  -9  152.04   16.34
  -4  -5   8  327.31   22.53
  -4  -5   8  357.88   23.05
   4   5  -8  337.94   21.80
  -4  -5   7   42.88   10.07
  -4  -5   7   51.36    7.34
  -4  -5   7   58.47   10.27
   4   5  -7   47.23   10.05
  -4  -5   6  123.43   13.86
  -4  -5   6  105.94    8.84
  -4  -5   6  134.04   13.56
   4   5  -6  127.68   12.79
   4   5  -5   51.17    8.39
  -4  -5   5   35.42    3.64
  -4  -5   5   35.85    8.46
   4   5  -5   31.47    3.89
  -4  -5   5   28.89    5.02
  -4  -5   5   40.55    5.89
  -4  -5   5   47.48    8.50
  -4  -5   5   37.47    4.84
  -4  -5   4  533.76   19.12
  -4  -5   4  563.56   14.01
  -4  -5   4  554.00   16.33
  -4  -5   4  558.37   13.50
  -4  -5   4  536.19   23.57
   4   5  -4  531.46   15.37
  -4  -5   4  576.19   16.67
   4   5  -4  575.59   23.75
  -4  -5   3  446.27   15.66
  -4  -5   3  496.87   13.74
   4   5  -3  456.56   13.01
  -4  -5   3  471.53   13.63
   4   5  -3  458.18   14.63
  -4  -5   3  438.91   20.34
   4   5  -3  454.98   20.58
   4   5  -2    5.76    2.36
   4   5  -2    1.94    5.68
   4   5  -2    6.16    3.40
  -4  -5   2    8.45    3.31
  -4  -5   2    7.19    3.51
   4   5  -2    8.03    2.49
  -4  -5   2   13.64    3.43
  -4  -5   2    4.41    6.01
   4   5  -1   11.28    3.56
   4   5  -1    9.08    3.57
   4   5  -1   12.56    5.82
  -4  -5   1   16.34    3.98
  -4  -5   1   11.10    2.76
   4   5  -1   15.61    2.64
  -4  -5   1   15.08    5.29
  -4  -5   1   11.58    5.95
  -4  -5   0  292.30   12.38
  -4  -5   0  266.38   14.97
   4   5   0  268.37   12.63
   4   5   0  276.31    9.02
  -4  -5   0  275.48   13.83
   4   5   0  250.73   12.98
  -4  -5   0  288.56   14.14
  -4  -5   0  262.46   11.09
   4   5   0  271.68   11.57
   4   5   0  249.80   14.48
  -4  -5  -1  359.84   14.59
  -4  -5  -1  364.55   17.30
   4   5   1  353.10   15.38
   4   5   1  371.85   11.26
  -4  -5  -1  327.25   14.29
   4   5   1  351.81   14.19
  -4  -5  -1  375.63   15.30
  -4  -5  -1  380.45   14.39
   4   5   1  355.80   14.18
   4   5   1  342.49   16.39
  -4  -5  -2  157.18   10.12
   4   5   2  137.23   10.17
   4   5   2  156.17   10.57
   4   5   2  147.68    7.77
  -4  -5  -2  149.94   11.88
   4   5   2  142.24    8.70
  -4  -5  -2  167.33   10.66
   4   5   2  151.66   10.28
   4   5   3   70.03    8.11
  -4  -5  -3   65.54    8.73
   4   5   3   66.63    6.16
  -4  -5  -3   65.58    7.85
   4   5   3   64.19    5.92
   4   5   3   83.49    9.07
  -4  -5  -3   64.66    7.03
   4   5   3   69.71    7.99
  -4  -5  -4  161.09   13.10
   4   5   4  159.00    9.52
   4   5   4  152.94    8.23
   4   5   4  147.76   11.50
  -4  -5  -4  157.15   11.68
   4   5   5  237.01    7.04
  -4  -5  -5  263.71   16.40
   4   5   5  246.03   10.12
   4   5   5  231.92    9.70
   4   5   5  262.88   15.16
  -4  -5  -5  255.91   15.33
   4   5   6 1307.69   23.89
  -4  -5  -6 1343.88   38.26
   4   5   6 1337.16   25.46
   4   5   6 1343.29   25.40
   4   5   6 1355.56   36.91
  -4  -5  -6 1303.92   36.47
   4   5   7  190.37    9.51
  -4  -5  -7  169.29   14.53
   4   5   7  165.16    8.79
   4   5   7  176.00    8.81
  -4  -5  -7  184.15   14.58
   4   5   7  168.26   13.59
   4   5   8  288.99   13.11
  -4  -5  -8  325.82   19.30
  -4  -5  -8  312.81   18.87
   4   5   8  347.51   19.93
  -4  -5  -9   45.93    8.58
  -4  -5  -9   49.11    9.51
   4   5   9   62.24   10.66
  -4  -5 -10   11.03    8.03
  -4  -5 -10    1.50    7.32
   4   5  10   -4.37    6.79
   4   5  10    3.30    7.35
  -4  -5 -11  618.86   29.75
   4   5  11  561.01   27.75
  -4  -5 -11  615.34   29.96
   4   5  11  570.13   28.95
  -4  -5 -12  326.93   22.37
   4   5  12  313.27   22.13
  -4  -5 -12  322.42   23.04
   4   5  12  317.73   22.45
   4   5  13    9.47    8.98
  -4  -5 -13    8.59    8.22
   4   5  13   13.33    8.02
   4   6  -9    3.27    7.30
  -4  -6   8    3.56    7.92
  -4  -6   8    4.15    7.89
   4   6  -8   12.91    8.09
  -4  -6   7    0.06    8.04
  -4  -6   7   -8.26    8.36
   4   6  -7   -4.52    7.51
  -4  -6   6  120.61   14.71
  -4  -6   6   93.90   12.22
   4   6  -6  113.32   12.80
  -4  -6   5  663.94   21.07
  -4  -6   5  675.95   29.65
   4   6  -5  673.30   27.40
  -4  -6   4  480.25   16.07
  -4  -6   4  465.73   17.47
  -4  -6   4  421.82   22.76
   4   6  -4  445.63   16.63
   4   6  -4  474.85   22.30
   4   6  -3   10.89    6.07
   4   6  -3   16.52    4.60
  -4  -6   3   20.13    4.99
  -4  -6   3   14.78    4.57
  -4  -6   3   10.62    1.62
  -4  -6   3   18.13    7.42
  -4  -6   3   11.32    4.45
  -4  -6   2  415.90   14.79
  -4  -6   2  444.36   16.21
  -4  -6   2  431.54   17.24
   4   6  -2  412.42   16.43
  -4  -6   2  420.35   20.74
  -4  -6   2  423.02   11.84
   4   6  -2  427.43   19.72
   4   6  -2  433.25   12.03
  -4  -6   1  620.60   19.95
   4   6  -1  584.42   20.40
  -4  -6   1  632.90   24.49
  -4  -6   1  617.92   16.77
   4   6  -1  584.65   22.36
   4   6  -1  635.59   17.46
  -4  -6   0 2213.36   42.03
   4   6   0 2162.68   43.55
  -4  -6   0 2176.49   46.08
  -4  -6   0 1993.03   37.61
   4   6   0 2150.13   45.06
   4   6   0 2148.47   38.79
  -4  -6  -1  172.11   11.23
  -4  -6  -1  178.74   13.94
   4   6   1  168.64   11.91
  -4  -6  -1  160.80   11.65
   4   6   1  152.69   11.17
  -4  -6  -1  160.79   12.30
  -4  -6  -1  136.68    9.28
   4   6   1  151.34   10.25
   4   6   1  173.58   12.36
  -4  -6  -2  170.59   11.86
  -4  -6  -2  175.45   14.00
   4   6   2  174.39    6.66
   4   6   2  160.23   10.67
  -4  -6  -2  180.21   11.26
   4   6   2  183.03   11.70
   4   6   2  189.53   12.77
   4   6   3    8.96    5.88
  -4  -6  -3    6.75    5.42
  -4  -6  -3   15.56    7.69
   4   6   3   17.41    3.43
   4   6   3   15.11    4.94
  -4  -6  -4  370.79   18.25
  -4  -6  -4  385.74   20.75
   4   6   4  345.54   13.22
   4   6   4  370.43   14.98
   4   6   4  410.36   18.83
  -4  -6  -5  710.75   27.77
   4   6   5  712.93   20.96
   4   6   5  658.81   20.20
   4   6   5  708.34   25.92
  -4  -6  -5  699.12   25.82
   4   6   6   45.50    8.50
   4   6   6   44.99    3.77
  -4  -6  -6   26.25    7.35
  -4  -6  -6   47.83    8.73
   4   6   6   42.15    6.05
   4   6   6   39.18    5.77
   4   6   7  166.99    8.23
  -4  -6  -7  191.99   15.73
   4   6   7  194.73   12.49
   4   6   7  189.59   10.90
   4   6   7  156.77   10.00
   4   6   7  190.31   14.94
  -4  -6  -7  167.08   14.52
  -4  -6  -8  345.55   21.38
   4   6   8  360.37   18.20
   4   6   8  377.65   15.51
   4   6   8  405.11   21.89
  -4  -6  -8  373.32   21.08
  -4  -6  -9  363.06   21.97
   4   6   9  371.56   19.60
  -4  -6  -9  357.17   21.63
   4   6   9  374.91   22.09
  -4  -6 -10  504.52   26.95
   4   6  10  486.45   23.93
  -4  -6 -10  561.97   28.08
   4   6  10  544.05   27.68
  -4  -6 -11  640.98   30.78
   4   6  11  607.26   28.41
  -4  -6 -11  595.94   30.11
   4   6  11  593.40   30.41
   4   6  12    9.71    7.11
  -4  -6 -12    6.26    6.55
  -4  -6 -12   -5.67    8.04
   4   6  12   -0.55    7.96
  -4  -6 -13   -2.11    7.31
   4   6  13   20.32    8.96
   4   7  -8   11.12    8.14
   4   7  -7  262.18   19.52
  -4  -7   6  203.08   18.90
   4   7  -6  197.89   16.91
  -4  -7   5   12.04    8.36
   4   7  -5  -19.31    8.01
  -4  -7   4   39.47    9.68
  -4  -7   4   32.47    7.18
   4   7  -4   21.48    7.14
   4   7  -3  139.39   12.28
  -4  -7   3  130.10   10.30
  -4  -7   3  143.73   11.61
  -4  -7   3  172.60   15.71
  -4  -7   2  393.02   17.45
  -4  -7   2  325.01   17.08
  -4  -7   2  343.10   21.07
   4   7  -2  347.74   18.18
  -4  -7   1 1861.05   41.26
  -4  -7   1 1892.39   43.45
  -4  -7   1 1866.81   47.47
   4   7  -1 1855.22   42.83
   4   7  -1 1864.74   34.89
   4   7   0    4.25    3.72
   4   7   0   -1.98    4.58
  -4  -7   0    3.44    5.85
  -4  -7   0    2.58    4.93
  -4  -7   0    8.18    4.23
   4   7   1   40.01    6.38
   4   7   1   24.24    6.16
   4   7   1   32.95    3.39
  -4  -7  -1   30.73    6.48
  -4  -7  -1   32.34    5.54
   4   7   2   20.12    5.81
   4   7   2   10.74    5.62
   4   7   2    9.68    1.68
  -4  -7  -2   21.08    6.67
  -4  -7  -3 1277.39   35.41
  -4  -7  -3 1217.30   38.17
   4   7   3 1151.50   16.82
   4   7   3 1263.59   34.17
   4   7   3 1251.72   33.18
   4   7   4  167.54    7.54
  -4  -7  -4  151.55   13.07
  -4  -7  -4  174.06   15.60
   4   7   4  177.76    7.79
   4   7   4  175.83   13.26
  -4  -7  -5   24.86    8.20
   4   7   5    7.76    6.57
   4   7   5   11.67    1.63
   4   7   5   15.44    3.84
  -4  -7  -5    8.77    6.90
   4   7   5   16.29    3.69
   4   7   5   18.28    5.90
   4   7   6   16.53    7.12
   4   7   6    6.85    3.51
  -4  -7  -6   18.93    8.19
   4   7   6    9.87    5.19
  -4  -7  -6   10.50    6.19
   4   7   7    0.66    7.17
   4   7   7   17.15    4.76
  -4  -7  -7   23.30    7.47
   4   7   7   14.81    5.92
  -4  -7  -7   19.96    7.08
  -4  -7  -8  404.89   23.83
   4   7   8  364.84   18.07
   4   7   8  388.35   17.89
   4   7   8  399.98   22.63
  -4  -7  -8  393.37   23.23
   4   7   9  159.77   15.72
   4   7   9  183.52   13.91
  -4  -7  -9  192.52   17.45
   4   7   9  170.48   12.58
  -4  -7  -9  197.65   16.94
   4   7  10  182.37   14.83
  -4  -7 -10  156.45   15.84
  -4  -7 -10  183.67   17.14
   4   7  10  202.14   17.98
   4   7  11   14.62    7.55
  -4  -7 -11   10.03    7.79
  -4  -7 -11   22.56    7.95
   4   7  11   18.47    7.57
   4   7  12   95.87   14.31
  -4  -7 -12   78.01   12.41
   4   7  12   75.85   11.92
   4   7  13   35.64    9.44
   4   8  -5   16.34    6.83
  -4  -8   4   27.31    9.92
   4   8  -4   22.19    7.28
  -4  -8   3  227.49   16.13
  -4  -8   3  203.73   18.80
   4   8  -3  212.53   15.33
   4   8  -2   92.22   10.27
  -4  -8   2   83.05   13.61
  -4  -8   2   73.29    9.63
  -4  -8   2   84.14   10.90
   4   8  -1   -0.20    5.01
  -4  -8   1    5.75    5.14
  -4  -8   1   16.06    8.50
  -4  -8   1    6.47    5.81
   4   8   0   12.43    5.77
   4   8   0    5.28    3.83
  -4  -8   0    4.98    5.71
  -4  -8   0    8.16    6.60
   4   8   1  127.04   10.54
   4   8   1  120.54   10.42
  -4  -8  -1  118.16   12.04
  -4  -8  -2  814.72   30.00
   4   8   2  829.29   26.37
   4   8   2  829.26   27.78
  -4  -8  -3  253.42   17.21
   4   8   3  308.64   16.19
   4   8   3  307.78   17.51
  -4  -8  -4  198.48   15.66
  -4  -8  -4  203.95   17.16
   4   8   4  210.02   15.17
   4   8   4  176.44   13.00
   4   8   5    4.68    5.67
  -4  -8  -5    7.83    6.57
  -4  -8  -5   12.71    8.42
   4   8   5    3.84    5.55
  -4  -8  -6  683.97   29.74
  -4  -8  -6  730.60   32.24
   4   8   6  698.44   19.37
   4   8   6  702.41   26.35
   4   8   6  687.43   29.24
   4   8   7  154.77   10.19
  -4  -8  -7  170.91   16.80
   4   8   7  176.15   13.49
   4   8   7  176.00   15.64
  -4  -8  -7  165.60   16.40
   4   8   8   44.50    9.94
  -4  -8  -8   76.68   12.28
   4   8   8   43.90    6.78
   4   8   8   50.58    8.35
  -4  -8  -8   71.81   11.11
   4   8   9   -1.25    6.51
  -4  -8  -9    7.86    7.44
   4   8   9   -4.95    5.13
   4   8   9   -6.89    6.20
  -4  -8  -9    2.44    6.36
   4   8  10   67.46   12.74
  -4  -8 -10   69.56   12.21
   4   8  10   50.89    8.73
  -4  -8 -10   67.06   12.56
   4   8  11   10.76    8.66
  -4  -8 -11   25.18    9.70
  -4  -8 -11   40.64   11.21
   4   8  11   21.80    7.39
   4   8  12    7.49    6.45
   4   8  13   87.66   13.01
  -4  -9   2   22.22    7.44
  -4  -9   1   10.43    7.08
  -4  -9   1   -6.09    7.83
  -4  -9   0   38.23    9.23
  -4  -9   0   27.50    8.41
  -4  -9  -1  215.96   16.71
   4   9   1  230.47   14.84
  -4  -9  -2  158.97   15.07
   4   9   2  156.65   13.03
   4   9   3   34.67    8.36
  -4  -9  -3   42.98   10.24
   4   9   4   14.65    7.67
  -4  -9  -4   19.64    7.34
  -4  -9  -4   31.54    9.70
  -4  -9  -5  390.59   23.51
  -4  -9  -5  378.29   24.76
   4   9   5  404.89   18.84
   4   9   5  401.20   23.03
  -4  -9  -6  386.70   23.76
  -4  -9  -6  368.63   24.66
   4   9   6  376.46   21.17
   4   9   6  402.09   23.78
   4   9   7   46.54   10.24
  -4  -9  -7   28.72    8.90
  -4  -9  -7   32.12   10.26
   4   9   7   45.69    9.40
   4   9   8   -5.80    8.57
   4   9   8    1.05    6.49
  -4  -9  -8   -5.32    7.45
   4   9   9   26.64    9.07
  -4  -9  -9   13.98    7.89
   4   9   9   18.09    7.21
  -4  -9  -9   10.75    8.18
  -4 -10   1   25.86    8.97
  -4 -10   0  162.51   16.27
  -4 -10   0  170.18   17.46
  -4 -10  -1   -6.53    8.21
  -4 -10  -2   -6.98    8.16
   4  10   3   60.08    9.67
  -4 -10  -3   65.86   12.10
   4  10   4  144.68   14.62
  -4 -10  -4  110.95   13.97
  -4 -10  -5  424.83   26.49
   4  10   5  422.14   24.69
   4  10   6   21.72    9.90
  -4 -10  -6    5.24    7.71
   4  10   7   29.97    9.49
  -4 -10  -7   18.31    8.12
   4  10   7    0.70    7.12
   4  10   8   36.22    9.77
   4  10   9  390.76   24.09
   4  11   5    2.52    8.21
   5  -5  -9  111.31   14.35
   5  -5  -8  354.86   23.13
   5  -5  -8  314.20   23.61
  -5   5   7  131.97   16.19
   5  -5  -7   93.88   12.87
  -5   5   6   27.90   10.66
   5  -5  -6   31.75   10.09
  -5   5   5  101.10   13.65
   5  -5  -5  122.12   15.55
   5  -5  -4   71.59   12.67
  -5   5   4   77.43   13.21
  -5   5   4  115.20   15.64
   5  -5  -3   51.86   11.17
  -5   5   3   59.84   11.08
  -5   5   3   72.05   13.21
   5  -5  -2   19.34    8.95
  -5   5   2   13.53    8.49
  -5   5   1  121.39   14.60
  -5   5   0  186.85   17.42
   5  -4  -9  830.25   33.32
  -5   4   9  838.34   38.21
  -5   4   8   46.42   11.55
   5  -4  -8   36.92    8.78
   5  -4  -8   53.89    9.67
  -5   4   7   -1.69    8.64
   5  -4  -7   10.64    7.34
  -5   4   6   87.29   14.35
   5  -4  -6   94.83   11.48
   5  -4  -5  365.69   22.19
  -5   4   5  393.43   24.13
   5  -4  -4  226.56   18.08
  -5   4   4  261.69   20.30
   5  -4  -3  326.60   21.51
  -5   4   3  309.81   21.33
   5  -4  -2   -5.13    8.33
  -5   4   2   11.81    9.26
  -5   4   2    7.27    7.39
  -5   4   2   19.17    8.83
   5  -4  -1   65.14   11.66
  -5   4   1   92.75   13.97
  -5   4   1  109.43   12.87
   5  -4   0   24.32    8.95
  -5   4   0   20.22   10.28
  -5   4   0   19.72    7.70
   5  -4   1   61.59   11.91
  -5   4  -1   40.64   11.31
  -5   4  -1   39.40    9.15
   5  -4   2  293.79   22.93
   5  -3 -12   42.99    9.77
   5  -3 -11  260.46   19.01
  -5   3  10  477.77   29.00
   5  -3 -10  493.45   24.07
   5  -3  -9    0.26    5.34
  -5   3   9    1.09    8.95
   5  -3  -9   -1.65    4.90
   5  -3  -8  169.85   12.95
   5  -3  -8  170.90   14.03
  -5   3   8  190.36   18.32
   5  -3  -8  168.35   12.88
  -5   3   7   25.01    8.49
   5  -3  -7   25.55    6.68
   5  -3  -7   13.73    5.00
   5  -3  -6  373.85   19.49
  -5   3   6  374.16   23.47
   5  -3  -6  366.24   17.06
   5  -3  -5  441.09   21.59
  -5   3   5  445.30   24.63
   5  -3  -5  412.02   17.53
   5  -3  -4  299.14   17.98
  -5   3   4  288.59   20.19
   5  -3  -4  309.70   14.70
   5  -3  -3   21.15    5.07
   5  -3  -3   12.56    6.03
  -5   3   3   13.86    7.89
  -5   3   2  275.52   19.90
  -5   3   2  294.63   19.62
   5  -3  -2  276.85   18.49
   5  -3  -2  262.89   13.17
   5  -3  -1  159.27   14.71
  -5   3   1  154.18   16.09
  -5   3   1  193.10   16.58
  -5   3   1  162.76   14.14
   5  -3  -1  166.14   10.62
  -5   3   0  642.22   30.41
   5  -3   0  716.79   30.56
  -5   3   0  679.46   26.93
   5  -3   0  703.68   22.42
  -5   3  -1  273.76   20.79
   5  -3   1  308.17   20.87
  -5   3  -1  296.78   17.35
   5  -3   2   19.30    8.76
  -5   3  -2    8.45    7.99
   5  -3   3   53.87   11.25
  -5   3  -3   57.26   11.53
   5  -3   4   62.86   11.57
  -5   3  -4   41.91   11.12
   5  -2 -12  484.48   27.55
  -5   2  11  282.73   23.42
   5  -2 -11  257.59   19.56
  -5   2  10   54.54   13.24
   5  -2 -10   39.32    8.44
  -5   2   9  261.32   21.44
   5  -2  -9  251.06   17.29
  -5   2   8    5.65    9.50
   5  -2  -8    5.64    4.50
   5  -2  -8    2.52    3.72
   5  -2  -8   -1.52    5.17
   5  -2  -7  331.22   15.76
   5  -2  -7  339.35   17.54
  -5   2   7  409.99   24.07
   5  -2  -7  320.42   17.59
   5  -2  -6  279.42   14.96
  -5   2   6  288.83   20.39
   5  -2  -6  249.29   14.96
   5  -2  -5    6.65    4.96
   5  -2  -5    4.41    4.93
   5  -2  -5   14.58    4.43
  -5   2   5   22.20    8.41
   5  -2  -4   22.78    5.85
   5  -2  -4   27.42    6.46
   5  -2  -4   16.15    5.04
  -5   2   4   24.04    8.97
  -5   2   3  503.03   24.64
   5  -2  -3  548.34   22.51
   5  -2  -3  542.62   19.93
  -5   2   2  559.92   25.68
   5  -2  -2  528.52   22.70
   5  -2  -2  531.17   19.81
  -5   2   1  508.45   24.94
  -5   2   1  497.24   24.14
   5  -2  -1  510.19   22.89
   5  -2  -1  520.63   19.75
  -5   2   0  190.14   15.94
  -5   2   0  178.49   13.89
   5  -2   0  170.44   14.23
  -5   2   0  189.58   15.50
  -5   2   0  187.84   13.26
  -5   2  -1  187.74   16.06
  -5   2  -1  181.71   14.74
  -5   2  -1  198.17   13.11
   5  -2   1  192.73   15.35
  -5   2  -2  236.84   17.96
  -5   2  -2  231.54   17.21
  -5   2  -2  240.82   13.86
   5  -2   2  249.78   17.68
   5  -2   3  154.25   14.70
  -5   2  -3  142.12   14.19
  -5   2  -3  153.51   14.76
  -5   2  -4  251.72   19.32
  -5   2  -4  264.31   19.55
   5  -2   4  261.61   19.85
   5  -2   5   11.98    8.21
  -5   2  -5   15.68    8.78
  -5   2  -5   -1.25    7.31
  -5   2  -6   15.05    8.38
   5  -2   6   30.63   10.15
  -5   2  -6   21.32    9.01
   5  -2   7   -4.57    7.64
  -5   1  13  101.50   13.89
  -5   1  12  170.21   15.78
   5  -1 -12  148.60   16.14
  -5   1  11  122.64   13.14
  -5   1  11  133.84   16.84
   5  -1 -11  114.58   13.87
  -5   1  10   44.22    8.51
  -5   1  10   31.01    9.78
   5  -1 -10   50.93    9.54
  -5   1   9  158.45   12.74
  -5   1   9  122.48   14.89
   5  -1  -9  127.04   13.29
  -5   1   8  808.68   26.41
   5  -1  -8  804.88   22.92
  -5   1   8  801.96   33.69
   5  -1  -8  846.62   30.58
  -5   1   7  181.00   11.87
   5  -1  -7  201.04   11.42
   5  -1  -7  190.57    9.85
  -5   1   7  163.71   15.25
   5  -1  -7  199.19   14.62
   5  -1  -6   55.36    8.31
  -5   1   6   48.22    5.67
   5  -1  -6   46.33    4.29
  -5   1   6   46.78    9.87
   5  -1  -6   51.51    5.99
   5  -1  -5   57.57    6.61
   5  -1  -5   55.50    8.13
  -5   1   5   38.20    5.33
   5  -1  -5   48.55    6.35
   5  -1  -5   52.95    5.61
  -5   1   5   61.52   10.33
   5  -1  -4  529.40   17.52
   5  -1  -4  520.89   19.26
  -5   1   4  536.56   24.56
   5  -1  -4  561.39   19.43
  -5   1   4  500.40   18.16
   5  -1  -4  554.25   21.30
   5  -1  -3  236.95   12.71
   5  -1  -3  208.90   12.44
  -5   1   3  262.12   17.54
   5  -1  -3  262.22   13.80
  -5   1   3  217.97   12.63
   5  -1  -3  239.56   14.30
   5  -1  -2   18.59    5.79
   5  -1  -2   25.73    6.21
  -5   1   2   21.75    5.23
   5  -1  -2   38.01    6.45
  -5   1   2   36.50    8.33
   5  -1  -1   32.93    7.70
   5  -1  -1   23.04    6.24
   5  -1  -1   18.54    2.73
  -5   1   1   16.04    5.40
  -5   1   1   14.12    6.50
   5  -1   0   82.01    5.23
   5  -1   0   67.29    9.13
  -5   1   0   76.21   10.50
  -5   1   0   58.91    8.23
  -5   1   0   59.87    9.78
  -5   1  -1  539.26   24.05
  -5   1  -1  546.06   23.41
  -5   1  -1  556.95   19.03
   5  -1   1  583.97   23.92
  -5   1  -1  523.26   18.46
  -5   1  -2  168.02   14.01
  -5   1  -2  165.88   13.60
   5  -1   2  175.41   14.05
  -5   1  -2  153.37    9.72
  -5   1  -2  174.99   10.43
  -5   1  -3  509.90   23.98
  -5   1  -3  518.96   24.30
   5  -1   3  546.65   25.17
  -5   1  -3  509.30   17.11
  -5   1  -4   11.73    7.10
   5  -1   4   10.07    7.49
  -5   1  -4    9.01    6.87
  -5   1  -5  151.29   14.98
   5  -1   5  132.67   14.12
  -5   1  -5  134.48   14.72
  -5   1  -6  129.50   14.26
   5  -1   6  155.23   15.96
  -5   1  -6  139.64   15.00
  -5   1  -7  306.15   21.50
  -5   1  -7  344.30   23.04
   5  -1   7  321.02   22.79
   5  -1   7  289.03   20.82
  -5   1  -8  198.15   18.44
   5  -1   8  205.70   18.81
  -5   0  12   87.97   13.37
  -5   0  12  100.45   16.04
   5   0 -12   79.96   12.76
  -5   0  11  140.65   14.68
  -5   0  11  161.64   17.28
   5   0 -11  160.96   16.30
  -5   0  10  173.36   15.00
  -5   0  10  191.38   18.10
   5   0 -10  160.61   16.01
  -5   0   9  414.11   21.14
  -5   0   9  471.98   26.08
   5   0  -9  461.00   24.25
  -5   0   8  443.34   20.84
  -5   0   8  442.01   24.29
   5   0  -8  473.98   23.41
  -5   0   7  157.86   12.01
   5   0  -7  173.45    8.05
   5   0  -7  183.94    8.00
  -5   0   7  181.60   16.04
   5   0  -7  179.31   14.06
   5   0  -6    4.99    5.03
  -5   0   6    1.91    4.99
   5   0  -6   10.80    3.62
   5   0  -6    1.86    2.62
  -5   0   6    8.17    8.20
   5   0  -6    3.79    2.17
   5   0  -5 1102.36   20.42
   5   0  -5 1096.73   23.81
   5   0  -5 1137.77   23.13
  -5   0   5 1057.82   34.53
   5   0  -5 1105.38   32.52
   5   0  -4  269.03   11.09
   5   0  -4  272.97   11.77
  -5   0   4  273.81   17.61
   5   0  -4  273.53   11.66
   5   0  -4  277.14   15.77
   5   0  -3    5.42    5.51
   5   0  -3    0.54    3.43
   5   0  -3   -3.28    3.65
  -5   0   3   -2.00    3.46
   5   0  -3    2.11    3.46
  -5   0   3    1.72    7.41
   5   0  -3    1.62    3.57
   5   0  -2  217.21   10.04
  -5   0   2  216.67   11.64
   5   0  -2  224.29   11.95
   5   0  -2  208.02   11.58
  -5   0   2  219.15   15.46
   5   0  -2  214.03   11.60
   5   0  -2  242.60   14.63
   5   0  -1    6.36    6.31
   5   0  -1   -1.56    4.23
   5   0  -1   14.24    5.28
   5   0  -1   11.30    3.64
  -5   0   1   -0.62    4.51
  -5   0   1   13.98    7.27
   5   0  -1    2.22    4.34
   5   0   0  182.98    9.45
  -5   0   0  167.93   12.75
  -5   0   0  191.98   12.37
  -5   0   0  195.99   14.42
   5   0   0  179.59   12.07
  -5   0  -1  492.71   20.94
  -5   0  -1  504.13   20.79
  -5   0  -1  517.13   15.87
   5   0   1  489.01   20.43
  -5   0  -1  481.76   15.29
  -5   0  -2   96.13   10.39
   5   0   2  103.55   10.79
  -5   0  -2  123.19   11.45
  -5   0  -2  110.82    7.07
  -5   0  -2  102.01    6.75
  -5   0  -3   44.11    7.80
   5   0   3   48.59    8.61
  -5   0  -3   36.02    7.29
  -5   0  -3   35.02    3.94
  -5   0  -4  229.36   15.56
  -5   0  -4  202.42   15.60
  -5   0  -4  224.78    8.95
   5   0   4  232.88   16.60
  -5   0  -5  349.76   19.42
  -5   0  -5  360.36   20.85
   5   0   5  375.13   21.27
  -5   0  -6  575.02   25.88
  -5   0  -6  555.54   27.12
   5   0   6  588.17   27.74
   5   0   6  579.72   26.98
  -5   0  -7 1060.32   36.90
  -5   0  -7 1012.37   38.22
   5   0   7 1033.95   38.26
   5   0   7 1079.55   38.21
  -5   0  -8    3.14    7.84
   5   0   8    5.54    5.82
  -5   0  -8   -2.77    6.78
   5   0   8    5.71    6.79
  -5   0  -9   -8.99    8.43
   5   0   9   -8.77    7.63
  -5   0  -9   -1.43    7.85
   5   0   9   -6.80    7.08
  -5  -1  12   20.55   10.37
  -5  -1  12   29.55    9.99
  -5  -1  11   86.85   12.27
  -5  -1  11   93.09   14.20
   5   1 -11   66.12   11.43
  -5  -1  10   27.13    8.37
  -5  -1  10   32.12    9.91
   5   1 -10   31.10    8.20
  -5  -1   9  123.22   12.94
  -5  -1   9  144.22   14.70
   5   1  -9  170.28   15.76
  -5  -1   8  109.98   11.96
  -5  -1   8  122.30   13.61
   5   1  -8  110.04   12.59
   5   1  -7   39.82    8.95
   5   1  -7   39.44    5.21
  -5  -1   7   32.09    6.75
  -5  -1   7   49.40   10.08
  -5  -1   6  601.13   22.94
  -5  -1   6  521.58   24.00
   5   1  -6  550.09   24.29
   5   1  -6  568.85   18.90
   5   1  -5 1561.81   23.85
  -5  -1   5 1554.05   40.96
   5   1  -5 1548.27   23.22
   5   1  -5 1586.49   40.77
   5   1  -5 1489.19   32.82
   5   1  -4  602.27   20.51
  -5  -1   4  640.48   14.61
   5   1  -4  627.53   15.04
  -5  -1   4  604.82   24.36
   5   1  -4  647.36   14.15
   5   1  -4  628.62   14.76
   5   1  -4  607.66   23.81
   5   1  -3   -7.74    6.42
   5   1  -3    5.08    2.87
   5   1  -3   10.28    4.67
  -5  -1   3   -1.26    2.78
   5   1  -3    3.96    3.30
  -5  -1   3    7.91    7.50
   5   1  -3    1.46    2.60
   5   1  -2   -2.07    3.04
   5   1  -2    1.98    5.45
   5   1  -2   -1.74    3.28
   5   1  -2    3.55    4.28
  -5  -1   2    0.66    3.40
   5   1  -2   -2.33    3.92
  -5  -1   2   10.52    7.77
   5   1  -1 1711.54   34.52
  -5  -1   1 1762.65   35.32
   5   1  -1 1811.18   36.53
  -5  -1   1 1791.80   41.21
   5   1  -1 1696.53   34.29
   5   1  -1 1798.90   34.55
   5   1  -1 1789.44   41.07
   5   1   0 1431.12   31.24
  -5  -1   0 1415.68   32.88
   5   1   0 1501.17   34.18
  -5  -1   0 1431.26   36.61
   5   1   0 1459.80   32.46
   5   1   0 1498.66   32.66
   5   1   1    1.92    4.00
  -5  -1  -1   -1.52    5.15
   5   1   1    4.71    4.79
  -5  -1  -1    1.95    4.79
   5   1   1    3.49    4.96
  -5  -1  -2   20.74    6.14
   5   1   2   19.67    5.75
  -5  -1  -2   30.91    6.95
  -5  -1  -2   26.52    6.47
  -5  -1  -2   24.51    2.83
  -5  -1  -2   20.13    2.73
  -5  -1  -3    5.48    5.46
   5   1   3   14.10    6.60
  -5  -1  -3    0.38    5.88
  -5  -1  -3   -3.52    5.80
  -5  -1  -3    0.84    1.01
  -5  -1  -4   54.91    8.03
   5   1   4   46.59    8.26
  -5  -1  -4   26.59    7.58
  -5  -1  -4   41.18    8.37
  -5  -1  -5  450.40   20.03
  -5  -1  -5  453.44   22.60
  -5  -1  -5  444.42   21.68
   5   1   5  459.21   22.38
   5   1   5  471.97   22.61
  -5  -1  -6  243.15   15.54
  -5  -1  -6  269.52   18.17
  -5  -1  -6  278.50   18.48
   5   1   6  279.70   18.33
   5   1   6  277.53   18.35
  -5  -1  -7    3.43    6.13
   5   1   7   10.46    7.13
  -5  -1  -7    4.03    6.71
  -5  -1  -7    5.59    6.14
   5   1   7    8.61    6.83
  -5  -1  -8   70.40   10.71
   5   1   8   65.10   10.79
  -5  -1  -8   68.53   11.19
  -5  -1  -8   77.70   11.96
   5   1   8   72.02   11.67
  -5  -1  -9  168.74   15.91
   5   1   9  156.59   16.07
  -5  -1  -9  144.64   15.33
  -5  -1  -9  157.36   16.35
   5   1   9  166.31   16.27
  -5  -1 -10  425.68   25.17
  -5  -1 -10  433.16   26.47
  -5  -1 -10  431.11   26.76
   5   1  10  427.72   26.72
   5   1  10  402.99   25.08
  -5  -1 -11  103.80   14.59
  -5  -2  12  218.03   19.66
  -5  -2  11   60.26   11.56
  -5  -2  11   80.48   13.42
   5   2 -11   63.47   12.34
  -5  -2  10   10.48    7.77
  -5  -2  10   20.36    8.66
   5   2 -10   27.59    9.45
  -5  -2   9  115.23   13.36
  -5  -2   9   96.65   12.55
   5   2  -9  112.53   12.84
  -5  -2   8   59.36   10.75
  -5  -2   8   79.05   11.41
   5   2  -8   73.94   10.56
  -5  -2   7  151.28   13.88
  -5  -2   7  148.61   13.57
   5   2  -7  181.77   15.13
  -5  -2   6  911.23   30.58
  -5  -2   6  958.03   31.16
   5   2  -6  931.92   32.26
   5   2  -6  925.32   20.90
  -5  -2   5  407.20   19.59
  -5  -2   5  408.31    7.57
  -5  -2   5  395.83   19.46
   5   2  -5  442.13   21.45
   5   2  -5  427.17   14.05
   5   2  -4   44.25    9.09
  -5  -2   4   45.08    3.83
  -5  -2   4   46.71    8.46
   5   2  -3  330.52   15.82
  -5  -2   3  335.66   11.61
  -5  -2   3  341.65   17.04
   5   2  -3  368.68    9.42
   5   2  -3  329.85   18.10
   5   2  -3  339.56    9.22
   5   2  -2 2853.32   51.11
  -5  -2   2 2904.37   45.21
   5   2  -2 2754.14   45.72
  -5  -2   2 2860.13   53.05
   5   2  -2 2863.35   41.09
   5   2  -2 2861.73   41.16
   5   2  -2 2851.36   55.59
   5   2  -1 1818.63   37.93
  -5  -2   1 1758.91   34.80
   5   2  -1 1878.74   36.20
  -5  -2   1 1778.93   39.56
   5   2  -1 1853.03   32.72
   5   2  -1 1764.29   32.47
   5   2  -1 1782.75   40.50
   5   2  -1 1830.77   42.15
   5   2   0   35.80    6.52
   5   2   0   41.08    5.66
   5   2   0   41.81    5.49
  -5  -2   0   41.65    6.07
  -5  -2   0   36.61    5.15
   5   2   0   47.75    6.72
  -5  -2   0   28.65    6.85
  -5  -2  -1    5.59    4.52
   5   2   1   14.42    4.68
   5   2   1    8.56    5.10
  -5  -2  -1    1.20    4.44
   5   2   1    1.90    4.45
  -5  -2  -1    4.93    3.98
  -5  -2  -2  119.89    8.48
  -5  -2  -2  132.89   10.85
  -5  -2  -2  142.16   10.35
   5   2   2  140.49   11.40
   5   2   2  126.53    9.89
   5   2   2  135.04   10.59
  -5  -2  -3  122.50    8.71
   5   2   3  123.58   10.87
  -5  -2  -3  112.18   10.61
  -5  -2  -3  118.00   10.09
   5   2   3  147.55   12.29
  -5  -2  -4  245.48   12.59
  -5  -2  -4  258.94   16.09
  -5  -2  -4  255.42   15.23
   5   2   4  238.04   15.63
   5   2   4  255.13   15.53
  -5  -2  -5  399.60   16.86
  -5  -2  -5  423.27   21.11
  -5  -2  -5  413.68   19.98
   5   2   5  381.38   20.17
   5   2   5  400.86   20.37
  -5  -2  -6   12.71    5.39
   5   2   6    0.53    5.63
  -5  -2  -6    4.88    6.30
  -5  -2  -6    3.00    6.21
   5   2   6   16.78    7.23
  -5  -2  -7   43.05    7.50
   5   2   7   38.95    8.77
  -5  -2  -7   23.78    7.90
  -5  -2  -7   38.61    8.41
   5   2   7   23.27    7.63
  -5  -2  -8  414.32   20.78
  -5  -2  -8  413.15   23.52
  -5  -2  -8  371.71   22.28
   5   2   8  464.18   24.06
   5   2   8  427.83   23.93
  -5  -2  -9  175.33   14.69
  -5  -2  -9  190.23   16.73
  -5  -2  -9  211.80   18.11
   5   2   9  174.05   16.11
   5   2   9  183.42   16.56
  -5  -2 -10  112.30   13.30
   5   2  10  104.45   14.01
  -5  -2 -10  112.69   14.13
  -5  -2 -10   89.23   12.98
   5   2  10   88.57   12.56
  -5  -2 -11   23.42    8.82
   5   2  11   37.01    9.96
  -5  -3  12   27.58    8.64
  -5  -3  11   -6.91    8.39
  -5  -3  10  107.96   14.69
  -5  -3  10   93.92   13.15
  -5  -3  10  100.71   13.25
   5   3 -10  112.13   14.91
  -5  -3   9  259.84   20.10
  -5  -3   9  259.07   18.33
  -5  -3   9  257.62   19.36
   5   3  -9  270.47   20.12
  -5  -3   8  206.13   17.03
  -5  -3   8  234.28   16.70
  -5  -3   8  230.91   17.36
   5   3  -8  255.54   19.11
   5   3  -7   72.36   10.82
  -5  -3   7   72.97   11.29
  -5  -3   7   63.64    9.51
  -5  -3   7   90.65   11.16
   5   3  -6   46.12    9.32
  -5  -3   6   43.77    9.47
  -5  -3   6   43.16    2.35
  -5  -3   6   62.46    9.34
  -5  -3   6   46.74    8.59
   5   3  -5   94.30   10.89
  -5  -3   5  100.01    9.01
  -5  -3   5  107.48   12.13
  -5  -3   5  108.06    5.47
  -5  -3   5  100.28   10.51
   5   3  -5  106.20    5.17
   5   3  -5   99.36    5.10
  -5  -3   4  293.89   10.51
   5   3  -4  279.51   14.88
  -5  -3   4  304.05   16.23
   5   3  -4  298.14   10.29
   5   3  -4  264.43   17.37
   5   3  -3  146.63   12.83
  -5  -3   3  155.32    8.58
   5   3  -3  140.34   10.51
  -5  -3   3  155.24   11.48
  -5  -3   3  157.40   11.02
   5   3  -3  136.23    4.60
   5   3  -3  141.47    7.88
   5   3  -2  413.55   10.80
  -5  -3   2  419.73   14.59
   5   3  -2  419.70   12.03
   5   3  -2  449.75   18.13
  -5  -3   2  438.44   17.65
  -5  -3   2  432.69   16.16
   5   3  -2  441.26   14.93
   5   3  -2  435.35   11.76
   5   3  -2  420.70   20.57
   5   3  -1    9.89    6.16
   5   3  -1   15.66    3.69
   5   3  -1    7.73    4.76
  -5  -3   1   15.13    4.79
   5   3  -1   12.43    4.61
  -5  -3   1   21.23    3.60
  -5  -3   1    5.05    4.95
  -5  -3   1   11.49    4.07
   5   3  -1   15.85    4.39
   5   3   0  144.77    8.56
   5   3   0  118.36   10.36
  -5  -3   0  145.48   10.01
   5   3   0  135.68    9.87
   5   3   0  144.21   10.83
  -5  -3   0  144.62    8.28
  -5  -3   0  161.19   11.05
  -5  -3   0  139.00    7.51
   5   3   0  149.01    9.77
  -5  -3  -1 1237.08   22.55
  -5  -3  -1 1222.00   30.85
   5   3   1 1250.26   31.67
   5   3   1 1285.81   31.88
  -5  -3  -1 1271.02   27.96
  -5  -3  -1 1206.96   20.92
   5   3   1 1236.15   30.45
   5   3   1 1201.22   27.93
  -5  -3  -2 1456.82   25.87
  -5  -3  -2 1496.19   35.94
   5   3   2 1432.40   35.78
   5   3   2 1519.99   35.55
  -5  -3  -2 1430.27   32.34
   5   3   2 1487.73   35.15
   5   3   2 1526.03   34.05
  -5  -3  -3  229.40    9.65
  -5  -3  -3  247.82   15.01
  -5  -3  -3  230.07   13.37
   5   3   3  214.46   13.65
   5   3   3  250.11   13.82
  -5  -3  -4   52.04    5.68
  -5  -3  -4   36.09    7.92
  -5  -3  -4   53.05    7.76
   5   3   4   46.49    8.42
  -5  -3  -5  402.73   15.00
  -5  -3  -5  377.61   19.76
  -5  -3  -5  363.09   18.62
   5   3   5  363.91   19.10
  -5  -3  -6  432.78   16.79
   5   3   6  383.10   16.50
  -5  -3  -6  432.70   21.87
  -5  -3  -6  419.93   20.80
   5   3   6  423.15   21.39
  -5  -3  -7  453.25   18.48
   5   3   7  415.45   18.26
  -5  -3  -7  421.94   22.59
  -5  -3  -7  426.85   21.89
   5   3   7  430.01   22.42
  -5  -3  -8    3.12    5.37
  -5  -3  -8    8.75    7.20
  -5  -3  -8   10.63    6.82
   5   3   8    1.30    6.89
  -5  -3  -9   33.18    8.89
  -5  -3  -9    9.43    7.59
   5   3   9   28.68    8.19
  -5  -3 -10    0.21    6.26
  -5  -3 -10    7.02    6.56
   5   3  10   -0.49    7.47
  -5  -3 -11  119.89   14.77
  -5  -3 -11  103.58   13.77
   5   3  11  111.17   14.70
  -5  -4  10  424.73   23.47
   5   4 -10  479.17   28.54
  -5  -4   9  167.79   17.21
  -5  -4   9  183.54   15.20
  -5  -4   9  195.69   18.14
   5   4  -9  172.60   16.82
  -5  -4   8    8.24    9.17
  -5  -4   8   -5.34    6.39
  -5  -4   8   -6.10    7.75
   5   4  -8    6.15    8.01
   5   4  -7   70.72   11.15
  -5  -4   7   59.22   11.76
  -5  -4   7   46.54    7.92
  -5  -4   7   58.77    9.82
   5   4  -6   87.21   11.33
  -5  -4   6   90.53   11.63
  -5  -4   6  101.16    6.62
  -5  -4   6  100.53   10.45
  -5  -4   6  100.01   11.22
   5   4  -5  112.02   12.45
  -5  -4   5  132.54   10.05
  -5  -4   5  135.83    7.99
   5   4  -5  129.33    9.99
  -5  -4   5  153.17   11.53
  -5  -4   5  128.31   12.21
   5   4  -4   -0.10    6.28
   5   4  -4    1.00    0.99
  -5  -4   4    4.64    3.91
  -5  -4   4    1.50    3.48
   5   4  -4    1.57    3.94
  -5  -4   4   -5.32    5.81
  -5  -4   4    2.44    4.93
   5   4  -3    1.81    7.06
   5   4  -3    0.29    1.55
  -5  -4   3   -3.44    3.68
  -5  -4   3   -1.89    4.19
   5   4  -3   -2.00    4.10
  -5  -4   3    5.09    5.03
  -5  -4   3    3.10    5.67
   5   4  -3    1.80    2.27
   5   4  -2   15.95    7.10
  -5  -4   2    5.54    3.09
  -5  -4   2   11.60    4.83
   5   4  -2   12.14    4.48
  -5  -4   2   11.21    5.13
  -5  -4   2    6.36    4.77
  -5  -4   2   12.12    2.27
   5   4  -2   14.46    3.91
   5   4  -2   12.03    3.26
   5   4  -1   14.50    6.97
  -5  -4   1   24.71    3.11
   5   4  -1   20.79    3.77
  -5  -4   1   17.87    4.92
   5   4  -1   19.83    4.98
  -5  -4   1   12.32    4.62
  -5  -4   1   26.38    5.43
   5   4  -1   21.06    4.43
   5   4  -1   21.76    4.29
  -5  -4   1   15.85    3.00
  -5  -4   0 1037.69   16.49
   5   4   0 1107.22   24.79
  -5  -4   0 1080.39   28.91
   5   4   0 1089.18   25.78
   5   4   0 1065.26   27.05
  -5  -4   0 1077.38   26.38
  -5  -4   0 1125.81   23.85
  -5  -4   0 1060.91   24.15
   5   4   0 1092.57   26.19
   5   4   0 1101.95   32.61
   5   4   1  717.53   20.68
  -5  -4  -1  722.82   23.66
   5   4   1  726.11   22.12
  -5  -4  -1  718.71   17.44
  -5  -4  -1  712.28   20.36
  -5  -4  -1  696.05   17.31
   5   4   1  704.03   21.88
   5   4   2  717.99   22.33
  -5  -4  -2  764.20   24.90
   5   4   2  712.35   22.60
  -5  -4  -2  715.03   21.54
  -5  -4  -2  718.73   15.40
   5   4   2  707.77   23.11
  -5  -4  -3   10.71    5.34
   5   4   3    8.50    5.09
  -5  -4  -3   11.99    6.28
   5   4   3   20.54    6.21
   5   4   3    3.67    5.21
  -5  -4  -4  760.13   27.08
  -5  -4  -4  741.30   25.07
   5   4   4  777.14   26.38
  -5  -4  -5 1528.43   40.66
  -5  -4  -5 1442.14   38.11
   5   4   5 1516.61   39.53
   5   4   6  653.30   18.91
  -5  -4  -6  721.70   27.86
  -5  -4  -6  663.73   25.72
   5   4   6  651.93   26.47
  -5  -4  -7   81.35   10.87
   5   4   7   80.85    7.79
  -5  -4  -7   95.36   11.45
   5   4   7   65.79    9.88
  -5  -4  -8   42.56    8.85
  -5  -4  -8   57.09    9.73
   5   4   8   58.97    9.39
  -5  -4  -9    2.97    5.84
  -5  -4  -9   12.51    7.71
   5   4   9    1.29    6.03
  -5  -4 -10   -2.13    6.04
  -5  -4 -10  -14.40    8.50
   5   4  10   -7.83    8.14
  -5  -4 -11  299.57   21.51
  -5  -4 -11  266.55   21.57
   5   4  11  252.46   20.50
  -5  -4 -12    8.47    8.14
  -5  -5   9    8.09    7.14
   5   5  -9   20.94    8.93
  -5  -5   8   81.10   13.27
  -5  -5   8   75.23   11.97
   5   5  -8   89.52   13.00
  -5  -5   7  177.96   17.53
  -5  -5   7  231.22   14.58
  -5  -5   7  193.49   16.92
   5   5  -7  201.23   17.40
  -5  -5   6  634.08   20.52
  -5  -5   6  627.19   22.36
  -5  -5   6  602.54   27.25
   5   5  -6  675.78   29.54
  -5  -5   5  196.28   11.71
  -5  -5   5  202.70   12.09
  -5  -5   5  210.01   15.88
   5   5  -5  228.29   16.94
   5   5  -4   75.18    9.97
  -5  -5   4   63.90    6.90
   5   5  -4   68.50    6.72
  -5  -5   4   73.30    8.07
  -5  -5   4   77.20    7.58
   5   5  -4   79.10    4.59
  -5  -5   4   75.82   10.08
   5   5  -3   78.11   10.43
  -5  -5   3   71.70    6.36
   5   5  -3   69.39    6.56
  -5  -5   3   68.14    7.76
   5   5  -3   72.25    5.30
  -5  -5   3   70.14    6.83
  -5  -5   3   64.45    3.47
  -5  -5   3   71.20    9.26
   5   5  -3   67.46    3.84
   5   5  -2   64.49    5.23
   5   5  -2   67.97    5.73
   5   5  -2   75.08    9.60
  -5  -5   2   73.84    5.50
   5   5  -2   68.16    6.41
  -5  -5   2   77.45    8.63
  -5  -5   2   59.38    6.38
  -5  -5   2   71.44    8.97
  -5  -5   2   68.68    4.95
  -5  -5   1  342.84    8.94
  -5  -5   1  360.31   16.78
   5   5  -1  340.71   13.80
   5   5  -1  347.01   13.29
  -5  -5   1  343.66   13.05
  -5  -5   1  365.11   16.14
  -5  -5   1  350.38   15.91
  -5  -5   1  341.76   12.19
   5   5  -1  363.81   13.34
   5   5  -1  343.93   18.74
  -5  -5   0  413.17   18.30
   5   5   0  413.22   16.05
   5   5   0  393.45   14.41
  -5  -5   0  401.20   16.13
  -5  -5   0  428.56   16.69
  -5  -5   0  422.32   14.62
   5   5   0  428.19   15.83
   5   5   0  410.70   20.31
  -5  -5  -1  216.29   13.95
   5   5   1  217.27   12.68
   5   5   1  215.48   11.81
   5   5   1  222.24   11.20
  -5  -5  -1  220.00   11.51
  -5  -5  -1  246.61   12.12
  -5  -5  -1  209.51   11.35
   5   5   1  231.05   12.48
   5   5   1  212.53   15.26
   5   5   2  564.67   20.19
  -5  -5  -2  564.71   22.98
   5   5   2  534.24   20.34
   5   5   2  547.37   18.18
  -5  -5  -2  551.19   19.51
   5   5   2  562.94   20.39
   5   5   3  151.36   11.34
   5   5   3  140.77    9.84
  -5  -5  -3  157.21   13.23
  -5  -5  -3  144.13   10.69
   5   5   3  147.69   11.48
  -5  -5  -4  394.06   20.20
   5   5   4  390.34   16.86
  -5  -5  -4  398.77   18.52
   5   5   4  380.61   18.80
  -5  -5  -5  983.31   33.17
  -5  -5  -5  924.31   30.00
   5   5   5  996.72   31.42
  -5  -5  -6  131.96   12.80
  -5  -5  -6  151.12   12.99
   5   5   6  143.17   13.28
  -5  -5  -7   45.96    8.91
  -5  -5  -7   44.77    9.08
   5   5   7   52.66    9.00
  -5  -5  -8    3.80    5.29
  -5  -5  -8   15.15    8.23
   5   5   8    7.87    7.30
  -5  -5  -9  512.03   26.49
  -5  -5  -9  458.83   24.86
   5   5   9  506.27   25.99
  -5  -5 -10  457.28   26.01
  -5  -5 -10  438.57   25.36
   5   5  10  417.80   24.67
  -5  -5 -11   30.10    8.88
  -5  -5 -11   27.80    9.10
   5   5  11   22.36    8.81
  -5  -5 -12   12.76    8.93
   5   5  12    4.95    7.36
   5   6  -8  178.12   17.59
  -5  -6   7  895.23   37.13
   5   6  -7  878.94   36.06
  -5  -6   6   93.82   13.34
   5   6  -6  105.65   13.98
   5   6  -5  112.37   13.22
  -5  -6   5  119.51   13.98
   5   6  -4   22.05    7.98
  -5  -6   4   24.26    7.15
  -5  -6   3  454.46   20.31
  -5  -6   3  460.61   13.35
  -5  -6   3  426.78   21.70
   5   6  -3  449.99   22.77
  -5  -6   3  458.52   13.28
  -5  -6   2  239.22    9.77
  -5  -6   2  244.74   15.01
   5   6  -2  249.87    9.01
   5   6  -2  226.24   11.58
  -5  -6   2  227.73   15.35
   5   6  -2  248.91   16.49
   5   6  -2  255.34    9.53
  -5  -6   2  245.84   10.60
  -5  -6   1 1173.99   33.93
   5   6  -1 1203.13   21.89
   5   6  -1 1086.35   28.17
  -5  -6   1 1164.17   33.01
   5   6  -1 1150.46   34.93
   5   6  -1 1188.51   25.65
  -5  -6   1 1173.56   26.47
   5   6   0   56.79    7.38
   5   6   0   56.84    6.58
   5   6   0   60.67    9.27
  -5  -6   0   62.85    9.28
   5   6   0   55.55    4.59
  -5  -6   0   70.79    7.21
  -5  -6   0   58.05    8.16
   5   6   1   76.94    7.92
   5   6   1   88.23   10.85
   5   6   1   86.62    6.17
  -5  -6  -1   82.24   10.43
  -5  -6  -1   75.55    7.90
  -5  -6  -1   67.81    8.03
  -5  -6  -1   83.12    9.10
   5   6   1   75.16    8.80
   5   6   2    4.91    4.77
  -5  -6  -2    8.85    6.44
  -5  -6  -2    8.01    4.56
   5   6   2    4.69    3.18
   5   6   2   12.83    4.60
   5   6   3  149.58    9.41
  -5  -6  -3  140.64   13.26
   5   6   3  131.82    8.94
   5   6   3  148.56   11.83
  -5  -6  -3  146.74   11.38
  -5  -6  -4  299.18   18.57
   5   6   4  289.00   13.75
   5   6   4  265.42   11.59
   5   6   4  332.43   17.61
  -5  -6  -4  302.43   16.62
  -5  -6  -5    5.95    5.84
  -5  -6  -5   11.63    6.46
   5   6   5    0.22    3.98
   5   6   5    2.63    2.75
   5   6   5    8.30    6.01
  -5  -6  -6   -8.02    5.54
  -5  -6  -6    0.49    6.70
   5   6   6    3.28    6.39
  -5  -6  -7  110.44   12.34
  -5  -6  -7   91.89   12.00
   5   6   7  116.01   12.85
  -5  -6  -8 1452.05   45.25
  -5  -6  -8 1463.09   43.88
   5   6   8 1472.55   44.86
  -5  -6  -9  185.92   16.94
  -5  -6  -9  221.14   17.88
   5   6   9  225.17   18.38
  -5  -6 -10  188.51   17.72
  -5  -6 -10  235.11   19.01
   5   6  10  203.74   18.08
  -5  -6 -11   74.95   12.51
  -5  -6 -11   43.22   10.12
   5   6  11   56.64   10.71
   5   6  11   60.22   11.27
   5   6  12  141.76   16.35
   5   7  -7   21.78    8.32
  -5  -7   6   37.23   10.44
   5   7  -6   32.30    9.87
  -5  -7   5   -8.27    8.21
   5   7  -5    8.78    7.62
  -5  -7   4  284.70   20.21
   5   7  -4  296.82   19.25
  -5  -7   3  269.53   19.13
   5   7  -3  249.92   17.48
  -5  -7   2  331.51   14.43
  -5  -7   2  319.41   19.45
   5   7  -2  321.38   19.10
   5   7  -1   35.15    4.98
   5   7  -1   37.64    8.39
  -5  -7   1   32.89    5.73
  -5  -7   1   22.24    6.97
  -5  -7   1   37.44    8.71
  -5  -7   0  406.24   17.46
  -5  -7   0  400.44   21.38
  -5  -7   0  405.19   20.57
   5   7   0  384.53   19.97
   5   7   0  422.60   16.56
  -5  -7  -1  187.32   12.31
  -5  -7  -1  169.29   14.43
  -5  -7  -1  172.67   11.19
   5   7   1  159.85   13.27
   5   7   1  169.02   11.41
  -5  -7  -2  576.30   22.65
  -5  -7  -2  612.15   26.90
   5   7   2  601.69   22.36
   5   7   2  556.60   24.07
  -5  -7  -3  128.69   13.42
   5   7   3  141.68   12.09
  -5  -7  -3  169.58   13.16
   5   7   4   10.16    5.17
  -5  -7  -4   10.99    7.27
  -5  -7  -4    4.44    5.29
   5   7   4    6.75    4.37
   5   7   5    0.67    5.40
  -5  -7  -5   16.52    8.58
  -5  -7  -5    7.03    6.55
  -5  -7  -6  366.15   22.40
   5   7   6  352.21   20.62
  -5  -7  -6  337.01   20.01
  -5  -7  -7  323.62   21.73
   5   7   7  295.05   15.90
   5   7   7  333.96   20.77
  -5  -7  -7  304.71   19.68
   5   7   8   -0.03    5.85
  -5  -7  -8    9.91    7.44
  -5  -7  -8    5.32    7.26
   5   7   8    8.34    4.97
   5   7   9    6.01    7.63
  -5  -7  -9    3.02    5.75
  -5  -7  -9    5.86    7.36
   5   7   9   -1.00    5.74
   5   7  10   28.23    9.69
  -5  -7 -10   42.26    9.85
  -5  -7 -10   30.59    9.53
   5   7  10   38.25    8.17
   5   7  11  211.86   19.22
  -5  -7 -11  231.22   20.44
   5   7  11  190.78   16.97
  -5  -7 -11  238.38   20.59
   5   7  12  533.78   28.63
   5   8  -6   13.04    7.72
   5   8  -5  157.21   15.48
  -5  -8   4   91.40   13.73
   5   8  -4   63.14   11.50
   5   8  -3   22.94    7.27
  -5  -8   3   13.61    7.28
   5   8  -2   14.31    6.34
  -5  -8   2   14.17    9.03
  -5  -8   1  405.17   18.55
  -5  -8   1  403.48   23.44
   5   8  -1  378.83   20.49
  -5  -8   0  547.98   22.43
  -5  -8   0  544.44   26.90
   5   8   0  534.64   23.79
   5   8   0  546.69   19.70
  -5  -8  -1  262.61   15.92
  -5  -8  -1  292.93   20.13
   5   8   1  303.63   18.03
   5   8   1  280.62   15.16
   5   8   2  145.72   12.56
  -5  -8  -2  137.01   12.24
  -5  -8  -2  131.95   14.96
   5   8   2  147.25   12.00
   5   8   3   -3.40    5.85
   5   8   3   11.45    6.43
  -5  -8  -3    5.37    8.05
  -5  -8  -3    6.11    5.62
  -5  -8  -4  450.10   22.79
  -5  -8  -4  420.62   24.68
   5   8   4  435.34   21.97
   5   8   4  426.01   21.47
  -5  -8  -5  371.69   21.13
  -5  -8  -5  395.88   23.70
   5   8   5  364.02   20.94
   5   8   6  135.90   14.01
  -5  -8  -6  112.14   13.80
  -5  -8  -6  143.09   13.94
   5   8   7   63.79   11.15
  -5  -8  -7   29.98    8.58
   5   8   7   55.21    7.14
  -5  -8  -7   56.10   10.31
   5   8   8   59.30   10.27
  -5  -8  -8   65.61   10.69
  -5  -8  -8   53.57   10.64
   5   8   8   49.43    7.72
   5   8   9  -11.69    9.11
  -5  -8  -9    5.67    7.13
  -5  -8  -9    1.66    7.12
   5   8   9   -0.67    5.47
   5   8  10  143.80   16.67
  -5  -8 -10  153.81   17.04
  -5  -8 -10  143.81   17.34
   5   8  10  139.50   13.47
   5   8  11  158.28   15.31
   5   8  12   -2.30    7.33
  -5  -9   2  146.77   16.86
   5   9  -1  231.58   16.44
   5   9   0   22.24    6.83
  -5  -9   0    8.32    5.65
   5   9   1   -3.40    6.03
  -5  -9  -1    5.51    6.10
  -5  -9  -1    7.21    8.80
   5   9   2  -11.79    6.12
   5   9   2    3.68    5.49
  -5  -9  -2   -1.18    5.88
  -5  -9  -2    7.49    7.62
  -5  -9  -3  211.05   16.67
  -5  -9  -3  242.42   20.26
   5   9   3  234.71   15.84
   5   9   3  224.47   15.89
  -5  -9  -4  365.42   21.94
  -5  -9  -4  378.34   24.93
   5   9   4  348.63   19.73
   5   9   4  380.45   21.20
  -5  -9  -5  242.18   18.54
  -5  -9  -5  208.24   19.20
   5   9   5  247.35   18.34
   5   9   5  259.86   17.37
   5   9   6   18.96    7.71
  -5  -9  -6   29.87    9.12
  -5  -9  -6   32.51    9.36
   5   9   7   -4.90    7.84
  -5  -9  -7   -4.35    9.24
  -5  -9  -7   -3.06    7.08
   5   9   8  138.51   15.70
  -5  -9  -8  141.76   16.77
  -5  -9  -8  136.69   15.64
   5   9   9  137.56   15.48
  -5  -9  -9  164.86   17.40
  -5 -10  -2   17.97    7.36
  -5 -10  -3  214.53   18.25
   5  10   3  229.29   16.97
   5  10   4  124.74   13.68
  -5 -10  -4  129.09   14.75
   5  10   5   24.15    9.12
  -5 -10  -5   34.40   10.29
   5  10   6   49.68   11.61
  -5 -10  -6   30.66    9.82
   5  10   7  199.37   18.48
  -5 -10  -7  187.36   18.40
   6  -4  -6  193.24   17.08
   6  -4  -5   66.75   11.61
   6  -4  -4   52.56   10.66
   6  -4  -3    9.94    8.41
  -6   4   3  -12.66    9.97
   6  -4  -2   14.84    8.74
  -6   4   2   20.28    9.03
  -6   4   1  124.65   14.64
  -6   3   7  461.17   28.40
  -6   3   6   62.16   13.46
   6  -3  -6   51.76    9.09
   6  -3  -5    6.04    6.55
  -6   3   5   26.16   10.77
   6  -3  -4   47.40   10.19
  -6   3   4   79.51   13.37
   6  -3  -3  153.74   15.41
  -6   3   3  157.52   15.87
   6  -3  -2  175.02   16.55
  -6   3   2  160.10   17.07
  -6   3   2  183.40   16.08
  -6   3   2  181.40   17.51
   6  -3  -1  160.76   16.49
  -6   3   1  177.11   17.86
  -6   3   1  170.49   14.99
   6  -3   0   32.80    9.84
  -6   3   0   18.37    7.80
  -6   3   0   47.40    9.23
   6  -3   1   19.06    8.18
  -6   3  -1   10.06    8.62
   6  -2 -11   -9.19    8.44
   6  -2 -10   16.91    7.78
   6  -2  -9  428.97   23.54
  -6   2   8  423.87   27.19
   6  -2  -8  400.61   21.79
   6  -2  -7   28.98    7.40
  -6   2   7   15.66    9.01
   6  -2  -6   10.70    6.10
  -6   2   6    1.11    8.27
   6  -2  -6   13.85    5.82
   6  -2  -5  225.57   14.91
  -6   2   5  224.56   18.51
   6  -2  -5  247.67   15.90
   6  -2  -4  428.55   21.14
  -6   2   4  434.25   25.36
   6  -2  -4  442.77   20.57
  -6   2   3  223.09   18.63
   6  -2  -3  221.83   15.84
   6  -2  -3  226.91   14.50
   6  -2  -2    4.29    4.92
   6  -2  -2   -1.17    6.15
  -6   2   2   -3.18    7.46
  -6   2   2   -3.04    7.36
   6  -2  -1    8.56    5.22
   6  -2  -1   11.77    7.31
  -6   2   1   21.96   10.05
  -6   2   1    8.29    7.32
  -6   2   1   31.22    7.71
   6  -2   0   52.67    8.35
   6  -2   0   33.89    9.75
  -6   2   0   37.74   10.68
  -6   2   0   29.34    6.95
   6  -2   1  154.54   15.54
  -6   2  -1  133.50   15.10
  -6   2  -1  164.36   15.52
  -6   2  -1  148.45   11.72
  -6   2  -2  360.41   23.59
  -6   2  -2  302.87   21.45
   6  -2   2  343.19   22.58
   6  -2   3   24.51    8.89
  -6   2  -3   35.82   10.40
  -6   2  -3   21.69    8.75
   6  -2   4   20.23    9.92
  -6   2  -4   11.82    8.79
  -6   2  -4   18.71    8.36
   6  -1 -11  105.70   14.06
   6  -1 -10  401.83   24.68
  -6   1   9  178.83   18.38
   6  -1  -9  179.72   16.17
  -6   1   8    3.07    8.01
   6  -1  -8   -3.89    6.86
   6  -1  -7   63.83    9.67
  -6   1   7   64.11   11.30
   6  -1  -6  241.63   12.81
  -6   1   6  233.16   19.66
   6  -1  -6  212.67   15.70
   6  -1  -5  769.41   24.33
  -6   1   5  735.39   32.13
   6  -1  -5  722.14   27.58
   6  -1  -4   75.13    9.63
   6  -1  -4   85.01    8.98
  -6   1   4   77.02   12.12
   6  -1  -3   16.60    6.33
   6  -1  -3   21.27    5.91
  -6   1   3   19.07    8.87
   6  -1  -2    1.36    5.38
   6  -1  -2    3.08    5.30
  -6   1   2    5.48    5.09
  -6   1   2   -0.05    7.71
  -6   1   1  276.39   18.97
  -6   1   1  278.31   16.62
  -6   1   1  273.09   19.54
   6  -1  -1  289.25   17.50
   6  -1  -1  273.59   16.48
  -6   1   0  279.04   18.93
  -6   1   0  265.06   17.19
  -6   1   0  293.21   19.82
   6  -1   0  273.11   17.59
  -6   1   0  272.84   15.11
   6  -1   0  263.70   16.82
  -6   1  -1  358.72   21.48
  -6   1  -1  342.36   20.44
  -6   1  -1  425.20   17.66
   6  -1   1  358.20   20.83
   6  -1   2   19.71    6.67
  -6   1  -2   19.51    8.32
  -6   1  -2   11.12    7.09
  -6   1  -2   14.55    4.00
   6  -1   3  104.82   13.00
  -6   1  -3   98.24   12.58
  -6   1  -3   97.30   12.16
  -6   1  -4  -11.14    9.23
  -6   1  -4    5.44    7.23
  -6   1  -5  236.78   19.33
  -6   1  -5  228.53   19.67
   6  -1   5  226.16   19.17
  -6   1  -6  279.71   21.30
  -6   0  12   86.20   13.13
  -6   0  11  120.99   14.30
   6   0 -11  146.82   16.32
  -6   0  10  105.18   12.26
  -6   0  10  110.78   16.12
   6   0 -10  110.77   14.38
  -6   0   9   13.77    6.01
  -6   0   9   21.88    9.87
   6   0  -9   13.94    7.96
   6   0  -8   61.07   10.45
  -6   0   8   65.57   12.32
   6   0  -7  142.57   14.23
  -6   0   7  152.28   16.30
  -6   0   6  440.63   24.59
   6   0  -6  430.61   22.41
   6   0  -5  310.64   13.05
  -6   0   5  330.14   21.14
   6   0  -5  278.85   17.87
   6   0  -4    7.38    6.36
   6   0  -4    3.40    3.73
   6   0  -4   -0.11    3.39
  -6   0   4    2.10    6.10
   6   0  -4   -3.06    3.50
   6   0  -3   25.18    6.95
   6   0  -3   17.97    4.98
   6   0  -3   30.89    4.97
  -6   0   3   30.02    5.25
   6   0  -3   22.05    4.97
  -6   0   3   32.33    9.22
   6   0  -3   21.62    4.66
   6   0  -2  222.83   10.66
  -6   0   2  235.24   13.44
  -6   0   2  247.03   17.66
   6   0  -2  215.62   12.94
   6   0  -2  239.08   15.64
   6   0  -1  999.55   23.65
  -6   0   1 1025.95   30.15
  -6   0   1 1021.11   35.22
   6   0  -1 1013.05   29.94
   6   0  -1  981.66   31.88
   6   0   0   48.02    7.82
  -6   0   0   41.85    8.22
   6   0   0   39.11    5.10
  -6   0   0   45.53    7.74
  -6   0   0   51.21   10.20
  -6   0  -1  155.90   13.63
  -6   0  -1  188.51   14.34
  -6   0  -1  168.66    9.83
   6   0   1  166.93   13.63
  -6   0  -2  213.85   15.71
  -6   0  -2  180.97   14.76
  -6   0  -2  214.29   10.02
   6   0   2  221.73   15.98
  -6   0  -3    8.69    5.74
   6   0   3   -4.57    6.78
  -6   0  -3   13.35    7.03
  -6   0  -4  125.44   13.38
   6   0   4  134.10   14.13
  -6   0  -4  131.39   14.26
  -6   0  -5  157.96   15.15
   6   0   5  134.11   14.92
  -6   0  -5  135.74   14.67
  -6   0  -6  159.24   16.14
   6   0   6  155.68   16.17
  -6   0  -6  166.01   16.81
   6   0   6  175.72   16.73
  -6   0  -7   84.79   12.80
   6   0   7   66.73   12.25
  -6   0  -7   65.79   11.54
   6   0   7   87.90   13.44
  -6   0  -8  194.07   18.02
  -6  -1  11  194.73   17.91
  -6  -1  11  197.78   19.96
  -6  -1  10   27.51    8.88
  -6  -1  10   29.80   10.59
   6   1 -10   21.80    7.73
  -6  -1   9   60.92   11.21
  -6  -1   9   64.50   12.35
   6   1  -9   52.01   11.02
   6   1  -8   12.00    7.14
  -6  -1   8   16.60    7.92
  -6  -1   8   13.05    8.12
  -6  -1   7  509.84   26.28
   6   1  -7  562.98   26.71
  -6  -1   6  548.73   26.78
   6   1  -6  561.70   25.99
   6   1  -5   -6.26    6.87
  -6  -1   5   -9.49    7.98
   6   1  -5   -1.71    1.72
   6   1  -4   10.02    3.45
   6   1  -4    1.69    5.99
   6   1  -4    8.66    2.93
  -6  -1   4    9.18    2.98
   6   1  -4    6.27    3.36
  -6  -1   4    5.88    6.95
   6   1  -3  198.15   11.86
  -6  -1   3  218.53   11.21
   6   1  -3  200.04   11.02
  -6  -1   3  214.60   15.82
   6   1  -3  226.49   10.92
   6   1  -3  208.17   10.72
   6   1  -3  210.68   15.27
   6   1  -2 1508.03   33.70
  -6  -1   2 1555.05   34.00
   6   1  -2 1474.18   34.71
  -6  -1   2 1521.85   41.75
   6   1  -2 1532.73   33.06
   6   1  -2 1527.92   33.57
   6   1  -2 1494.71   40.85
   6   1  -1  128.75   13.18
   6   1  -1  126.13    9.21
  -6  -1   1  126.27    9.81
  -6  -1   1  145.15   13.07
   6   1  -1  124.87    9.83
   6   1  -1  131.42   10.05
   6   1   0  365.47   15.83
  -6  -1   0  392.55   18.60
  -6  -1   0  406.17   18.35
  -6  -1   0  389.41   21.04
   6   1   0  411.70   18.25
  -6  -1  -1   21.61    6.68
   6   1   1   27.02    6.56
  -6  -1  -1   16.28    5.95
  -6  -1  -2  381.72   18.68
  -6  -1  -2  378.47   19.50
  -6  -1  -2  393.32   10.41
  -6  -1  -2  365.07   10.14
   6   1   2  388.89   19.49
  -6  -1  -3   62.57    8.86
   6   1   3   51.21    8.92
  -6  -1  -3   52.27    9.11
  -6  -1  -4   72.36    9.57
   6   1   4   76.91   10.96
  -6  -1  -4   79.00   11.15
   6   1   4   88.11   10.92
  -6  -1  -5   12.78    6.93
   6   1   5   12.44    6.70
  -6  -1  -5   17.85    7.84
   6   1   5    1.07    8.01
  -6  -1  -6   12.55    6.19
   6   1   6   29.31    9.98
  -6  -1  -6   26.09    8.19
   6   1   6   30.37    9.37
  -6  -1  -7  236.50   17.48
  -6  -1  -7  271.84   20.90
   6   1   7  244.91   19.17
   6   1   7  280.33   21.12
  -6  -1  -8  119.49   13.76
   6   1   8  118.20   14.76
  -6  -1  -8  106.89   14.07
   6   1   8   96.50   12.99
  -6  -1  -9  577.54   29.27
  -6  -2  11   -7.67   10.09
  -6  -2  11    7.89    8.47
  -6  -2  10  402.00   24.77
  -6  -2  10  368.75   24.72
   6   2 -10  430.01   26.62
  -6  -2   9   14.53    8.68
  -6  -2   9   -2.06    8.55
   6   2  -9   -0.37    7.74
  -6  -2   8  758.85   31.24
  -6  -2   8  813.60   33.33
   6   2  -8  830.18   34.28
   6   2  -7   77.51   11.09
  -6  -2   7   82.96   11.69
   6   2  -6   -3.12    7.02
  -6  -2   6   12.08    8.01
   6   2  -5   14.67    6.82
   6   2  -5   12.03    4.26
  -6  -2   5   -1.75    7.27
  -6  -2   4  648.50   16.17
   6   2  -4  601.70   12.07
  -6  -2   4  619.56   25.77
   6   2  -4  653.28   27.16
   6   2  -4  610.73   12.85
  -6  -2   3  360.84   13.55
   6   2  -3  369.28   14.33
  -6  -2   3  363.97   19.54
   6   2  -3  376.26   11.99
   6   2  -3  360.21   11.90
   6   2  -3  368.64   20.28
   6   2  -2   29.77    9.16
   6   2  -2   27.00    4.73
   6   2  -2   18.83    4.09
  -6  -2   2   21.60    4.74
   6   2  -2   16.51    4.62
  -6  -2   2   14.14    7.50
   6   2  -1   27.30    7.50
   6   2  -1   26.19    5.00
   6   2  -1   25.25    5.30
  -6  -2   1   26.55    5.60
   6   2  -1   13.05    5.36
  -6  -2   1   44.89    9.43
  -6  -2   0    8.61    5.25
   6   2   0   -0.66    5.26
   6   2   0    2.20    3.99
   6   2   0    2.63    4.17
  -6  -2   0    3.98    4.55
  -6  -2   0   -1.68    6.66
  -6  -2  -1 1736.33   37.02
  -6  -2  -1 1720.83   40.90
   6   2   1 1736.53   39.27
  -6  -2  -2  216.08   12.58
  -6  -2  -2  229.20   14.66
  -6  -2  -2  223.75   14.08
   6   2   2  226.86   14.37
   6   2   2  229.39   15.40
  -6  -2  -3    2.22    4.04
   6   2   3    6.73    6.01
  -6  -2  -3    5.42    5.31
  -6  -2  -3    0.04    4.64
   6   2   3   -2.33    6.20
  -6  -2  -4    1.81    4.21
   6   2   4   -0.73    5.25
  -6  -2  -4   -5.33    6.55
  -6  -2  -4   -2.48    5.24
   6   2   4    7.83    7.31
  -6  -2  -5  441.66   19.57
  -6  -2  -5  420.03   22.49
  -6  -2  -5  446.84   22.72
   6   2   5  432.71   23.27
   6   2   5  448.42   23.30
  -6  -2  -6  312.85   17.59
  -6  -2  -6  328.62   20.77
  -6  -2  -6  314.04   20.08
   6   2   6  332.35   21.11
   6   2   6  315.16   20.82
  -6  -2  -7  424.02   21.26
  -6  -2  -7  484.90   26.14
  -6  -2  -7  452.61   25.13
   6   2   7  426.51   24.87
   6   2   7  410.67   24.33
  -6  -2  -8  104.02   11.79
   6   2   8  120.91   14.57
  -6  -2  -8  128.10   14.23
  -6  -2  -8  144.07   15.22
   6   2   8  134.24   14.82
  -6  -2  -9   27.45    8.90
   6   2   9   25.96    9.76
  -6  -2  -9   21.46    8.33
  -6  -2  -9   19.33    8.46
   6   2   9   29.00    9.21
  -6  -2 -10    6.40    7.83
  -6  -3  11  162.77   17.27
  -6  -3  10  184.77   18.28
  -6  -3  10  209.97   18.74
  -6  -3  10  229.02   19.64
  -6  -3   9   89.86   13.32
  -6  -3   9  103.67   13.13
  -6  -3   9  120.64   14.26
   6   3  -9   82.55   13.09
   6   3  -8    6.66    7.61
  -6  -3   8   -4.38    7.59
  -6  -3   8    2.67    7.28
  -6  -3   8   15.36    7.72
   6   3  -7   32.75    9.29
  -6  -3   7   37.62    9.21
   6   3  -6  106.56   13.34
  -6  -3   6  126.78   12.53
  -6  -3   5  604.89   25.17
   6   3  -5  612.20   17.28
   6   3  -5  605.15   27.34
   6   3  -4  124.36   13.33
  -6  -3   4   96.05    6.58
  -6  -3   4  111.27   11.24
   6   3  -4  102.78    7.75
   6   3  -3   22.43    7.90
   6   3  -3   16.39    2.58
  -6  -3   3   15.37    4.00
   6   3  -3   14.94    2.05
  -6  -3   3   16.03    6.45
   6   3  -3   17.59    2.61
   6   3  -3   16.47    4.45
   6   3  -2  238.97    9.63
  -6  -3   2  263.62   12.55
  -6  -3   2  233.13   15.01
  -6  -3   2  231.34   12.37
   6   3  -2  261.82   10.27
   6   3  -2  249.55   12.91
   6   3  -2  264.31   17.37
   6   3  -1  631.55   18.19
  -6  -3   1  654.23   21.48
   6   3  -1  614.59   21.57
  -6  -3   1  605.82   23.52
  -6  -3   1  605.48   18.56
   6   3  -1  615.12   18.16
   6   3  -1  629.86   21.81
   6   3  -1  657.48   27.14
  -6  -3   0 1940.40   35.46
  -6  -3   0 1946.90   41.81
  -6  -3   0 1940.79   37.70
  -6  -3   0 1926.06   44.38
  -6  -3   0 2003.81   33.22
   6   3   0 1952.07   42.34
   6   3   0 1946.62   38.67
   6   3   0 1926.82   48.02
   6   3   0 1949.19   38.49
  -6  -3  -1  569.86   17.01
  -6  -3  -1  537.83   21.25
  -6  -3  -1  598.64   20.29
  -6  -3  -1  578.20   13.06
   6   3   1  565.02   22.22
   6   3   1  530.08   20.08
   6   3   1  543.82   19.88
  -6  -3  -2  131.72    8.35
  -6  -3  -2  115.71   10.99
  -6  -3  -2  120.06   10.01
   6   3   2  132.13   11.75
  -6  -3  -3   22.08    4.57
  -6  -3  -3   12.07    5.45
  -6  -3  -3   10.53    4.98
   6   3   3   11.12    5.76
  -6  -3  -4  604.75   19.32
  -6  -3  -4  640.36   26.26
  -6  -3  -4  603.14   24.27
   6   3   4  609.41   25.77
  -6  -3  -5  594.86   20.08
  -6  -3  -5  536.92   25.28
  -6  -3  -5  573.11   24.76
   6   3   5  557.65   25.69
  -6  -3  -6  160.55   11.31
  -6  -3  -6  147.14   14.13
  -6  -3  -6  166.31   14.39
   6   3   6  142.58   14.21
  -6  -3  -7    2.39    4.45
  -6  -3  -7    6.77    5.91
  -6  -3  -7   16.50    7.55
   6   3   7    9.76    7.67
  -6  -3  -8   -3.36    4.50
   6   3   8    0.67    6.04
  -6  -3  -8    7.15    6.74
  -6  -3  -8   -2.26    7.20
   6   3   8  -10.18    8.70
  -6  -3  -9   13.59    6.51
   6   3   9    7.26    7.42
  -6  -3  -9   17.60    7.89
  -6  -3  -9   -3.05    7.76
   6   3  10  115.22   14.85
  -6  -4   9   16.85    8.66
  -6  -4   9    8.47    7.48
  -6  -4   9   13.08    8.67
   6   4  -9   21.75    8.89
  -6  -4   8   51.61   11.57
  -6  -4   8   56.75   10.42
  -6  -4   8   60.23   11.22
   6   4  -8   69.61   12.45
  -6  -4   7  431.56   21.77
  -6  -4   7  355.66   21.99
   6   4  -7  433.46   25.10
  -6  -4   6  319.82   18.51
  -6  -4   6  335.55   20.00
   6   4  -6  353.29   22.71
  -6  -4   5  180.78   13.64
  -6  -4   5  166.16   13.65
   6   4  -5  189.80   16.25
   6   4  -4   72.15   11.22
  -6  -4   4   72.40    7.38
  -6  -4   4   83.76    6.99
  -6  -4   4   90.83   10.09
  -6  -4   4   90.16   10.18
   6   4  -4   94.56    6.28
   6   4  -3    8.93    1.87
   6   4  -3    6.82    7.29
  -6  -4   3   10.23    3.76
   6   4  -3   10.59    1.82
  -6  -4   3    2.31    3.52
  -6  -4   3    4.85    5.21
  -6  -4   3    7.58    4.69
   6   4  -3    1.95    2.87
  -6  -4   2  488.85   17.89
   6   4  -2  433.79   13.54
  -6  -4   2  441.86   18.93
  -6  -4   2  438.95   17.84
   6   4  -2  433.03   16.02
   6   4  -2  465.26   13.35
   6   4  -2  453.73   22.97
   6   4  -1 1125.61   24.10
  -6  -4   1 1121.43   29.62
   6   4  -1 1058.42   25.38
  -6  -4   1 1085.68   22.85
  -6  -4   1 1088.61   30.36
  -6  -4   1 1104.38   26.94
   6   4  -1 1090.22   28.16
   6   4  -1 1041.32   35.00
  -6  -4   0  402.18   11.43
   6   4   0  378.94   14.97
  -6  -4   0  400.33   18.14
  -6  -4   0  398.64   14.64
  -6  -4   0  374.03   13.78
   6   4   0  392.14   17.12
   6   4   0  402.83   21.91
  -6  -4  -1   52.48    4.01
   6   4   1   42.44    6.47
  -6  -4  -1   40.57    7.12
  -6  -4  -1   52.76    4.75
  -6  -4  -1   53.19    4.79
  -6  -4  -1   46.14    6.23
   6   4   1   50.03    7.71
   6   4   2   13.71    5.55
  -6  -4  -2   13.73    2.48
  -6  -4  -2   15.84    6.24
  -6  -4  -2   17.03    5.05
   6   4   2   23.06    6.36
  -6  -4  -3  591.05   14.02
  -6  -4  -3  561.38   24.21
  -6  -4  -3  569.16   21.90
   6   4   3  539.74   23.12
  -6  -4  -4  322.97   11.02
  -6  -4  -4  318.25   18.84
  -6  -4  -4  273.08   16.41
   6   4   4  306.94   18.02
  -6  -4  -5   22.22    4.25
  -6  -4  -5   23.31    7.26
  -6  -4  -5   18.68    6.74
   6   4   5   10.26    5.51
  -6  -4  -6   14.16    4.36
  -6  -4  -6    6.65    5.44
  -6  -4  -6    6.37    5.61
   6   4   6    6.20    6.90
  -6  -4  -7  121.08   14.01
  -6  -4  -7  124.84   13.47
   6   4   7  136.06   14.30
  -6  -4  -8   93.57   12.23
  -6  -4  -8   89.44   11.78
   6   4   8   94.78   13.16
  -6  -4  -9  109.23   14.42
  -6  -4  -9  103.06   13.29
   6   4   9  120.02   14.52
  -6  -4 -10   40.53    9.53
  -6  -4 -10   34.56   10.19
   6   4  10   39.92   10.05
  -6  -5   8  223.63   19.25
   6   5  -8  209.96   18.95
  -6  -5   7  212.08   17.98
   6   5  -7  265.71   20.73
   6   5  -6   18.98    7.65
  -6  -5   6    9.04    6.07
  -6  -5   6   15.07    6.90
  -6  -5   5  153.76   12.07
  -6  -5   5  159.30   14.51
   6   5  -5  166.02   15.64
   6   5  -4   59.36   10.85
  -6  -5   4   56.79    7.02
  -6  -5   4   66.69    8.22
  -6  -5   4   70.37    9.80
   6   5  -3   77.02   11.06
  -6  -5   3   71.88    8.05
  -6  -5   3   72.00    8.17
  -6  -5   3   85.68    9.97
   6   5  -3   70.11    5.48
  -6  -5   2  497.39   13.60
  -6  -5   2  478.25   19.16
   6   5  -2  431.08   17.89
  -6  -5   2  494.54   11.90
   6   5  -2  498.40   15.01
  -6  -5   2  455.38   18.03
  -6  -5   2  458.54   19.68
   6   5  -2  491.63   16.00
   6   5  -2  505.67   24.54
  -6  -5   1  266.98    7.61
  -6  -5   1  278.64   15.29
   6   5  -1  266.93   12.46
   6   5  -1  245.88   13.25
  -6  -5   1  295.32   14.36
  -6  -5   1  282.06   10.79
  -6  -5   1  289.85   14.53
   6   5  -1  283.54   13.26
   6   5  -1  272.54   18.30
   6   5   0    0.63    3.52
   6   5   0  -12.20    8.21
  -6  -5   0   -2.54    4.67
   6   5   0   -4.40    4.86
  -6  -5   0   -2.69    3.48
  -6  -5   0   -0.13    4.12
   6   5   0   -2.25    3.58
   6   5   0    1.40    3.87
  -6  -5   0    3.16    3.55
  -6  -5  -1    4.81    3.70
   6   5   1    8.56    7.00
  -6  -5  -1    5.70    5.47
   6   5   1   10.78    4.56
   6   5   1    6.38    4.80
  -6  -5  -1   -0.88    3.67
  -6  -5  -1   -0.02    3.48
   6   5   1   13.06    5.28
   6   5   1    9.24    5.27
   6   5   2  221.90   13.60
  -6  -5  -2  241.50   15.68
  -6  -5  -2  251.18   13.69
   6   5   2  249.32   15.00
  -6  -5  -3  307.82   18.23
  -6  -5  -3  310.60   16.17
   6   5   3  345.43   18.08
  -6  -5  -4   65.22    8.70
  -6  -5  -4   59.25    9.78
   6   5   4   84.25   10.61
  -6  -5  -5    7.74    5.46
  -6  -5  -5    1.28    6.05
   6   5   5    5.51    6.09
  -6  -5  -6  101.76   11.15
  -6  -5  -6  132.23   13.90
   6   5   6  109.13   12.68
  -6  -5  -7  812.37   33.67
  -6  -5  -7  813.69   31.82
   6   5   7  819.13   32.83
  -6  -5  -8  121.95   14.62
   6   5   8  105.01   13.03
  -6  -5  -8  118.65   13.48
  -6  -5  -9   26.73    8.75
  -6  -5  -9   34.07    8.69
   6   5   9   28.04    9.66
  -6  -5 -10   97.83   13.63
  -6  -5 -10   96.48   13.52
   6   5  10   98.05   14.34
  -6  -6   7   17.23    8.64
   6   6  -7   -1.37    7.47
   6   6  -6   22.67    9.33
  -6  -6   6   21.55    8.72
   6   6  -5   23.73    8.74
  -6  -6   5    9.41    6.45
   6   6  -4   20.63    7.89
  -6  -6   4   22.06    6.03
  -6  -6   4   18.90    7.40
  -6  -6   3  193.07   13.20
  -6  -6   3  195.37   10.80
  -6  -6   3  196.43   14.81
   6   6  -3  200.19   16.91
   6   6  -2    7.19    2.86
   6   6  -2   15.88    7.40
  -6  -6   2    5.28    5.50
  -6  -6   2   20.70    4.72
  -6  -6   2    0.52    5.76
   6   6  -1  116.35   12.77
   6   6  -1  136.18    9.60
  -6  -6   1  130.76   11.61
  -6  -6   1  143.59   11.61
  -6  -6   1  123.14    7.85
   6   6  -1  130.30    8.94
   6   6   0   34.78    8.36
  -6  -6   0   32.54    5.35
  -6  -6   0   19.47    6.89
   6   6   0   36.16    5.73
  -6  -6   0   28.10    6.24
   6   6   0   32.28    5.78
   6   6   0   32.76    5.66
  -6  -6  -1  381.75   20.35
   6   6   1  365.46   15.49
  -6  -6  -1  335.07   15.47
  -6  -6  -1  377.21   16.26
  -6  -6  -1  395.29   16.44
   6   6   1  373.80   17.29
   6   6   1  352.59   20.95
  -6  -6  -2  796.77   29.75
   6   6   2  751.31   23.42
  -6  -6  -2  790.17   25.07
   6   6   2  853.17   27.49
  -6  -6  -3   62.04    8.10
  -6  -6  -3   74.12   10.94
   6   6   3   65.54    7.67
   6   6   3   70.55    9.19
  -6  -6  -4    3.61    4.73
  -6  -6  -4   -0.82    6.82
   6   6   4   11.55    6.07
  -6  -6  -5   64.73    9.47
  -6  -6  -5   67.97   10.17
   6   6   5   71.97   10.50
  -6  -6  -6 1883.95   52.02
  -6  -6  -6 1903.98   48.82
   6   6   6 1863.30   49.65
  -6  -6  -7    4.73    6.07
  -6  -6  -7    3.07    6.32
   6   6   7   -0.85    6.20
  -6  -6  -8   22.92    8.00
  -6  -6  -8   51.30   10.29
   6   6   8   35.26    8.60
  -6  -6  -9   76.12   11.94
  -6  -6  -9   64.66   11.10
   6   6   9   53.94   10.56
  -6  -6 -10  156.75   16.18
  -6  -6 -10  157.44   16.89
   6   6  10  171.75   18.25
  -6  -7   6  213.86   19.80
   6   7  -6  220.84   19.02
   6   7  -5  164.94   16.03
  -6  -7   5  183.62   17.70
  -6  -7   4   13.17    6.18
  -6  -7   4   20.94    8.50
   6   7  -3   84.77   13.03
  -6  -7   3   76.06   10.46
  -6  -7   3   80.17   11.91
  -6  -7   2  318.13   18.84
  -6  -7   2  346.32   20.48
   6   7  -2  347.48   21.90
   6   7  -1   51.87    6.16
   6   7  -1   59.21   10.13
  -6  -7   1   47.49    8.62
  -6  -7   1   57.37    9.87
  -6  -7   0  678.19   27.96
  -6  -7   0  714.71   26.59
  -6  -7   0  705.99   22.50
   6   7   0  706.70   29.39
   6   7   0  729.00   22.97
  -6  -7  -1  228.21   16.98
  -6  -7  -1  233.85   14.51
  -6  -7  -1  249.02   13.79
   6   7   1  230.35   13.81
   6   7   1  266.88   18.38
   6   7   2   23.84    6.57
   6   7   2   11.55    6.50
  -6  -7  -2   30.14    6.65
  -6  -7  -2   25.35    7.59
   6   7   3   49.35    8.36
  -6  -7  -3   70.38    8.92
  -6  -7  -3   60.76   10.15
  -6  -7  -4  369.10   22.56
  -6  -7  -4  367.86   19.87
   6   7   4  369.97   20.30
  -6  -7  -5  894.11   35.61
  -6  -7  -5  909.26   32.28
   6   7   5  864.20   32.44
  -6  -7  -6   49.03    9.44
  -6  -7  -6   47.83   10.33
   6   7   6   71.68   11.54
  -6  -7  -7   21.96    7.92
  -6  -7  -7   13.04    7.39
   6   7   7   19.45    8.62
  -6  -7  -8  206.82   18.44
  -6  -7  -8  258.36   19.25
   6   7   8  213.69   18.57
  -6  -7  -9  422.10   26.37
  -6  -7  -9  380.75   24.25
   6   7   9  355.76   23.89
  -6  -7 -10  337.25   23.87
   6   7  11  109.52   13.64
   6   8  -5   27.08    8.80
   6   8  -4   -2.62    7.67
  -6  -8   4   15.41   10.46
   6   8  -3   97.79   13.15
  -6  -8   3  135.64   13.89
  -6  -8   3  155.77   16.34
  -6  -8   2  278.35   19.22
  -6  -8   2  318.08   21.65
   6   8  -2  300.87   20.38
   6   8  -1  171.92   15.87
  -6  -8   1  168.90   15.54
  -6  -8   1  197.91   16.83
   6   8   0    0.86    6.86
  -6  -8   0    7.79    7.50
  -6  -8   0   10.31    7.91
   6   8   1   -0.10    4.41
   6   8   1   10.35    7.62
  -6  -8  -1   -5.29    7.53
  -6  -8  -1    5.34    4.93
   6   8   2    4.59    4.59
   6   8   2    7.96    6.91
  -6  -8  -2    8.06    6.15
  -6  -8  -2   11.78    5.72
  -6  -8  -3  318.93   21.71
   6   8   3  312.61   18.29
   6   8   3  295.89   19.78
  -6  -8  -3  290.93   17.65
   6   8   4  167.39   14.04
  -6  -8  -4  160.19   15.61
  -6  -8  -4  173.97   14.24
  -6  -8  -5  290.20   21.36
   6   8   5  300.75   19.58
  -6  -8  -5  322.10   20.05
   6   8   6   89.28   12.73
  -6  -8  -6   69.12   11.07
  -6  -8  -6   53.18   10.57
   6   8   7    7.02    7.99
  -6  -8  -7    5.29    6.87
  -6  -8  -7   -0.20    6.48
  -6  -8  -8  326.20   23.99
   6   8   8  337.68   18.72
  -6  -8  -8  327.17   22.36
   6   8   8  314.11   22.50
   6   8   9  488.57   23.73
  -6  -8  -9  485.82   28.15
   6   8   9  510.45   29.03
   6   8  10   15.64    6.86
   6   8  11   -0.49    6.45
   6   9  -3  502.05   26.88
   6   9  -2   24.03    9.92
  -6  -9   2   12.46    8.53
  -6  -9   2    3.15    8.13
   6   9  -1  -12.26    8.66
  -6  -9   1    8.37    7.21
   6   9   0    7.21    6.90
  -6  -9   0   -1.20    7.43
   6   9   1   52.68    9.65
  -6  -9  -1   90.71   12.93
   6   9   2   73.60    9.53
   6   9   2   76.06   11.42
  -6  -9  -2   86.42   13.82
  -6  -9  -2   61.09    8.92
   6   9   3   51.09    8.63
   6   9   3   44.98    9.23
  -6  -9  -3   65.90   11.98
  -6  -9  -3   49.69    8.52
   6   9   4  160.38   14.71
   6   9   4  141.39   14.72
  -6  -9  -4  140.66   15.83
  -6  -9  -4  157.12   14.82
   6   9   5   14.60    8.34
   6   9   5    2.88    7.38
  -6  -9  -5    5.31    8.21
  -6  -9  -5   16.80    8.12
   6   9   6   79.28   12.55
  -6  -9  -6   72.29   13.55
  -6  -9  -6   70.63   11.23
   6   9   7  178.71   17.19
  -6  -9  -7  205.73   20.88
  -6  -9  -7  196.24   17.74
  -6  -9  -8  226.50   19.74
   6   9   8  295.90   21.87
  -6 -10  -3   85.45   12.00
   6  10   4   56.89   10.15
  -6 -10  -4   54.73   11.10
   6  10   5   38.27   10.51
  -6 -10  -5    8.85    7.73
   6  10   6  103.03   13.46
  -6 -10  -6   73.37   12.54
   6  10   7   51.00   10.69
   7  -3  -3  207.86   18.61
   7  -3  -2   35.51    9.45
   7  -2  -4   85.97   11.45
  -7   2   3  215.21   20.26
   7  -2  -3  198.18   16.57
   7  -2  -2    7.25    8.29
  -7   2   2   -2.78    8.40
   7  -2  -1   36.63    9.83
  -7   2   1   51.64   11.84
  -7   2   0  401.20   26.49
   7  -2   0  367.15   24.08
   7  -2   1  110.48   14.82
   7  -1  -9   17.00    8.42
   7  -1  -8   38.24    8.89
   7  -1  -7  368.36   22.52
  -7   1   6  295.65   22.82
   7  -1  -6  247.48   18.26
  -7   1   5  183.74   18.22
   7  -1  -5  187.09   15.76
   7  -1  -4    2.68    5.42
   7  -1  -4   11.62    6.92
  -7   1   4    6.42    9.46
   7  -1  -3   57.52    9.58
   7  -1  -3   79.86    9.85
  -7   1   3   61.48   11.54
  -7   1   2  243.94   20.41
  -7   1   2  220.55   19.13
   7  -1  -2  217.37   16.09
   7  -1  -2  199.32   15.56
   7  -1  -1  122.22   12.50
   7  -1  -1  125.06   13.43
  -7   1   1  113.87   15.39
  -7   1   1  102.23   11.75
  -7   1   1  168.22   17.12
   7  -1   0    5.92    7.09
   7  -1   0    0.81    7.61
  -7   1   0   -3.81    9.61
  -7   1   0    3.69    5.97
   7  -1   1   12.45    7.61
   7  -1   1   26.66   10.45
  -7   1  -1   11.19    7.78
  -7   1  -1   11.42    6.28
   7  -1   2   72.65   12.49
  -7   1  -2   59.26   11.61
  -7   1  -2   77.61   11.97
   7  -1   3   41.91   11.49
  -7   1  -3   47.67   10.79
  -7   1  -3   34.92    9.89
  -7   1  -4  224.87   19.83
   7   0  -9   58.47   10.67
  -7   0   8  256.59   21.70
   7   0  -8  222.89   18.64
   7   0  -7   67.15   11.47
  -7   0   7   47.55   11.67
  -7   0   6  281.94   21.67
   7   0  -6  269.48   19.18
   7   0  -5   39.32    9.33
  -7   0   5   11.12    8.65
  -7   0   4  611.70   30.26
   7   0  -4  566.65   26.58
  -7   0   3  417.65   18.61
  -7   0   3  375.90   23.96
   7   0  -3  412.96   18.99
   7   0  -3  404.03   21.95
   7   0  -2   99.94   12.24
  -7   0   2  113.70   10.93
   7   0  -2  129.09   11.57
  -7   0   2  125.82   14.49
   7   0  -1   -3.05    6.68
   7   0  -1   18.31    6.73
  -7   0   1    0.37    7.38
  -7   0   1    9.59    5.08
  -7   0   1    0.87    8.65
   7   0   0   18.43    8.13
   7   0   0    9.32    6.62
  -7   0   0    4.08    7.36
  -7   0   0    4.91    5.42
   7   0   1   42.83    9.12
  -7   0  -1   39.47    9.48
  -7   0  -1   38.58    8.12
   7   0   2   66.74   11.94
  -7   0  -2   54.96   10.03
  -7   0  -2   34.96    8.47
   7   0   3   49.63    9.95
  -7   0  -3   48.97    9.70
  -7   0  -3   46.80   10.07
  -7   0  -4   26.03    9.07
   7   0   4   57.76   11.60
  -7   0  -4   37.86    9.58
  -7   0  -5   19.24    8.79
   7   0   5    8.71    8.01
  -7   0  -6   99.87   13.40
  -7  -1   9   23.48   10.27
   7   1  -9   35.89    9.72
   7   1  -8   41.93   10.37
  -7  -1   8   36.02   10.75
   7   1  -7   15.34    8.42
  -7  -1   7   16.57    8.83
   7   1  -6    1.41    7.35
  -7  -1   6    3.02    6.89
  -7  -1   5  259.71   20.04
   7   1  -5  240.83   18.17
  -7  -1   4  202.11   17.62
   7   1  -4  169.61   15.09
   7   1  -3   50.39    9.86
   7   1  -3   63.97    7.40
  -7  -1   3   56.14    6.97
  -7  -1   3   52.84   10.22
   7   1  -2   42.07    8.70
   7   1  -2   44.33    6.89
  -7  -1   2   33.86    6.74
  -7  -1   2   36.67    9.74
   7   1  -1   40.20    9.24
   7   1  -1   26.80    5.79
  -7  -1   1   35.55    8.39
  -7  -1   1   40.51    7.50
  -7  -1   1   32.91    8.39
  -7  -1   0  270.67   17.21
  -7  -1   0  244.43   15.98
   7   1   0  255.67   16.02
   7   1   0  268.26   18.99
  -7  -1  -1  868.33   30.68
  -7  -1  -1  815.11   30.57
   7   1   1  837.22   30.48
  -7  -1  -2  136.19   13.11
   7   1   2  160.97   14.70
  -7  -1  -2  122.81   13.08
  -7  -1  -3    0.66    5.51
  -7  -1  -3   -5.59    6.82
  -7  -1  -4    3.77    5.67
   7   1   4    5.87    7.33
  -7  -1  -4   -1.31    6.89
   7   1   4   -5.54    7.36
  -7  -1  -5   71.22   11.04
   7   1   5   47.26   10.33
  -7  -1  -5   45.79   10.20
   7   1   5   55.60   11.23
  -7  -1  -6   92.03   12.45
   7   1   6  116.98   14.15
  -7  -1  -6  100.31   14.09
  -7  -1  -7  283.72   19.96
  -7  -1  -8   40.48   10.15
  -7  -2   9   37.50   11.37
   7   2  -8  163.77   16.56
  -7  -2   8  160.17   17.06
   7   2  -7   21.14    8.42
  -7  -2   7   28.76   10.37
   7   2  -6  131.62   14.80
  -7  -2   6  104.14   13.12
   7   2  -5  132.35   14.02
  -7  -2   5  128.66   14.77
   7   2  -4   10.45    7.54
  -7  -2   4   17.86    8.03
   7   2  -3   61.29   10.87
   7   2  -3   50.12    5.61
  -7  -2   3   50.09    6.42
  -7  -2   3   40.89    8.70
   7   2  -2   -2.65    7.29
   7   2  -2    7.13    3.67
  -7  -2   2   12.16    4.98
  -7  -2   2   21.61    7.98
  -7  -2   1  737.59   25.18
  -7  -2   1  724.45   29.98
   7   2  -1  744.22   23.96
   7   2  -1  703.43   30.16
  -7  -2   0 1214.42   33.02
  -7  -2   0 1144.98   33.51
  -7  -2   0 1168.72   38.29
   7   2   0 1183.76   32.74
   7   2   0 1147.06   38.96
  -7  -2  -1  222.41   14.06
  -7  -2  -1  232.42   15.71
   7   2   1  227.19   15.01
  -7  -2  -2   30.32    6.46
   7   2   2   43.05    8.35
  -7  -2  -2   38.47    8.17
   7   2   2   28.65    8.03
  -7  -2  -3  162.28   12.36
  -7  -2  -3  151.69   14.31
   7   2   3  154.36   13.97
   7   2   3  142.15   14.55
  -7  -2  -4  135.28   11.80
   7   2   4  145.29   14.69
  -7  -2  -4  123.04   13.45
   7   2   4  124.97   14.11
  -7  -2  -5  596.96   24.95
  -7  -2  -5  568.16   28.38
  -7  -2  -5  612.57   28.53
   7   2   5  575.49   28.53
   7   2   5  646.38   30.86
  -7  -2  -6   27.35    7.23
   7   2   6   20.49    7.28
  -7  -2  -6   37.19    8.57
  -7  -2  -6   32.39    8.75
   7   2   6   32.79    9.24
  -7  -2  -7   14.21    7.08
   7   2   7   21.58    7.95
  -7  -2  -7   25.41    8.43
  -7  -2  -7   11.43    6.96
   7   2   7   33.36   10.86
  -7  -2  -8   22.21    7.28
  -7  -3  10  -14.04    9.16
  -7  -3   9   -3.62    8.02
  -7  -3   9   10.89    8.64
   7   3  -8  182.23   18.49
  -7  -3   8  167.12   17.16
  -7  -3   8  179.66   16.77
  -7  -3   7  576.75   28.13
   7   3  -7  638.84   31.48
  -7  -3   6  319.82   21.11
   7   3  -6  321.36   21.97
   7   3  -5  109.19   13.42
  -7  -3   5  112.58   12.83
   7   3  -5   88.82    8.04
   7   3  -4  142.81   15.31
  -7  -3   4  124.24   13.20
   7   3  -4  134.55   10.35
   7   3  -3   60.49   10.93
  -7  -3   3   69.33    6.80
  -7  -3   3   62.27    9.93
   7   3  -3   64.89    7.80
  -7  -3   2  323.97   15.32
  -7  -3   2  297.96   18.39
  -7  -3   2  312.05   14.79
   7   3  -2  323.97   13.04
   7   3  -2  301.03   16.45
   7   3  -2  312.36   21.24
  -7  -3   1  317.69   16.12
  -7  -3   1  287.09   18.02
  -7  -3   1  339.48   13.89
   7   3  -1  326.28   14.49
   7   3  -1  316.87   17.36
   7   3  -1  327.62   21.06
   7   3   0   15.03    9.17
  -7  -3   0    5.31    4.57
   7   3   0    0.63    4.17
  -7  -3   0    8.52    5.14
  -7  -3   0    3.94    3.07
   7   3   0   10.73    6.04
  -7  -3  -1   18.81    4.98
   7   3   1   12.09    5.28
  -7  -3  -1   12.68    6.37
   7   3   1   22.91    7.26
  -7  -3  -2   99.59    8.55
   7   3   2  118.01   11.17
  -7  -3  -2  112.89   11.96
  -7  -3  -2  118.00   11.24
   7   3   2   99.74   11.46
  -7  -3  -3  307.78   14.63
  -7  -3  -3  319.89   19.71
  -7  -3  -3  291.60   17.38
   7   3   3  327.98   19.20
   7   3   3  306.69   19.74
  -7  -3  -4  504.21   19.42
  -7  -3  -4  489.60   25.09
  -7  -3  -4  483.05   23.54
   7   3   4  516.39   26.07
   7   3   4  501.05   24.79
  -7  -3  -5    0.02    4.17
   7   3   5   -2.04    7.83
  -7  -3  -5   -1.34    6.22
  -7  -3  -5   -0.72    5.62
   7   3   5   -6.51    7.98
  -7  -3  -6   97.80    9.32
   7   3   6  123.45   14.51
  -7  -3  -6  108.66   13.18
  -7  -3  -6   98.09   12.20
   7   3   6  121.99   14.32
  -7  -3  -7   83.50    9.71
   7   3   7   85.35   12.50
  -7  -3  -7   95.75   13.96
  -7  -3  -7   99.59   13.20
   7   3   7  102.27   13.51
  -7  -3  -8  278.17   21.34
   7   3   8  252.92   21.43
  -7  -4   9  169.48   16.69
  -7  -4   8  578.77   28.25
  -7  -4   8  577.85   29.68
  -7  -4   7  243.83   18.21
  -7  -4   7  225.27   18.18
   7   4  -7  251.85   20.81
   7   4  -6  119.53   14.94
  -7  -4   6  119.21   12.70
  -7  -4   6  120.88   13.29
   7   4  -5   25.97    8.54
  -7  -4   5   34.17    8.23
  -7  -4   5   48.27    9.10
  -7  -4   4  405.18   21.13
  -7  -4   4  470.64   21.63
   7   4  -4  426.75   15.82
   7   4  -4  457.09   25.57
   7   4  -3  194.56   17.01
  -7  -4   3  252.92   12.81
  -7  -4   3  248.28   16.39
  -7  -4   3  248.21   14.62
   7   4  -3  228.08   12.70
   7   4  -2   52.25    9.75
   7   4  -2   55.72    5.29
  -7  -4   2   63.66    7.48
  -7  -4   2   39.40    8.13
  -7  -4   2   52.92    6.84
   7   4  -2   57.30    7.60
   7   4  -1   31.73    9.00
   7   4  -1   33.36    5.15
  -7  -4   1   39.08    6.70
  -7  -4   1   31.52    7.00
  -7  -4   1   31.71    5.36
   7   4  -1   31.33    6.59
   7   4   0   47.60   10.79
  -7  -4   0   29.75    4.46
   7   4   0   30.26    5.32
  -7  -4   0   30.60    7.05
  -7  -4   0   28.59    5.30
  -7  -4   0   28.74    4.58
   7   4   0   34.31    7.07
   7   4   1  149.07   15.26
  -7  -4  -1  156.57    8.15
  -7  -4  -1  154.91   12.86
  -7  -4  -1  153.59   10.98
  -7  -4  -1  155.52    6.92
   7   4   1  154.70   11.63
   7   4   1  143.94   12.65
  -7  -4  -2  114.80    7.14
  -7  -4  -2  105.71   11.20
  -7  -4  -2  114.87   10.39
   7   4   2  105.60   11.73
  -7  -4  -3   17.83    3.71
  -7  -4  -3   19.39    7.14
  -7  -4  -3   15.36    5.55
   7   4   3   18.61    7.27
  -7  -4  -4   18.49    7.60
  -7  -4  -4   17.04    6.71
   7   4   4   24.70    7.65
  -7  -4  -5  174.71   16.01
  -7  -4  -5  136.10   13.22
   7   4   5  147.80   14.79
  -7  -4  -6  662.81   30.80
  -7  -4  -6  649.62   29.37
   7   4   6  679.06   31.12
  -7  -4  -7  438.00   26.06
  -7  -4  -7  478.76   25.97
   7   4   7  434.10   25.82
  -7  -4  -8  195.28   18.39
   7   4   8  156.10   16.53
  -7  -4  -8  182.74   17.34
   7   4   8  181.84   18.12
  -7  -5   7   14.63    8.10
   7   5  -6   46.92   10.64
  -7  -5   6   54.55    9.42
  -7  -5   6   31.59    8.46
  -7  -5   5  263.82   16.59
  -7  -5   5  230.77   17.32
   7   5  -5  269.03   21.17
  -7  -5   4  251.32   15.74
  -7  -5   4  214.84   15.77
   7   5  -4  231.37   18.97
   7   5  -3   67.07   11.42
  -7  -5   3   50.51    6.75
  -7  -5   3   46.27    7.98
  -7  -5   3   63.16    8.99
   7   5  -2   81.51   12.41
  -7  -5   2   48.56    7.09
  -7  -5   2   56.89    8.39
  -7  -5   2   54.15    7.59
   7   5  -2   52.59    6.87
   7   5  -1   99.41   12.95
  -7  -5   1   98.00    9.88
  -7  -5   1   88.77    8.57
   7   5  -1  102.51    9.39
  -7  -5   0  604.50   24.59
  -7  -5   0  692.39   20.65
  -7  -5   0  646.83   20.13
   7   5   0  665.00   24.16
   7   5   0  660.74   30.21
   7   5   1  151.41   15.84
  -7  -5  -1  138.63   10.21
  -7  -5  -1  118.34   12.02
  -7  -5  -1  149.82    8.49
   7   5   1  133.81   11.71
  -7  -5  -2  149.34   13.46
  -7  -5  -2  149.43   11.42
   7   5   2  166.54   13.69
  -7  -5  -3  155.38   14.50
  -7  -5  -3  159.80   12.64
   7   5   3  182.70   14.68
  -7  -5  -4   51.61    9.34
  -7  -5  -4   58.78    8.84
   7   5   4   39.55    8.18
  -7  -5  -5  362.76   22.42
  -7  -5  -5  336.64   19.85
   7   5   5  308.13   20.40
  -7  -5  -6  227.60   18.44
  -7  -5  -6  238.04   17.47
   7   5   6  222.03   17.90
  -7  -5  -7    4.95    6.99
  -7  -5  -7   13.86    7.10
   7   5   7   -8.32    8.81
  -7  -5  -8    6.58    8.75
  -7  -5  -8   19.06    8.71
   7   5   8  -11.66    7.37
  -7  -5  -9   57.62   11.47
  -7  -6   7    7.33    7.63
  -7  -6   6  238.55   19.46
   7   6  -5   37.13   10.61
  -7  -6   5   46.27   10.02
   7   6  -4   26.84   10.28
  -7  -6   4   35.21    8.61
   7   6  -3    8.19    7.64
  -7  -6   3    6.28    4.55
  -7  -6   3    1.30    5.83
  -7  -6   2  403.98   19.48
  -7  -6   2  377.09   19.38
   7   6  -2  398.10   23.98
  -7  -6   1  375.32   19.84
  -7  -6   1  403.57   18.72
   7   6  -1  390.91   17.03
   7   6  -1  439.90   25.04
  -7  -6   0 1088.38   34.51
  -7  -6   0 1093.99   29.46
   7   6   0 1068.76   30.82
   7   6   0 1065.96   39.01
  -7  -6  -1  211.48   15.72
  -7  -6  -1  225.42   12.80
  -7  -6  -1  241.43   12.68
   7   6   1  218.91   14.28
   7   6   1  220.10   18.15
   7   6   2   39.51    9.39
  -7  -6  -2   36.98    8.67
   7   6   2   35.83    7.62
  -7  -6  -2   38.51    6.37
  -7  -6  -3   35.27    7.02
  -7  -6  -3   28.75    7.81
   7   6   3   51.40    8.65
  -7  -6  -4  221.24   17.59
  -7  -6  -4  254.84   16.33
   7   6   4  232.12   16.99
  -7  -6  -5  238.89   19.05
  -7  -6  -5  237.43   16.80
   7   6   5  195.52   16.24
  -7  -6  -6   19.30    7.29
   7   6   6   24.20    8.16
  -7  -6  -6   29.51    7.83
  -7  -6  -7    9.43    7.55
  -7  -6  -7   25.40    7.80
   7   6   7   28.27    9.36
  -7  -6  -8   31.22    9.35
  -7  -6  -8   50.03    9.78
   7   6   8   59.61   12.02
  -7  -6  -9  289.28   21.99
  -7  -7   5   -4.40    7.29
   7   7  -4   57.60   11.49
  -7  -7   4   50.81   10.97
   7   7  -3   96.72   13.25
  -7  -7   3   92.94   12.67
   7   7  -2   59.54   10.70
  -7  -7   2   69.64   10.05
  -7  -7   2   57.86    9.71
  -7  -7   1  759.35   29.67
  -7  -7   1  750.81   28.02
   7   7  -1  639.55   30.77
   7   7   0   21.84    5.44
   7   7   0   42.99   10.80
  -7  -7   0   29.57    8.00
  -7  -7   0   12.81    5.75
   7   7   1   12.17    7.19
  -7  -7  -1    8.44    6.81
   7   7   1   19.84    5.72
   7   7   2   48.22   10.49
  -7  -7  -2   42.87    7.58
  -7  -7  -2   51.59   10.17
   7   7   2   40.92    7.98
  -7  -7  -3  546.82   27.52
  -7  -7  -3  501.43   22.42
   7   7   3  605.61   26.25
   7   7   3  564.68   29.04
  -7  -7  -4  459.10   25.76
  -7  -7  -4  459.26   22.42
   7   7   4  483.14   24.80
  -7  -7  -5   35.17    8.47
  -7  -7  -5   19.09    7.54
   7   7   5   17.10    7.47
  -7  -7  -6   23.06    7.92
  -7  -7  -6   11.71    8.14
   7   7   6   11.48    7.65
  -7  -7  -7   31.87    9.05
  -7  -7  -7   39.78   10.20
   7   7   7   40.58    9.86
  -7  -7  -8  520.81   30.31
  -7  -7  -8  519.40   28.32
   7   7   8  544.17   29.71
  -7  -8   4   65.45   11.86
   7   8  -3  124.98   15.21
  -7  -8   3  126.74   15.19
   7   8  -2    0.94    7.82
  -7  -8   2   -6.20    6.94
  -7  -8   2  -10.08    7.85
   7   8  -1   76.22   12.11
  -7  -8   1   86.86   12.01
  -7  -8   1   88.29   11.65
   7   8   0    0.18    8.08
  -7  -8   0    4.49    6.78
  -7  -8   0   14.95    7.06
   7   8   1   71.19   12.21
  -7  -8  -1   77.05   11.85
   7   8   2  174.54   17.26
  -7  -8  -2  154.64   15.78
   7   8   2  173.32   13.77
  -7  -8  -3  277.60   20.72
  -7  -8  -3  310.49   17.88
   7   8   3  269.22   18.10
   7   8   3  312.71   22.02
   7   8   4   12.18    7.51
   7   8   4   16.63    9.37
  -7  -8  -4   31.19    7.61
  -7  -8  -4   21.80    9.00
   7   8   5  102.01   12.56
  -7  -8  -5   87.46   11.62
  -7  -8  -5   88.72   13.60
  -7  -8  -6  535.53   29.70
  -7  -8  -6  485.85   26.23
   7   8   6  575.66   29.24
  -7  -8  -7  603.40   32.22
  -7  -8  -7  630.85   30.40
   7   8   7  595.72   30.56
   7   8   8   20.93    9.00
  -7  -8  -8   17.00    8.85
   7   9  -2   11.83    7.21
  -7  -9   2   35.67   10.38
   7   9  -1   88.92   12.69
  -7  -9   1  107.25   14.22
  -7  -9   1  121.91   15.00
   7   9   0  150.25   15.89
  -7  -9   0  173.81   17.11
   7   9   1   20.59    9.55
  -7  -9  -1   11.60    8.37
   7   9   2  -21.69   10.06
  -7  -9  -2   -1.71    7.79
   7   9   3    7.37    6.07
   7   9   3   16.66   10.72
  -7  -9  -3   -6.22    7.89
   7   9   4   83.41   11.88
   7   9   4   70.34   12.06
  -7  -9  -4   79.85   11.08
  -7  -9  -4   92.34   14.66
   7   9   5  158.10   15.77
   7   9   5  176.55   17.70
  -7  -9  -5  201.86   17.41
  -7  -9  -6  178.17   16.53
   7   9   6  223.30   18.93
   7   9   7   26.86    9.10
  -7  -9  -7   17.34    7.32
   7  10   2   -6.33    8.17
   7  10   3   13.74    8.00
   7  10   4   23.17    8.76
   7  10   5   20.58    8.77
   7  10   5   30.57   10.70
  -7 -10  -5   14.50    7.75
   7  10   6    7.79    8.25
   7  10   6    5.66    8.30
  -7 -10  -6   11.76    7.99
   8  -1  -1  143.25   15.31
   8  -1   0   -3.27    8.69
   8   0  -7    0.96    7.48
   8   0  -6  108.20   14.26
   8   0  -5  182.20   17.50
   8   0  -4  122.39   14.07
   8   0  -3   13.58    7.38
   8   0  -2   18.72    8.65
  -8   0   2   26.04   10.25
   8   0  -1    3.75    7.17
   8   0  -1    5.90    6.64
  -8   0   1    2.46    7.72
  -8   0   1    9.91    6.48
  -8   0   0  280.27   21.04
  -8   0   0  294.37   20.41
   8   0   0  300.43   21.02
   8   0   0  286.97   20.79
   8   0   1  216.51   18.91
  -8   0  -1  282.20   21.23
  -8   0  -1  258.09   19.98
   8   0   1  250.14   19.52
   8   0   2   22.90   10.12
   8   0   2   21.68    8.74
  -8   0  -2   23.18    9.47
  -8   0  -2   16.16    6.57
  -8   0  -3   -7.43    7.82
   8   1  -6   40.64   10.00
   8   1  -5  146.52   15.98
  -8  -1   5  169.68   17.18
   8   1  -4   43.71   10.89
  -8  -1   4   29.15   10.45
   8   1  -3   60.05   11.54
  -8  -1   3   72.67   12.21
   8   1  -2   19.08    8.97
  -8  -1   2   -2.87    8.28
  -8  -1   2   -5.05    9.05
  -8  -1   1  962.36   34.98
  -8  -1   1  927.56   32.57
  -8  -1   1  915.44   38.72
   8   1  -1  976.02   32.70
   8   1  -1  949.89   37.29
   8   1   0  105.85   13.87
   8   1   0   88.97   11.24
  -8  -1   0   85.24   11.75
  -8  -1   0  105.28   12.39
   8   1   1  158.70   17.22
  -8  -1  -1  152.56   14.52
  -8  -1  -1  173.07   16.18
   8   1   1  189.15   16.35
   8   1   2   11.33    8.01
  -8  -1  -2   11.61    7.11
  -8  -1  -2    6.98    6.47
  -8  -1  -3   -3.48    7.25
   8   1   3   24.43    8.02
  -8  -1  -3   22.09    9.34
  -8  -1  -4  118.24   13.90
  -8  -2   7  237.29   20.42
   8   2  -6   33.34    8.63
  -8  -2   6   54.97   11.97
   8   2  -5   71.05   12.49
  -8  -2   5   48.69   10.50
   8   2  -4   40.83   10.59
  -8  -2   4   38.84   11.31
   8   2  -3   71.06   12.02
  -8  -2   3   47.20   10.69
  -8  -2   2  399.81   24.90
   8   2  -2  463.14   26.26
   8   2  -1   36.00    9.13
   8   2  -1   32.82    6.73
  -8  -2   1   41.31    8.57
  -8  -2   1   41.35    8.20
  -8  -2   1   33.63    9.42
  -8  -2   0  314.65   18.22
  -8  -2   0  307.89   18.65
   8   2   0  316.22   18.23
   8   2   0  281.94   21.25
   8   2   1   53.29   10.91
  -8  -2  -1   69.18    9.49
   8   2   1   58.47    9.34
  -8  -2  -1   55.74    9.88
   8   2   1   56.06   10.96
  -8  -2  -2  148.14   12.92
   8   2   2  156.91   15.00
  -8  -2  -2  141.45   14.16
   8   2   2  184.18   17.45
  -8  -2  -3  216.40   15.47
  -8  -2  -3  229.29   18.50
   8   2   3  234.53   18.93
   8   2   3  241.90   20.45
   8   2   4   84.09   12.38
  -8  -2  -4   71.95   11.77
   8   2   5   97.30   14.17
  -8  -3   8  340.07   24.39
  -8  -3   8  385.12   24.54
  -8  -3   7   11.14    9.64
  -8  -3   6    1.33    7.91
   8   3  -5   27.90   10.87
  -8  -3   5   55.44   10.61
  -8  -3   4  354.37   22.70
   8   3  -4  327.69   17.79
   8   3  -4  317.48   22.76
   8   3  -3   -6.05    7.48
  -8  -3   3    4.91    7.31
  -8  -3   3    6.78    5.15
   8   3  -3   -8.66    6.10
   8   3  -2    8.78    7.34
  -8  -3   2    2.02    7.22
   8   3  -2   10.67    6.54
   8   3  -1   -1.96    7.81
  -8  -3   1   -1.86    5.28
  -8  -3   1   -6.70    7.90
   8   3  -1  -13.07    7.47
   8   3   0    2.03    8.61
   8   3   0   21.09    5.49
  -8  -3   0   15.71    6.36
   8   3   0    6.77    5.87
  -8  -3  -1  252.41   17.08
   8   3   1  271.49   16.75
   8   3   1  248.98   18.36
   8   3   1  270.35   21.04
  -8  -3  -2  424.54   23.39
   8   3   2  411.63   21.86
   8   3   2  461.64   25.37
   8   3   3   41.90    9.55
  -8  -3  -3   28.35    7.05
   8   3   3   32.33    9.21
   8   3   4   13.54    8.96
  -8  -3  -4    3.47    6.26
   8   3   4   -3.23    8.36
   8   3   5  101.53   13.73
  -8  -3  -5   86.26   12.57
  -8  -3  -5  107.07   13.27
   8   3   5  126.41   16.02
  -8  -3  -6  412.16   25.49
   8   3   6  455.97   27.16
  -8  -4   8    5.17    8.23
  -8  -4   7    3.52    8.03
  -8  -4   7   -8.18    9.04
  -8  -4   6  214.73   17.97
  -8  -4   6  231.79   17.99
  -8  -4   5  411.45   24.01
  -8  -4   5  415.31   22.26
   8   4  -5  425.64   27.05
   8   4  -4   15.85    8.44
  -8  -4   4    9.18    7.62
  -8  -4   4    4.89    5.18
  -8  -4   3   11.67    7.29
  -8  -4   3   12.18    5.02
   8   4  -3    4.90    4.36
   8   4  -2    7.95    8.13
  -8  -4   2    2.87    6.59
   8   4  -2   -2.43    5.19
  -8  -4   1  283.21   16.39
   8   4  -1  279.99   17.49
   8   4  -1  309.52   22.47
  -8  -4   0  317.16   18.54
   8   4   0  329.33   16.44
   8   4   0  294.83   18.40
   8   4   0  287.29   21.92
   8   4   1  172.06   17.48
  -8  -4  -1  169.83   14.42
   8   4   1  175.32   13.42
   8   4   1  201.19   16.37
   8   4   2    4.51    5.20
  -8  -4  -2    8.23    6.15
  -8  -4  -2    7.22    5.22
   8   4   2   11.02    7.61
   8   4   3    2.18    5.94
  -8  -4  -3    6.03    7.11
  -8  -4  -3    7.85    5.45
   8   4   3   -1.44    7.08
   8   4   4  158.87   15.17
  -8  -4  -4  161.94   16.31
  -8  -4  -4  124.68   13.16
   8   4   4  164.01   16.31
  -8  -4  -5  499.85   27.55
  -8  -4  -5  411.75   23.97
   8   4   5  451.07   26.01
   8   4   5  504.99   28.04
  -8  -4  -6  357.76   24.50
  -8  -4  -6  365.66   23.70
   8   4   6  360.45   23.82
  -8  -5   7  210.61   18.57
  -8  -5   6  499.80   26.41
  -8  -5   5    9.36    6.83
  -8  -5   5    8.91    6.61
   8   5  -4   -1.71    7.90
  -8  -5   4    4.16    6.39
  -8  -5   4   20.66    7.45
   8   5  -3   94.47   13.40
  -8  -5   3   84.08   10.74
  -8  -5   3   83.23   10.01
  -8  -5   2  409.15   21.67
   8   5  -2  409.16   25.54
  -8  -5   1  310.51   17.71
   8   5  -1  301.02   17.19
   8   5  -1  344.86   24.06
   8   5   0   64.66   12.26
  -8  -5   0   57.00    9.13
   8   5   0   73.73    9.84
   8   5   1    2.77    7.31
   8   5   1    0.63    5.02
  -8  -5  -1   10.47    5.89
   8   5   1   -3.44    6.85
   8   5   2    3.88    9.35
   8   5   2   -4.35    5.83
  -8  -5  -2    3.41    5.79
  -8  -5  -2    4.59    4.64
   8   5   2    6.93    7.41
  -8  -5  -3   61.05   10.16
  -8  -5  -3   69.51    9.76
   8   5   3   88.08   12.48
  -8  -5  -4   71.20   11.82
  -8  -5  -4   57.39    9.69
   8   5   4   53.26   10.35
  -8  -5  -5   88.98   12.66
  -8  -5  -5   88.23   11.45
   8   5   5  103.13   12.95
  -8  -5  -6   18.91   10.19
  -8  -5  -6   13.91    7.48
   8   5   6   -9.48    8.07
  -8  -5  -7   -1.31    5.82
  -8  -6   6   21.52    8.69
  -8  -6   5   22.41    9.83
  -8  -6   4   37.23    8.55
   8   6  -3  180.26   18.73
  -8  -6   3  145.20   13.31
   8   6  -2  366.93   25.50
   8   6  -1    7.50    8.13
  -8  -6   1   -3.09    5.71
   8   6   0    3.93    6.71
  -8  -6   0    1.91    5.67
   8   6   0   -1.85    5.55
   8   6   1   74.34   13.06
  -8  -6  -1   65.96   10.65
   8   6   1   43.48    8.28
   8   6   2   60.97   11.68
  -8  -6  -2   54.41   10.11
   8   6   2   53.63    8.79
  -8  -6  -3   38.43    8.81
  -8  -6  -3   46.46    7.79
   8   6   3   59.17   10.45
  -8  -6  -4   40.55    9.32
  -8  -6  -4   35.67    8.37
   8   6   4   46.43   10.58
  -8  -6  -5   53.40   11.48
  -8  -6  -5   65.70   10.54
   8   6   5   54.97   11.16
  -8  -6  -6   30.14   10.86
  -8  -6  -6   34.30    8.71
   8   6   6   32.29    9.37
  -8  -6  -7  383.80   24.19
  -8  -7   5    1.94    7.96
  -8  -7   4   57.10   10.61
  -8  -7   3  316.72   20.06
   8   7  -1   22.33    8.76
  -8  -7   1   32.71    8.31
   8   7   0   90.85   13.80
  -8  -7   0   98.91   12.47
  -8  -7  -1  316.70   20.77
   8   7   1  331.90   18.92
   8   7   1  330.81   23.72
   8   7   2  109.52   15.24
  -8  -7  -2  103.09   13.09
   8   7   2  133.30   13.07
   8   7   3   57.97   13.58
  -8  -7  -3   33.40    9.29
   8   7   3   40.98    9.33
  -8  -7  -4   24.75   10.07
  -8  -7  -4   19.88    6.38
   8   7   4   25.14    9.13
  -8  -7  -5   65.82   11.84
  -8  -7  -5   63.81    9.97
   8   7   5   66.96   11.55
  -8  -7  -6  534.91   27.52
   8   7   6  635.68   31.90
  -8  -7  -7   11.81    7.68
  -8  -8   0  556.64   28.34
   8   8   1   43.31   11.24
  -8  -8  -1   27.38    8.40
   8   8   2    2.88    8.27
  -8  -8  -2   -5.04    7.39
   8   8   3    9.46    6.57
   8   8   3    1.55    9.72
  -8  -8  -3   -4.25    7.89
  -8  -8  -4  528.96   29.51
   8   8   4  476.10   25.89
  -8  -8  -5  210.69   16.88
   8   8   5  215.41   19.05
  -8  -8  -6   78.25   11.99
   8   8   6   73.09   11.89
  -8  -8  -7   13.93    6.70
  -8  -9  -1   52.14   11.61
  -8  -9  -2    8.03    8.90
   8   9   5   35.95   10.02
  -9  -2  -1  313.34   21.23
   9   2   2  123.25   14.37
  -9  -2  -2  139.74   15.57
   9   3  -2    9.44    6.61
   9   3  -1  106.25   13.73
   9   3   0  379.04   24.05
  -9  -3  -1   84.30   11.41
   9   3   1  107.53   13.79
  -9  -3  -2   41.31   10.68
   9   3   3    6.83    6.51
  -9  -3  -3    8.98    7.92
  -9  -4   5   10.88    8.00
  -9  -4   4  -10.39    8.48
  -9  -4   3  284.58   21.64
  -9  -4   2  300.75   21.77
   9   4  -1  241.91   18.35
   9   4   0   80.61   12.08
  -9  -4  -1    4.74    5.83
   9   4   1   17.31    8.41
  -9  -4  -2    1.31    6.33
   9   4   2    9.34    7.69
   9   4   3   37.71    9.39
  -9  -4  -3   19.82    8.04
   9   4   4  142.53   15.62
  -9  -5   3  149.36   15.22
   9   5   0   44.56    9.68
  -9  -5  -1  268.91   19.19
   9   5   1  281.49   20.11
  -9  -5  -2   33.39    9.22
   9   5   2   34.76    8.86
   9   5   3  141.70   14.54
  -9  -5  -3  144.53   15.60
   9   5   3  179.09   17.56
   9   5   4   10.75    7.06
  -9  -5  -4   20.91    8.89
   9   5   5    6.47    7.89
  -9  -5  -5   -2.12    6.23
  -9  -6  -1   40.42    9.45
   9   6   1   45.75    9.94
  -9  -6  -2  142.74   15.16
   9   6   2  171.96   16.01
  -9  -6  -3   32.89    9.12
   9   6   3   31.88    8.88
   9   6   4  104.23   13.24
   9   6   4  121.83   14.67
   9   6   5  120.04   14.52
  -9  -7  -1   14.93    7.93
  -9  -7  -2    9.66    8.19
  -9  -7  -3   45.36   10.93
   9   7   3   52.88   10.77
   9   7   4  137.13   15.44
   0   0   0    0.00    0.00
TITL IV in P-1
REM P-1 (#2 in standard setting)
CELL 0.71073   6.969790   7.913022  11.390603  72.3121  89.5748  64.2438
ZERR    1.00   0.000328   0.000370   0.000424   0.0037   0.0034   0.0046
LATT  1
SFAC C H N O S Ni
UNIT 10.00 26.00 4.00 14.00 2.00 1.00
TREF
HKLF 4
END
_computing_structure_solution     'SHELXT 2014/5 (Sheldrick, 2014)'
;
_shelx_hkl_checksum              74693
_shelx_res_file
;
    IV.res created by SHELXL-2014/7
TITL IV.res in P-1
REM Old TITL IV in P-1 #2
REM SHELXT solution in P-1
REM R1 0.059, Rweak 0.006, Alpha 0.032, Orientation as input
REM Formula found by SHELXT: C10 N2 O16 S2 Ni
CELL 0.71073 6.97 7.913 11.391 72.31 89.57 64.2
ZERR 1 0.003 0.003 0.004 0.03 0.03 0.03
LATT 1
SFAC C H N Ni O S
UNIT 10 26 4 1 14 2
EQIV $1 1-X,1-Y,-Z
EQIV $2 2-X,-Y,1-Z
EQIV $3 1-X,2-Y,-Z
EQIV $4 2-X,1-Y,-Z
DFIX 0.84 O1W H1Wa O1W H1Wb O3W H3Wb O3W H3Wa O2W H2Wa O2W H2Wb
L.S. 10
PLAN  20
HTAB O1W O1
HTAB O3W O3_$1
HTAB O2W O1
HTAB O2W O2_$1
HTAB N1 O1
HTAB N2 O3
HTAB N2 O4_$2
HTAB C6 O3W_$3
HTAB O1W O2_$4
HTAB O3W O4_$4
BOND $H
htab 2
LIST 6
MORE -1
CONF
fmap 2
acta 52
OMIT 0 0 1
OMIT -1 2 1
OMIT 0 -2 2
OMIT 3 1 2
OMIT -1 -2 4
REM <olex2.extras>
REM <HklSrc "%.\\IV.hkl">
REM </olex2.extras>
WGHT    0.022000    0.338000
FVAR       0.99565
NI1   4    0.500000    1.000000    0.000000    10.50000    0.01129    0.01018 =
         0.00950   -0.00349    0.00164   -0.00459
O1W   5    0.818012    0.799235    0.066538    11.00000    0.01363    0.01335 =
         0.01445   -0.00271    0.00299   -0.00460
H1WA  2    0.835875    0.686824    0.110005    11.00000   -1.50000
H1WB  2    0.911882    0.782361    0.020599    11.00000   -1.50000
O2W   5    0.402091    0.785503    0.076179    11.00000    0.01560    0.01339 =
         0.01423   -0.00347   -0.00010   -0.00760
H2WA  2    0.503797    0.673800    0.116447    11.00000   -1.50000
H2WB  2    0.322898    0.769403    0.030873    11.00000   -1.50000
O3W   5    0.516338    0.955261   -0.169405    11.00000    0.01414    0.01976 =
         0.01513   -0.00935    0.00416   -0.00908
H3WA  2    0.447789    0.903479   -0.192514    11.00000   -1.50000
H3WB  2    0.638743    0.907579   -0.188906    11.00000   -1.50000
S1    6    0.866788    0.262205    0.198374    11.00000    0.01211    0.01263 =
         0.00994   -0.00423    0.00185   -0.00585
O1    5    0.783669    0.465600    0.208666    11.00000    0.01981    0.01202 =
         0.01569   -0.00479    0.00265   -0.00534
O2    5    0.843332    0.282696    0.065606    11.00000    0.01828    0.02593 =
         0.01118   -0.00786    0.00318   -0.01255
O3    5    0.741945    0.165732    0.267696    11.00000    0.01618    0.02003 =
         0.01493   -0.00613    0.00379   -0.01134
O4    5    1.095232    0.146919    0.253888    11.00000    0.01300    0.01681 =
         0.01415   -0.00432    0.00155   -0.00672
N1    3    0.745273    0.510966    0.439407    11.00000    0.01528    0.01583 =
         0.01136   -0.00439    0.00110   -0.00583
AFIX  43
H1    2    0.742798    0.500037    0.366656    11.00000   -1.20000
AFIX   0
C2    1    0.779892    0.351347    0.539792    11.00000    0.01014    0.01651 =
         0.01439   -0.00546    0.00236   -0.00517
N2    3    0.807688    0.183064    0.523495    11.00000    0.02235    0.01784 =
         0.01289   -0.00497    0.00308   -0.00947
AFIX  93
H2A   2    0.803505    0.176763    0.449569    11.00000   -1.20000
H2B   2    0.829837    0.080595    0.586887    11.00000   -1.20000
AFIX   0
C3    1    0.786452    0.370107    0.659293    11.00000    0.01631    0.02155 =
         0.01181   -0.00427    0.00263   -0.00792
AFIX  43
H3    2    0.812368    0.262464    0.730535    11.00000   -1.20000
AFIX   0
C4    1    0.754072    0.549134    0.668507    11.00000    0.01528    0.02754 =
         0.01853   -0.01325    0.00156   -0.00746
AFIX  43
H4    2    0.756664    0.563010    0.746594    11.00000   -1.20000
AFIX   0
C5    1    0.717012    0.711909    0.561334    11.00000    0.01658    0.01835 =
         0.02856   -0.01083    0.00001   -0.00664
AFIX  43
H5    2    0.694935    0.833194    0.567858    11.00000   -1.20000
AFIX   0
C6    1    0.714033    0.688955    0.448459    11.00000    0.01486    0.01431 =
         0.02244   -0.00403   -0.00053   -0.00462
AFIX  43
H6    2    0.690578    0.795020    0.376702    11.00000   -1.20000
AFIX   0
HKLF 4
REM  IV.res in P-1
REM R1 =  0.0260 for    2341 Fo > 4sig(Fo)  and  0.0330 for all    2662 data
REM    160 parameters refined using      6 restraints
END
WGHT      0.0225      0.3383
REM Instructions for potential hydrogen bonds
HTAB O1W O1
HTAB O1W S1_$4
HTAB O1W O2_$4
HTAB O2W S1
HTAB O2W O1
HTAB O2W O2_$1
HTAB O3W S1_$1
HTAB O3W O3_$1
HTAB O3W O4_$4
HTAB N1 S1
HTAB N1 O1
HTAB N2 S1
HTAB N2 O3
HTAB N2 S1_$2
HTAB N2 O4_$2
EQIV $5 -x+2, -y+1, -z+1
HTAB C5 O4_$5
HTAB C6 O3W_$3
REM Highest difference peak  0.309,  deepest hole -0.438,  1-sigma level  0.063
Q1    1   0.7521  0.2418  0.2154  11.00000  0.05    0.31
Q2    1   0.3634  0.9929 -0.0058  11.00000  0.05    0.31
Q3    1   0.9965  0.1770  0.5212  11.00000  0.05    0.30
Q4    1   0.7996  0.4171  0.4932  11.00000  0.05    0.27
Q5    1   0.6909  0.6339  0.6043  11.00000  0.05    0.27
Q6    1   0.9940  0.2127  0.2317  11.00000  0.05    0.27
Q7    1   0.7959  0.3751  0.5983  11.00000  0.05    0.26
Q8    1   0.8564  0.1285  0.2541  11.00000  0.05    0.25
Q9    1   0.6437  0.1630  0.2253  11.00000  0.05    0.25
Q10   1   1.1471  0.1937  0.2603  11.00000  0.05    0.24
Q11   1   0.7689  0.6143  0.6112  11.00000  0.05    0.24
Q12   1   0.8293  0.1880  0.2432  11.00000  0.05    0.23
Q13   1   0.7498  0.0986  0.2575  11.00000  0.05    0.22
Q14   1   0.7797  0.4485  0.2607  11.00000  0.05    0.21
Q15   1   0.7355  0.1860  0.4428  11.00000  0.05    0.20
Q16   1   0.8310  0.3678  0.2062  11.00000  0.05    0.20
Q17   1   0.7352  0.1692  0.2988  11.00000  0.05    0.20
Q18   1   0.7079  0.7667  0.3234  11.00000  0.05    0.20
Q19   1   1.0432  0.2936  0.6990  11.00000  0.05    0.20
Q20   1   0.5304  0.8241 -0.1035  11.00000  0.05    0.20
;
_shelx_res_checksum              63813
loop_
_space_group_symop_operation_xyz
'x, y, z'
'-x, -y, -z'
loop_
_atom_site_type_symbol
_atom_site_label
_atom_site_fract_x
_atom_site_fract_y
_atom_site_fract_z
_atom_site_U_iso_or_equiv
_atom_site_adp_type
_atom_site_calc_flag
_atom_site_occupancy
Ni Ni1 0.5000 1.0000 0.0000 0.01038(8) Uani d 1
O O1W 0.81801(19) 0.79924(18) 0.06654(11) 0.0149(2) Uani d 1
H H1WA 0.836(3) 0.687(2) 0.1100(18) 0.022 Uiso d 1
H H1WB 0.912(3) 0.782(3) 0.0206(18) 0.022 Uiso d 1
O O2W 0.40209(19) 0.78550(17) 0.07618(11) 0.0143(2) Uani d 1
H H2WA 0.504(3) 0.674(2) 0.1164(18) 0.021 Uiso d 1
H H2WB 0.323(3) 0.769(3) 0.0309(18) 0.021 Uiso d 1
O O3W 0.51634(19) 0.95526(18) -0.16941(11) 0.0149(2) Uani d 1
H H3WA 0.448(3) 0.903(3) -0.1925(19) 0.022 Uiso d 1
H H3WB 0.639(3) 0.908(3) -0.1889(19) 0.022 Uiso d 1
S S1 0.86679(6) 0.26220(6) 0.19837(3) 0.01136(9) Uani d 1
O O1 0.78367(19) 0.46560(17) 0.20867(11) 0.0165(2) Uani d 1
O O2 0.84333(19) 0.28270(18) 0.06561(10) 0.0171(2) Uani d 1
O O3 0.74195(18) 0.16573(17) 0.26770(11) 0.0158(2) Uani d 1
O O4 1.09523(18) 0.14692(17) 0.25389(10) 0.0149(2) Uani d 1
N N1 0.7453(2) 0.5110(2) 0.43941(13) 0.0147(3) Uani d 1
H H1 0.7428 0.5000 0.3667 0.018 Uiso calc 1
C C2 0.7799(3) 0.3513(2) 0.53979(15) 0.0139(3) Uani d 1
N N2 0.8077(2) 0.1831(2) 0.52350(13) 0.0176(3) Uani d 1
H H2A 0.8035 0.1768 0.4496 0.021 Uiso calc 1
H H2B 0.8298 0.0806 0.5869 0.021 Uiso calc 1
C C3 0.7865(3) 0.3701(3) 0.65929(15) 0.0172(3) Uani d 1
H H3 0.8124 0.2625 0.7305 0.021 Uiso calc 1
C C4 0.7541(3) 0.5491(3) 0.66851(17) 0.0199(4) Uani d 1
H H4 0.7567 0.5630 0.7466 0.024 Uiso calc 1
C C5 0.7170(3) 0.7119(3) 0.56133(17) 0.0209(4) Uani d 1
H H5 0.6949 0.8332 0.5679 0.025 Uiso calc 1
C C6 0.7140(3) 0.6890(3) 0.44846(17) 0.0185(3) Uani d 1
H H6 0.6906 0.7950 0.3767 0.022 Uiso calc 1
loop_
_atom_site_aniso_label
_atom_site_aniso_U_11
_atom_site_aniso_U_22
_atom_site_aniso_U_33
_atom_site_aniso_U_12
_atom_site_aniso_U_13
_atom_site_aniso_U_23
Ni1 0.01129(15) 0.01018(15) 0.00950(14) -0.00459(12) 0.00164(10) -0.00349(11)
O1W 0.0136(6) 0.0133(6) 0.0144(6) -0.0046(5) 0.0030(5) -0.0027(5)
O2W 0.0156(6) 0.0134(6) 0.0142(6) -0.0076(5) -0.0001(5) -0.0035(5)
O3W 0.0141(6) 0.0198(6) 0.0151(6) -0.0091(5) 0.0042(5) -0.0093(5)
S1 0.01211(19) 0.01263(19) 0.00994(18) -0.00585(16) 0.00185(14) -0.00423(14)
O1 0.0198(6) 0.0120(6) 0.0157(6) -0.0053(5) 0.0027(5) -0.0048(5)
O2 0.0183(6) 0.0259(7) 0.0112(5) -0.0125(5) 0.0032(4) -0.0079(5)
O3 0.0162(6) 0.0200(6) 0.0149(6) -0.0113(5) 0.0038(5) -0.0061(5)
O4 0.0130(6) 0.0168(6) 0.0142(5) -0.0067(5) 0.0015(4) -0.0043(5)
N1 0.0153(7) 0.0158(7) 0.0114(6) -0.0058(6) 0.0011(5) -0.0044(5)
C2 0.0101(7) 0.0165(8) 0.0144(7) -0.0052(6) 0.0024(6) -0.0055(6)
N2 0.0224(7) 0.0178(7) 0.0129(7) -0.0095(6) 0.0031(6) -0.0050(6)
C3 0.0163(8) 0.0216(9) 0.0118(7) -0.0079(7) 0.0026(6) -0.0043(7)
C4 0.0153(8) 0.0275(10) 0.0185(8) -0.0075(7) 0.0016(7) -0.0132(7)
C5 0.0166(8) 0.0183(9) 0.0286(9) -0.0066(7) 0.0000(7) -0.0108(7)
C6 0.0149(8) 0.0143(8) 0.0224(9) -0.0046(7) -0.0005(7) -0.0040(7)
loop_
_atom_type_symbol
_atom_type_description
_atom_type_scat_dispersion_real
_atom_type_scat_dispersion_imag
_atom_type_scat_source
C C 0.0033 0.0016 'International Tables Vol C Tables 4.2.6.8 and 6.1.1.4'
H H 0.0000 0.0000 'International Tables Vol C Tables 4.2.6.8 and 6.1.1.4'
N N 0.0061 0.0033 'International Tables Vol C Tables 4.2.6.8 and 6.1.1.4'
Ni Ni 0.3393 1.1124 'International Tables Vol C Tables 4.2.6.8 and 6.1.1.4'
O O 0.0106 0.0060 'International Tables Vol C Tables 4.2.6.8 and 6.1.1.4'
S S 0.1246 0.1234 'International Tables Vol C Tables 4.2.6.8 and 6.1.1.4'
loop_
_exptl_crystal_face_index_h
_exptl_crystal_face_index_k
_exptl_crystal_face_index_l
_exptl_crystal_face_perp_dist
3 5 4 0.0639
1 1 -5 0.0869
-1 -2 5 0.0444
-3 -5 -5 0.0512
5 3 1 0.0509
-3 4 5 0.0623
-5 -3 -2 0.0427
2 -2 -5 0.0504
2 -5 0 0.0543
0 1 -5 0.0847
-1 -1 -5 0.0774
0 1 1 0.0591
4 0 -5 0.0674
-4 6 -3 0.0842
-4 -11 -9 0.0476
-4 -11 -2 0.0411
-6 -10 2 0.0410
loop_
_geom_angle_atom_site_label_1
_geom_angle_atom_site_label_2
_geom_angle_atom_site_label_3
_geom_angle_site_symmetry_1
_geom_angle_site_symmetry_3
_geom_angle
_geom_angle_publ_flag
O1W Ni1 O1W 2_675 . 180.0 n
O2W Ni1 O1W . . 91.67(6) y
O2W Ni1 O1W 2_675 2_675 91.67(6) n
O2W Ni1 O1W 2_675 . 88.33(6) y
O2W Ni1 O1W . 2_675 88.33(6) n
O2W Ni1 O2W 2_675 . 180.0 n
O2W Ni1 O3W . 2_675 87.04(5) y
O2W Ni1 O3W 2_675 . 87.04(5) n
O2W Ni1 O3W 2_675 2_675 92.96(5) n
O2W Ni1 O3W . . 92.96(5) y
O3W Ni1 O1W . . 93.37(6) y
O3W Ni1 O1W 2_675 2_675 93.37(6) n
O3W Ni1 O1W . 2_675 86.63(6) y
O3W Ni1 O1W 2_675 . 86.63(6) n
O3W Ni1 O3W 2_675 . 180.000(10) n
Ni1 O1W H1WA . . 113.6(14) ?
Ni1 O1W H1WB . . 122.0(15) ?
H1WA O1W H1WB . . 107(2) ?
Ni1 O2W H2WA . . 113.4(14) ?
Ni1 O2W H2WB . . 118.8(14) ?
H2WA O2W H2WB . . 109(2) ?
Ni1 O3W H3WA . . 122.5(14) ?
Ni1 O3W H3WB . . 115.8(15) ?
H3WA O3W H3WB . . 108(2) ?
O2 S1 O1 . . 108.62(8) ?
O3 S1 O1 . . 108.37(7) ?
O3 S1 O2 . . 111.20(7) ?
O3 S1 O4 . . 109.79(8) ?
O4 S1 O1 . . 108.40(7) ?
O4 S1 O2 . . 110.39(8) ?
C2 N1 H1 . . 118.6 ?
C2 N1 C6 . . 122.79(15) ?
C6 N1 H1 . . 118.6 ?
N1 C2 C3 . . 118.16(15) ?
N2 C2 N1 . . 119.33(15) ?
N2 C2 C3 . . 122.50(15) ?
C2 N2 H2A . . 120.0 ?
C2 N2 H2B . . 120.0 ?
H2A N2 H2B . . 120.0 ?
C2 C3 H3 . . 120.4 ?
C4 C3 C2 . . 119.10(16) ?
C4 C3 H3 . . 120.4 ?
C3 C4 H4 . . 119.6 ?
C3 C4 C5 . . 120.78(16) ?
C5 C4 H4 . . 119.6 ?
C4 C5 H5 . . 120.6 ?
C6 C5 C4 . . 118.80(17) ?
C6 C5 H5 . . 120.6 ?
N1 C6 H6 . . 119.8 ?
C5 C6 N1 . . 120.34(16) ?
C5 C6 H6 . . 119.8 ?
loop_
_geom_bond_atom_site_label_1
_geom_bond_atom_site_label_2
_geom_bond_site_symmetry_2
_geom_bond_distance
_geom_bond_publ_flag
Ni1 O1W . 2.0590(17) y
Ni1 O1W 2_675 2.0590(17) ?
Ni1 O2W 2_675 2.0503(14) ?
Ni1 O2W . 2.0503(13) y
Ni1 O3W . 2.0588(13) y
Ni1 O3W 2_675 2.0588(13) ?
O1W H1WA . 0.830(15) ?
O1W H1WB . 0.825(15) ?
O2W H2WA . 0.841(15) ?
O2W H2WB . 0.832(15) ?
O3W H3WA . 0.839(15) ?
O3W H3WB . 0.829(15) ?
S1 O1 . 1.4973(13) ?
S1 O2 . 1.4737(13) ?
S1 O3 . 1.4714(13) ?
S1 O4 . 1.4722(14) ?
N1 H1 . 0.8600 ?
N1 C2 . 1.350(2) ?
N1 C6 . 1.365(2) ?
C2 N2 . 1.331(2) ?
C2 C3 . 1.417(2) ?
N2 H2A . 0.8600 ?
N2 H2B . 0.8600 ?
C3 H3 . 0.9300 ?
C3 C4 . 1.371(3) ?
C4 H4 . 0.9300 ?
C4 C5 . 1.406(3) ?
C5 H5 . 0.9300 ?
C5 C6 . 1.354(3) ?
C6 H6 . 0.9300 ?
loop_
_geom_hbond_atom_site_label_D
_geom_hbond_atom_site_label_H
_geom_hbond_atom_site_label_A
_geom_hbond_site_symmetry_A
_geom_hbond_distance_DH
_geom_hbond_distance_HA
_geom_hbond_distance_DA
_geom_hbond_angle_DHA
O1W H1WA O1 . 0.830(15) 1.953(16) 2.756(2) 163(2)
O1W H1WB O2 2_765 0.825(15) 1.913(16) 2.732(2) 172(2)
O2W H2WA O1 . 0.841(15) 1.951(16) 2.764(2) 162(2)
O2W H2WB O2 2_665 0.832(15) 1.852(16) 2.6834(18) 177(2)
O3W H3WA O3 2_665 0.839(15) 1.927(16) 2.7556(18) 169(2)
O3W H3WB O4 2_765 0.829(15) 1.910(16) 2.727(2) 168(2)
N1 H1 O1 . 0.86 1.90 2.755(2) 171.1
N2 H2A O3 . 0.86 2.15 3.006(2) 170.8
N2 H2B O4 2_756 0.86 2.00 2.858(2) 172.3
C6 H6 O3W 2_675 0.93 2.51 3.363(3) 152.8
loop_
_geom_torsion_atom_site_label_1
_geom_torsion_atom_site_label_2
_geom_torsion_atom_site_label_3
_geom_torsion_atom_site_label_4
_geom_torsion
N1 C2 C3 C4 1.1(2)
C2 N1 C6 C5 0.1(2)
C2 C3 C4 C5 -0.7(2)
N2 C2 C3 C4 -179.32(15)
C3 C4 C5 C6 -0.1(3)
C4 C5 C6 N1 0.4(3)
C6 N1 C2 N2 179.58(15)
C6 N1 C2 C3 -0.8(2)
