#------------------------------------------------------------------------------
#$Date: 2017-07-25 12:09:04 +0300 (Tue, 25 Jul 2017) $
#$Revision: 199097 $
#$URL: file:///home/coder/svn-repositories/cod/cif/2/02/08/2020814.cif $
#------------------------------------------------------------------------------
#
# This file is available in the Crystallography Open Database (COD),
# http://www.crystallography.net/. The original data for this entry
# were provided by IUCr Journals, http://journals.iucr.org/.
#
# The file may be used within the scientific community so long as
# proper attribution is given to the journal article from which the
# data were obtained.
#
data_2020814
loop_
_publ_author_name
'\.Zes\/lawska, Ewa'
'Jakubowska, Anna'
'Nitek, Wojciech'
_publ_section_title
;
 Conformational study of the 3,6-dihydro-2<i>H</i>-1,4-oxazin-2-one
 fragment in
 8-<i>tert</i>-butyl-7-methoxy-8-methyl-9-oxa-6-azaspiro[4.5]decane-2,10-dione
 stereoisomers
;
_journal_coeditor_code           FN3237
_journal_issue                   7
_journal_name_full               'Acta Crystallographica Section C'
_journal_page_first              556
_journal_page_last               562
_journal_paper_doi               10.1107/S2053229617009068
_journal_volume                  73
_journal_year                    2017
_chemical_formula_moiety         'C14 H21 N O4'
_chemical_formula_sum            'C14 H21 N O4'
_chemical_formula_weight         267.32
_chemical_name_systematic
(5<i>S</i>,8<i>R</i>)-8-<i>tert</i>-Butyl-7-methoxy-8-methyl-9-oxa-6-azaspiro[4.5]decane-2,10-dione
_space_group_IT_number           4
_symmetry_cell_setting           monoclinic
_symmetry_space_group_name_Hall  'P 2yb'
_symmetry_space_group_name_H-M   'P 1 21 1'
_atom_sites_solution_hydrogens   geom
_audit_creation_method           'WinGX routine CIF_UPDATE'
_cell_angle_alpha                90
_cell_angle_beta                 100.243(3)
_cell_angle_gamma                90
_cell_formula_units_Z            2
_cell_length_a                   8.7007(3)
_cell_length_b                   6.3466(2)
_cell_length_c                   13.3458(4)
_cell_measurement_reflns_used    2829
_cell_measurement_temperature    293(2)
_cell_measurement_theta_max      28.5367
_cell_measurement_theta_min      3.0625
_cell_volume                     725.21(4)
_computing_cell_refinement
;
CrysAlis PRO (Agilent, 2014)
;
_computing_data_collection
;
CrysAlis PRO (Agilent, 2014)
;
_computing_data_reduction
;
CrysAlis PRO (Agilent, 2014)
;
_computing_molecular_graphics
;
ORTEP-3 (Farrugia, 2012) and Mercury (Macrae <i>et al.</i>,
2006)
;
_computing_publication_material
;
publCIF (Westrip, 2010)
;
_computing_structure_refinement
;
SIR97 (Altomare <i>et al.</i>,  1999), SHELXL97 (Sheldrick,
2008) and
SHELXL2014 (Sheldrick, 2015)
;
_diffrn_ambient_temperature      293(2)
_diffrn_detector_area_resol_mean 10.3756
_diffrn_measured_fraction_theta_full 0.998
_diffrn_measured_fraction_theta_max 0.952
_diffrn_measurement_device       'four-circle diffractometer'
_diffrn_measurement_device_type
;
Rigaku Oxford Diffraction SuperNova Dual Source diffractometer with an
Atlas detector
;
_diffrn_measurement_method       '\w scans'
_diffrn_radiation_monochromator  mirror
_diffrn_radiation_type           MoK\a
_diffrn_radiation_wavelength     0.71073
_diffrn_reflns_av_R_equivalents  0.0329
_diffrn_reflns_limit_h_max       11
_diffrn_reflns_limit_h_min       -11
_diffrn_reflns_limit_k_max       8
_diffrn_reflns_limit_k_min       -8
_diffrn_reflns_limit_l_max       17
_diffrn_reflns_limit_l_min       -17
_diffrn_reflns_number            9804
_diffrn_reflns_theta_full        25.242
_diffrn_reflns_theta_max         28.537
_diffrn_reflns_theta_min         3.062
_exptl_absorpt_coefficient_mu    0.089
_exptl_absorpt_correction_T_max  1
_exptl_absorpt_correction_T_min  0.80028
_exptl_absorpt_correction_type   multi-scan
_exptl_absorpt_process_details
;
(CrysAlis PRO; Agilent, 2014)
;
_exptl_crystal_colour            colourless
_exptl_crystal_density_diffrn    1.224
_exptl_crystal_description       block
_exptl_crystal_F_000             288
_exptl_crystal_size_max          0.34
_exptl_crystal_size_mid          0.27
_exptl_crystal_size_min          0.1
_refine_diff_density_max         0.124
_refine_diff_density_min         -0.15
_refine_ls_abs_structure_details
;
Flack <i>x</i> determined using 774 quotients [(I+)-(I-)]/[(I+)+(I-)]
(Parsons & Flack, 2004)
;
_refine_ls_abs_structure_Flack   -0.5(6)
_refine_ls_extinction_method     none
_refine_ls_goodness_of_fit_ref   1.074
_refine_ls_hydrogen_treatment    constr
_refine_ls_matrix_type           full
_refine_ls_number_parameters     172
_refine_ls_number_reflns         3396
_refine_ls_number_restraints     1
_refine_ls_restrained_S_all      1.073
_refine_ls_R_factor_all          0.0881
_refine_ls_R_factor_gt           0.0522
_refine_ls_shift/su_max          0
_refine_ls_shift/su_mean         0
_refine_ls_structure_factor_coef Fsqd
_refine_ls_weighting_details
'w=1/[\s^2^(Fo^2^)+(0.0485P)^2^+0.0692P] where P=(Fo^2^+2Fc^2^)/3'
_refine_ls_weighting_scheme      calc
_refine_ls_wR_factor_gt          0.1094
_refine_ls_wR_factor_ref         0.1272
_reflns_number_gt                2235
_reflns_number_total             3396
_reflns_threshold_expression     'I > 2\s(I)'
_cod_data_source_file            fn3237sup1.cif
_cod_data_source_block           2
_cod_original_sg_symbol_H-M      'P 21'
_cod_database_code               2020814
_shelx_estimated_absorpt_t_min   0.97
_shelx_estimated_absorpt_t_max   0.991
_shelx_hkl_file
;
   0   0   2 418026. 2521.50   5
   0   0  -3 15812.4 737.492   4
   0   0   3 14673.8 471.172   1
   0   0  -3 15082.3 617.136   6
   0   0   3 15259.5 596.582   5
   0   0  -4 9336.54 667.085   4
   0   0   4 7919.93 504.263   5
   0   0  -4 8887.13 553.590   6
   0   0   4 8715.08 427.350   1
   0   0  -4 9433.25 446.378   1
   0   0   5 1260.65 245.012   5
   0   0  -5 1641.65 225.375   1
   0   0   5 1551.24 233.030   1
   0   0  -5 2063.18 325.669   6
   0   0  -5 1900.73 359.839   4
   0   0   6 91574.2 2094.72   5
   0   0  -6 92843.2 2166.91   6
   0   0  -6 93377.4 2572.73   4
   0   0   6 92861.6 1704.94   1
   0   0   7 66273.3 1945.79   5
   0   0   7 70448.5 1608.68   1
   0   0  -7 65757.5 1954.31   6
   0   0   7 67804.1 1333.73   7
   0   0  -7 65691.2 2334.30   4
   0   0   8 515.004 254.324   5
   0   0   8 213.051 204.785   1
   0   0  -8 1273.87 334.280   6
   0   0  -8 803.534 350.441   4
   0   0   8 439.104 171.014   7
   0   0   9 714.130 272.507   5
   0   0   9 741.044 190.470   7
   0   0  -9 822.871 368.305   4
   0   0   9 1052.59 268.057   1
   0   0  -9 992.485 357.889   6
   0   0  10 2108.35 469.923   5
   0   0  10 1917.20 257.580   7
   0   0  10 1885.19 377.225   1
   0   0 -10 1457.48 591.519   4
   0   0 -10 1555.70 373.780   6
   0   0 -11 127.910 167.607   6
   0   0 -11-105.548 306.616   4
   0   0  11 448.159 321.198   5
   0   0  11-18.0853 252.398   1
   0   0 -12 535.026 401.457   6
   0   0  12 1294.38 503.223   5
   0   0  12 555.989 315.042   1
   0   0 -12 654.181 494.427   4
   0   0  13 1456.53 391.938   1
   0   0 -13 1529.84 694.017   4
   0   0 -13 536.846 279.322   6
   0   0  13 1749.31 554.125   5
   0   0  14 1594.42 532.833   5
   0   0 -14 1747.64 579.077   6
   0   0  14 1771.92 476.995   1
   0   0 -14 2775.60 729.922   4
   0   0 -15 541.377 540.813   4
   0   0  15 862.702 314.728   1
   0   0  15 644.397 534.669   5
   0   0  16 267.671 538.266   5
   0   0 -16-97.5187 493.680   4
   0   0  17 870.590 434.790   5
   0  -1   0-8.76243 80.9081   6
   0   1   0-33.7482 69.6926   3
   0   1   1 987200. 4403.67   1
   0   1   1 999999. 4273.43   7
   0   1   1 966202. 4649.89   8
   0  -1  -1 973261. 4843.79   6
   0   1  -1 971640. 4675.33   7
   0   1   1 940542. 4333.37   5
   0   1   2 369420. 3121.81   5
   0  -1   2 376311. 3144.16   1
   0   1   2 369607. 2732.34   1
   0   1  -2 371933. 3116.45   4
   0   1  -2 372889. 3020.56   7
   0  -1  -2 373308. 3476.78   6
   0   1  -2 365339. 2978.36   2
   0  -1   2 374857. 2147.57   5
   0   1   2 373859. 2503.70   7
   0  -1  -2 372743. 2742.37   4
   0   1   3 265778. 2052.23   7
   0  -1   3 263520. 2188.17   5
   0   1  -3 259606. 3107.30   4
   0  -1   3 258209. 2770.45   1
   0   1   3 261915. 2992.32   5
   0   1  -3 263716. 2687.82   7
   0  -1  -3 258833. 3255.02   6
   0   1   3 260622. 2428.49   1
   0   1  -3 259211. 2177.46   5
   0   1  -3 250114. 2881.56   2
   0  -1  -3 260006. 2386.81   1
   0  -1  -3 259296. 2847.11   4
   0   1  -4 52512.7 1616.56   4
   0  -1   4 49786.4 1280.21   7
   0   1   4 51143.3 1512.06   4
   0  -1   4 52866.0 1154.25   5
   0  -1  -4 55563.9 1174.80   1
   0   1  -4 51841.2 1390.90   1
   0  -1  -4 52056.1 1504.01   4
   0   1   4 51815.3 1206.16   1
   0   1   4 55558.8 1531.89   5
   0  -1   4 53814.6 1300.69   1
   0  -1  -4 54401.1 1644.46   6
   0   1  -4 51837.8 1138.05   5
   0  -1   5 70143.7 1528.75   5
   0  -1   5 68117.0 1573.47   7
   0   1  -5 70372.6 1335.49   6
   0  -1  -5 74581.3 1434.76   1
   0  -1   5 69852.7 1566.58   1
   0   1  -5 71550.0 1504.84   5
   0  -1  -5 69413.7 2003.79   6
   0  -1  -5 67634.9 1944.93   4
   0   1  -5 74684.2 2152.71   4
   0   1   5 72116.2 1550.19   1
   0   1   5 69992.7 1873.34   5
   0   1   6 69715.6 2029.51   5
   0  -1  -6 70574.1 2173.49   6
   0  -1   6 72080.5 1658.66   1
   0   1  -6 68088.0 1628.73   5
   0  -1   6 67142.4 1648.85   7
   0   1  -6 68351.8 1504.22   6
   0  -1   6 74385.2 1733.85   5
   0   1   6 73204.8 1702.41   1
   0  -1  -6 69357.9 2150.58   4
   0   1  -6 69824.7 2273.30   4
   0  -1  -7 9194.92 874.155   6
   0   1  -7 8539.05 600.842   6
   0   1   7 10120.9 688.853   1
   0  -1  -7 9294.09 878.754   4
   0  -1   7 9356.11 640.194   1
   0   1  -7 10241.5 965.106   4
   0  -1   7 7910.09 634.056   5
   0   1   7 9534.50 818.894   5
   0  -1   7 8055.60 611.503   7
   0   1  -8 19711.3 987.541   6
   0  -1   8 20053.6 976.483   1
   0   1  -8 18235.4 1363.91   4
   0  -1  -8 19691.7 1295.04   6
   0   1   8 19543.6 1255.25   5
   0  -1  -8 19979.4 1370.72   4
   0   1   8 19862.6 1023.93   1
   0  -1   8 21546.6 1125.35   5
   0  -1   9 8232.23 676.848   1
   0   1  -9 7211.19 664.212   6
   0   1  -9 7835.85 997.607   4
   0  -1   9 8438.09 784.029   5
   0   1   9 8195.90 707.290   1
   0   1   9 6088.81 762.568   5
   0  -1  -9 7162.36 854.296   6
   0  -1  -9 7420.28 901.770   4
   0  -1 -10 2230.64 531.656   6
   0  -1  10 2633.38 518.138   5
   0  -1 -10 1254.68 441.445   4
   0   1 -10 2779.96 626.443   4
   0   1  10 2281.56 400.647   1
   0   1 -10 2661.40 450.527   6
   0  -1  10 2528.57 411.132   1
   0   1  10 1667.07 473.389   5
   0   1 -11 4732.96 625.736   6
   0   1  11 7448.86 745.378   1
   0   1  11 5743.73 817.176   5
   0  -1 -11 6885.30 1049.21   4
   0   1 -11 7211.68 1042.08   4
   0  -1  11 6532.05 665.546   1
   0  -1  11 5738.61 729.857   5
   0  -1 -11 5679.01 810.380   6
   0   1 -12 319.615 277.131   4
   0   1  12 239.525 191.126   5
   0  -1  12 672.280 289.826   5
   0   1  12 100.551 295.019   1
   0   1 -12-3.15842 217.352   6
   0  -1 -12 227.738 231.183   6
   0  -1 -12 425.677 344.558   4
   0  -1  12 504.945 271.065   1
   0  -1 -13 6441.51 1033.21   6
   0   1 -13 6516.75 1164.97   4
   0  -1  13 6272.56 858.746   5
   0   1  13 6867.69 836.797   1
   0  -1 -13 7687.37 1164.42   4
   0  -1  13 6330.82 747.482   1
   0   1  13 6484.98 986.868   5
   0  -1  14 2375.34 712.804   5
   0   1  14 1491.93 471.774   1
   0   1  14 1762.01 754.843   5
   0   1 -14 1962.59 642.483   2
   0  -1  14 2006.63 481.648   1
   0  -1 -14 1751.54 589.731   6
   0  -1 -14 1776.64 708.738   4
   0   1 -14 943.580 536.449   4
   0  -1  15 421.946 409.935   1
   0   1  15 409.863 518.550   5
   0   1 -15 1317.64 626.059   2
   0  -1 -15-166.327 346.242   4
   0   1 -15-53.9700 534.545   4
   0  -1  15 854.965 449.343   5
   0  -1 -15 552.936 413.146   6
   0  -1 -16 333.752 504.812   4
   0   1  16 539.713 370.088   5
   0   1 -16 150.868 319.302   2
   0   1  17 98.8535 220.830   5
   0   2   0 195357. 2855.05   7
   0  -2   0 197882. 2495.72   6
   0   2   0 191868. 2437.68   5
   0  -2   0 193730. 2216.05   2
   0  -2   0 193234. 2407.43   5
   0   2   0 194774. 2179.59   2
   0   2   0 201095. 2612.80   6
   0   2   0 198977. 2550.59   3
   0  -2  -1 107385. 1889.60   5
   0  -2   1 105079. 1899.03   3
   0   2  -1 107544. 2176.15   7
   0  -2   1 108261. 1743.25   2
   0  -2   1 104926. 1468.41   4
   0  -2   1 106448. 1665.59   5
   0   2  -1 104002. 1677.38   2
   0   2   1 100449. 2002.75   7
   0   2   1 109847. 1634.00   2
   0   2  -1 106223. 1876.34   3
   0  -2  -1 102357. 1597.26   2
   0  -2  -1 104675. 2062.04   6
   0   2  -1 106116. 1656.32   6
   0  -2   1 106257. 1572.29   6
   0   2   1 108816. 1958.36   5
   0   2   2 41999.6 1400.83   8
   0  -2  -2 39004.4 1391.08   6
   0   2   2 44085.2 1286.99   7
   0  -2   2 44399.3 1231.32   2
   0  -2   2 41175.1 1135.11   4
   0  -2  -2 43557.2 897.500   4
   0   2  -2 41899.1 868.646   6
   0   2   2 43530.3 940.572   4
   0   2  -2 40439.3 1367.49   7
   0  -2  -2 42968.0 1266.47   1
   0  -2  -2 39205.3 1017.47   2
   0   2  -2 42625.6 1189.17   2
   0  -2  -2 41018.6 1228.18   7
   0  -2   2 42748.3 806.687   6
   0   2   2 41128.3 1316.26   5
   0   2  -3 273311. 3612.00   7
   0   2  -3 267960. 1708.42   6
   0  -2   3 271057. 2424.91   5
   0   2  -3 279151. 3357.73   2
   0  -2   3 273511. 3425.80   4
   0   2   3 265253. 2911.65   4
   0  -2  -3 276261. 3178.07   1
   0   2  -3 276916. 3391.87   4
   0  -2  -3 276131. 2819.42   4
   0   2   3 269599. 3323.86   1
   0  -2  -3 276827. 3997.87   6
   0  -2   3 260873. 3298.78   2
   0   2   3 271379. 3592.76   5
   0  -2   3 279465. 1436.69   6
   0   2   3 262760. 3121.24   7
   0  -2   3 265306. 3641.35   1
   0  -2  -4 193941. 3571.25   6
   0   2   4 181332. 2800.31   4
   0  -2  -4 182561. 2735.81   4
   0  -2   4 191572. 2190.69   5
   0   2   4 179301. 2525.39   7
   0  -2  -4 190386. 2678.13   1
   0   2  -4 191147. 3068.12   2
   0  -2   4 191029. 3160.22   1
   0   2  -4 183651. 3135.12   4
   0   2   4 183889. 2784.00   1
   0   2  -4 197872. 3163.36   7
   0   2   4 191105. 3281.94   5
   0   2  -5 128524. 2630.89   7
   0   2   5 125177. 2823.62   5
   0   2   5 121076. 2029.08   7
   0  -2  -5 129696. 3101.19   6
   0  -2   5 125363. 2624.82   1
   0  -2   5 123124. 1966.70   5
   0   2  -5 121846. 2838.49   4
   0  -2  -5 126178. 2555.77   4
   0   2   5 123466. 2612.79   4
   0   2   5 122660. 2358.96   1
   0   2  -5 130414. 2760.83   2
   0   2  -5 115693. 1957.18   5
   0   2  -6 7593.22 278.363   6
   0   2  -6 8045.65 343.703   6
   0   2  -6 8667.81 811.790   2
   0   2   6 8096.31 653.909   1
   0   2   6 7671.68 510.466   7
   0   2   6 7983.87 779.698   5
   0  -2   6 7878.32 551.255   5
   0  -2  -6 7366.56 810.272   6
   0   2  -6 8356.06 565.838   5
   0  -2  -6 7967.09 740.780   4
   0   2  -6 7584.14 800.273   4
   0  -2   6 8327.05 697.474   1
   0  -2   7 8444.36 620.659   5
   0  -2  -7 8516.32 924.631   6
   0   2  -7 7313.67 867.743   4
   0   2   7 9263.94 879.492   5
   0  -2   7 8831.58 732.024   1
   0  -2  -7 9155.38 870.697   4
   0   2   7 8007.12 531.252   7
   0   2  -7 8027.07 419.939   6
   0   2  -7 8490.98 846.818   2
   0   2   7 8924.66 713.570   1
   0   2   8 12278.6 860.731   1
   0   2   8 10347.2 579.496   7
   0   2  -8 10800.9 550.617   6
   0   2   8 10835.3 1049.04   5
   0  -2  -8 11287.1 1039.87   4
   0   2  -8 11010.6 988.532   2
   0  -2   8 10245.0 748.031   5
   0  -2  -8 9912.84 1041.79   6
   0   2  -8 10162.9 1044.36   4
   0  -2   8 10751.7 826.879   1
   0   2  -9 2470.78 550.746   2
   0   2   9 2092.04 526.116   5
   0   2   9 1728.04 389.758   1
   0   2  -9 1590.47 564.020   4
   0   2   9 2248.77 283.603   7
   0  -2  -9 2391.80 522.006   4
   0  -2  -9 2657.68 602.538   6
   0   2  -9 2725.63 310.722   6
   0  -2   9 1985.86 343.429   5
   0  -2   9 2940.29 469.428   1
   0   2  10 69.9264 311.623   5
   0   2 -10 38.6866 213.581   4
   0   2  10 36.0124 77.4432   7
   0  -2 -10 168.547 232.132   4
   0   2 -10-30.7456 137.306   6
   0   2 -10 574.111 322.763   2
   0  -2  10 251.431 211.015   1
   0   2  10 42.8830 218.363   1
   0  -2 -10-328.303 307.706   6
   0  -2  10 180.033 204.518   5
   0   2  11 4962.55 848.509   5
   0  -2 -11 3676.96 730.863   4
   0   2 -11 4744.64 860.895   4
   0   2 -11 3134.52 722.942   2
   0   2  11 3550.73 563.005   1
   0  -2 -11 4283.96 797.687   6
   0  -2  11 3863.12 570.235   1
   0  -2  11 3981.60 598.354   5
   0  -2  12 9727.77 966.765   5
   0  -2 -12 10395.3 1245.59   6
   0   2  12 8975.25 877.286   1
   0   2 -12 10370.9 1275.25   4
   0  -2 -12 9681.12 1225.89   4
   0  -2  12 10909.8 968.931   1
   0   2 -12 9541.21 1173.44   2
   0   2  12 9610.17 1213.11   5
   0  -2  13 2579.90 523.343   1
   0   2  13 3393.85 773.251   5
   0   2  13 2686.95 551.104   1
   0   2 -13 1838.58 600.830   2
   0  -2 -13 2814.64 727.711   6
   0   2 -13 3025.38 845.247   4
   0  -2  13 3020.29 633.774   5
   0  -2 -13 2323.74 741.954   4
   0  -2  14 2230.39 562.838   1
   0   2 -14 2599.57 719.977   2
   0  -2 -14 2131.87 715.826   6
   0   2  14 3228.17 825.862   5
   0  -2 -14 1991.53 621.713   4
   0   2 -15 612.337 418.844   2
   0  -2 -15 244.704 550.206   4
   0  -2 -15 17.3416 54.0930   6
   0  -2  15 54.5393 286.802   1
   0   2  15 223.793 346.775   5
   0   2  16 478.142 634.288   5
   0  -2  16-121.410 235.419   1
   0  -2 -16-99.7714 354.835   6
   0  -2 -16 795.577 531.733   4
   0  -2 -17-117.534 213.692   6
   0   3   0 135.003 176.155   3
   0  -3   0 50.2418 78.7726   2
   0  -3   0 106.967 75.9206   5
   0   3   0-171.707 241.903   7
   0  -3   0 71.6548 124.467   6
   0   3   0-55.9484 71.8003   6
   0  -3   0 18.3083 28.9412   4
   0   3   0 90.8172 160.465   2
   0  -3   1 54256.9 1447.27   6
   0  -3   1 53523.3 1470.81   5
   0   3   1 54268.3 1684.12   3
   0   3  -1 54112.1 1659.37   3
   0   3   1 54432.0 1410.49   2
   0  -3   1 55020.0 1507.25   2
   0  -3   1 53081.6 1145.00   4
   0   3   1 52095.2 1808.22   7
   0  -3  -1 53874.6 1417.64   2
   0   3  -1 52905.9 1530.07   6
   0   3  -1 50819.4 1835.00   7
   0  -3  -1 53387.7 1729.47   6
   0   3  -1 53660.5 1458.48   2
   0   3   1 54650.2 1687.09   5
   0  -3   2 48390.5 1334.13   4
   0  -3   2 51937.4 1244.68   6
   0   3   2 49355.4 1707.99   5
   0  -3   2 47865.2 1348.16   5
   0   3  -2 50632.5 1867.42   7
   0   3   2 49359.1 1736.94   7
   0  -3  -2 49972.0 1368.34   2
   0   3  -2 51204.2 1337.66   6
   0  -3  -2 48609.2 878.269   4
   0  -3  -2 54882.8 1892.11   6
   0   3  -2 51161.6 1503.50   2
   0  -3   3 12002.0 768.995   4
   0  -3  -3 15499.7 633.712   4
   0   3   3 15146.7 974.060   7
   0   3   3 13615.0 641.614   4
   0  -3   3 12696.4 512.261   6
   0   3  -3 15873.5 1100.30   7
   0   3  -3 13526.8 845.358   2
   0  -3  -3 16313.3 1161.99   6
   0   3  -3 14498.0 626.696   6
   0   3   3 15174.4 1029.44   5
   0   3   4 96775.0 2350.39   7
   0   3   4 98001.3 2663.78   5
   0  -3   4 102532. 1797.20   5
   0   3  -4 102973. 2447.35   2
   0  -3  -4 100972. 1919.57   4
   0  -3  -4 99839.7 2893.46   6
   0   3  -4 99829.9 2683.61   7
   0  -3   4 101300. 1054.45   6
   0   3   4 95117.2 2007.64   4
   0  -3   4 98096.2 2693.25   1
   0   3   5 80866.4 2540.82   5
   0   3   5 79119.5 2267.97   1
   0  -3   5 80405.3 1653.08   5
   0   3  -5 86942.3 2398.89   2
   0   3   5 81715.3 2101.57   4
   0  -3   5 81314.6 2495.41   1
   0   3  -5 79886.4 2453.91   7
   0  -3  -5 87654.1 2064.12   4
   0  -3  -5 80282.1 2740.53   6
   0   3   5 79540.7 2092.62   7
   0   3  -6 30668.1 1565.94   7
   0   3  -6 26078.8 1433.97   2
   0  -3   6 27641.5 1481.96   1
   0  -3   6 28343.4 1046.01   5
   0   3   6 24615.7 1296.17   1
   0  -3  -6 25943.4 1259.90   4
   0   3   6 27088.5 1221.40   7
   0  -3  -6 27426.5 1688.27   6
   0   3   6 27132.0 1569.91   5
   0   3   7 19095.7 1018.79   7
   0  -3   7 19038.4 919.801   5
   0   3   7 18960.1 1386.93   5
   0   3   7 19709.3 1182.65   1
   0   3  -7 20330.2 1341.57   2
   0  -3   7 18565.4 1226.16   1
   0  -3  -7 20430.2 1242.80   4
   0  -3  -7 19875.8 1504.63   6
   0   3  -8 4431.07 732.177   2
   0  -3  -8 4323.25 766.849   6
   0   3   8 4058.97 473.846   7
   0   3   8 4243.50 609.031   1
   0  -3   8 4570.41 667.235   1
   0  -3  -8 3926.13 661.209   4
   0  -3   8 4583.00 490.770   5
   0   3   8 3754.33 707.545   5
   0  -3   9 6896.12 683.792   5
   0  -3  -9 6407.37 894.103   4
   0   3   9 5474.90 537.593   7
   0  -3  -9 6380.19 947.340   6
   0   3  -9 6751.75 883.151   2
   0  -3   9 5069.80 698.944   1
   0   3   9 5370.82 853.701   5
   0   3   9 6061.24 700.351   1
   0   3  10 5522.54 868.664   5
   0  -3 -10 5074.08 896.943   6
   0  -3 -10 4788.35 772.506   4
   0   3 -10 5608.16 887.770   2
   0  -3  10 5228.30 701.016   1
   0   3  10 5459.73 715.655   1
   0  -3  10 5353.45 634.654   5
   0  -3  11 2287.32 510.214   5
   0   3  11 2897.79 694.421   5
   0  -3 -11 1994.67 591.768   6
   0  -3 -11 1686.84 484.890   4
   0   3  11 2462.40 525.932   1
   0  -3  11 2565.23 554.609   1
   0   3 -11 1669.60 569.324   2
   0   3  12 2665.18 536.560   1
   0   3  12 1781.28 632.283   5
   0  -3  12 2440.42 508.729   1
   0   3 -12 2461.85 753.238   2
   0  -3 -12 1820.25 629.965   4
   0  -3 -12 2192.15 692.556   6
   0   3 -13 1384.23 630.457   2
   0  -3 -13 458.329 361.960   4
   0   3  13 698.461 343.453   1
   0   3  13 1029.15 592.178   5
   0  -3  13 701.410 317.375   1
   0  -3 -13 517.000 409.999   6
   0   3  14 671.450 475.327   5
   0  -3  14 720.801 336.287   1
   0   3 -14 97.9638 156.111   2
   0  -3 -14 762.320 532.008   4
   0  -3 -14 1574.50 617.974   6
   0  -3 -15 1765.67 815.688   4
   0  -3  15 1618.55 536.948   1
   0  -3 -15 455.863 395.416   6
   0   3 -15 675.667 640.396   2
   0   3  15 1715.75 697.747   5
   0  -3  16 162.744 243.646   1
   0  -3 -16-75.0955 265.128   6
   0   4   0 5662.87 733.921   7
   0   4   0 5984.57 573.123   2
   0  -4   0 5752.17 312.935   4
   0   4   0 6280.32 685.373   3
   0  -4   0 5823.64 294.970   4
   0  -4   0 5386.66 570.538   6
   0   4  -1 9350.03 823.812   3
   0  -4   1 9021.29 499.064   4
   0   4   1 9031.36 690.608   2
   0   4  -1 8548.11 694.788   2
   0   4  -1 9163.75 936.466   7
   0  -4   1 8814.95 683.482   6
   0   4   1 7669.10 819.113   7
   0   4   1 7699.96 752.165   3
   0   4   1 9738.23 844.509   5
   0  -4  -1 8226.23 784.756   6
   0   4   2 32372.0 1529.49   3
   0   4   2 30834.3 1634.62   7
   0   4  -2 30203.2 1674.36   7
   0  -4   2 32381.3 1196.47   6
   0  -4   2 32367.6 1128.42   4
   0   4  -2 30876.6 1329.14   2
   0  -4  -2 30473.0 1596.24   6
   0   4   2 29597.9 1511.49   5
   0   4  -3 19078.5 1099.14   2
   0   4  -3 18057.7 1322.17   7
   0  -4  -3 19613.4 1349.78   6
   0  -4   3 16274.7 935.218   4
   0   4   3 18699.3 1276.47   5
   0   4   3 16713.4 1185.02   7
   0  -4  -3 18129.4 569.572   4
   0  -4   3 16980.0 762.729   6
   0   4  -4 10541.8 1046.91   7
   0   4   4 9995.21 918.143   7
   0  -4   4 10975.4 497.348   6
   0   4   4 11824.0 1046.97   5
   0   4  -4 11338.3 890.482   2
   0  -4  -4 11226.4 585.467   4
   0  -4   4 12624.9 1127.14   1
   0   4   4 10085.4 606.992   4
   0  -4  -4 11218.6 1092.59   6
   0  -4   4 12312.6 733.737   5
   0   4   5 2512.85 484.082   7
   0  -4   5 1909.94 521.025   1
   0   4   5 2121.43 388.266   4
   0   4   5 2174.56 534.551   5
   0   4  -5 1905.96 492.382   7
   0  -4   5 1564.86 266.800   5
   0  -4  -5 2715.83 611.243   6
   0  -4  -5 2308.54 312.609   4
   0   4  -5 885.824 328.977   2
   0   4  -6 16368.7 1209.93   2
   0   4   6 19633.3 1250.10   7
   0  -4   6 17913.5 1379.30   1
   0  -4  -6 17980.0 1497.98   6
   0   4  -6 16994.4 1354.76   7
   0   4   6 16397.6 1357.25   5
   0  -4   6 19331.5 917.013   5
   0  -4  -6 18596.7 1005.76   4
   0  -4   7 6442.32 574.354   5
   0   4   7 6684.91 920.113   5
   0  -4   7 6906.25 903.436   1
   0   4   7 7246.04 767.640   7
   0  -4  -7 6858.00 980.773   6
   0   4  -7 8574.90 938.928   7
   0   4  -7 6117.30 793.255   2
   0  -4  -7 7001.65 688.324   4
   0  -4   8 7699.68 631.299   5
   0   4  -8 7128.81 903.237   2
   0   4   8 7159.86 728.181   7
   0  -4  -8 7597.48 1119.09   6
   0  -4   8 9171.44 1008.85   1
   0   4   8 8702.22 934.666   1
   0   4   8 6755.32 972.151   5
   0  -4  -8 8056.24 823.680   4
   0  -4  -9 5273.17 963.444   6
   0   4  -9 6277.94 917.099   2
   0   4   9 6117.06 847.167   1
   0  -4   9 5673.76 787.209   1
   0   4   9 7811.54 1108.39   5
   0   4   9 6286.64 672.591   7
   0  -4  -9 6049.39 793.467   4
   0   4  10 1883.80 531.096   5
   0   4  10 1709.94 489.903   1
   0   4 -10 2243.48 651.317   2
   0  -4 -10 1064.59 503.683   6
   0  -4  10 1619.24 469.099   1
   0  -4 -10 1622.27 500.070   4
   0   4 -11 337.894 309.958   2
   0  -4 -11 272.932 345.565   4
   0  -4  11 251.188 260.414   1
   0   4  11 820.123 346.777   1
   0   4  11 962.859 498.476   5
   0  -4  12 2355.21 556.552   1
   0   4 -12 965.505 422.354   2
   0  -4 -12 1861.30 615.200   4
   0   4  12 2225.94 727.395   5
   0  -4 -12 1687.70 644.557   6
   0   4  12 2199.27 530.952   1
   0  -4 -13-3.90931 89.7566   6
   0   4  13 451.792 509.280   5
   0  -4  13 6.77065 347.705   1
   0   4 -13 181.321 269.754   2
   0   4 -14 1091.63 550.623   2
   0  -4  14 1025.84 479.334   1
   0   4  14 1053.88 630.227   5
   0  -4 -14 1302.84 534.338   6
   0  -4  15 642.641 531.585   1
   0   5   0 146.301 259.458   2
   0   5   0 72.1925 317.850   7
   0  -5   0 593.843 330.407   6
   0  -5   0 319.709 419.097   8
   0   5   0 8.43568 241.400   3
   0   5   1 2253.01 563.313   7
   0  -5  -1 2873.27 557.028   6
   0  -5  -1 1785.09 541.918   8
   0   5   1 2608.69 565.603   3
   0   5  -1 2165.55 483.009   2
   0  -5   1 2030.80 476.636   6
   0   5  -1 2595.31 528.551   3
   0   5  -1 2733.22 596.968   7
   0  -5   1 1958.89 502.043   8
   0   5   1 2139.32 412.453   2
   0  -5   1 2608.17 261.175   4
   0   5   2 2338.52 505.873   7
   0   5   2 2147.30 505.531   3
   0  -5   2 2151.84 365.978   6
   0   5  -2 2577.60 480.054   2
   0  -5  -2 2431.28 600.238   8
   0   5  -2 2411.17 567.201   7
   0  -5  -2 1878.05 477.996   6
   0  -5  -3 7391.38 921.681   6
   0  -5   3 7523.51 605.039   6
   0   5  -3 8634.72 837.126   2
   0  -5  -3 8325.53 1040.54   8
   0   5   3 8296.29 999.351   7
   0   5   3 8829.21 931.589   3
   0   5   3 8702.68 959.561   5
   0   5  -3 8071.02 1023.78   7
   0  -5  -4 6035.48 918.415   6
   0   5  -4 5154.04 833.311   7
   0  -5   4 5396.81 851.563   1
   0  -5   4 5288.10 421.077   6
   0   5   4 5414.25 798.472   7
   0   5   4 4370.56 736.928   5
   0   5  -4 5356.18 686.529   2
   0  -5   5 4094.04 759.773   1
   0   5  -5 3678.10 642.999   2
   0   5   5 3559.01 724.161   5
   0  -5  -5 4721.00 801.629   6
   0   5  -5 4765.70 761.989   7
   0   5   5 3390.79 591.154   7
   0  -5   5 3166.98 406.304   5
   0   5  -6 2390.30 616.494   7
   0   5   6 2133.26 533.213   7
   0  -5  -6 1663.49 691.700   6
   0  -5   6 3683.09 783.709   1
   0   5  -6 2361.99 555.421   2
   0   5   6 3823.78 753.194   5
   0   5  -7 198.558 303.742   7
   0   5   7 795.189 309.355   7
   0   5  -7 546.978 261.836   2
   0  -5   7 1305.82 541.427   1
   0  -5  -7 1303.93 570.136   6
   0   5   7 394.875 346.054   5
   0  -5  -8 1392.63 593.579   6
   0   5  -8 2451.77 573.687   2
   0   5   8 2315.56 639.106   5
   0   5   8 2970.07 604.458   7
   0  -5   8 1968.46 660.145   1
   0   5  -9 2504.33 646.544   2
   0  -5  -9 2072.52 637.596   6
   0  -5   9 2174.51 554.237   1
   0   5   9 2132.93 663.365   5
   0   5  10 522.083 506.194   5
   0   5 -10 652.703 361.152   2
   0  -5 -10 895.599 600.840   6
   0  -5  10 177.011 290.064   1
   0  -5 -11 867.596 465.203   6
   0   5  11 1912.19 713.576   5
   0   5 -11 1784.45 580.354   2
   0  -5  11 658.745 463.887   1
   0  -5 -12 863.479 497.362   6
   0  -5  12 515.601 488.679   1
   0   5 -12 653.361 505.004   2
   0   5  12 1929.26 758.570   5
   0  -5  13 345.395 491.909   1
   0   5 -13-3.54295 359.211   2
   0  -6   0 5123.73 920.445   8
   0  -6   0 4921.12 735.662   6
   0   6   0 5025.20 917.967   7
   0   6   0 5081.44 671.103   2
   0   6   0 4849.85 739.682   3
   0   6  -1 1739.37 416.577   2
   0  -6   1 1738.77 609.197   8
   0   6   1 1797.85 493.869   3
   0  -6  -1 1870.23 657.252   8
   0   6  -1 2161.93 595.567   7
   0  -6   1 2249.35 484.024   6
   0   6   1 1711.83 614.026   7
   0  -6  -1 2318.80 533.648   6
   0   6   2 1035.56 519.295   7
   0  -6   2 1122.18 536.204   8
   0  -6  -2 1272.06 534.591   8
   0   6  -2 1458.64 384.490   2
   0  -6   2 1546.66 444.508   6
   0   6   2 1010.66 427.777   3
   0  -6  -2 586.464 354.143   6
   0   6  -2 1625.26 572.590   7
   0   6  -3 834.202 358.396   2
   0   6   3 564.382 512.130   7
   0   6  -3 1145.23 630.045   7
   0  -6  -3 589.716 360.898   8
   0  -6  -3 543.212 457.236   6
   0   6   3 718.689 385.192   3
   0  -6  -4 7079.40 1044.03   6
   0   6   4 6744.93 916.099   3
   0   6   4 6565.78 1002.14   7
   0   6  -4 7255.61 1069.89   7
   0  -6   4 4536.32 887.196   1
   0   6   4 4831.78 812.102   5
   0   6  -4 5745.29 775.067   2
   0  -6   5 1879.19 573.032   1
   0   6   5 2194.62 655.197   5
   0   6   5 2784.51 633.002   3
   0   6  -5 2699.45 732.308   7
   0   6  -5 2811.31 603.435   2
   0  -6  -5 2406.01 830.917   6
   0   6   5 2279.58 628.577   7
   0   6   6 1906.06 499.652   7
   0   6  -6 1201.71 415.098   2
   0   6   6 1293.12 594.109   5
   0   6  -6 1325.22 583.022   7
   0  -6  -6 1451.88 576.445   6
   0  -6   6 3214.53 882.553   1
   0  -6  -7 190.921 429.974   6
   0  -6   7 1292.08 520.778   1
   0   6   7 1275.39 536.283   5
   0   6   7 1163.83 461.646   7
   0   6  -7 1209.65 423.949   2
   0  -6   8 595.174 483.588   1
   0   6  -8 174.185 224.797   2
   0  -6  -8-239.375 492.575   6
   0   6   8-232.890 351.885   5
   0  -6   9 2091.05 627.732   1
   0   6   9 1301.67 589.373   5
   0   6  -9 1454.84 486.534   2
   0  -6  -9 1253.03 690.546   6
   0  -6 -10 966.167 648.026   6
   0  -6  10 647.140 521.255   1
   0   6 -10 1067.35 562.718   2
   0   6  10 1150.39 556.900   5
   0  -6  11 2075.40 744.813   1
   0   6  11 700.266 673.319   5
   0   6 -11 1994.97 626.814   2
   0   6 -12 883.818 506.554   2
   0  -7   0 449.758 527.205   8
   0   7   0 892.667 416.065   7
   0   7   1 431.702 454.006   7
   0   7  -1-121.306 419.825   7
   0  -7  -1-4.77263 217.849   6
   0   7   1 223.309 268.554   3
   0  -7   1 499.666 415.286   8
   0  -7  -1 66.4849 352.627   8
   0   7   2-653.122 327.993   3
   0  -7  -2-357.046 388.650   8
   0   7   2 547.354 408.686   7
   0  -7   2 176.414 499.663   8
   0  -7  -2 207.150 185.958   6
   0   7  -2-222.132 392.305   7
   0   7   3 429.873 400.648   3
   0  -7  -3 22.7610 97.7299   6
   0   7   3 444.323 378.951   7
   0  -7   3 84.3207 497.845   8
   0   7  -3-142.635 504.595   7
   0   7   4-303.687 407.907   7
   0   7   4-157.664 400.010   3
   0  -7   4-658.478 526.125   8
   0  -7  -4 79.4582 172.223   6
   0  -7   4-91.9603 287.391   1
   0   7  -4 17.7311 293.129   7
   0  -7  -5 488.964 551.753   6
   0   7  -5 235.592 545.685   7
   0   7   5 1592.93 625.292   7
   0  -7   5 931.485 413.474   1
   0   7   5 1210.74 522.909   3
   0   7  -6 472.665 425.932   7
   0  -7  -6 560.021 362.090   6
   0  -7   6 559.904 446.087   1
   0   7   6 193.246 233.266   5
   0   7  -6 397.820 327.421   2
   0   7   6 133.986 278.002   7
   0   7  -7 1812.31 607.276   2
   0  -7  -7 207.960 372.899   6
   0   7   7 1015.60 580.559   5
   0  -7   7 356.720 503.301   1
   0   7  -8 380.325 246.776   2
   0  -7  -8 264.956 480.849   6
   0   7   8 594.917 372.258   5
   0   7   9 2187.71 739.478   5
   0   7  -9 2512.97 665.771   2
   0   8   0 1095.52 669.462   7
   0   8  -1 603.646 574.930   7
   0   8   1 1001.32 580.271   7
   0   8   2 990.664 656.145   7
   0   8   3-566.534 363.898   7
   0  -8  -4 1567.37 640.401   6
   0   8   4 195.098 284.712   7
   0   8   5-3.70116 301.939   7
   0  -8  -5-272.463 620.230   6
  -1   0  17 1126.46 605.097   5
  -1   0  16-299.519 421.953   5
   1   0 -16 123.888 255.670   4
   1   0 -15 378.322 310.501   6
   1   0 -15-52.5443 521.458   4
  -1   0  15 1025.44 510.520   5
  -1   0  14 34.7261 57.6486   1
   1   0 -14 309.355 534.793   4
   1   0 -14 339.280 290.430   6
  -1   0  14-51.3905 473.468   5
  -1   0  13 7915.35 772.864   1
  -1   0  13 7539.41 1016.23   5
   1   0 -13 10066.5 1344.88   4
   1   0 -13 7390.34 967.029   6
  -1   0  12 823.305 301.177   1
  -1   0  12 782.688 407.761   5
   1   0 -12 1245.34 568.881   4
   1   0 -12 1042.34 438.431   6
   1   0 -11 275.420 221.701   4
   1   0 -11 120.965 257.709   6
  -1   0  11 228.810 185.947   1
  -1   0  11 343.848 264.592   5
   1   0 -10 48492.9 2099.08   6
  -1   0  10 48303.5 1517.78   1
  -1   0  10 43657.2 825.850   7
   1   0 -10 43873.9 2347.59   4
  -1   0  10 47123.1 2051.33   5
  -1   0   9 7993.45 805.390   5
   1   0  -9 7337.01 931.788   4
  -1   0   9 6779.93 335.303   7
   1   0  -9 7664.19 830.050   6
  -1   0   9 7313.06 558.999   1
   1   0  -8 50342.2 1912.94   6
  -1   0   8 52080.1 1896.31   5
  -1   0   8 52094.6 887.039   7
   1   0  -8 55806.4 2316.39   4
  -1   0   8 55086.9 1367.83   1
  -1   0   7 14488.8 443.110   7
   1   0  -7 15225.4 726.035   1
  -1   0   7 14788.4 652.029   1
  -1   0   7 16390.3 991.398   5
   1   0  -7 15246.5 1154.26   4
  -1   0   6 321.228 73.3150   7
   1   0  -6 268.783 112.437   1
  -1   0   6 253.390 123.721   1
   1   0  -6-101.313 244.211   4
  -1   0   6 97.0626 195.465   5
  -1   0   5 70692.0 798.419   7
   1   0  -5 69194.8 2037.36   4
  -1   0   5 69434.5 1725.46   5
  -1   0   5 70923.6 1125.57   1
   1   0  -5 69780.8 1230.15   1
   1   0  -4 162416. 2798.59   4
  -1   0   4 160298. 1463.35   1
   1   0  -4 157784. 1607.14   1
  -1   0   4 157298. 2337.98   5
   1   0  -3 35102.0 1166.44   4
  -1   0   3 35056.6 552.306   1
  -1   0   3 34811.4 970.956   5
   1   0  -3 34727.8 626.912   1
   1   0  -2 23136.5 832.734   4
  -1   0   2 23922.4 684.698   5
   1   0   1 160953. 1499.49   5
   1   0   2 457078. 2870.31   1
  -1   0  -2 464806. 2981.30   6
   1   0   2 460477. 2962.38   5
  -1   0  -3 4998.14 365.588   6
   1   0   3 5355.03 364.138   1
   1   0   3 4978.34 365.051   5
   1   0   3 4899.48 375.860   6
  -1   0  -4 52024.1 1319.23   6
   1   0   4 48470.7 1321.19   6
   1   0   4 53104.6 1231.09   1
  -1   0  -4 50510.5 1264.03   5
   1   0   4 52096.4 1312.39   5
   1   0   5 1806.19 289.169   5
  -1   0  -5 1443.97 245.744   5
   1   0   5 1575.20 267.123   1
  -1   0  -5 1590.19 287.415   6
   1   0   5 1416.63 250.587   6
  -1   0  -5 1659.33 357.485   4
   1   0   6 8675.39 683.240   6
  -1   0  -6 9277.45 846.425   4
   1   0   6 9040.59 619.210   1
   1   0   6 7640.41 630.551   5
  -1   0  -6 8212.06 650.088   6
  -1   0  -7 39577.3 1857.54   4
   1   0   7 41630.6 1400.02   1
  -1   0  -7 39111.6 1492.25   6
   1   0   7 40899.6 1538.15   5
   1   0   8 289.928 222.970   5
  -1   0  -8 181.882 186.582   6
   1   0   8 368.000 224.956   1
  -1   0  -8 455.503 325.702   4
  -1   0  -9 648.914 269.257   6
  -1   0  -9 391.243 329.679   4
   1   0   9 359.288 296.021   5
   1   0   9 596.153 277.683   1
  -1   0 -10 3701.02 585.823   6
  -1   0 -10 3825.18 736.117   4
   1   0  10 3013.01 581.605   5
   1   0  10 4032.77 553.719   1
   1   0  11 1991.10 445.312   1
  -1   0 -11 1358.48 455.560   4
   1   0  11 1632.04 481.189   5
  -1   0 -11 1373.36 429.288   6
   1   0  12 502.188 313.925   5
  -1   0 -12 568.466 381.617   6
   1   0  12 369.016 271.303   1
   1   0  13 967.499 412.003   1
  -1   0 -13 718.255 373.184   6
   1   0  13 445.109 295.122   5
  -1   0 -14-250.991 250.668   2
   1   0  14 966.662 388.605   1
   1   0  14 408.882 278.365   5
   1   0  15 540.301 378.229   5
  -1   0 -15 318.600 667.648   2
   1   0  15-130.334 331.036   1
   1   0  16 514.176 292.471   1
  -1   0 -16 452.339 326.164   2
  -1   1  17 264.842 440.567   5
  -1  -1  17-1077.45 427.159   5
  -1  -1  16 502.063 582.321   5
   1  -1 -16-354.060 311.822   6
   1  -1 -16-65.2850 244.963   4
  -1   1  16 756.485 560.955   5
   1   1 -16-660.653 561.638   4
  -1   1  15-138.076 423.315   5
   1   1 -15 744.377 364.626   4
   1  -1 -15 255.139 378.216   6
  -1  -1  15 493.919 379.871   5
   1  -1 -15 1212.13 657.343   4
   1  -1 -14-43.3669 182.872   4
  -1  -1  14 98.3925 341.013   5
  -1   1  14 274.382 313.809   5
   1  -1 -14-361.198 470.037   6
  -1  -1  14 44.9225 194.563   1
   1   1 -14 627.891 506.870   4
  -1  -1  13 412.478 209.544   1
   1  -1 -13-153.697 404.067   4
  -1   1  13 320.734 260.721   1
   1  -1 -13 304.312 239.272   6
   1   1 -13 487.963 234.172   6
  -1   1  13 719.631 455.492   5
   1   1 -13 941.422 486.536   4
  -1  -1  13-56.7803 334.133   5
  -1  -1  12 1075.28 273.377   1
  -1  -1  12 454.450 353.113   5
   1   1 -12 787.036 363.982   6
  -1   1  12 574.253 281.621   1
   1  -1 -12 922.719 415.923   4
   1   1 -12 461.973 532.541   4
  -1   1  12 224.776 361.792   5
   1  -1 -12 163.312 178.954   6
  -1   1  11 39421.7 1562.22   1
   1  -1 -11 41915.4 2212.70   6
  -1  -1  11 39857.2 1486.31   1
   1   1 -11 40519.8 1821.11   6
  -1  -1  11 44614.9 2045.22   5
   1   1 -11 39433.1 2385.93   4
   1  -1 -11 39084.7 2326.30   4
  -1   1  11 40265.4 2114.83   5
   1   1 -10 7026.61 723.094   6
  -1  -1  10 10030.2 925.959   5
  -1   1  10 8113.63 672.980   1
   1  -1 -10 6930.86 981.744   4
  -1   1  10 7642.98 922.260   5
   1   1 -10 5863.85 927.232   4
  -1  -1  10 7360.64 628.468   1
   1  -1 -10 8094.48 960.185   6
  -1   1   9 58845.6 2288.19   5
  -1  -1   9 62416.9 2128.26   5
   1   1  -9 60444.7 2617.89   4
  -1  -1   9 58468.4 1556.45   7
   1   1  -9 59213.2 1966.15   6
   1  -1  -9 61412.7 2462.78   6
   1  -1  -9 64241.5 2632.65   4
  -1   1   9 63771.6 1741.18   1
  -1  -1   9 60243.8 1659.36   1
   1  -1  -8 15607.7 1198.03   6
   1  -1  -8 16881.1 1268.45   4
  -1   1   8 17228.5 846.800   1
  -1  -1   8 15577.6 1003.84   5
  -1   1   8 16496.1 1151.14   5
  -1  -1   8 17090.8 852.257   1
   1   1  -8 16175.0 1279.04   4
  -1  -1   8 15726.6 789.200   7
   1  -1  -7 69504.3 2343.38   6
  -1  -1   7 72468.8 1663.41   1
  -1   1   7 74136.6 2236.31   5
  -1   1   7 74851.1 1600.40   1
   1  -1  -7 72164.7 2441.14   4
   1   1  -7 71595.8 2470.99   4
  -1  -1   7 71139.1 1625.93   7
   1  -1  -7 73706.6 1395.20   1
  -1  -1   7 76422.4 2030.08   5
   1   1  -6 67384.1 2226.29   4
  -1  -1   6 63904.6 1717.67   5
  -1  -1   6 62958.8 1469.44   7
   1  -1  -6 68415.2 1217.95   1
  -1   1   6 65634.4 1367.35   1
   1  -1  -6 64035.5 2116.23   4
  -1  -1   6 65882.9 1523.09   1
   1   1  -6 65847.2 1485.42   7
  -1   1   6 64846.5 1942.56   5
  -1  -1   5 84764.1 1813.89   5
   1  -1  -5 86016.7 1248.27   1
   1  -1  -5 81048.5 2193.35   4
  -1  -1   5 80295.9 1648.95   1
  -1   1   5 82796.3 2029.30   5
   1   1  -5 83134.9 1783.61   5
  -1  -1   5 84128.4 1624.61   7
   1   1  -5 83217.7 1609.13   7
   1   1  -5 83345.2 2263.08   4
  -1   1   5 83115.7 1368.40   1
   1   1  -4 887616. 5102.98   7
   1  -1  -4 893994. 6576.48   4
  -1  -1   4 877937. 5280.38   1
  -1   1   4 882594. 5997.67   5
   1  -1  -4 873211. 3768.93   1
  -1  -1   4 904133. 5108.01   7
  -1  -1   4 893412. 5337.84   5
   1   1  -4 877998. 6627.27   4
  -1   1   4 881410. 3941.55   1
   1  -1  -4 881166. 2922.98   7
   1  -1  -3 128978. 2243.58   4
  -1  -1   3 127201. 1821.37   5
  -1   1   3 124682. 2010.80   5
   1   1  -3 127753. 2209.25   4
   1  -1  -3 125790. 1296.60   1
  -1   1   3 127462. 1398.84   1
   1   1  -3 127235. 1885.77   7
   1  -1  -3 125731. 1314.76   7
   1   1  -3 127287. 1440.53   6
  -1  -1   2 81936.6 1536.28   4
   1   1  -2 78086.7 1487.85   4
   1   1  -2 81618.2 1461.75   7
   1  -1  -2 80175.3 1172.04   7
  -1  -1   2 80025.1 1360.61   5
   1  -1  -2 81168.2 1596.97   4
  -1   1   2 82330.5 1454.77   8
  -1  -1   2 83497.0 1119.48   6
  -1   1   2 80854.2 1406.92   5
   1  -1  -2 81828.5 1068.89   1
   1   1  -1 30895.1 876.148   7
  -1  -1   1 30535.9 718.585   6
   1  -1  -1 32623.0 928.003   4
  -1   1   1 31700.2 852.212   2
  -1   1   1 31605.9 727.731   5
  -1  -1   1 31256.0 788.609   4
   1   1  -1 30677.4 758.158   4
   1  -1   0 333489. 1712.82   5
   1   1   0 333952. 2546.00   8
  -1   1   0 337440. 2717.45   2
  -1   1   0 334782. 1757.57   5
   1   1   0 337217. 2108.65   4
   1   1   0 336206. 2863.78   1
   1  -1   0 331427. 2579.48   1
  -1   1   0 328855. 2934.54   3
  -1  -1   0 330333. 2692.93   6
  -1  -1  -1 135140. 1944.50   6
  -1   1  -1 136593. 1953.81   3
   1  -1   1 139239. 1801.30   1
   1   1   1 138569. 1871.75   1
  -1   1  -1 135028. 1828.61   2
   1   1   1 139690. 2012.77   5
   1   1   2 82453.1 1674.43   5
  -1   1  -2 80652.9 1577.89   2
   1  -1   2 81614.3 1480.74   1
   1   1   2 84104.3 1545.70   1
  -1  -1  -2 81897.2 1684.83   6
   1   1   2 81998.1 1418.72   4
   1   1   3 5543.50 446.027   1
  -1   1  -3 6181.58 241.928   6
  -1  -1  -3 5906.96 520.649   6
   1   1   3 5601.49 487.783   5
   1  -1   3 6036.92 288.903   5
   1   1   3 5680.02 459.204   4
   1  -1   3 5984.61 437.059   1
   1  -1   3 6199.97 269.621   6
  -1   1  -3 6025.96 282.149   5
  -1   1  -3 6073.89 490.142   2
  -1   1  -4 6088.33 358.012   5
   1   1   4 6038.46 503.439   1
  -1  -1  -4 6424.19 562.307   4
  -1   1  -4 6017.48 310.469   6
  -1   1  -4 4939.48 493.548   2
   1  -1   4 6117.16 472.141   1
  -1  -1  -4 5136.32 526.791   6
   1  -1   4 6152.41 374.219   5
   1   1   4 5585.87 536.882   4
   1   1   4 5435.37 509.893   5
   1  -1   4 5861.37 331.769   6
  -1  -1  -4 6011.74 444.039   1
  -1  -1  -5 4917.82 551.384   6
   1   1   5 5158.68 535.050   5
   1  -1   5 5613.45 413.504   5
  -1   1  -5 4697.65 509.711   2
   1  -1   5 5740.49 488.218   1
  -1   1  -5 5286.02 395.419   5
  -1   1  -5 5363.91 352.884   6
   1   1   5 6150.16 548.753   1
  -1  -1  -5 5294.77 566.700   4
  -1  -1  -6 17859.2 1130.98   4
  -1   1  -6 17798.0 728.482   6
  -1   1  -6 17659.2 796.670   5
  -1  -1  -6 19802.5 1151.48   6
   1  -1   6 18549.0 902.317   1
   1   1   6 16880.0 1047.72   5
   1   1   6 18430.9 978.680   1
   1  -1   6 19008.1 849.922   5
  -1   1  -6 18571.9 1109.69   2
   1   1   7 9099.68 730.472   1
  -1  -1  -7 8068.92 845.334   4
   1  -1   7 7915.69 610.348   5
  -1  -1  -7 7076.74 763.405   6
  -1   1  -7 8154.82 797.372   2
  -1   1  -7 7118.94 525.148   6
   1   1   7 8001.08 785.546   5
   1  -1   7 7395.74 610.311   1
  -1  -1  -8 2077.53 474.488   4
   1   1   8 1674.21 376.875   1
  -1   1  -8 1040.01 369.051   2
   1   1   8 2449.65 478.758   5
  -1  -1  -8 1555.72 399.720   6
   1  -1   8 1659.50 353.465   1
  -1   1  -8 1559.86 289.560   6
   1  -1   8 1130.23 257.077   5
  -1  -1  -9 6018.82 774.172   6
   1   1   9 7482.71 744.330   1
  -1   1  -9 7719.20 883.744   2
  -1   1  -9 7100.90 620.586   6
   1   1   9 7306.84 833.267   5
   1  -1   9 6629.89 678.697   5
  -1  -1  -9 8183.67 971.626   4
   1  -1   9 8482.79 716.209   1
   1   1  10 2616.41 518.407   1
   1  -1  10 2725.89 484.964   5
   1   1  10 1686.86 541.008   5
   1  -1  10 2675.68 455.311   1
  -1   1 -10 2073.27 526.147   2
  -1   1 -10 1837.44 389.598   6
  -1  -1 -10 2281.40 481.189   6
  -1  -1 -10 1415.74 565.703   4
  -1   1 -11 3317.27 696.163   2
   1   1  11 3710.37 672.152   5
   1   1  11 4127.80 645.723   1
  -1  -1 -11 3548.35 660.399   6
  -1   1 -11 3951.51 557.158   6
   1  -1  11 3245.62 550.836   1
   1  -1  11 3497.04 605.049   5
  -1  -1 -11 4086.20 734.354   4
  -1  -1 -12 672.243 343.946   4
   1  -1  12 622.641 408.324   5
   1  -1  12 663.665 264.661   1
   1   1  12 928.326 517.204   5
  -1   1 -12 927.185 439.077   2
   1   1  12 428.954 342.820   1
  -1  -1 -12 364.513 392.483   6
  -1   1 -13 7936.78 1087.02   2
   1  -1  13 9095.46 952.259   1
   1   1  13 8738.43 989.793   1
   1   1  13 6802.92 959.919   5
   1  -1  13 7839.05 1007.82   5
  -1  -1 -13 6609.02 1042.16   6
   1   1  14 904.838 319.996   1
  -1   1 -14 1617.03 601.122   2
   1   1  14 362.546 422.931   5
   1  -1  14 966.274 500.791   1
  -1  -1 -14 245.288 316.334   6
   1  -1  14 720.738 406.999   5
  -1  -1 -15 1188.64 552.207   6
   1   1  15 428.641 297.121   5
   1  -1  15 606.796 296.047   1
   1   1  15 390.789 213.720   1
  -1   1 -15 1100.80 588.468   2
  -1  -1 -16 478.961 437.084   2
   1  -1  16 44.4662 201.819   1
  -1   1 -16 324.706 547.213   2
   1   1  16 178.754 337.429   5
   1   1  17 510.562 490.924   5
   1  -2 -17 81.2456 378.524   6
   1   2 -16 159.791 562.519   2
  -1   2  16 633.837 494.521   5
   1  -2 -16 1002.08 548.784   6
   1  -2 -16 893.309 509.479   4
   1   2 -16 986.798 696.261   4
  -1   2  15 349.212 550.280   5
   1  -2 -15 15.6850 279.228   4
   1   2 -15 507.063 386.636   2
  -1  -2  15 287.337 399.160   1
  -1  -2  15 331.221 374.408   5
   1   2 -15-76.0246 392.842   4
   1  -2 -15-369.763 260.720   6
  -1  -2  14 199.370 270.269   1
   1  -2 -14-71.2951 346.960   4
  -1  -2  14 295.357 307.658   5
   1  -2 -14 50.3471 318.995   6
   1   2 -14-381.054 362.194   2
  -1   2  14-163.053 186.522   5
   1   2 -14 115.622 674.018   4
  -1  -2  13 2962.64 493.624   1
   1   2 -13 1585.72 821.096   4
  -1   2  13 3600.97 847.769   5
  -1  -2  13 2763.94 566.575   5
   1   2 -13 3022.25 747.398   2
   1  -2 -13 4252.85 881.117   4
   1  -2 -13 2914.24 733.058   6
  -1  -2  12 17848.3 1137.68   1
  -1   2  12 16522.7 1109.37   1
   1  -2 -12 18476.6 1709.57   6
   1  -2 -12 17105.2 1700.25   4
   1   2 -12 16388.8 1485.48   2
   1   2 -12 18026.6 1720.98   4
  -1  -2  12 17792.9 1319.32   5
  -1   2  12 17755.4 1593.34   5
   1  -2 -11 4513.87 844.807   6
  -1   2  11 4863.71 795.635   5
   1  -2 -11 5242.54 874.530   4
  -1  -2  11 5311.59 701.478   5
   1   2 -11 4605.58 895.581   4
  -1   2  11 5390.64 610.815   1
  -1  -2  11 4639.36 584.464   1
   1   2 -11 5369.20 594.403   6
   1   2 -10 2626.21 442.797   6
  -1  -2  10 2317.91 455.151   5
  -1   2  10 2884.22 588.490   5
  -1   2  10 3030.01 424.991   1
  -1  -2  10 2559.60 444.800   1
   1   2 -10 2475.82 576.610   4
   1  -2 -10 3463.60 690.671   4
   1  -2 -10 3864.03 766.970   6
  -1   2   9 1769.81 369.591   1
  -1   2   9 1603.98 476.531   5
   1  -2  -9 1446.00 527.367   6
   1  -2  -9 2095.31 538.008   4
  -1  -2   9 1740.37 387.561   5
  -1  -2   9 1810.78 411.112   1
   1   2  -9 1117.32 471.957   4
  -1   2   8 16262.1 1219.49   5
  -1  -2   8 16611.7 1007.18   1
   1  -2  -8 15937.2 1316.94   6
   1   2  -8 15322.1 1266.83   4
   1  -2  -8 15536.9 1214.76   4
  -1   2   8 15362.8 878.780   1
  -1  -2   8 15884.0 989.932   5
  -1   2   8 16220.0 530.094   7
  -1   2   7 25781.4 1429.07   5
  -1  -2   7 25466.3 1224.93   1
   1   2  -7 26388.6 803.811   6
  -1   2   7 24566.0 1044.23   1
  -1   2   7 26089.1 759.314   7
  -1  -2   7 25259.5 1152.87   5
   1  -2  -7 28395.2 1510.18   4
   1  -2  -7 24295.7 1540.86   6
   1   2  -7 26811.0 1553.06   4
   1   2  -7 26588.0 1238.79   7
  -1   2   6 40373.1 1277.55   1
  -1  -2   6 39581.9 1345.43   5
  -1   2   6 41321.7 1707.92   5
   1   2  -6 39551.5 920.743   6
   1   2  -6 39807.3 1481.12   7
   1  -2  -6 39556.7 1653.91   4
   1  -2  -6 36985.0 1790.62   6
  -1  -2   6 40138.3 1519.52   1
  -1   2   6 39275.8 996.556   7
   1   2  -6 38954.3 1739.73   4
   1  -2  -6 42426.7 1203.79   1
  -1   2   5 339379. 3073.41   7
  -1   2   5 344200. 4564.40   5
   1  -2  -5 325606. 3246.61   1
   1  -2  -5 337309. 4469.64   4
   1   2  -5 333177. 4224.79   2
  -1  -2   5 329451. 3621.83   5
   1   2  -5 337128. 2599.17   6
   1   2  -5 342033. 4631.81   4
  -1  -2   5 330224. 4246.92   1
  -1   2   5 336152. 3549.33   1
   1   2  -5 328969. 4184.50   7
   1  -2  -5 339296. 5080.06   6
   1   2  -4 69072.3 1879.09   7
  -1   2   4 71904.1 1940.91   5
  -1  -2   4 69660.9 1953.41   4
  -1   2   4 70747.2 1926.03   4
   1  -2  -4 69379.4 1469.76   1
   1  -2  -4 72831.9 2205.63   6
   1  -2  -4 70329.6 1854.36   4
   1   2  -4 69716.3 1906.63   4
  -1  -2   4 72646.0 1608.49   5
   1  -2  -4 69743.3 1463.40   7
   1   2  -4 73249.7 1227.52   6
   1   2  -4 73503.8 1795.60   2
  -1   2   4 70376.2 1482.51   7
   1  -2  -3 130063. 2143.35   7
  -1  -2   3 131642. 1600.51   6
  -1  -2   3 130740. 2111.40   5
   1   2  -3 131069. 1762.45   6
   1  -2  -3 135734. 2334.46   4
  -1   2   3 129614. 2360.52   4
   1   2  -3 128902. 2261.22   4
  -1  -2   3 124122. 2289.47   4
   1  -2  -3 132158. 2220.58   2
   1  -2  -3 131318. 2759.11   6
   1   2  -3 130611. 2147.14   2
   1   2  -3 130704. 2537.11   7
  -1   2   3 128879. 2383.76   5
  -1   2   3 126643. 2087.45   7
   1  -2  -3 134168. 2074.81   1
   1   2  -2 16129.6 652.998   2
  -1   2   2 15174.0 742.537   5
   1   2  -2 15524.4 666.958   6
   1  -2  -2 13416.5 817.501   6
   1   2  -2 15138.8 853.600   7
  -1   2   2 15691.4 748.049   4
  -1  -2   2 15313.6 660.171   3
   1  -2  -2 16478.4 761.002   4
   1   2  -2 14996.2 652.995   4
  -1   2   2 14970.1 746.081   7
   1  -2  -2 15840.8 751.231   2
  -1  -2   2 15928.8 694.359   4
   1  -2  -2 14931.1 757.229   7
   1  -2  -2 15116.3 725.389   5
  -1  -2   2 13963.4 566.426   6
   1   2  -1 81094.2 1140.13   4
   1   2  -1 76882.8 1877.17   7
  -1  -2   1 79124.8 1530.32   6
   1  -2  -1 79010.3 1481.28   5
   1  -2  -1 79270.3 1594.83   4
   1  -2  -1 77675.7 1781.43   7
  -1  -2   1 79830.7 1206.33   4
  -1  -2   1 79707.7 1402.32   3
  -1   2   1 80402.6 1669.60   2
  -1   2   1 76986.1 1481.67   5
   1  -2  -1 78248.8 1640.72   2
  -1   2   1 79605.2 1753.03   7
   1   2  -1 77011.5 1182.59   2
   1   2  -1 76957.0 1600.65   6
  -1  -2   1 77823.3 1226.97   2
  -1   2   0 84174.0 1860.19   7
   1  -2   0 80569.1 1701.11   2
  -1   2   0 82362.4 1896.39   3
  -1   2   0 83046.9 1699.07   2
   1   2   0 80710.9 1896.38   7
  -1   2   0 84053.7 1355.32   5
  -1  -2   0 83771.5 1746.16   6
  -1  -2   0 82786.6 1092.71   2
   1   2   0 85453.1 1093.34   2
   1   2   0 84098.9 1378.31   3
   1  -2   0 83557.6 1312.27   5
   1   2   1 205469. 2973.61   8
   1  -2   1 206923. 2253.64   6
  -1   2  -1 215514. 3093.83   7
   1  -2   1 201339. 2963.55   1
  -1  -2  -1 215231. 1744.87   2
   1  -2   1 211426. 1720.54   5
  -1   2  -1 203273. 2994.52   3
   1   2   1 210052. 3079.68   5
   1   2   1 209038. 3084.45   1
  -1   2  -1 207490. 2748.15   2
   1   2   1 211323. 2994.21   7
  -1  -2  -2 136577. 2636.72   6
  -1   2  -2 138570. 2398.43   2
   1   2   2 142412. 2427.55   7
   1  -2   2 137385. 1206.61   5
   1  -2   2 134925. 1435.90   6
   1   2   2 139717. 2649.62   5
   1   2   2 139494. 1603.62   4
  -1  -2  -2 131889. 1544.60   2
   1   2   2 141880. 2530.58   1
   1  -2   2 137054. 2547.65   1
   1   2   3 105582. 2247.34   1
   1  -2   3 113050. 1080.99   5
  -1   2  -3 115284. 2335.81   2
   1   2   3 111518. 1837.99   4
   1  -2   3 119099. 2424.07   1
   1   2   3 112818. 2520.41   5
   1  -2   3 110881. 2388.40   4
   1   2   3 113977. 2164.56   7
  -1  -2  -3 111823. 2546.08   6
   1   2   4 42189.9 1346.07   4
   1   2   4 41477.3 1612.91   5
   1  -2   4 41611.2 1471.09   1
   1  -2   4 43190.9 821.121   5
  -1  -2  -4 39725.7 1641.34   6
  -1  -2  -4 43901.5 1343.79   4
  -1   2  -4 43725.2 1560.08   2
   1   2   4 41425.4 1457.21   1
  -1   2  -5 7174.20 403.307   5
  -1   2  -5 7116.89 704.115   2
  -1  -2  -5 5950.40 716.012   6
  -1  -2  -5 7055.26 600.772   4
   1  -2   5 7250.09 655.865   1
   1  -2   5 6981.74 404.274   5
   1   2   5 7287.55 649.075   1
   1   2   5 7155.70 750.511   5
  -1   2  -6 275.662 123.399   5
  -1  -2  -6 266.570 309.401   6
  -1   2  -6 453.418 174.457   2
   1   2   6 332.026 311.306   5
   1   2   6 729.365 256.790   1
  -1  -2  -6 470.358 204.095   4
   1  -2   6 326.191 233.133   1
   1  -2   6 280.835 102.943   5
  -1  -2  -7 3668.44 669.545   6
   1  -2   7 4051.94 518.826   1
  -1   2  -7 3394.49 380.623   5
   1   2   7 3524.62 598.937   5
   1  -2   7 2984.42 344.946   5
  -1   2  -7 3857.33 210.225   6
  -1   2  -7 3878.20 599.867   2
   1   2   7 3779.47 544.040   1
  -1  -2  -7 3825.61 562.530   4
   1   2   8 8425.38 909.154   5
   1  -2   8 7190.20 575.179   5
  -1   2  -8 7890.02 388.523   6
  -1  -2  -8 7929.37 889.248   4
   1  -2   8 7626.96 718.451   1
   1   2   8 7492.50 764.701   1
  -1   2  -8 7730.05 890.333   2
  -1  -2  -8 8012.31 928.986   6
   1   2   9 1739.59 514.806   5
   1  -2   9 1391.21 285.828   5
  -1  -2  -9 940.583 402.749   6
  -1  -2  -9 1928.94 533.946   4
   1  -2   9 708.554 288.301   1
  -1   2  -9 1331.49 481.848   2
   1   2   9 2016.67 456.874   1
  -1   2  -9 1266.48 208.574   6
  -1  -2 -10 11947.8 1228.82   6
   1  -2  10 12497.4 947.046   5
  -1   2 -10 11982.3 1206.92   2
   1  -2  10 13352.7 1014.54   1
   1   2  10 10532.9 988.826   1
  -1  -2 -10 13817.4 1273.35   4
   1   2  10 11742.6 1185.93   5
   1   2  11 2520.87 560.748   5
   1   2  11 4043.26 668.062   1
   1  -2  11 4047.63 604.189   1
   1  -2  11 2555.19 459.232   5
  -1  -2 -11 2864.47 705.642   6
  -1   2 -11 3977.85 825.588   2
  -1  -2 -11 3034.07 699.883   4
  -1  -2 -12-315.427 427.062   6
  -1   2 -12-521.857 441.363   2
   1  -2  12-1.70572 254.111   1
   1  -2  12 152.869 306.206   5
   1   2  12-112.318 482.749   5
   1   2  12 280.600 297.916   1
   1   2  13 799.582 357.217   1
  -1   2 -13 950.576 388.735   2
  -1  -2 -13 1248.28 534.315   6
   1   2  13 1427.53 544.936   5
   1  -2  13 1299.30 456.092   1
  -1  -2 -14 47.5189 218.317   6
   1   2  14 868.567 376.810   1
   1   2  14 868.166 547.666   5
  -1   2 -14 935.249 572.823   2
   1  -2  14 357.975 339.147   1
  -1   2 -15-132.003 630.056   2
   1   2  15-397.470 311.645   5
   1  -2  15-150.538 276.281   1
  -1  -2 -15-614.395 530.212   6
   1  -2  16 949.546 387.603   1
  -1  -2 -16 136.134 232.746   6
   1   2  16 744.909 502.473   5
   1  -3 -16 1108.63 515.521   6
   1  -3 -16 444.934 363.251   4
   1   3 -15 134.198 300.009   4
   1   3 -15 1773.86 624.042   2
   1  -3 -15 808.844 647.111   4
  -1   3  15 230.330 644.149   5
  -1  -3  15 564.650 340.662   1
   1  -3 -15 1536.58 775.895   6
   1  -3 -14 1166.25 539.173   4
  -1   3  14 899.443 420.136   5
  -1  -3  14 680.667 286.878   1
   1   3 -14 1238.94 610.927   4
   1   3 -14 1232.45 454.842   2
   1  -3 -14 2003.16 630.896   6
   1   3 -13 629.089 356.438   4
   1  -3 -13 1242.48 547.947   4
   1  -3 -13-578.989 578.366   6
   1   3 -13 491.088 471.917   2
  -1   3  13 331.810 373.540   5
  -1  -3  13 591.471 297.094   1
   1   3 -12 1328.38 503.091   2
  -1   3  12 336.789 353.838   1
   1  -3 -12 953.245 548.415   6
   1   3 -12 991.821 505.130   4
  -1  -3  12 1368.27 421.842   1
  -1  -3  12 1910.63 421.061   5
   1  -3 -12 1245.14 443.972   4
  -1   3  12 660.931 429.286   5
  -1  -3  11 6324.42 788.030   5
   1  -3 -11 6045.77 995.443   6
  -1   3  11 5759.70 696.304   1
  -1  -3  11 6326.51 748.922   1
  -1   3  11 6594.04 1012.73   5
   1  -3 -11 4003.67 756.995   4
   1   3 -11 5614.50 892.881   2
   1   3 -11 5185.33 970.056   4
  -1   3  10 3658.24 552.933   1
   1   3 -10 4371.55 764.086   4
   1  -3 -10 4743.77 876.881   6
   1  -3 -10 4399.53 754.466   4
  -1  -3  10 5779.61 689.087   5
  -1  -3  10 4804.15 696.978   1
  -1   3  10 3849.11 759.203   5
   1   3 -10 3663.65 726.749   2
  -1   3   9 9834.95 846.195   1
  -1  -3   9 11523.6 1016.23   1
  -1  -3   9 13268.7 951.382   5
   1   3  -9 12273.6 1153.16   2
  -1   3   9 10781.9 625.091   7
   1  -3  -9 12424.9 1152.98   4
   1  -3  -9 12120.0 1295.88   6
   1   3  -9 13223.7 1275.82   4
  -1   3   9 12623.1 1240.37   5
   1   3  -8 4438.14 700.254   4
  -1   3   8 5542.16 497.820   7
  -1   3   8 5676.77 802.244   5
  -1   3   8 6199.18 687.045   1
   1   3  -8 5980.08 782.434   2
   1  -3  -8 6214.05 932.675   6
   1   3  -8 5084.06 681.849   7
   1  -3  -8 5242.63 722.616   4
  -1  -3   8 6203.75 767.056   1
  -1  -3   8 5540.91 588.860   5
  -1  -3   7 65742.0 2310.82   1
  -1  -3   7 68450.7 1926.83   5
   1  -3  -7 70910.9 2836.83   6
   1   3  -7 70391.7 2404.04   7
  -1   3   7 68299.8 2529.12   5
   1  -3  -7 72007.2 2376.62   4
   1   3  -7 69171.9 2372.47   2
  -1   3   7 66350.1 1754.73   7
   1   3  -7 67879.2 2516.70   4
   1   3  -7 67597.4 1227.75   6
  -1   3   7 64889.6 2015.64   1
   1   3  -6 12400.9 551.245   6
   1  -3  -6 13043.0 1178.51   6
  -1  -3   6 11151.5 748.597   5
  -1   3   6 13231.1 1078.38   5
   1   3  -6 12605.4 959.757   2
   1   3  -6 11120.3 944.909   7
   1   3  -6 11514.7 963.611   4
  -1  -3   6 13668.7 1073.80   1
   1  -3  -6 10211.7 840.568   4
  -1   3   6 11343.9 761.863   7
  -1   3   5 7843.36 789.839   5
   1   3  -5 7306.40 681.855   2
   1   3  -5 6237.90 677.928   4
   1   3  -5 6808.96 450.209   6
   1  -3  -5 6514.02 840.632   6
   1  -3  -5 6164.52 596.805   4
  -1  -3   5 6585.84 741.481   1
   1   3  -5 7003.20 769.903   7
  -1  -3   5 6677.28 548.487   5
  -1   3   5 7364.37 635.145   7
   1   3  -4 8942.37 831.304   7
   1   3  -4 7888.46 660.914   2
  -1   3   4 9227.95 797.317   5
  -1  -3   4 8898.78 463.395   6
   1   3  -4 8516.21 708.117   4
  -1   3   4 8172.35 678.333   7
  -1   3   4 8285.39 660.784   4
   1  -3  -4 7649.53 826.777   6
   1   3  -4 7933.71 510.207   6
  -1  -3   4 8243.77 619.236   5
   1  -3  -4 9819.46 707.225   4
  -1   3   3 52623.6 1760.67   5
   1   3  -3 50645.5 1370.54   6
   1  -3  -3 53692.7 2005.69   6
  -1  -3   3 50310.8 1486.85   4
   1  -3  -3 54686.6 1516.04   4
   1   3  -3 52530.6 1941.16   7
  -1  -3   3 51859.1 1223.28   6
   1   3  -3 51522.1 1477.87   2
   1   3  -3 49864.6 1443.46   4
  -1   3   3 53715.5 1730.52   7
  -1  -3   2 17319.1 792.980   6
  -1   3   2 16841.7 935.657   5
  -1  -3   2 18270.0 901.180   3
  -1  -3   2 17132.4 801.089   2
   1  -3  -2 18148.0 1104.67   6
  -1   3   2 16929.9 1020.24   7
   1   3  -2 18094.1 1144.35   7
   1  -3  -2 18337.3 820.072   4
  -1  -3   2 16224.1 716.714   4
  -1   3   2 18409.8 951.722   2
   1   3  -2 18612.1 738.281   4
   1   3  -2 18412.1 814.327   2
   1   3  -2 15822.1 838.546   6
   1  -3  -1 25911.6 970.064   4
  -1   3   1 25682.2 1063.01   5
  -1  -3   1 22744.3 1005.22   6
  -1   3   1 22401.9 1188.96   3
   1   3  -1 24508.6 862.493   2
   1  -3  -1 23708.3 981.791   5
  -1   3   1 24353.8 1228.23   7
  -1   3   1 24555.9 1092.86   2
   1   3  -1 24061.4 978.236   3
   1   3  -1 24205.2 1116.39   6
   1  -3  -1 24366.4 1184.80   6
   1   3  -1 25942.3 1344.96   7
  -1  -3   1 24555.4 654.826   4
  -1  -3   1 24454.7 867.366   2
   1   3   0 47055.6 1363.43   3
   1   3   0 49963.5 1149.53   2
  -1   3   0 48427.2 1521.50   2
  -1  -3   0 49880.0 1599.67   6
  -1   3   0 45936.2 1668.92   3
   1   3   0 48341.0 1802.43   7
   1  -3   0 48495.9 1284.40   5
  -1   3   0 48053.4 1344.06   5
   1  -3   0 51598.0 1571.49   6
  -1   3   0 46199.1 1708.63   7
  -1  -3   0 51272.8 1168.84   2
   1   3   1 46479.2 1399.02   3
   1  -3   1 44788.3 1318.67   6
  -1  -3  -1 48764.7 1125.81   2
   1   3   1 48008.3 1773.15   7
  -1   3  -1 45955.6 1511.95   2
  -1  -3  -1 45397.4 1623.00   6
   1  -3   1 45047.7 1135.13   5
  -1   3  -1 44774.0 1706.25   7
  -1   3  -1 48586.2 1712.38   3
   1   3   2 23867.7 1273.97   5
   1  -3   2 24234.3 758.409   5
   1  -3   2 24298.7 1074.21   4
  -1   3  -2 26484.6 1353.84   7
   1  -3   2 23502.2 1274.50   1
   1   3   2 23170.0 1227.30   7
   1  -3   2 24223.2 818.572   6
  -1  -3  -2 24095.4 819.416   2
  -1   3  -2 24180.2 1153.18   2
  -1  -3  -2 23639.8 1270.76   6
   1   3   3 21398.9 1231.38   1
   1   3   3 21473.9 1162.09   7
  -1   3  -3 21279.9 1139.76   2
   1  -3   3 22124.3 639.264   5
  -1   3  -3 23644.9 1308.96   7
  -1  -3  -3 22488.0 1338.64   6
  -1  -3  -3 20615.5 803.098   2
   1   3   3 21994.7 730.906   4
   1   3   3 23459.6 1320.35   5
   1  -3   3 21451.6 1246.30   1
   1  -3   3 22139.3 600.773   6
   1  -3   3 21819.9 683.552   5
  -1   3  -4 17822.5 1090.34   2
  -1  -3  -4 15809.4 748.223   2
   1   3   4 16382.6 1166.88   5
   1   3   4 15567.7 989.446   7
   1   3   4 16022.0 789.847   4
  -1  -3  -4 15272.4 1185.92   6
   1  -3   4 15621.9 1086.36   1
   1   3   4 16695.7 1105.94   1
   1  -3   4 17006.0 552.628   5
   1  -3   5 4402.43 309.428   5
  -1  -3  -5 4168.53 640.569   6
   1   3   5 3506.38 559.167   1
   1   3   5 3452.74 464.781   4
   1   3   5 3282.29 490.405   7
  -1   3  -5 3445.75 540.835   2
   1  -3   5 4055.23 561.552   1
   1   3   5 3650.53 595.280   5
   1   3   6 1149.25 376.283   5
  -1   3  -6 919.421 392.417   2
   1  -3   6 1154.89 182.922   5
   1   3   6 1388.56 340.216   7
  -1  -3  -6 1067.98 449.691   6
   1   3   6 1247.51 323.676   1
  -1  -3  -6 514.244 207.294   4
   1  -3   6 1194.63 377.426   1
   1  -3   7 18605.1 1219.81   1
   1   3   7 18302.6 1395.77   5
   1  -3   7 17678.7 761.002   5
  -1   3  -7 17874.0 1293.75   2
  -1  -3  -7 18886.8 1181.21   4
  -1  -3  -7 16881.1 1398.44   6
   1   3   7 17381.4 1218.27   1
   1   3   7 17469.3 1051.83   7
  -1   3  -8 1546.69 489.199   2
   1   3   8 1892.54 505.984   5
   1  -3   8 1772.39 441.457   1
  -1  -3  -8 2994.56 776.828   6
  -1  -3  -8 2280.82 473.340   4
   1   3   8 1307.16 332.088   7
   1  -3   8 1187.07 238.192   5
   1   3   8 1577.50 427.326   1
   1  -3   9 11195.6 738.138   5
   1   3   9 11004.4 1188.85   5
   1  -3   9 10604.9 1013.63   1
   1   3   9 9410.03 978.296   1
  -1   3  -9 12033.5 1187.98   2
  -1  -3  -9 12077.8 1116.71   4
  -1  -3  -9 12058.9 1272.18   6
   1   3   9 10257.4 819.709   7
  -1   3 -10-148.396 175.561   2
   1  -3  10 241.813 188.736   1
   1   3  10 157.825 210.674   1
  -1  -3 -10-165.931 184.354   4
   1   3  10 178.887 381.886   5
  -1  -3 -10 143.131 290.802   6
   1   3  11 2103.09 519.040   1
   1   3  11 2143.94 692.464   5
  -1   3 -11 1647.84 580.794   2
  -1  -3 -11 1048.58 564.789   6
   1  -3  11 2175.80 541.958   1
   1   3  12 2783.58 779.975   5
   1   3  12 2049.44 524.042   1
  -1  -3 -12 742.477 458.411   6
   1  -3  12 1525.52 458.416   1
  -1   3 -12 2379.76 600.202   2
   1   3  13 1458.25 753.740   5
   1   3  13 980.339 403.817   1
  -1  -3 -13 866.010 470.047   6
  -1   3 -13 866.253 469.271   2
   1  -3  13 821.905 486.237   1
   1   3  14 1232.57 593.182   1
   1   3  14 1042.31 454.998   5
   1  -3  14 2051.38 576.216   1
  -1  -3 -14 842.800 455.205   6
  -1   3 -14 521.525 477.084   2
   1   3  15-165.271 210.210   5
  -1  -3 -15 335.684 391.488   6
   1  -3  15 622.883 269.272   1
   1  -3  16 857.594 487.737   1
  -1  -4  15 1905.25 563.566   1
   1   4 -14 1229.93 622.620   2
   1  -4 -14 1974.52 872.924   6
  -1  -4  14 325.695 392.625   1
  -1   4  14 1415.14 735.005   5
   1  -4 -13 857.457 533.346   4
   1   4 -13 19.1426 206.261   2
  -1  -4  13-30.7088 288.394   1
   1  -4 -13 268.414 311.016   6
  -1   4  13 336.108 357.699   5
  -1   4  12 1222.86 448.883   5
  -1  -4  12 1450.55 394.554   1
   1  -4 -12 923.180 469.522   4
   1  -4 -12 1867.96 582.291   6
   1   4 -12 1336.57 572.049   2
  -1   4  11 1914.74 535.566   1
  -1   4  11 2040.27 594.622   5
   1  -4 -11 1018.77 507.858   4
   1  -4 -11 1490.29 603.308   6
  -1  -4  11 1585.45 491.330   1
   1   4 -11 1863.48 600.168   2
   1  -4 -10 4575.56 761.724   4
   1   4 -10 3658.78 808.411   4
  -1   4  10 4031.46 813.777   5
   1  -4 -10 3703.95 853.508   6
  -1  -4  10 4339.85 724.730   1
  -1  -4  10 4355.06 629.655   5
   1   4 -10 3975.90 705.589   2
   1   4  -9 10125.6 1092.20   2
   1   4  -9 9324.17 1051.38   7
  -1  -4   9 11705.8 1134.78   1
  -1  -4   9 11114.1 895.228   5
   1   4  -9 9612.77 1092.44   4
   1  -4  -9 10920.3 1117.67   4
   1  -4  -9 10511.4 1303.77   6
  -1   4   9 10072.2 1213.15   5
  -1   4   8 8073.22 1182.71   5
   1   4  -8 10187.2 1036.65   2
  -1  -4   8 9481.82 794.763   5
   1   4  -8 9831.71 1064.98   7
  -1  -4   8 8091.63 997.838   1
   1   4  -8 9361.34 1023.11   4
   1  -4  -8 8916.67 894.839   4
  -1   4   8 9097.41 773.529   7
   1  -4  -8 8561.15 1140.66   6
   1  -4  -7 3817.35 762.067   6
   1  -4  -7 3370.62 555.508   4
  -1  -4   7 3923.45 513.602   5
   1   4  -7 3502.61 680.990   7
  -1   4   7 3892.14 706.805   5
  -1  -4   7 2327.42 575.474   1
  -1   4   7 3290.66 526.004   7
   1   4  -7 4073.30 641.871   4
   1   4  -7 3656.24 591.141   2
   1   4  -6 20729.0 1468.38   7
  -1   4   6 19670.6 1430.82   5
   1  -4  -6 20318.7 1144.59   4
   1   4  -6 19891.7 1263.81   2
   1  -4  -6 22828.9 1674.78   6
  -1  -4   6 21705.1 1514.99   1
  -1   4   6 18568.6 1158.24   7
  -1  -4   6 20318.1 1078.56   5
   1   4  -5 3996.01 557.114   2
   1  -4  -5 2986.12 660.112   6
   1  -4  -5 3616.14 439.120   4
  -1   4   5 4426.72 668.593   5
  -1   4   5 3702.74 584.363   7
  -1  -4   5 3799.04 325.883   6
   1   4  -5 4382.86 700.144   7
   1   4  -5 3651.54 399.485   6
  -1  -4   5 3802.22 502.178   5
  -1  -4   4 9351.78 560.514   6
   1   4  -4 10231.4 1049.85   7
  -1   4   4 8079.16 853.329   5
   1   4  -4 11549.9 858.051   2
  -1   4   4 10184.9 896.608   7
   1  -4  -4 8576.11 646.921   4
   1  -4  -4 8743.07 993.137   6
   1   4  -4 9110.67 663.433   6
  -1  -4   3 221.863 143.204   4
   1  -4  -3 944.510 359.346   6
  -1   4   3 556.038 259.168   5
   1  -4  -3 191.904 246.364   8
   1   4  -3 111.827 350.365   7
  -1  -4   3 572.430 180.565   6
   1   4  -3 439.584 201.971   2
  -1   4   3 120.550 249.381   7
   1  -4  -3 652.724 169.447   4
  -1   4   2 45846.9 1958.97   3
   1   4  -2 43755.0 2036.93   7
  -1   4   2 42077.1 1697.29   5
  -1   4   2 44737.1 1665.14   2
   1  -4  -2 45661.1 1305.27   4
  -1   4   2 44257.7 1889.99   7
  -1  -4   2 42281.6 1136.67   4
  -1  -4   2 42013.5 1469.40   6
   1   4  -2 43035.8 1418.75   2
   1  -4  -2 41383.7 1856.01   6
  -1  -4   1 3583.39 469.012   6
  -1   4   1 4298.11 546.386   2
   1   4  -1 3597.84 593.064   7
  -1   4   1 4296.94 637.504   7
  -1   4   1 4238.10 546.500   5
   1   4  -1 4350.23 458.125   2
   1  -4  -1 4242.33 413.463   4
   1   4  -1 4031.33 496.900   3
  -1  -4   1 3558.47 583.612   8
   1  -4  -1 4952.27 625.800   6
  -1   4   1 3576.09 598.654   3
   1   4   0 5578.22 569.995   3
   1  -4   0 4720.15 552.664   6
   1   4   0 5636.69 756.326   7
  -1   4   0 5323.26 708.418   7
  -1  -4   0 4937.76 667.453   8
  -1  -4   0 5620.72 475.886   2
  -1  -4   0 5325.95 609.079   6
  -1   4   0 5929.75 617.200   2
  -1   4   0 5705.24 713.387   3
   1   4   0 5341.43 475.016   2
   1  -4   1 3571.80 387.671   5
  -1   4  -1 3066.38 510.467   3
  -1   4  -1 4010.82 524.355   2
  -1  -4  -1 3147.95 351.478   2
   1  -4   1 2749.89 398.442   6
  -1   4  -1 4079.75 677.692   7
   1  -4   1 3647.05 404.459   4
  -1  -4  -1 3045.01 547.358   8
  -1  -4  -1 3477.50 563.380   6
   1   4   1 3397.27 447.474   3
   1   4   1 4710.36 686.557   7
  -1  -4  -2 3814.53 386.743   2
  -1   4  -2 4613.33 561.183   2
  -1   4  -2 3363.73 572.382   7
   1  -4   2 3860.78 390.896   5
   1   4   2 4973.45 677.273   7
  -1  -4  -2 4444.34 642.343   8
  -1  -4  -2 4378.29 623.148   6
   1  -4   2 3882.95 406.836   6
   1   4   3 5998.82 754.834   7
   1  -4   3 6048.33 450.194   5
   1  -4   3 6302.66 437.403   6
   1   4   3 6680.23 828.277   5
  -1   4  -3 6930.96 873.094   7
   1  -4   3 6257.09 830.826   1
  -1   4  -3 6325.59 675.567   2
  -1  -4  -3 7029.18 819.074   6
   1   4   4 2803.41 545.029   5
   1  -4   4 3018.03 284.391   5
   1  -4   4 2885.80 592.305   1
  -1  -4  -4 2854.66 590.427   6
   1  -4   4 3236.01 309.860   5
   1  -4   4 2984.59 198.276   6
   1   4   4 2757.90 284.492   4
   1   4   4 3094.98 562.669   7
  -1   4  -4 3628.07 538.473   2
  -1   4  -4 3407.57 621.307   7
   1   4   5 1804.38 505.700   1
   1  -4   5 1763.60 469.579   1
  -1  -4  -5 1922.15 524.484   6
   1  -4   5 1774.76 232.121   5
   1   4   5 1156.01 298.866   4
   1   4   5 2052.43 518.897   5
   1  -4   5 1965.32 240.060   5
  -1   4  -5 1150.63 400.147   2
   1   4   5 1441.39 365.875   7
   1   4   6 9384.28 980.161   1
   1   4   6 10806.4 970.994   7
   1  -4   6 10705.3 545.380   5
  -1   4  -6 11045.2 1049.12   2
   1  -4   6 10934.4 1061.79   1
   1   4   6 10517.3 1175.84   5
  -1  -4  -6 10213.8 1175.59   6
   1   4   7 1517.15 430.850   7
  -1   4  -7 1295.27 445.244   2
   1   4   7 439.386 366.415   5
   1   4   7 1132.27 464.571   1
  -1  -4  -7 847.812 376.487   6
   1  -4   7 1330.76 440.110   1
  -1  -4  -8 3555.97 765.674   6
   1   4   8 3334.63 595.850   7
   1  -4   8 4505.34 717.254   1
   1   4   8 3591.54 669.122   1
  -1   4  -8 4156.44 699.339   2
   1   4   8 4280.62 757.440   5
  -1   4  -9 911.110 396.059   2
   1   4   9 345.138 397.311   5
  -1  -4  -9 960.854 423.749   6
   1   4   9 713.021 434.896   1
   1   4   9 778.095 272.079   7
   1  -4   9 714.332 433.508   1
   1  -4  10 962.198 385.819   1
   1   4  10 490.651 504.569   5
   1   4  10 999.654 440.724   1
  -1   4 -10 93.5409 202.170   2
  -1  -4 -10 411.448 532.123   6
  -1  -4 -11 424.484 297.262   6
   1   4  11 2.51889 321.831   1
   1   4  11 987.350 705.761   5
  -1   4 -11 585.460 290.926   2
   1  -4  11 23.9707 256.416   1
  -1  -4 -12-894.810 660.849   6
   1   4  12-57.7013 446.674   5
   1  -4  12-203.254 341.222   1
  -1   4 -12-316.788 437.786   2
   1   4  12-182.044 435.825   1
   1   4  13 843.290 458.455   5
   1   4  13 633.735 372.431   1
   1  -4  13 510.704 329.908   1
  -1   4 -13 309.915 535.820   2
  -1  -4 -13 657.048 695.564   6
   1  -4  14 392.196 364.731   1
  -1   4 -14 279.456 438.701   2
  -1  -4 -14 127.066 538.451   6
  -1  -5  14 699.309 492.642   1
  -1  -5  13 926.243 358.242   1
  -1   5  13-176.387 767.842   5
   1   5 -13 95.2245 257.012   2
  -1  -5  12 2293.44 613.177   1
   1   5 -12 1335.84 473.305   2
  -1   5  12 1799.24 770.339   5
   1  -5 -12 1857.76 721.945   6
  -1  -5  11 206.448 430.228   1
  -1   5  11 581.718 417.940   5
   1   5 -11 62.8089 373.142   2
   1  -5 -11-409.100 480.196   6
  -1  -5  10 2535.64 702.040   1
  -1   5  10 2703.73 717.304   5
   1  -5 -10 1318.28 555.777   6
   1   5 -10 1772.52 476.446   2
  -1  -5   9 899.261 479.917   1
   1   5  -9 1155.95 495.908   7
  -1   5   9 972.345 452.973   5
   1   5  -9 1059.63 493.002   2
   1  -5  -9 740.507 662.313   6
   1   5  -8 8570.06 1137.58   7
  -1   5   8 7784.02 1133.71   5
   1   5  -8 8280.65 964.211   2
  -1  -5   8 8505.10 1097.67   1
  -1   5   8 8609.09 893.126   7
   1  -5  -8 10094.2 1316.20   6
   1  -5  -7 4754.19 953.065   6
   1   5  -7 4756.97 695.305   2
  -1   5   7 3726.91 765.430   5
  -1   5   7 4605.89 660.993   7
  -1  -5   7 3307.07 726.274   1
  -1  -5   7 4305.91 595.657   5
   1   5  -7 3825.71 759.610   7
   1  -5  -6 6548.96 986.915   6
   1   5  -6 4970.69 826.803   7
  -1   5   6 5329.98 856.492   5
   1   5  -6 5837.68 751.905   2
  -1  -5   6 5607.68 918.539   1
  -1  -5   6 5459.72 619.726   5
  -1   5   6 5952.19 769.521   7
   1  -5  -5 553.782 469.750   6
  -1  -5   5 578.365 266.753   5
   1   5  -5 1205.20 350.249   2
   1   5  -5 434.120 490.864   7
  -1   5   5 1221.37 410.011   7
  -1   5   5 387.678 338.128   5
   1  -5  -4 2834.81 613.622   6
   1  -5  -4 2793.12 594.703   8
  -1  -5   4 1806.19 282.562   6
   1   5  -4 1797.40 638.322   7
  -1   5   4 3338.85 593.296   7
   1   5  -4 3611.92 532.565   2
  -1   5   4 2619.71 586.799   5
  -1   5   3 18006.9 1420.96   3
  -1   5   3 15703.1 1236.00   5
  -1   5   3 16195.6 1323.95   7
   1   5  -3 17297.8 1079.00   2
   1  -5  -3 16822.9 1372.30   6
   1   5  -3 17281.9 1488.50   7
   1  -5  -3 16264.5 736.094   4
   1  -5  -3 18161.8 1475.71   8
  -1  -5   3 13883.4 872.795   6
  -1  -5   2 746.923 254.629   6
   1  -5  -2 638.788 367.379   6
   1   5  -2 1015.70 435.718   7
   1  -5  -2 640.660 303.803   8
  -1   5   2 726.572 384.267   3
   1   5  -2 554.738 259.090   2
  -1   5   2 626.916 305.198   5
  -1   5   2 1195.14 453.586   7
  -1  -5   2 1235.89 486.592   8
  -1   5   2 892.581 320.300   2
   1  -5  -2 705.014 194.787   4
  -1   5   1 2386.19 586.454   7
   1  -5  -1 2862.75 324.597   4
  -1   5   1 2904.70 594.352   3
  -1  -5   1 3511.72 749.837   8
   1  -5  -1 3942.36 635.568   6
   1   5  -1 3550.36 743.832   7
  -1  -5   1 2552.75 464.688   6
  -1   5   1 3156.35 546.378   2
   1  -5  -1 4455.85 749.306   8
   1   5  -1 2941.90 431.351   2
   1  -5   0 11292.0 1202.80   8
  -1  -5   0 11699.9 1162.91   8
   1  -5   0 11855.5 721.940   4
   1   5   0 11589.5 779.394   2
   1   5   0 11948.1 1236.41   7
  -1   5   0 13258.6 1174.96   3
  -1   5   0 10900.7 926.905   2
   1  -5   0 11670.8 974.246   6
  -1   5   0 10532.4 1094.23   7
   1   5   0 12096.1 986.110   3
  -1  -5   0 13010.0 1050.23   6
  -1   5  -1 13394.8 1297.47   7
  -1   5  -1 16829.3 1332.05   3
   1   5   1 15827.0 1376.26   7
   1   5   1 15068.1 1078.12   3
  -1  -5  -1 14052.8 1144.54   6
  -1   5  -1 17778.5 1186.07   2
  -1  -5  -1 18789.7 1449.82   8
   1  -5   1 17006.7 1092.96   6
   1   5   2 962.890 386.863   7
   1  -5   2 474.762 173.632   6
  -1   5  -2 940.918 357.184   2
   1   5   2 1330.59 368.021   3
  -1   5  -2 661.528 471.742   7
  -1  -5  -2 1323.85 511.817   8
  -1  -5  -2 1092.01 385.259   6
   1   5   3 754.664 439.296   7
   1  -5   3 1260.25 238.911   6
   1   5   3 1778.02 392.221   3
  -1   5  -3 930.899 409.372   2
  -1   5  -3 645.059 424.249   7
  -1  -5  -3 1130.88 396.358   6
   1  -5   3 827.303 413.706   1
  -1   5  -4 354.941 279.036   2
   1   5   4 829.193 335.573   7
   1  -5   4 489.805 275.050   1
   1  -5   4 701.787 195.880   5
   1   5   4 738.233 334.873   5
  -1   5  -4 207.409 252.493   7
  -1  -5  -4 571.179 437.598   6
   1   5   5 6672.07 892.225   7
   1  -5   5 6110.51 932.270   1
  -1   5  -5 6900.27 853.289   2
   1   5   5 6099.44 979.677   5
  -1  -5  -5 5561.81 923.646   6
   1   5   6 410.369 355.461   7
   1   5   6 177.530 272.919   5
  -1   5  -6-353.423 393.361   2
  -1  -5  -6 916.874 525.322   6
   1  -5   6-212.394 289.097   1
   1   5   7 552.267 368.179   7
   1   5   7 347.145 353.490   5
  -1   5  -7 601.865 282.463   2
   1  -5   7 787.182 381.139   1
  -1  -5  -7-82.8855 269.378   6
   1  -5   8-118.959 352.629   1
  -1  -5  -8 405.331 387.717   6
   1   5   8-351.480 412.130   5
   1   5   8 69.4305 254.677   7
  -1   5  -8-102.485 177.205   2
  -1   5  -9 458.071 346.333   2
  -1  -5  -9 1015.02 505.104   6
   1   5   9 367.816 568.850   5
   1  -5   9 774.462 319.370   1
  -1  -5 -10 863.442 665.812   6
   1   5  10 184.582 257.712   1
   1   5  10 290.259 284.715   5
  -1   5 -10 282.016 342.989   2
   1  -5  10 389.673 329.729   1
  -1  -5 -11 722.508 501.846   6
   1   5  11 280.359 431.864   5
   1  -5  11-69.4972 302.016   1
   1   5  11-340.631 268.087   1
  -1   5 -11 235.581 290.807   2
   1   5  12 1207.57 546.009   1
   1  -5  12 1024.63 477.360   1
  -1   5 -12 1159.99 624.043   2
  -1  -5 -12 1827.65 927.693   6
   1   5  12 637.435 443.425   5
   1  -5  13 229.898 389.911   1
   1   6 -12 811.187 491.069   2
   1  -6 -11 282.651 453.406   6
  -1  -6  11 9.36785 370.993   1
  -1   6  11 153.601 528.114   5
   1   6 -11 1124.86 521.065   2
  -1  -6  10 328.901 403.260   1
  -1   6  10 822.310 567.043   5
   1  -6 -10 280.631 566.992   6
   1   6 -10 259.759 216.129   2
  -1  -6   9-131.916 336.322   1
   1  -6  -9 543.727 540.010   6
  -1   6   9 432.032 583.501   5
   1   6  -9 311.524 487.515   7
   1   6  -9-500.142 291.094   2
  -1   6   8 156.772 346.125   5
   1  -6  -8 888.214 407.122   6
   1   6  -8 585.611 564.750   7
   1   6  -8 417.784 353.213   2
  -1  -6   8 374.323 414.769   1
  -1  -6   7 153.671 299.250   1
  -1   6   7 851.211 432.190   5
   1  -6  -7 50.2344 246.284   6
   1   6  -7 885.610 578.522   7
   1   6  -7-15.3689 191.264   2
  -1   6   7-508.008 377.901   7
   1  -6  -6 2046.13 671.860   6
  -1   6   6 925.121 418.325   5
   1   6  -6 1124.21 632.746   7
   1   6  -6 2088.39 506.584   2
  -1   6   6 1590.05 547.145   7
  -1  -6   6 1411.36 627.436   1
   1  -6  -5 2433.03 680.496   6
  -1   6   5 2553.20 637.730   3
  -1   6   5 1346.78 485.615   7
   1   6  -5 1613.18 427.967   2
   1   6  -5 2045.77 667.992   7
  -1   6   5 2123.85 642.722   5
   1   6  -4 858.138 519.627   7
   1  -6  -4 1058.70 550.983   6
  -1   6   4 553.649 578.244   3
  -1   6   4 830.013 409.882   7
   1   6  -4 697.451 275.432   2
  -1   6   4 1065.70 408.576   5
  -1   6   3-65.7447 130.137   7
  -1  -6   3 285.700 305.980   8
  -1   6   3-276.990 284.127   3
  -1   6   3 445.054 342.498   5
   1   6  -3 128.857 232.301   2
   1  -6  -3 19.9347 236.675   6
   1   6  -3-5.89668 458.790   7
   1  -6  -3 787.742 442.701   8
  -1  -6   2 4017.22 616.559   6
   1   6  -2 4114.93 566.049   2
   1   6  -2 4457.58 874.551   7
   1  -6  -2 3557.77 701.571   6
  -1  -6   2 4799.88 841.744   8
  -1   6   2 4615.43 882.598   7
  -1   6   2 4351.53 742.814   3
   1  -6  -2 4660.32 818.337   8
  -1   6   1 1366.46 453.542   3
  -1   6   1 519.441 302.129   2
   1   6  -1 1244.08 499.203   7
  -1  -6   1 671.548 355.676   8
   1   6  -1 774.498 257.043   2
  -1  -6   1 905.061 398.929   6
  -1   6   1 634.033 407.244   7
   1  -6  -1 1808.15 536.357   6
   1  -6  -1 1254.13 468.186   8
  -1  -6   0-105.231 259.892   8
  -1  -6   0 611.771 395.253   6
   1  -6   0 152.826 284.087   6
  -1   6   0 29.3429 263.536   7
   1  -6   0 258.801 395.064   8
   1   6   0 215.686 428.930   7
  -1   6   0-192.098 390.899   3
  -1   6   0 301.013 255.682   2
   1   6   0 111.892 288.354   3
   1  -6   1-397.832 518.668   8
  -1  -6  -1 50.8794 241.108   8
   1   6   1-66.6829 250.511   3
   1   6   1 373.308 300.042   7
  -1   6  -1-112.341 106.800   2
  -1   6  -1 409.970 315.906   7
  -1  -6  -1-328.287 232.220   6
  -1   6  -1-118.493 404.864   3
   1  -6   1 281.297 281.661   6
   1   6   2 946.625 518.682   7
   1  -6   2 1687.85 570.869   1
  -1  -6  -2 974.634 459.031   8
   1   6   2 552.469 347.368   3
  -1   6  -2 1524.08 437.716   2
  -1  -6  -2 1225.93 403.714   6
  -1   6  -2 973.985 473.395   7
  -1   6  -3 1634.95 545.776   7
  -1  -6  -3 1454.44 451.060   6
   1   6   3 1292.99 556.298   7
  -1   6  -3 1025.79 395.331   2
   1  -6   3 294.813 432.758   1
   1   6   3 1130.71 432.300   3
   1   6   4 1719.06 485.267   3
   1   6   4 624.028 464.862   7
   1  -6   4 1142.57 465.821   1
  -1   6  -4 900.939 389.666   2
  -1  -6  -4 2107.12 683.147   6
  -1   6  -5 2137.21 588.776   2
   1  -6   5 1556.16 491.627   1
  -1  -6  -5 2113.46 595.017   6
   1   6   5 1512.03 657.541   7
   1   6   6 2123.83 640.296   5
  -1   6  -6 819.748 430.898   2
  -1  -6  -6 1760.76 667.135   6
   1  -6   6 2302.27 619.253   1
   1   6   6 688.298 425.048   7
   1   6   7 182.059 461.916   5
  -1   6  -7 262.520 382.697   2
   1  -6   7 413.209 367.843   1
   1   6   7 542.005 365.019   7
  -1  -6  -7 361.273 408.365   6
   1   6   8-144.238 464.237   5
   1  -6   8 26.4562 353.645   1
  -1   6  -8-557.245 478.045   2
  -1  -6  -8-323.374 487.567   6
   1   6   8 335.800 302.722   7
   1  -6   9-302.169 321.791   1
   1   6   9 142.457 246.721   5
  -1  -6  -9 645.474 452.243   6
  -1   6  -9-293.677 233.948   2
   1   6  10 12.3367 293.325   5
   1  -6  10 584.664 574.892   1
  -1   6 -10-55.2555 339.480   2
  -1  -6 -10 81.1578 482.731   6
  -1   6 -11-178.127 222.617   2
  -1   7   9 435.551 321.982   5
   1  -7  -8 833.474 647.684   6
  -1   7   8 275.865 440.170   5
  -1  -7   8 293.133 327.980   1
   1   7  -8 397.526 541.812   7
   1   7  -7-225.054 485.216   7
  -1  -7   7-924.257 503.593   1
   1  -7  -7-689.639 663.681   6
  -1   7   7 288.147 566.460   3
  -1   7   6-141.639 254.713   5
  -1   7   6 311.737 288.381   3
   1   7  -6 284.176 300.645   7
  -1  -7   6 578.491 459.657   1
  -1   7   6 99.3402 177.647   7
   1  -7  -5 860.339 540.943   6
  -1   7   5-331.281 414.216   5
  -1  -7   5 1322.59 587.684   8
  -1  -7   5 1066.53 588.171   1
  -1   7   5 504.108 333.685   3
  -1   7   5 1311.64 526.750   7
   1   7  -5 1283.45 489.485   7
   1  -7  -4-82.3563 315.082   6
   1   7  -4 140.696 414.966   7
  -1   7   4 628.743 533.865   7
  -1  -7   4-360.376 446.404   8
   1  -7  -3 14.1761 391.044   6
  -1   7   3 423.839 394.294   3
   1  -7  -3-43.9894 257.083   8
  -1  -7   3 473.799 361.113   8
  -1   7   3 1017.80 561.473   7
   1   7  -3 1026.96 470.781   7
  -1  -7   2 309.286 461.580   8
   1  -7  -2 54.3568 416.070   8
   1   7  -2 494.929 358.271   7
   1  -7  -2 506.468 516.851   6
  -1   7   2 784.771 496.640   7
  -1   7   2 1055.94 537.163   3
   1  -7  -1 441.555 498.778   8
  -1  -7   1 66.1536 116.314   8
  -1   7   1 715.312 484.576   3
   1   7  -1 76.3140 381.168   7
  -1   7   1-316.505 232.252   7
  -1   7   0 795.865 459.445   3
  -1  -7   0 1057.84 451.494   8
  -1   7   0 1076.86 636.089   7
  -1   7   0-241.512 288.253   2
   1  -7   0-124.474 355.666   8
   1   7   0 1062.71 490.430   7
  -1  -7   0 292.752 222.012   6
  -1   7  -1-242.552 452.844   7
  -1   7  -1 477.441 243.736   2
   1   7   1 413.436 354.502   7
  -1  -7  -1 426.555 331.138   6
  -1  -7  -1-172.029 592.173   8
   1  -7   1 952.676 662.333   8
  -1  -7  -2 440.993 281.300   6
   1   7   2 543.075 298.846   7
  -1   7  -2-136.042 436.113   7
  -1   7  -2-85.7463 324.606   2
   1  -7   2 679.806 508.472   1
   1  -7   2 460.733 518.628   8
   1   7   3 391.933 305.182   7
  -1  -7  -3-49.4530 341.014   6
   1  -7   3-360.637 451.495   1
  -1   7  -3 588.210 266.153   2
   1   7   4 622.700 344.103   7
  -1   7  -4 561.220 404.913   2
   1  -7   4-161.017 209.405   1
  -1  -7  -4 1297.73 478.494   6
  -1  -7  -5-483.263 442.898   6
   1  -7   5-221.665 259.591   1
  -1   7  -5 26.4479 308.425   2
   1   7   5 673.396 399.875   7
  -1  -7  -6-211.970 379.757   6
  -1   7  -6 53.5503 396.948   2
   1   7   6 408.461 284.671   7
   1  -7   6 577.061 572.306   1
   1   7   7 696.576 361.260   7
  -1  -7  -7-282.300 391.259   6
  -1   7  -7 814.861 427.354   2
   1  -7   7-188.335 381.802   1
  -1   7  -8 801.101 389.754   2
   1   7   8 383.098 365.785   5
  -1  -7  -8-303.192 504.518   6
  -1   7  -9 319.012 390.959   2
   1  -8  -6 333.801 304.651   6
  -1   8   5-150.894 312.758   7
   1  -8  -5-594.613 396.561   6
  -1   8   4-285.310 395.685   7
  -1   8   3 532.221 475.371   7
  -1  -8   2 889.682 470.027   8
  -1   8   2-761.212 391.762   7
  -1   8   1 493.528 501.267   7
  -1  -8   1-341.501 856.907   8
  -1   8   0 337.901 354.434   7
   1   8   0-187.366 667.008   7
  -1  -8   0 116.583 262.317   8
   1   8   1 116.712 691.025   7
   1  -8   1 128.688 341.471   1
   1   8   2 826.371 502.458   7
   1   8   3 341.760 346.676   7
  -1  -8  -3-261.174 403.706   6
   1   8   4 846.823 673.500   7
  -1  -8  -4 586.015 342.169   6
  -1  -8  -5 1564.39 621.216   6
   1   8   5 433.238 437.811   7
  -2   0  17 613.910 611.546   5
  -2   0  16-335.226 352.529   5
   2   0 -16 854.295 522.393   4
  -2   0  15 1644.57 634.369   5
   2   0 -15 840.606 407.159   6
   2   0 -15 1312.08 587.948   4
  -2   0  14 201.127 404.465   5
   2   0 -14 138.765 339.053   6
   2   0 -14 63.4328 380.187   4
  -2   0  13 6959.60 663.269   1
   2   0 -13 5992.70 944.328   6
  -2   0  13 6959.60 1047.06   5
   2   0 -13 7156.17 1167.98   4
   2   0 -12 1748.55 541.951   6
  -2   0  12 3293.09 438.601   1
   2   0 -12 3647.32 802.247   4
  -2   0  12 3176.96 662.076   5
  -2   0  11 29872.5 1764.86   5
   2   0 -11 26118.3 1933.10   4
  -2   0  11 29128.7 1144.95   1
   2   0 -11 28321.4 1754.18   6
  -2   0  10 7715.30 556.649   1
   2   0 -10 7782.91 1045.46   4
  -2   0  10 7193.95 876.899   5
  -2   0   9 41336.6 1142.91   1
   2   0  -9 37575.5 2091.47   4
  -2   0   9 41848.4 1859.01   5
  -2   0   8 42775.1 1051.44   1
  -2   0   8 42016.4 1762.38   5
   2   0  -8 38145.4 1193.14   1
   2   0  -8 41045.0 2041.53   4
  -2   0   7 26742.3 740.983   1
  -2   0   7 25518.0 1287.18   5
   2   0  -7 24755.0 864.707   1
   2   0  -7 23271.0 1453.20   4
  -2   0   6 4494.35 512.778   5
  -2   0   6 5083.80 289.230   1
   2   0  -6 5082.68 261.441   7
   2   0  -6 4306.25 623.672   4
  -2   0   5 30783.7 1210.80   5
  -2   0   5 31028.3 601.918   1
   2   0  -5 29844.9 1432.05   4
   2   0  -5 32226.6 698.122   7
  -2   0   4 27788.8 1057.65   5
   2   0  -4 28115.7 1291.12   4
  -2   0   4 27345.6 504.125   1
  -2   0   3 33945.9 1071.28   5
   2   0  -3 34169.3 1316.14   4
  -2   0   2 10211.0 311.268   1
   2   0  -2 9726.00 320.658   1
  -2   0   2 10201.8 541.906   5
   2   0  -2 9641.34 667.263   4
   2   0  -1 388366. 3962.55   4
  -2   0   1 392294. 3069.57   5
  -2   0   1 402560. 2872.28   2
   2   0  -1 403416. 2414.24   1
   2   0   0 316361. 2460.61   1
  -2   0   0 313388. 2511.88   2
  -2   0   0 322195. 2507.04   3
  -2   0   0 322734. 2715.41   6
   2   0   0 316219. 2528.47   3
   2   0   1 521570. 3430.76   3
  -2   0  -1 500539. 3489.51   6
   2   0   1 496080. 3398.72   1
  -2   0  -1 514341. 3380.42   2
  -2   0  -2 302034. 2905.11   2
  -2   0  -2 301270. 2868.82   6
   2   0   2 295559. 3009.29   6
   2   0   2 301931. 2902.04   1
  -2   0  -2 298556. 2896.38   5
  -2   0  -3 37.0209 74.5087   5
  -2   0  -3 185.930 103.336   2
   2   0   3 30.1284 140.512   1
   2   0   3-99.4497 91.9815   6
   2   0   3 84.8952 136.184   5
  -2   0  -3 256.298 143.861   6
  -2   0  -4 38749.4 1220.59   6
   2   0   4 38032.3 1227.87   5
   2   0   4 38776.4 1233.32   1
  -2   0  -4 40329.0 1318.50   2
   2   0   4 38437.5 1297.16   6
  -2   0  -4 39599.0 1207.18   5
   2   0   5 25072.5 1084.06   5
   2   0   5 25731.6 1074.00   1
  -2   0  -5 24265.2 1119.37   2
  -2   0  -5 24590.0 1046.08   6
   2   0   5 21752.0 1063.25   6
   2   0   6 1961.79 356.317   1
   2   0   6 1323.31 306.371   5
  -2   0  -6 1217.91 317.302   2
  -2   0  -6 1445.03 309.764   6
  -2   0  -7 1162.94 285.810   6
   2   0   7 1309.00 337.509   5
  -2   0  -7 1093.99 338.609   2
   2   0   7 1553.71 342.995   1
  -2   0  -8 1646.37 354.429   6
   2   0   8 1692.16 386.883   5
   2   0   8 1118.18 360.891   1
  -2   0  -8 1208.35 394.978   2
  -2   0  -9 17997.5 1302.81   2
   2   0   9 19466.0 1275.36   5
   2   0   9 22074.6 1281.09   1
  -2   0  -9 20053.8 1218.50   6
  -2   0 -10 2682.79 515.085   6
  -2   0 -10 1964.77 510.877   2
   2   0  10 2122.23 448.149   5
   2   0  10 2587.67 545.560   1
  -2   0 -11 4884.19 674.126   6
  -2   0 -11 3914.11 717.524   2
   2   0  11 3980.00 624.311   1
   2   0  11 4001.91 708.209   5
  -2   0 -12 1022.07 532.077   2
  -2   0 -12 1085.63 406.138   6
   2   0  12 989.570 515.738   5
   2   0  12 910.963 374.201   1
  -2   0 -13 2781.36 691.488   2
  -2   0 -13 3354.56 585.314   6
   2   0  13 3180.61 707.725   5
   2   0  13 3919.93 745.613   1
  -2   0 -14 3367.43 838.915   2
   2   0  14 5384.09 812.975   1
   2   0  14 5059.23 920.795   5
  -2   0 -15 165.205 181.905   2
   2   0  15 402.072 482.724   5
   2   0  15-88.4233 261.216   1
   2   0  16 3312.49 771.856   1
  -2   0 -16 1182.44 505.713   2
  -2  -1  17-141.142 621.894   5
  -2   1  17 2307.06 639.459   5
  -2   1  16 893.801 475.615   5
   2   1 -16 532.554 615.372   4
  -2  -1  16 713.161 481.171   5
   2  -1 -16 61.7401 224.521   4
   2  -1 -16 1381.09 502.510   6
   2  -1 -15 250.123 462.865   4
  -2  -1  15 917.068 501.416   5
   2   1 -15 724.517 457.822   4
   2  -1 -15 542.623 359.864   6
  -2   1  15 691.252 445.615   5
   2  -1 -14 1145.13 576.444   6
   2   1 -14 1431.54 692.220   4
  -2   1  14 1617.15 586.090   5
  -2  -1  14 2187.57 560.898   5
   2  -1 -14 2122.47 680.860   4
  -2  -1  13 647.102 282.682   1
   2   1 -13 890.435 432.852   6
  -2  -1  13 220.061 218.719   5
   2  -1 -13 547.731 382.624   6
   2  -1 -13 267.914 527.178   4
  -2   1  13 344.930 490.296   5
   2   1 -13 838.373 444.942   4
   2   1 -12 3188.49 602.731   6
   2  -1 -12 3209.86 852.979   4
  -2   1  12 3042.48 417.905   1
  -2  -1  12 2764.18 416.471   1
  -2   1  12 3155.25 702.648   5
  -2  -1  12 3492.02 666.864   5
   2  -1 -12 3885.35 810.618   6
   2   1 -12 2610.18 713.360   4
   2   1 -11 3698.58 749.571   4
  -2  -1  11 3299.04 413.558   1
  -2   1  11 2947.22 396.702   1
  -2  -1  11 3358.78 619.960   5
   2  -1 -11 2928.52 689.305   4
   2  -1 -11 3113.72 756.774   6
  -2   1  11 4577.81 764.637   5
  -2   1  10 10854.7 692.574   1
   2   1 -10 9550.96 1170.46   4
  -2  -1  10 11240.2 1019.59   5
  -2   1  10 10858.2 1063.77   5
  -2  -1  10 11270.1 721.234   1
   2  -1 -10 11311.7 1198.05   4
   2  -1 -10 11135.9 1122.14   6
   2  -1  -9 31733.8 1903.02   4
  -2   1   9 32519.8 1065.94   1
  -2   1   9 33227.2 1742.31   5
  -2  -1   9 31867.4 1582.41   5
   2  -1  -9 31616.1 989.688   1
   2   1  -9 31905.7 1913.27   4
  -2  -1   9 35101.7 1198.22   1
  -2   1   8 38257.2 1046.45   1
  -2   1   8 37099.6 1731.75   5
   2  -1  -8 37912.5 1972.56   4
  -2  -1   8 38489.5 1202.82   1
   2  -1  -8 36453.8 943.111   1
   2   1  -8 36941.3 1958.43   4
  -2  -1   8 38909.9 1649.03   5
   2   1  -8 36956.4 1154.97   7
  -2  -1   7 6704.90 673.434   5
   2   1  -7 5658.70 762.584   4
   2  -1  -7 6723.91 350.955   1
  -2  -1   7 7111.96 525.997   1
   2   1  -7 6868.87 507.703   7
   2  -1  -7 6984.41 841.212   4
  -2   1   7 8019.32 768.258   5
  -2   1   7 7036.66 409.707   1
   2   1  -6 19.5636 116.742   7
  -2   1   6 296.984 196.424   5
   2   1  -6-92.1883 223.563   4
  -2   1   6 299.533 100.018   1
   2  -1  -6 210.810 73.5057   1
   2  -1  -6 123.811 245.763   4
  -2  -1   6 273.829 144.613   1
  -2  -1   6 290.520 139.291   5
   2  -1  -5 44104.9 602.364   1
  -2  -1   5 42251.0 1412.50   5
  -2   1   5 43334.1 732.082   1
  -2   1   5 42017.7 1494.47   5
   2   1  -5 44586.7 1747.13   4
   2  -1  -5 41646.8 1711.12   4
   2  -1  -5 43370.7 740.309   7
   2   1  -5 42606.9 1222.79   7
  -2  -1   5 42023.1 1192.52   1
   2  -1  -4 70551.8 2073.67   4
   2   1  -4 72178.5 1461.59   6
  -2   1   4 70028.2 1752.84   5
  -2  -1   4 70806.9 1711.01   5
  -2  -1   4 71219.9 2054.76   4
  -2   1   4 75331.2 1573.12   8
   2   1  -4 73593.6 2067.56   4
   2   1  -4 69653.2 1528.11   7
  -2   1   3 78153.6 1513.65   8
  -2  -1   3 82222.0 1734.16   5
  -2   1   3 79283.3 1672.13   5
   2   1  -3 78980.4 1590.23   7
   2   1  -3 79131.4 1477.49   6
  -2  -1   3 75379.6 1952.39   4
   2   1  -3 78772.1 1954.53   4
   2  -1  -3 76008.1 2040.07   4
  -2  -1   2 47600.9 1126.31   6
  -2   1   2 49614.3 1178.93   5
  -2  -1   2 48484.6 1194.28   1
  -2  -1   2 49579.9 1446.17   4
   2  -1  -2 51292.2 1189.67   5
   2  -1  -2 49524.3 1567.20   4
   2  -1  -2 48669.1 750.775   1
   2   1  -2 47500.7 1383.62   4
   2  -1  -2 48635.5 1105.54   8
   2   1  -1 154233. 2150.83   1
  -2   1   1 153961. 2261.97   2
  -2   1   1 153056. 1782.12   5
  -2  -1   1 151687. 1549.17   8
   2  -1  -1 154534. 1809.60   5
   2  -1  -1 151681. 1533.21   1
  -2   1   1 152907. 1740.77   1
   2   1  -1 150714. 2291.62   4
  -2  -1   1 149100. 2336.11   4
  -2  -1   1 153129. 2071.01   6
  -2   1   0 102716. 1962.40   3
  -2   1   0 101990. 1227.27   5
  -2   1   0 106254. 1848.27   2
   2  -1   0 105062. 1442.53   1
  -2  -1   0 103049. 1777.12   6
   2   1   0 102703. 1791.74   1
   2   1   0 108132. 1472.41   8
   2  -1   0 101769. 1233.58   5
  -2   1  -1 166445. 1299.88   5
  -2   1  -1 164610. 2473.86   3
   2  -1   1 164884. 2013.44   1
  -2  -1  -1 167751. 1329.41   2
  -2   1  -1 162901. 2364.07   2
   2   1   1 161812. 2357.73   1
  -2  -1  -1 164187. 2416.50   6
   2  -1   1 160434. 1781.08   6
   2   1   2 15830.3 784.907   1
  -2   1  -2 14825.9 524.921   6
  -2   1  -2 15027.0 768.434   2
   2  -1   2 13763.3 641.082   1
  -2  -1  -2 15950.9 540.970   2
  -2   1  -2 14860.3 426.160   5
  -2  -1  -2 15432.6 810.486   6
   2  -1   2 16042.1 564.391   6
   2  -1   3 6940.19 498.564   1
  -2   1  -3 6663.15 562.658   2
   2  -1   3 7490.82 367.817   5
   2   1   3 7262.25 596.446   1
   2  -1   3 6822.71 398.557   6
  -2  -1  -3 7524.52 461.019   2
   2   1   3 5879.46 543.473   5
  -2  -1  -3 6719.61 581.654   6
  -2   1  -3 6956.65 374.226   6
  -2   1  -3 6837.36 332.186   5
   2  -1   4 9144.39 512.777   6
   2  -1   4 11065.0 671.889   1
  -2  -1  -4 8584.31 694.151   6
   2   1   4 11406.8 799.338   5
   2  -1   4 9806.13 493.471   5
  -2   1  -4 10459.1 482.702   5
   2   1   4 10992.7 757.462   1
  -2   1  -4 10272.4 485.796   6
  -2   1  -4 9425.27 712.672   2
   2   1   5 18208.6 1015.63   1
   2  -1   5 18411.8 771.348   5
  -2  -1  -5 18071.3 1060.05   6
  -2   1  -5 17633.6 713.345   5
   2  -1   5 19158.1 924.926   1
  -2   1  -5 18346.0 1061.23   2
   2   1   5 17983.1 1061.25   5
  -2   1  -5 18221.0 704.977   6
   2  -1   5 17384.2 782.350   6
   2  -1   6 215.417 189.840   1
   2  -1   6 195.543 93.3911   6
   2   1   6 174.165 238.697   5
  -2  -1  -6-56.0641 187.995   6
   2   1   6 183.182 224.157   1
  -2   1  -6 112.498 145.204   6
  -2   1  -6 190.302 143.764   5
   2  -1   6 226.936 97.5586   5
  -2   1  -6 166.402 183.041   2
  -2   1  -7 3823.72 590.769   2
   2  -1   7 3529.90 417.302   5
  -2  -1  -7 3996.09 575.680   6
   2   1   7 3620.56 564.118   5
   2   1   7 3797.09 535.891   1
   2  -1   7 3149.27 389.754   6
  -2   1  -7 3413.64 378.171   6
   2  -1   7 3479.81 462.555   1
   2  -1   8 9654.07 746.995   5
   2   1   8 9049.27 922.067   5
   2   1   8 9502.62 862.000   1
   2  -1   8 8879.38 756.872   1
  -2   1  -8 9698.69 943.829   2
  -2   1  -8 10165.4 683.275   6
  -2  -1  -8 8372.50 860.195   6
  -2   1  -9 5853.43 808.372   2
   2   1   9 5067.49 738.053   5
   2   1   9 4735.66 664.132   1
   2  -1   9 4092.84 576.204   1
  -2   1  -9 4947.92 525.184   6
   2  -1   9 6035.52 672.340   5
  -2  -1  -9 5685.50 737.498   6
  -2  -1 -10 3040.03 563.191   6
   2   1  10 3842.60 642.730   1
   2   1  10 3801.52 715.671   5
  -2   1 -10 2676.21 432.044   6
   2  -1  10 2918.50 553.288   5
  -2   1 -10 2674.09 578.338   2
   2  -1  10 3627.00 585.094   1
   2  -1  11 993.895 391.986   1
   2   1  11 1810.66 572.331   5
   2  -1  11 1360.24 362.106   5
  -2   1 -11 875.515 304.154   6
  -2   1 -11 829.515 394.581   2
   2   1  11 444.628 437.087   1
  -2  -1 -11 1219.85 415.613   6
   2  -1  12 14278.2 1220.85   5
   2   1  12 11345.6 1193.06   1
  -2  -1 -12 11764.0 1252.15   2
  -2   1 -12 13153.9 1401.24   2
  -2  -1 -12 10943.1 1140.89   6
   2  -1  12 13807.3 1148.09   1
   2   1  12 11612.1 1267.19   5
  -2   1 -13 1944.30 587.118   2
   2   1  13 2649.80 625.592   1
   2  -1  13 1178.31 455.431   5
   2   1  13 1488.80 555.176   5
  -2  -1 -13 1740.93 489.752   6
   2  -1  13 1237.33 395.848   1
  -2  -1 -13 1454.19 640.841   2
   2   1  14 1240.31 414.143   1
  -2  -1 -14 1628.44 618.666   6
  -2   1 -14 1970.43 671.935   2
   2   1  14 2696.47 678.852   5
  -2  -1 -14 882.322 607.357   2
   2  -1  14 1732.63 518.482   1
  -2   1 -15 2095.72 767.995   2
   2   1  15 4031.82 858.352   1
  -2  -1 -15 3987.25 935.760   2
   2   1  15 3425.42 913.018   5
   2  -1  15 3063.72 618.608   1
  -2  -1 -16 1231.98 513.420   2
   2   1  16 775.019 536.761   5
   2  -1  16 1231.85 653.846   1
   2   1  16 1513.92 533.258   1
   2  -2 -17-384.197 567.757   6
  -2   2  16 911.714 449.260   5
   2   2 -16 173.232 422.807   2
   2  -2 -16 1475.11 617.478   6
  -2  -2  16 1545.82 541.025   5
   2   2 -16-273.602 635.004   4
   2  -2 -16 537.760 375.273   4
   2  -2 -15 1870.60 752.119   6
   2  -2 -15 2056.83 969.327   4
  -2   2  15 1856.31 775.810   5
  -2  -2  15 1439.42 577.775   5
   2   2 -15 568.984 506.495   4
   2  -2 -14 897.961 583.376   4
   2  -2 -14-233.676 275.259   6
  -2   2  14 99.9784 509.591   5
  -2  -2  14 79.5745 209.376   1
  -2  -2  14-317.636 359.499   5
   2   2 -14 387.300 436.572   4
  -2   2  13 4472.99 846.769   5
  -2  -2  13 4647.04 599.535   1
   2  -2 -13 4458.13 946.474   4
   2   2 -13 3506.21 885.464   4
   2  -2 -13 3484.92 882.533   6
  -2  -2  13 4284.45 751.284   5
   2  -2 -12 1483.98 557.428   4
  -2  -2  12 1569.26 402.072   1
  -2   2  12 2415.13 718.300   5
  -2  -2  12 1601.67 522.641   5
   2  -2 -12 357.766 248.691   6
   2   2 -12 1992.60 588.741   4
   2  -2 -11 8022.13 1151.23   6
  -2  -2  11 8350.19 927.982   5
  -2  -2  11 9324.19 791.968   1
   2  -2 -11 8481.57 1155.54   4
   2   2 -11 7968.11 1087.22   4
  -2   2  11 9338.21 742.332   1
  -2   2  11 8695.39 1065.76   5
   2  -2 -10 3126.32 703.987   4
  -2   2  10 2727.66 660.488   5
  -2  -2  10 3518.69 571.003   5
  -2   2  10 2749.99 406.348   1
   2  -2 -10 2855.66 643.248   6
   2   2 -10 3549.76 722.073   4
  -2  -2  10 3112.47 464.894   1
   2  -2  -9 14323.8 1320.30   6
  -2   2   9 15514.2 831.806   1
  -2  -2   9 14581.1 958.187   1
  -2   2   9 13963.5 1193.05   5
   2   2  -9 13583.0 1313.54   4
   2  -2  -9 13569.4 1269.18   4
   2   2  -9 15174.8 966.392   7
  -2  -2   9 16218.4 1137.23   5
   2  -2  -8 8330.16 981.236   6
   2   2  -8 8875.04 732.528   7
  -2   2   8 10533.0 631.296   1
  -2  -2   8 9825.61 838.795   5
   2  -2  -8 10300.8 523.261   1
  -2  -2   8 10489.4 795.439   1
   2   2  -8 8635.23 963.330   4
   2  -2  -8 8438.40 933.966   4
  -2   2   8 10823.8 1025.64   5
   2  -2  -7 12581.9 567.661   1
  -2   2   7 11866.2 978.196   5
  -2  -2   7 11345.4 836.580   5
  -2  -2   7 12539.1 868.072   1
   2   2  -7 13409.5 1148.13   4
   2  -2  -7 13174.3 1124.57   4
   2   2  -7 12129.5 855.615   7
  -2   2   7 12517.4 674.038   1
   2  -2  -6 16014.8 630.039   7
  -2  -2   6 17212.7 975.333   5
   2  -2  -6 15952.1 630.488   1
   2   2  -6 15555.2 1113.23   4
  -2  -2   6 16803.5 1005.19   1
   2  -2  -6 15110.7 1115.66   4
  -2   2   6 17265.1 1111.79   5
   2   2  -6 14580.6 914.638   7
   2   2  -6 15089.8 719.743   6
   2  -2  -5 42448.5 1739.91   4
   2   2  -5 39545.6 1506.33   7
  -2   2   5 41661.5 1584.91   5
  -2  -2   5 40920.4 1434.74   5
   2  -2  -5 42296.9 1145.99   7
   2  -2  -5 41135.2 994.451   1
   2   2  -5 38364.0 1617.82   4
   2   2  -5 41021.2 1160.70   6
   2  -2  -4 10736.2 535.456   1
  -2   2   4 10065.4 738.799   5
  -2  -2   4 10593.5 714.772   5
   2  -2  -4 9837.56 799.892   4
   2   2  -4 10100.3 772.013   4
   2   2  -4 10374.3 772.766   7
   2  -2  -4 10838.7 626.572   7
   2   2  -4 11000.0 609.292   6
   2  -2  -3 43615.3 1593.62   4
   2   2  -3 45735.5 1281.94   6
  -2  -2   3 45398.3 1495.47   4
  -2  -2   3 47330.1 1202.10   6
   2   2  -3 46658.5 1577.54   7
   2  -2  -3 44520.3 1454.22   8
   2   2  -3 46197.3 1453.69   4
  -2   2   3 47978.1 1677.96   4
   2  -2  -3 44991.1 1326.87   7
  -2   2   3 45464.9 1412.03   5
   2  -2  -2 11453.5 687.728   7
  -2   2   2 12968.8 786.235   2
  -2   2   2 12766.1 674.363   5
   2   2  -2 13223.5 538.984   2
   2  -2  -2 11401.6 800.761   4
   2  -2  -2 13107.6 804.687   8
  -2  -2   2 13122.3 712.644   4
   2   2  -2 12491.5 712.367   6
   2   2  -2 12435.7 811.347   7
   2   2  -2 13309.0 700.627   4
   2  -2  -2 11774.5 622.720   5
  -2  -2   2 11972.1 639.206   6
   2   2  -1 18880.4 755.337   4
   2   2  -1 19085.6 912.916   6
  -2   2   1 19367.6 728.275   5
   2  -2  -1 18569.3 691.994   5
  -2   2   1 20848.2 983.789   2
   2   2  -1 19628.0 467.191   2
  -2   2   1 20124.5 1055.17   3
   2  -2  -1 17827.1 802.489   1
  -2  -2   1 19851.9 794.315   4
  -2  -2   1 19189.0 850.112   8
   2   2  -1 19603.6 992.511   7
   2  -2  -1 19309.4 925.611   7
  -2  -2   1 18865.0 855.651   6
   2   2   0 25112.7 1133.48   1
  -2  -2   0 28693.9 1042.91   8
  -2   2   0 25846.9 701.338   5
   2  -2   0 26615.4 686.202   5
  -2   2   0 25975.7 1109.50   2
   2   2   0 25894.7 1021.59   8
   2  -2   0 25969.4 1015.02   1
   2   2   0 27134.8 852.637   4
   2   2   0 26551.2 541.037   3
  -2   2   0 27524.5 1224.39   3
  -2  -2   0 26901.8 1090.51   6
   2   2   1 20720.9 1046.37   1
  -2   2  -1 20602.5 440.045   5
  -2   2  -1 21592.8 1026.68   2
   2   2   1 20726.8 956.639   8
   2  -2   1 20439.8 423.667   5
   2  -2   1 20238.9 933.438   1
  -2   2  -1 21013.8 1081.89   3
  -2  -2  -1 20724.9 1029.72   6
   2   2   2 30911.4 1294.86   1
  -2   2  -2 31266.4 1269.23   2
   2  -2   2 30929.0 1188.47   1
   2  -2   2 31413.0 737.243   6
  -2  -2  -2 31775.1 1341.71   6
  -2  -2  -3 3151.99 471.502   6
   2   2   3 4049.34 505.411   1
   2  -2   3 3936.34 242.373   6
  -2   2  -3 3373.37 459.794   2
   2  -2   3 3629.71 438.592   1
   2   2   3 3840.98 545.576   5
   2   2   3 4623.57 442.978   4
   2   2   4 44905.4 1657.80   1
  -2   2  -4 45242.1 1690.19   2
   2   2   4 45902.1 1817.02   5
   2  -2   4 47277.2 1565.53   1
   2   2   4 47327.4 1538.10   4
   2  -2   4 44539.4 821.627   6
  -2  -2  -4 46319.2 1802.01   6
  -2   2  -5 53037.8 1941.19   2
  -2  -2  -5 50299.7 1976.65   6
   2   2   5 50229.5 1820.33   1
   2   2   5 48887.6 1966.95   5
  -2   2  -5 50677.5 867.488   5
   2  -2   5 50102.0 891.040   6
   2  -2   5 53289.5 1717.75   1
   2  -2   5 49348.5 926.055   5
  -2   2  -6 9748.95 882.946   2
   2   2   6 9252.20 840.865   1
   2  -2   6 8820.00 483.875   5
   2  -2   6 8542.39 730.507   1
  -2   2  -6 8626.72 449.890   5
   2   2   6 10232.2 958.181   5
  -2  -2  -6 8674.78 875.289   6
  -2   2  -6 8572.21 325.046   6
   2   2   7 2783.56 512.546   1
  -2   2  -7 2680.57 301.038   5
   2   2   7 2657.40 506.712   5
   2  -2   7 2910.99 475.058   1
   2  -2   7 2497.47 307.043   5
  -2   2  -7 2173.96 471.859   2
  -2  -2  -7 2980.63 572.746   6
  -2   2  -7 2277.30 193.989   6
   2   2   8 9023.65 1018.21   5
   2   2   8 8028.27 875.543   1
   2  -2   8 9491.16 844.863   1
  -2   2  -8 8738.90 968.345   2
  -2   2  -8 8638.28 424.017   6
   2  -2   8 8682.62 629.683   5
  -2  -2  -8 9247.02 1000.85   6
   2  -2   9 9862.05 744.096   5
   2   2   9 11890.8 1206.30   5
   2   2   9 10503.8 1020.37   1
  -2   2  -9 10902.5 524.227   6
   2  -2   9 9962.86 877.609   1
  -2   2  -9 11489.6 1160.85   2
  -2  -2  -9 9666.43 1067.39   6
  -2  -2 -10 16449.5 1429.15   6
   2   2  10 17088.2 1475.13   5
   2  -2  10 16946.3 1047.34   5
   2   2  10 19508.7 1418.62   1
  -2   2 -10 18114.5 1484.28   2
   2  -2  10 18324.8 1249.03   1
   2   2  11 11391.4 1302.47   5
   2   2  11 10948.3 1134.32   1
   2  -2  11 11129.6 1027.38   1
  -2  -2 -11 10364.9 1194.40   6
  -2   2 -11 11383.0 1267.26   2
  -2  -2 -12 1793.02 626.253   6
   2   2  12 1719.04 596.821   1
   2   2  12 1998.19 634.824   5
   2  -2  12 1916.88 488.204   1
  -2   2 -12 1891.42 558.833   2
   2   2  13 5834.63 983.838   1
   2   2  13 5364.58 1037.62   5
   2  -2  13 5648.69 845.244   1
  -2  -2 -13 5007.77 926.209   6
  -2   2 -13 3700.60 905.081   2
  -2  -2 -14 487.749 273.255   6
   2   2  14 332.765 213.336   1
   2  -2  14-183.138 260.201   1
   2   2  14 217.095 308.349   5
  -2   2 -14 930.730 407.651   2
   2   2  15-14.1842 143.241   1
  -2  -2 -15-457.860 321.512   6
   2   2  15 369.590 281.182   5
   2  -2  15 495.136 344.002   1
  -2  -2 -15 323.038 486.236   2
  -2   2 -15 843.922 549.859   2
  -2  -2 -16 2480.39 659.858   2
  -2  -2 -16 3351.98 841.970   6
   2   2  16 2463.80 800.667   5
   2  -2  16 1612.32 597.954   1
   2  -3 -16 1575.60 617.231   6
   2  -3 -16 65.2282 442.404   4
   2   3 -15 722.090 486.723   4
   2  -3 -15 692.989 521.500   6
  -2   3  15 488.880 401.099   5
   2  -3 -15-3.98571 659.893   4
   2   3 -15 968.346 602.984   2
  -2  -3  14 349.754 265.138   1
   2   3 -14 576.971 362.702   2
  -2   3  14 1219.08 485.752   5
  -2  -3  14 910.224 485.927   5
   2  -3 -14 243.831 384.572   4
   2   3 -14 280.501 562.295   4
   2  -3 -14 504.949 436.325   6
  -2  -3  13 463.754 295.815   5
   2  -3 -13-507.354 457.043   6
  -2  -3  13-69.2888 172.520   1
   2   3 -13 173.454 250.930   2
   2   3 -13-456.721 375.850   4
  -2   3  13-93.2755 269.330   5
   2  -3 -13 254.900 408.287   4
  -2   3  12 444.195 278.970   5
   2   3 -12 357.886 492.922   2
   2  -3 -12 868.293 458.781   6
  -2  -3  12 233.213 268.811   5
   2  -3 -12 144.316 371.290   4
  -2  -3  12 278.404 207.613   1
   2   3 -12 524.685 355.773   4
   2   3 -11 4589.96 804.440   2
   2  -3 -11 5169.29 926.608   6
  -2   3  11 5184.37 850.031   5
  -2  -3  11 6185.26 786.383   5
  -2  -3  11 4579.44 689.829   1
   2   3 -11 4922.22 954.019   4
   2  -3 -11 5791.83 955.952   4
   2   3 -10 547.473 299.558   7
   2  -3 -10 266.882 434.223   4
  -2  -3  10 325.798 248.324   1
  -2   3  10 1219.98 446.267   5
  -2  -3  10 1004.51 315.324   5
   2  -3 -10 469.470 279.913   6
   2   3 -10 929.843 499.003   4
  -2   3  10 628.570 258.341   1
   2   3 -10 720.253 324.564   2
   2   3  -9 2579.75 574.186   7
   2  -3  -9 2703.76 650.359   6
  -2   3   9 3125.55 636.383   5
   2   3  -9 2507.72 575.833   2
  -2  -3   9 3131.04 526.039   5
   2  -3  -9 2484.45 526.988   4
  -2  -3   9 3119.55 558.821   1
   2   3  -9 2174.60 577.319   4
   2  -3  -8 10285.7 1181.13   6
  -2  -3   8 10655.8 881.362   5
   2   3  -8 10271.3 971.937   2
  -2  -3   8 9566.86 908.132   1
   2   3  -8 10438.7 1090.65   4
   2  -3  -8 9797.05 1034.70   4
   2   3  -8 10549.6 971.348   7
  -2   3   8 10193.2 1046.32   5
  -2  -3   7 5969.77 648.480   5
  -2   3   7 5513.41 761.655   5
   2   3  -7 6257.65 724.963   2
   2   3  -7 7499.43 869.462   4
  -2  -3   7 6021.21 754.157   1
   2  -3  -7 5999.84 784.198   4
   2  -3  -7 6345.13 909.453   6
   2   3  -7 5501.97 703.133   7
   2   3  -7 5845.64 489.937   6
   2  -3  -7 6958.72 530.802   7
   2  -3  -6 2644.50 524.199   4
   2   3  -6 2812.15 462.930   2
  -2   3   6 2171.90 427.163   5
   2   3  -6 2543.50 496.342   7
  -2  -3   6 3366.94 456.933   5
   2  -3  -6 2733.77 620.494   6
   2   3  -6 2532.76 329.979   6
   2   3  -6 2129.92 427.859   4
   2  -3  -5 4179.97 668.844   6
   2   3  -5 2955.75 369.670   6
  -2   3   5 2799.54 526.752   5
   2   3  -5 2781.64 454.780   4
   2   3  -5 3319.16 469.150   2
  -2  -3   5 3294.30 447.342   5
   2   3  -5 2533.77 493.184   7
   2  -3  -5 2469.75 449.809   4
  -2   3   4 33354.2 1457.76   5
  -2  -3   4 33898.3 1095.98   6
   2   3  -4 32763.1 1231.93   2
   2   3  -4 32421.8 1598.29   7
   2  -3  -4 32310.4 1470.96   4
   2   3  -4 33781.3 1365.23   4
   2  -3  -4 33140.9 1526.12   8
  -2  -3   4 32698.0 1377.92   5
  -2  -3   3 35331.8 1161.31   3
   2   3  -3 37849.3 1173.95   2
   2   3  -3 37070.5 1680.90   7
   2   3  -3 39480.7 1316.23   4
   2  -3  -3 37218.1 1513.21   4
  -2  -3   3 38407.4 1382.74   4
  -2   3   3 39880.8 1477.74   5
  -2  -3   3 37761.4 1215.75   6
   2  -3  -3 38214.6 1638.39   8
  -2   3   2 13765.4 920.210   2
  -2   3   2 12684.3 774.083   5
  -2  -3   2 12777.1 762.711   6
   2   3  -2 13677.7 615.806   2
   2  -3  -2 14050.3 1008.67   8
   2  -3  -2 12263.0 862.842   4
   2   3  -2 12920.6 649.581   4
  -2  -3   2 13261.5 681.354   3
   2   3  -2 12915.4 987.946   7
  -2  -3   2 12068.0 664.378   4
  -2   3   1 21087.7 895.897   5
  -2   3   1 21868.1 1133.35   2
   2   3  -1 20580.5 629.666   2
  -2  -3   1 21414.4 1142.28   8
   2  -3  -1 22102.6 885.344   5
   2   3  -1 21355.4 684.393   4
   2  -3  -1 20418.3 1090.47   4
   2   3  -1 21024.9 1231.76   7
  -2   3   1 20218.0 1219.65   3
  -2  -3   1 21231.5 1046.89   6
   2   3   0 16096.9 665.635   3
  -2   3   0 14502.5 675.165   5
   2  -3   0 15572.5 649.631   5
   2   3   0 15704.1 1069.65   7
  -2   3   0 15346.4 956.908   2
   2   3   0 15282.7 457.336   2
  -2  -3   0 15104.8 461.943   2
  -2  -3   0 14399.1 941.273   8
   2  -3   0 13730.0 927.695   1
  -2   3   0 14711.7 1040.22   3
   2   3   0 14507.0 449.595   4
  -2  -3   0 14977.6 931.877   6
   2   3   1 9088.01 360.755   4
  -2   3  -1 8876.75 833.415   3
  -2   3  -1 8035.17 729.727   2
   2   3   1 9369.30 548.721   3
   2  -3   1 8965.20 404.600   5
  -2   3  -1 9365.63 453.524   5
  -2  -3  -1 9076.15 331.637   2
   2   3   1 9011.23 336.275   4
   2  -3   1 8428.56 762.171   1
   2   3   1 9646.05 842.890   7
  -2  -3  -1 8495.63 769.466   6
  -2   3  -2 27936.6 1335.58   2
  -2  -3  -2 28894.4 1448.21   6
  -2  -3  -2 28026.1 688.018   2
   2   3   2 29131.7 1428.15   7
   2  -3   2 28920.6 1393.68   1
   2   3   2 29046.4 775.129   4
   2   3   2 28840.5 1472.63   1
   2  -3   3 15964.9 611.523   6
   2   3   3 15233.1 1133.01   5
   2   3   3 16263.4 1132.61   1
  -2  -3  -3 15766.7 587.273   2
  -2   3  -3 16210.5 1079.60   2
   2  -3   3 16898.3 1092.38   1
   2   3   3 16560.1 725.384   4
   2   3   3 15981.0 1057.20   7
   2  -3   3 15897.4 505.159   6
  -2  -3  -3 15754.2 1139.23   6
   2   3   4 9347.31 865.501   1
  -2   3  -4 8887.93 840.900   2
   2  -3   4 7754.01 779.505   1
   2   3   4 9899.49 964.162   5
   2   3   4 7089.04 716.709   7
   2   3   4 8081.07 612.075   4
  -2  -3  -4 9794.84 928.383   6
   2   3   5 17328.4 1305.85   5
   2   3   5 16205.3 1174.03   1
   2   3   5 16614.5 1092.77   7
  -2   3  -5 14472.5 1124.24   2
   2  -3   5 17466.3 1149.18   1
  -2  -3  -5 16126.4 1264.03   6
   2   3   6 2224.32 500.374   5
  -2  -3  -6 2427.55 589.776   6
   2  -3   6 2483.46 492.420   1
  -2   3  -6 2520.21 559.718   2
   2   3   6 3120.72 502.578   7
   2   3   6 2493.26 483.238   1
  -2  -3  -7 4787.96 806.943   6
   2  -3   7 6174.82 356.455   5
  -2   3  -7 5946.15 824.344   2
   2   3   7 6528.89 911.045   5
   2   3   7 5610.03 743.389   1
   2  -3   7 4947.50 684.878   1
  -2  -3  -8 589.076 405.242   6
   2   3   8 809.629 420.000   5
   2  -3   8 279.677 306.295   1
  -2   3  -8 478.087 362.334   2
   2   3   8 978.413 296.838   7
   2   3   8 750.843 328.752   1
   2   3   9 11850.6 1133.93   1
  -2   3  -9 10528.9 1140.17   2
   2  -3   9 12104.0 1063.47   1
   2   3   9 11125.1 1253.89   5
   2   3   9 11101.5 947.368   7
  -2  -3  -9 12393.1 1293.78   6
  -2  -3 -10 1114.39 466.567   6
   2  -3  10 1244.50 380.806   1
   2   3  10 734.986 498.385   5
  -2   3 -10 627.210 427.705   2
   2   3  10 1087.98 361.216   7
   2   3  10 1114.90 484.503   1
  -2  -3 -11 3364.48 802.742   6
   2  -3  11 4359.59 683.534   1
   2   3  11 5778.45 992.624   5
   2   3  11 3786.35 716.050   1
  -2   3 -11 3306.60 866.296   2
   2   3  12-321.254 385.407   1
  -2  -3 -12 548.145 497.883   6
   2   3  12 335.922 291.493   5
   2  -3  12 349.705 375.952   1
  -2   3 -12-583.312 337.204   2
   2   3  13 738.602 314.103   1
  -2   3 -13 952.433 449.875   2
   2  -3  13 956.501 427.373   1
  -2  -3 -13 1150.29 462.778   6
   2   3  13-43.0567 339.490   5
   2  -3  14 159.557 468.824   1
  -2  -3 -14 21.6432 183.868   6
   2   3  14 73.5713 510.742   5
  -2   3 -14 165.510 570.819   2
   2   3  14 292.955 257.040   1
  -2  -3 -15 1927.74 717.635   6
   2   3  15 1885.18 610.662   1
   2  -3  15 1502.79 610.922   1
   2   4 -15 199.860 665.634   2
  -2  -4  15 884.878 531.797   1
   2   4 -15-39.5975 408.218   4
   2  -4 -14-948.318 680.230   6
   2   4 -14-1194.36 493.125   2
   2  -4 -14-241.784 498.394   4
   2   4 -14 285.537 455.192   4
  -2   4  14 267.717 293.674   5
  -2  -4  14 94.8234 286.828   1
   2   4 -13 396.771 432.920   4
   2   4 -13 31.1560 377.998   2
  -2   4  13 1680.14 568.786   5
  -2  -4  13 463.520 304.533   1
   2  -4 -13 637.535 634.776   4
   2  -4 -13 1430.38 704.767   6
   2   4 -12 133.477 162.521   2
   2  -4 -12 706.617 378.872   6
   2  -4 -12 313.608 289.441   4
  -2   4  12 317.466 283.182   5
   2   4 -12 3.34088 393.453   4
  -2  -4  12 243.666 365.254   1
  -2  -4  11 1444.73 528.201   1
   2   4 -11 1630.50 547.784   2
  -2   4  11 1550.40 580.156   5
  -2  -4  11 2302.84 541.935   5
   2  -4 -11 1822.78 584.125   4
   2  -4 -11 1997.58 619.770   6
   2   4 -11 2490.35 740.647   4
   2  -4 -10 4570.34 980.924   6
   2   4 -10 3053.63 755.395   4
  -2  -4  10 3592.89 617.482   5
  -2  -4  10 3990.80 716.576   1
   2   4 -10 2709.13 638.267   2
   2  -4 -10 2774.82 701.947   4
   2   4 -10 2628.10 678.840   7
  -2   4  10 3201.59 703.349   5
   2  -4  -9 2611.95 757.991   6
   2  -4  -9 2480.46 576.367   4
  -2   4   9 3460.17 731.593   5
   2   4  -9 3491.40 651.643   2
  -2  -4   9 2296.13 488.854   5
   2   4  -9 3194.99 706.538   4
   2   4  -9 1835.37 572.870   7
  -2  -4   9 3002.40 671.187   1
  -2  -4   8 784.340 398.823   1
   2  -4  -8 1123.26 491.106   6
  -2   4   8 1398.43 470.785   5
   2   4  -8 1383.62 473.674   4
  -2  -4   8 1291.81 366.427   5
   2  -4  -8 1537.28 489.568   4
   2   4  -8 1403.71 473.611   2
   2   4  -8 928.277 455.105   7
   2   4  -7 229.379 237.480   7
   2  -4  -7 562.743 269.788   4
   2   4  -7 703.855 349.284   4
   2  -4  -7 128.635 227.706   6
  -2  -4   7 371.854 445.910   1
  -2   4   7 342.428 325.233   5
  -2  -4   7 1056.24 331.664   5
   2   4  -7 611.943 329.758   2
   2  -4  -6 325.064 367.064   6
   2  -4  -6 715.351 269.387   4
  -2   4   6 258.710 243.411   5
  -2   4   6-1.32782 182.283   7
   2   4  -6 265.505 304.714   7
  -2  -4   6 151.073 169.886   5
   2   4  -6 152.822 232.556   4
   2   4  -6 262.873 187.575   2
  -2  -4   5 1863.51 282.983   6
   2   4  -5 1931.75 448.887   4
   2  -4  -5 2340.63 586.401   6
  -2  -4   5 2321.50 450.184   5
   2  -4  -5 2727.48 462.932   4
   2   4  -5 2507.52 593.759   7
  -2   4   5 2394.59 413.248   7
  -2   4   5 2309.42 471.093   5
   2   4  -5 2803.75 444.928   2
  -2  -4   4 244.501 111.214   6
   2   4  -4 662.997 424.584   7
  -2   4   4 1120.39 316.598   5
   2  -4  -4 628.685 284.269   8
   2   4  -4 900.654 291.027   2
  -2   4   4 577.033 292.229   7
   2   4  -4 685.021 201.368   4
   2  -4  -4 407.075 293.150   6
   2  -4  -4 537.173 197.066   4
   2  -4  -3 9766.44 976.472   8
  -2   4   3 7295.08 724.728   5
   2   4  -3 8016.77 629.004   2
  -2   4   3 9760.17 897.317   7
  -2  -4   3 7667.26 628.348   6
  -2  -4   3 7899.92 621.002   4
   2   4  -3 8900.18 612.494   4
   2   4  -3 6864.02 894.931   7
   2  -4  -3 8661.62 768.393   4
   2  -4  -3 8134.31 914.626   6
   2   4  -2 3388.35 687.906   7
   2  -4  -2 2871.25 415.764   4
  -2   4   2 3041.00 473.060   5
   2   4  -2 3003.60 354.432   2
  -2   4   2 3595.84 635.542   3
  -2  -4   2 2529.87 525.497   8
  -2   4   2 3326.88 511.069   2
  -2   4   2 3003.86 561.483   7
   2   4  -2 3286.97 309.280   4
   2  -4  -2 3154.89 574.333   8
   2  -4  -2 2612.98 562.502   6
  -2  -4   2 2964.12 457.666   6
  -2  -4   2 3097.27 317.217   4
  -2  -4   1 1647.08 363.924   6
   2  -4  -1 1738.03 357.519   4
   2  -4  -1 1908.88 519.081   8
  -2   4   1 1507.30 429.002   3
  -2   4   1 2026.33 339.719   5
  -2   4   1 1563.15 429.621   2
   2   4  -1 1793.63 264.652   2
  -2  -4   1 1681.30 494.218   8
   2  -4  -1 2109.59 429.039   6
   2   4  -1 2084.73 504.257   7
   2   4   0 8727.04 619.530   3
  -2  -4   0 9120.54 491.834   2
   2  -4   0 9477.17 619.042   5
   2   4   0 9911.96 503.637   2
  -2  -4   0 9574.59 850.657   6
  -2   4   0 8875.85 919.468   3
  -2   4   0 9704.36 679.277   5
  -2   4   0 8561.42 800.861   2
   2  -4   0 8815.06 851.734   1
   2   4   0 9036.06 971.262   7
  -2  -4   0 9758.78 918.052   8
   2  -4   0 7540.92 712.104   6
  -2   4  -1 5439.72 766.884   3
   2  -4   1 6229.38 437.927   5
   2   4   1 5374.22 501.946   3
  -2   4  -1 5284.79 654.169   2
   2   4   1 4993.02 725.162   7
  -2  -4  -1 5437.18 358.903   2
  -2  -4  -1 5115.92 658.856   6
   2  -4   1 6331.76 757.107   1
  -2  -4  -1 5367.37 676.931   8
   2  -4   1 4332.92 534.452   6
  -2  -4  -2 2846.74 558.870   6
   2  -4   2 2782.92 357.928   6
   2  -4   2 2953.12 255.798   5
   2   4   2 2857.80 395.299   3
  -2  -4  -2 2578.81 260.731   2
   2  -4   2 3149.84 525.916   1
   2   4   2 2487.57 481.255   7
  -2   4  -2 3283.91 532.301   2
  -2  -4  -3 4999.55 727.089   6
   2  -4   3 4954.18 408.881   6
   2  -4   3 5314.28 248.607   5
  -2  -4  -3 5457.24 400.828   2
   2  -4   3 5046.56 247.268   5
   2   4   3 6005.54 777.485   7
   2  -4   3 5608.12 742.197   1
  -2   4  -3 4830.07 645.403   2
   2   4   4 10323.7 566.260   4
   2   4   4 9789.61 1047.51   1
  -2  -4  -4 12334.1 1161.95   6
  -2   4  -4 10761.2 1010.95   2
   2  -4   4 10948.8 1045.26   1
   2  -4   4 10035.5 376.428   6
   2   4   4 11395.6 1073.96   7
   2  -4   4 10092.5 327.675   6
   2   4   4 10731.5 1111.36   5
   2   4   5 6368.81 894.317   5
  -2  -4  -5 7802.41 1042.45   6
   2   4   5 5713.91 833.362   1
   2  -4   5 5417.77 740.990   1
   2   4   5 4699.42 738.617   7
  -2   4  -5 5115.80 740.712   2
  -2  -4  -6 5670.97 904.022   6
   2  -4   6 4042.79 694.305   1
   2   4   6 4032.28 799.092   5
   2   4   6 4014.27 664.012   7
   2   4   6 4737.02 813.369   1
  -2   4  -6 4263.37 722.553   2
  -2  -4  -7 351.650 358.826   6
   2   4   7 759.311 399.337   1
   2   4   7 1109.04 553.022   5
   2   4   7 262.673 262.406   7
  -2   4  -7 50.9950 169.773   2
   2  -4   7 754.006 380.335   1
  -2  -4  -8 2125.92 646.602   6
  -2   4  -8 916.410 359.114   2
   2   4   8 933.953 467.343   1
   2  -4   8 1794.52 539.075   1
   2   4   8 1494.51 578.603   5
   2   4   8 2712.80 605.051   7
  -2  -4  -9 1132.63 590.029   6
   2   4   9 1339.37 449.476   7
   2  -4   9 1865.00 498.115   1
   2   4   9 1153.39 536.299   1
   2   4   9 1148.80 496.646   5
  -2   4  -9 1260.97 501.683   2
   2   4  10 1356.44 468.324   1
  -2  -4 -10 1567.68 662.122   6
   2   4  10 1025.12 493.090   5
   2  -4  10 1956.18 498.805   1
  -2   4 -10 990.472 538.446   2
  -2  -4 -11 835.822 462.843   6
  -2   4 -11 135.026 449.419   2
   2   4  11 477.310 446.170   5
   2  -4  11 517.329 421.451   1
   2   4  11 443.094 260.116   1
   2   4  12 185.537 451.707   1
  -2   4 -12 557.917 448.693   2
  -2  -4 -12-134.201 232.424   6
   2  -4  12 416.817 307.556   1
   2   4  12-390.696 439.832   5
  -2   4 -13 762.122 597.704   2
  -2  -4 -13 321.063 378.474   6
   2   4  13 882.379 536.528   5
   2  -4  13 1170.21 468.593   1
   2   4  13 1128.25 562.360   1
   2   4  14 2268.74 638.449   1
  -2  -5  14 800.067 489.282   1
   2   5 -14-174.972 525.108   2
  -2   5  13 275.270 585.494   5
  -2  -5  13 811.074 465.755   1
   2   5 -13-298.170 423.218   2
   2  -5 -12-682.084 603.782   6
  -2   5  12 708.563 483.742   5
  -2  -5  12 754.897 396.874   1
   2   5 -12 550.716 365.123   2
   2   5 -11 156.158 562.186   7
  -2   5  11-1186.85 434.455   5
   2   5 -11 225.527 329.583   2
   2  -5 -11 875.407 746.140   6
  -2  -5  11 1068.75 531.854   1
  -2   5  10 1010.60 579.394   5
   2  -5 -10 1421.93 724.911   6
  -2  -5  10 955.437 412.040   1
   2   5 -10 1619.77 625.590   7
   2   5 -10 1846.10 522.083   2
   2  -5  -9 941.140 489.967   6
  -2  -5   9 267.762 335.200   1
  -2   5   9-200.242 364.146   5
  -2  -5   9-44.8380 358.120   5
   2   5  -9 221.464 210.321   7
   2   5  -9-419.171 378.299   2
  -2  -5   8 335.907 405.452   1
   2  -5  -8 956.544 674.327   6
  -2   5   8 707.408 462.231   5
  -2  -5   8 1158.21 339.285   5
   2   5  -8 1120.69 388.065   7
   2   5  -8 512.385 231.092   2
   2  -5  -7 619.301 443.061   6
   2   5  -7 698.270 331.461   2
  -2   5   7 826.840 433.585   5
  -2  -5   7 462.179 295.652   5
  -2  -5   7 426.281 412.312   1
   2   5  -7 346.851 290.557   7
   2  -5  -6 3497.91 855.998   6
   2   5  -6 4561.29 852.965   7
  -2   5   6 2365.33 610.208   5
  -2  -5   6 3101.09 572.032   5
  -2   5   6 2700.94 609.534   7
   2  -5  -6 3061.74 547.132   4
   2   5  -6 3009.24 532.096   2
   2  -5  -5 593.872 465.565   6
  -2  -5   5 227.606 140.303   6
  -2   5   5 973.047 385.921   5
   2   5  -5-84.4884 343.618   7
  -2  -5   5 816.168 291.544   5
   2  -5  -5 748.465 230.617   4
  -2   5   5 618.401 345.625   7
   2   5  -5 818.606 291.024   2
   2  -5  -4 1557.04 430.939   8
  -2   5   4 1798.98 506.659   5
  -2   5   4 1428.04 452.742   7
   2   5  -4 2048.71 628.777   7
   2   5  -4 1740.30 330.321   2
   2  -5  -4 1734.66 580.031   6
   2  -5  -4 1837.88 425.069   4
  -2  -5   4 2078.84 410.504   6
   2  -5  -3 1159.98 335.912   4
   2  -5  -3 2024.23 641.107   6
   2  -5  -3 2580.39 558.364   8
   2   5  -3 1931.37 608.795   7
  -2   5   3 2424.84 610.809   3
  -2   5   3 1408.22 394.482   5
  -2   5   3 1044.25 410.760   7
  -2  -5   3 1258.80 428.211   8
   2   5  -3 1214.27 338.871   2
  -2  -5   3 1131.37 333.118   6
  -2   5   2 2462.89 485.753   5
  -2   5   2 3269.90 687.597   3
  -2   5   2 3978.76 626.745   2
   2   5  -2 2521.09 675.771   7
  -2   5   2 3053.99 641.903   7
   2  -5  -2 3333.80 629.158   6
   2   5  -2 3148.55 424.074   2
  -2  -5   2 3509.17 688.250   8
  -2  -5   2 3639.53 523.265   6
   2  -5  -2 2972.58 444.461   4
   2  -5  -2 3012.50 628.031   8
  -2   5   1 6697.92 909.100   7
   2  -5  -1 7071.24 974.670   8
  -2   5   1 5726.01 896.272   3
  -2   5   1 5863.05 732.033   2
   2   5  -1 6421.67 537.717   2
   2  -5  -1 5956.41 810.463   6
   2   5  -1 6469.12 950.792   7
  -2  -5   1 7277.33 954.706   8
  -2   5   1 6495.18 707.139   5
  -2  -5   1 6090.00 731.849   6
   2  -5  -1 5518.00 606.679   4
  -2  -5   0 2969.66 556.351   6
   2  -5   0 1707.42 542.150   8
   2  -5   0 2015.84 462.434   6
  -2   5   0 3113.35 653.341   3
  -2  -5   0 2439.29 583.701   8
   2   5   0 2401.29 399.456   3
  -2   5   0 2510.68 537.870   2
   2  -5   0 3165.93 621.036   1
   2   5   0 2543.24 629.280   7
   2  -5   0 2214.24 440.025   4
  -2  -5  -1 1748.42 510.951   6
   2  -5   1 1083.08 342.972   6
  -2   5  -1 879.416 410.000   3
   2   5   1 664.395 274.167   3
   2  -5   1 1226.60 512.300   1
   2   5   1 1334.93 441.298   7
  -2   5  -1 497.112 295.316   2
  -2  -5  -1 1363.10 463.431   8
  -2  -5  -2 4035.91 699.089   6
   2  -5   2 4040.32 472.757   6
   2   5   2 4481.82 582.990   3
   2   5   2 3901.02 750.616   7
  -2   5  -2 3606.75 667.605   2
   2  -5   2 3841.19 676.034   1
  -2   5  -3 3694.83 660.869   2
   2   5   3 2839.69 546.234   3
  -2  -5  -3 3255.86 669.096   6
   2  -5   3 3803.75 727.440   1
   2   5   3 3409.56 704.126   7
  -2  -5  -4 2561.92 616.610   6
  -2   5  -4 1990.63 483.045   2
   2   5   4 2753.21 643.178   7
   2  -5   4 3542.86 653.758   1
  -2  -5  -5 1269.39 478.421   6
   2   5   5 2573.67 653.870   5
   2   5   5 778.668 482.015   7
   2  -5   5 2691.27 622.024   1
  -2   5  -5 1776.82 506.233   2
  -2  -5  -6 940.111 459.194   6
   2  -5   6 350.936 380.827   1
   2   5   6 918.948 402.585   5
   2   5   6 558.843 367.979   7
  -2   5  -6 1085.36 381.298   2
   2   5   7-417.749 263.144   1
   2   5   7-520.838 450.351   7
  -2  -5  -7 21.0080 272.556   6
   2  -5   7 214.296 311.879   1
  -2   5  -7 88.5722 229.525   2
   2   5   7 95.4936 384.049   5
   2   5   8 73.2939 185.965   7
  -2  -5  -8-566.789 577.450   6
   2   5   8 228.794 256.580   1
  -2   5  -8 459.087 340.025   2
   2   5   8-172.023 246.691   5
   2  -5   8-383.731 437.140   1
  -2  -5  -9 662.128 520.625   6
   2   5   9-23.6088 227.873   7
   2   5   9 789.509 456.800   5
   2   5   9 342.587 336.399   1
   2  -5   9 1096.66 481.248   1
  -2   5  -9 1130.01 418.484   2
  -2  -5 -10 620.627 407.963   6
   2   5  10-272.833 257.645   5
   2  -5  10 709.208 528.858   1
  -2   5 -10 677.991 463.191   2
   2   5  10 1139.41 668.861   1
   2   5  11 402.015 267.443   1
  -2  -5 -11 46.3255 238.368   6
  -2   5 -11 1069.93 619.047   2
   2   5  11 1077.92 580.828   5
   2  -5  11 972.642 512.655   1
  -2   5 -12 1012.28 552.429   2
   2  -5  12 2.73665 392.226   1
   2   5  12 973.884 594.741   1
   2   5  13 569.856 366.991   1
  -2  -6  12 1342.70 489.011   1
   2   6 -12 1760.75 589.762   2
  -2   6  11-82.6581 256.615   5
  -2  -6  11 428.104 445.106   1
   2   6 -11 274.709 390.768   2
   2  -6 -10 650.407 610.811   6
  -2   6  10 267.637 429.110   5
   2   6 -10 522.163 259.712   2
  -2  -6  10-728.572 547.034   1
   2   6 -10 609.350 385.044   7
   2  -6  -9-305.402 348.492   6
  -2  -6   9 221.126 423.342   1
  -2   6   9-381.146 297.127   5
   2   6  -9 314.128 306.186   7
   2   6  -9 204.241 254.879   2
   2   6  -8-30.5932 201.734   2
   2  -6  -8-519.307 482.208   6
  -2   6   8 305.920 447.553   5
  -2  -6   8 113.714 421.018   1
   2   6  -8 429.114 385.491   7
  -2   6   7 519.471 299.110   5
  -2  -6   7 238.143 375.516   1
   2   6  -7 772.059 568.271   7
   2   6  -7 644.208 340.170   2
   2  -6  -7 796.065 420.191   6
   2  -6  -6 577.891 478.957   6
  -2  -6   6 413.531 353.231   5
   2   6  -6 173.333 402.706   7
  -2   6   6 32.3471 516.356   5
   2  -6  -5 1052.43 459.215   6
  -2  -6   5 1457.68 400.861   5
  -2   6   5 1289.31 436.046   3
  -2   6   5 915.048 503.276   5
  -2   6   5 2127.46 582.704   7
   2   6  -5 1910.81 642.146   7
  -2   6   4 269.689 352.556   5
   2  -6  -4 646.954 584.580   6
  -2   6   4-217.464 392.882   3
  -2   6   4 107.899 326.778   7
   2   6  -4-49.4128 230.872   7
   2  -6  -4 34.4193 172.452   8
  -2  -6   4-473.780 390.536   8
   2  -6  -3 802.235 414.207   6
  -2   6   3 932.905 551.945   3
  -2  -6   3 976.353 350.754   6
  -2   6   3 650.400 356.748   5
  -2  -6   3 1339.87 531.391   8
   2   6  -3 733.928 485.344   7
   2  -6  -3 1184.83 527.799   8
  -2   6   3 284.168 418.566   7
   2  -6  -2 367.229 351.116   8
   2  -6  -2 390.979 349.328   6
  -2   6   2 661.110 501.033   3
  -2   6   2 1055.45 400.555   2
  -2   6   2 587.758 403.743   5
  -2  -6   2 61.9585 401.419   8
   2   6  -2 1465.69 605.550   7
  -2  -6   2 695.893 322.737   6
  -2  -6   1 750.240 340.709   6
   2  -6  -1 440.218 411.751   6
  -2   6   1 432.301 315.849   2
  -2   6   1 96.3335 378.847   3
  -2  -6   1 667.705 483.122   8
   2  -6  -1 1265.68 473.238   8
   2   6  -1 501.520 398.215   7
  -2  -6   0 1940.47 508.731   6
   2  -6   0 2028.91 564.702   6
  -2   6   0 1811.87 561.614   3
   2  -6   0 1661.66 491.798   1
   2  -6   0 2057.89 631.116   8
  -2   6   0 1813.99 579.314   2
  -2  -6   0 2165.68 615.706   8
   2   6   0 2127.86 612.563   7
   2   6   1 5874.45 1007.11   7
  -2  -6  -1 6689.10 931.840   6
  -2   6  -1 5304.33 899.220   3
   2  -6   1 4027.97 784.485   1
  -2  -6  -1 4677.88 890.953   8
  -2   6  -1 4988.35 754.848   2
   2  -6   1 3880.89 754.072   8
  -2  -6  -2 865.705 461.850   6
  -2   6  -2 1324.64 414.315   2
   2   6   2 1141.35 532.098   7
   2  -6   2 883.712 519.930   1
  -2  -6  -3 1123.28 500.668   6
   2   6   3 723.562 328.702   7
   2  -6   3 475.072 391.774   1
  -2   6  -3 592.844 263.689   2
   2  -6   4 535.556 304.986   1
  -2   6  -4 632.704 429.702   2
  -2  -6  -4 1186.84 531.562   6
   2   6   4 432.506 378.671   7
   2   6   5 1335.39 486.527   7
  -2  -6  -5 907.516 521.036   6
  -2   6  -5 827.641 526.195   2
   2  -6   5-102.470 271.934   1
  -2  -6  -6 265.948 263.982   6
   2  -6   6-265.414 320.391   1
  -2   6  -6 231.375 342.852   2
   2  -6   7 2181.55 635.577   1
   2   6   7 986.023 518.081   7
  -2  -6  -7 1750.08 706.263   6
  -2   6  -7 1856.76 714.517   2
  -2  -6  -8 722.189 471.876   6
   2   6   8 155.987 227.514   5
   2  -6   8 773.980 411.036   1
  -2   6  -8-27.7672 346.705   2
   2   6   8 761.832 448.066   7
  -2  -6  -9 1138.93 581.241   6
   2   6   9 1000.76 582.208   5
   2  -6   9 264.025 313.623   1
  -2   6  -9 400.127 516.292   2
  -2   6 -10 842.965 482.626   2
  -2   7   9 750.473 615.863   5
   2  -7  -8 611.626 517.717   6
  -2   7   8 209.825 428.915   3
  -2   7   8-72.8387 265.686   5
   2   7  -8-870.936 647.090   7
  -2  -7   8 838.649 632.290   1
   2  -7  -7 388.718 548.912   6
  -2   7   7 348.597 606.582   3
  -2  -7   7-421.652 507.689   1
  -2   7   7-678.392 577.995   5
   2   7  -7 272.827 427.620   7
  -2   7   6-79.8378 436.185   3
  -2  -7   6 265.360 467.375   1
   2  -7  -6 742.717 414.097   6
  -2   7   6-66.2501 176.504   5
  -2  -7   6 542.727 410.124   8
   2   7  -6 84.3884 382.930   7
   2  -7  -5 459.938 435.285   6
  -2   7   5 891.684 597.790   3
  -2   7   5 78.8713 473.617   5
   2   7  -5-605.082 355.530   7
  -2  -7   5 241.047 515.882   8
   2  -7  -4 530.540 361.371   6
  -2  -7   4 613.291 542.984   8
  -2   7   4 130.561 307.203   3
   2  -7  -4 65.7678 539.041   8
   2   7  -4-205.008 215.245   7
   2   7  -3-110.330 368.237   7
   2  -7  -3 607.555 364.671   6
   2  -7  -3 501.093 309.918   8
  -2   7   3-25.8396 390.573   3
  -2  -7   3-511.334 441.596   8
  -2  -7   2 1594.86 649.835   8
   2  -7  -2-936.117 616.771   6
  -2   7   2 774.264 501.063   3
   2  -7  -2 1164.17 497.030   8
   2   7  -2-141.233 381.920   7
  -2  -7   1 1184.73 489.394   8
   2  -7  -1 650.061 370.351   8
  -2   7   1 595.079 488.990   3
   2   7  -1 740.030 402.982   7
  -2   7   1 723.881 376.260   2
   2  -7  -1 782.362 562.991   1
   2  -7   0 408.061 450.094   1
   2  -7   0 921.759 506.365   8
  -2   7   0 102.976 332.611   2
  -2  -7   0-15.9017 437.884   8
  -2  -7   0-298.784 373.761   6
   2   7   0 265.627 256.134   7
  -2   7   0-182.578 416.233   3
   2  -7   1 433.903 515.026   1
  -2  -7  -1 678.160 372.563   6
  -2   7  -1 548.317 539.880   2
   2   7   1 7.03443 374.961   7
   2  -7   1-158.324 241.721   8
   2  -7   2-160.531 262.374   8
  -2   7  -2 295.067 243.127   2
   2  -7   2-278.508 278.821   1
   2   7   2 146.936 582.010   7
  -2  -7  -2 303.609 380.014   6
  -2  -7  -3 320.639 383.070   6
   2  -7   3-524.371 476.737   1
   2   7   3 135.948 450.788   7
  -2   7  -3 29.2106 225.178   2
  -2  -7  -4-64.3854 336.455   6
  -2   7  -4 350.993 445.430   2
   2  -7   4 968.300 456.358   1
  -2   7  -5 537.590 387.424   2
   2  -7   5 512.858 369.674   1
   2   7   5-636.057 436.279   7
  -2  -7  -5 1142.16 538.339   6
  -2  -7  -6 1141.20 735.444   6
   2  -7   6 1304.70 573.813   1
  -2   7  -6 422.690 474.635   2
   2   7   6 298.093 304.988   7
  -2  -7  -7 544.642 496.674   6
  -2   7  -7 975.302 495.895   2
   2   7   7-513.346 586.645   7
  -2   7  -8 1531.49 618.991   2
  -2   8   5 525.181 469.642   3
  -2   8   4 821.482 468.829   3
  -2   8   3-686.572 419.912   3
  -2  -8   3-599.394 644.836   8
  -2   8   2 506.696 355.025   3
   2  -8  -2 363.415 337.426   1
  -2  -8   2 19.4679 231.592   8
  -2  -8   1-219.012 237.705   8
   2  -8  -1-199.575 527.254   1
   2  -8   0-251.121 292.564   1
  -2  -8   0-34.3163 430.708   8
   2  -8   1-680.582 609.633   1
  -2  -8  -3-721.160 455.278   6
  -2  -8  -4 1030.51 457.935   6
  -3   0  17 56.2616 441.697   5
  -3   0  16 993.418 488.706   5
   3   0 -16 1606.94 666.919   4
   3   0 -15 2749.65 682.749   6
  -3   0  15 4288.29 945.656   5
   3   0 -15 4259.98 996.904   4
   3   0 -14-126.755 426.790   4
  -3   0  14 298.177 346.598   5
   3   0 -14-47.4173 234.246   6
   3   0 -13 424.421 270.620   4
  -3   0  13 518.155 450.318   5
  -3   0  12 5423.71 826.979   5
   3   0 -12 5328.78 960.501   4
  -3   0  11 1347.03 494.545   5
   3   0 -11 1511.41 564.737   4
  -3   0  11 1801.43 292.078   1
  -3   0  10 18529.8 1373.57   5
  -3   0  10 19952.0 757.041   1
   3   0 -10 21506.8 1709.67   4
   3   0  -9 1804.30 477.951   4
  -3   0   9 1801.22 475.240   5
  -3   0   9 1760.31 217.081   1
  -3   0   8 6811.56 765.409   5
  -3   0   8 6987.63 354.771   1
   3   0  -8 5627.95 317.846   7
   3   0  -8 5473.61 853.466   4
  -3   0   7 59314.8 2036.41   5
  -3   0   7 62001.0 907.607   1
   3   0  -7 63323.5 2524.15   4
   3   0  -7 60311.9 1177.28   7
  -3   0   6 20958.2 1150.23   5
  -3   0   6 21400.8 469.156   1
   3   0  -6 22814.9 1447.56   4
  -3   0   5 71850.0 894.137   1
  -3   0   5 75547.8 2018.19   5
  -3   0   5 70037.6 854.750   1
   3   0  -5 72909.5 2443.24   4
   3   0  -4 1886.14 423.338   4
  -3   0   4 2060.00 364.736   5
  -3   0   4 2096.87 156.443   1
   3   0  -3 123739. 1420.91   1
   3   0  -3 125421. 2893.49   4
  -3   0   3 129002. 2329.00   5
  -3   0   3 125380. 1286.29   1
   3   0  -2 18294.8 605.397   1
  -3   0   2 18349.0 845.442   5
  -3   0   2 18046.5 565.045   1
   3   0  -2 18163.5 785.650   2
   3   0  -2 19489.3 1118.67   4
   3   0  -1 280.568 252.332   4
  -3   0   1 156.145 145.269   3
  -3   0   1 283.913 128.779   2
  -3   0   1 277.041 98.9717   1
  -3   0   1 148.833 156.157   5
   3   0  -1 309.286 136.116   2
   3   0  -1 91.3670 90.7082   1
   3   0   0 151849. 2119.45   1
  -3   0   0 150033. 2140.70   2
  -3   0   0 157082. 1994.53   1
   3   0   0 153402. 2181.12   2
  -3   0   0 150497. 2088.98   3
  -3   0   0 150683. 2283.07   6
   3   0   1 5097.06 410.927   3
   3   0   1 5354.60 434.447   1
  -3   0  -1 5380.05 457.936   6
  -3   0  -1 5084.83 423.580   2
   3   0   1 4826.15 415.616   2
   3   0   1 5348.95 452.000   6
  -3   0  -2 15191.7 750.819   2
  -3   0  -2 15326.0 767.544   6
  -3   0  -2 14112.3 743.558   5
   3   0   2 15007.9 768.661   1
   3   0   2 14537.4 737.470   2
   3   0   2 16473.2 787.599   3
  -3   0  -3 5080.29 483.339   5
   3   0   3 4987.48 495.196   1
  -3   0  -3 4870.33 463.518   2
  -3   0  -3 5533.99 502.241   6
   3   0   4 84943.9 2068.21   1
  -3   0  -4 83634.4 1950.68   6
  -3   0  -4 81247.6 1997.08   2
   3   0   5 21668.1 1095.27   5
   3   0   5 21296.7 1101.54   1
  -3   0  -5 21430.4 1119.48   2
  -3   0  -5 21870.0 1066.92   6
   3   0   6 22703.3 1182.96   5
   3   0   6 21866.7 1171.74   1
  -3   0  -6 22528.5 1231.30   2
  -3   0  -6 24243.9 1180.26   6
  -3   0  -7 3569.98 498.438   6
   3   0   7 2609.12 470.866   5
   3   0   7 2161.59 404.919   1
  -3   0  -7 2282.67 445.648   2
  -3   0  -8 5397.39 629.681   6
   3   0   8 5855.15 712.396   5
   3   0   8 5718.58 719.763   1
  -3   0  -8 6285.99 765.049   2
  -3   0  -9 213.966 182.826   6
  -3   0  -9 266.635 273.780   2
   3   0   9 309.533 277.613   1
   3   0   9 446.894 237.769   5
  -3   0 -10 3321.52 688.448   2
   3   0  10 3354.78 600.724   5
  -3   0 -10 3862.10 613.123   6
   3   0  10 4473.39 706.647   1
   3   0  11 8083.30 992.748   5
   3   0  11 9694.65 1041.82   1
  -3   0 -11 8180.90 1061.76   2
  -3   0 -11 10496.7 980.621   6
   3   0  12 45621.4 2364.75   5
   3   0  12 43718.3 2216.17   1
  -3   0 -12 43419.4 2399.21   2
  -3   0 -12 43169.8 2029.60   6
  -3   0 -13 1764.88 664.643   2
   3   0  13 1154.81 474.579   5
   3   0  13 1052.08 477.642   1
  -3   0 -14 4353.18 894.220   2
   3   0  14 3524.03 764.741   1
   3   0  15 29.4374 353.126   1
  -3   0 -15 288.552 486.999   2
   3   0  16-189.471 327.217   1
   3  -1 -17-156.815 388.664   6
  -3  -1  17-280.640 432.862   5
   3  -1 -16 261.786 351.072   6
  -3  -1  16 486.101 346.313   5
  -3   1  16-630.230 598.568   5
   3   1 -16 87.9457 350.519   4
   3  -1 -16 45.1392 450.832   4
   3  -1 -15 289.585 407.125   6
  -3  -1  15 5.95353 141.883   5
   3  -1 -15-182.695 307.964   4
  -3   1  15-450.480 488.114   5
   3   1 -14 614.682 336.841   6
   3  -1 -14 731.127 405.314   6
  -3   1  14 1443.02 501.561   5
  -3  -1  14 1572.47 607.949   5
   3   1 -14 1254.26 795.863   4
   3  -1 -14 896.963 610.247   4
   3  -1 -13 1487.08 728.063   4
  -3   1  13 876.589 389.768   5
  -3  -1  13 1280.39 570.232   5
   3   1 -13 1181.64 506.220   4
   3  -1 -13 1981.78 624.494   6
  -3  -1  12 4639.80 482.700   1
  -3   1  12 4303.94 808.599   5
  -3  -1  12 4996.22 801.521   5
   3   1 -12 5965.72 1037.11   4
   3  -1 -12 3816.91 771.663   4
  -3   1  11 8931.63 1053.62   5
  -3  -1  11 7225.88 913.442   5
  -3  -1  11 8676.71 619.636   1
   3   1 -11 7265.04 1088.87   4
   3  -1 -11 8794.08 1209.67   4
   3   1 -10 9375.37 604.825   7
  -3  -1  10 10158.4 1005.68   5
  -3   1  10 8816.08 1019.05   5
  -3  -1  10 9433.37 617.436   1
  -3   1  10 10689.0 531.890   1
   3   1 -10 9693.04 1269.40   4
   3  -1 -10 8395.16 1136.97   4
  -3   1   9 3959.56 281.950   1
   3  -1  -9 4412.10 797.050   4
  -3   1   9 3708.06 642.172   5
  -3  -1   9 3980.95 644.076   5
  -3  -1   9 3414.64 380.968   1
   3  -1  -9 3126.37 267.569   1
   3   1  -9 4686.32 790.275   4
   3   1  -9 3534.01 378.153   7
   3   1  -8 1654.80 521.551   4
   3  -1  -8 1882.50 553.093   4
  -3  -1   8 1937.30 283.908   1
  -3   1   8 1928.64 162.065   1
  -3   1   8 1485.18 430.667   5
  -3  -1   8 1645.75 418.991   5
   3   1  -8 2003.86 300.957   7
  -3   1   7 63038.5 2171.91   5
  -3  -1   7 60009.1 2021.95   5
  -3  -1   7 59920.0 1472.32   1
   3   1  -7 61171.6 2473.26   4
   3  -1  -7 59167.2 2463.17   4
   3   1  -7 58171.5 1576.27   7
   3  -1  -7 59510.1 875.181   7
  -3   1   6 29877.1 1397.38   5
  -3  -1   6 27409.3 1301.74   5
   3  -1  -6 28928.4 1640.53   4
  -3  -1   6 27383.0 999.683   1
   3   1  -6 29374.9 1618.35   4
   3   1  -6 29018.4 1109.18   7
   3   1  -5 8622.66 595.010   7
  -3   1   5 9124.72 734.010   5
  -3  -1   5 8991.29 715.676   5
  -3   1   5 9388.62 597.737   8
   3   1  -5 9592.94 900.816   4
   3  -1  -5 9094.90 909.436   4
  -3  -1   4 63477.7 1465.84   1
  -3   1   4 66886.3 1812.57   5
  -3  -1   4 65500.2 1838.72   5
   3  -1  -4 68002.5 2277.66   4
   3   1  -4 65325.9 2139.47   4
  -3   1   4 62707.5 1452.28   8
   3  -1  -3 699.482 314.854   4
   3   1  -3 375.896 267.927   4
   3  -1  -3 845.568 93.9079   1
  -3   1   3 516.698 185.223   5
  -3  -1   3 476.138 189.325   5
  -3  -1   3 718.865 175.414   1
   3  -1  -3 1023.98 186.958   8
   3   1  -2 72832.5 1618.90   1
   3   1  -2 73219.4 2039.66   4
  -3  -1   2 72964.0 1527.31   1
  -3   1   2 75000.6 1614.15   5
   3  -1  -2 73090.6 1603.29   5
  -3  -1   2 73682.1 1685.97   6
  -3   1   2 73579.6 1805.35   2
   3  -1  -2 73786.7 1024.75   1
  -3   1   2 72956.8 1195.49   1
   3  -1  -2 69961.6 1395.64   8
   3  -1  -2 69108.7 2206.47   4
  -3  -1   2 76069.0 2125.47   4
  -3  -1   1 2489.64 317.770   6
   3   1  -1 2787.80 425.494   4
  -3  -1   1 2560.85 184.912   3
   3  -1  -1 2756.30 287.868   5
  -3  -1   1 2610.87 311.177   1
  -3   1   1 2819.85 297.852   5
  -3   1   1 2630.61 347.234   2
   3   1  -1 2805.08 243.221   2
   3  -1  -1 2645.80 233.864   1
  -3   1   1 2123.12 352.097   3
  -3   1   1 2790.13 270.505   1
   3   1  -1 2631.82 218.160   8
   3   1  -1 2447.79 327.495   1
   3   1   0 83920.2 1833.54   1
  -3   1   0 80766.1 1952.76   3
   3  -1   0 84532.2 1644.72   6
  -3   1   0 80879.9 1403.80   5
  -3   1   0 84050.8 1897.51   2
   3   1   0 81655.5 1184.69   2
   3  -1   0 82830.1 1428.43   1
  -3   1   0 83399.4 1557.66   1
  -3  -1   0 81570.9 1834.26   6
  -3  -1   0 81057.2 1172.84   2
  -3   1  -1 148533. 1781.54   5
  -3   1  -1 146747. 2675.04   3
   3   1   1 150784. 2587.96   1
  -3  -1  -1 149567. 2592.91   6
  -3  -1  -1 149047. 1719.56   2
   3  -1   1 148897. 2084.94   1
   3   1   1 149351. 1697.85   2
   3   1   1 144733. 1641.64   3
  -3   1  -1 145712. 2581.62   2
   3  -1   1 148954. 2179.82   6
  -3   1  -2 78655.2 1372.11   5
   3   1   2 79328.6 1975.69   1
   3  -1   2 80293.0 1613.88   6
  -3   1  -2 81040.9 1974.08   2
   3  -1   2 83171.2 1700.42   1
  -3  -1  -2 81724.0 2009.31   6
  -3  -1  -2 79441.8 1400.08   2
  -3   1  -2 80855.2 1552.92   6
  -3   1  -3 5701.47 380.497   5
   3  -1   3 4881.51 456.526   1
  -3  -1  -3 4636.42 392.634   2
   3   1   3 5369.68 585.830   1
  -3   1  -3 5251.65 556.215   2
  -3   1  -3 5529.92 425.119   6
   3  -1   3 5352.39 439.215   6
  -3  -1  -3 5792.46 588.753   6
   3   1   4 37862.2 1561.71   5
   3   1   4 40200.4 1569.05   1
   3  -1   4 39843.8 1357.12   1
  -3   1  -4 36097.1 1015.04   5
  -3   1  -4 36584.7 1497.29   2
  -3  -1  -4 38420.5 1240.67   2
  -3  -1  -4 38353.6 1528.73   6
  -3   1  -4 38574.3 1119.08   6
   3  -1   4 37705.5 1221.15   6
   3   1   5 24447.9 1324.04   5
  -3   1  -5 21550.8 849.612   5
   3   1   5 22965.9 1257.21   1
   3  -1   5 22444.3 921.957   5
   3  -1   5 22218.5 1076.83   1
  -3  -1  -5 22229.6 1041.56   2
  -3   1  -5 23196.6 1264.46   2
  -3   1  -5 21955.9 897.952   6
  -3  -1  -5 22453.8 1230.37   6
   3  -1   5 22649.1 1032.00   6
   3  -1   6 6901.15 560.718   5
  -3   1  -6 7977.16 572.905   5
   3  -1   6 7584.65 692.810   1
  -3   1  -6 7037.55 761.002   2
  -3  -1  -6 6541.84 634.641   2
   3   1   6 7979.99 788.082   1
   3   1   6 7229.17 785.201   5
  -3   1  -6 7363.88 559.347   6
  -3  -1  -6 6097.46 686.531   6
   3  -1   7 4102.10 460.188   5
   3   1   7 3731.06 601.693   5
   3   1   7 4407.08 660.992   1
   3  -1   7 3832.64 522.564   1
  -3  -1  -7 3397.63 500.754   2
  -3   1  -7 4175.89 676.074   2
  -3   1  -7 3632.28 417.640   6
  -3  -1  -7 4755.81 657.525   6
  -3   1  -8 2818.36 430.490   6
   3  -1   8 4306.45 601.573   1
   3   1   8 3312.69 601.607   5
   3  -1   8 2505.68 407.057   5
   3   1   8 4102.26 654.618   1
  -3   1  -8 3312.77 587.377   2
  -3  -1  -8 3960.04 607.437   2
  -3  -1  -8 3446.84 580.340   6
  -3  -1  -9 1112.26 418.976   6
   3   1   9 1815.34 541.380   5
   3  -1   9 1735.72 420.501   5
   3   1   9 1962.98 508.469   1
   3  -1   9 1685.31 405.175   1
  -3  -1  -9 1817.49 476.140   2
  -3   1  -9 1841.61 329.400   6
  -3   1  -9 2222.38 504.333   2
  -3   1 -10 16367.0 1012.78   6
   3   1  10 16128.4 1416.84   5
   3  -1  10 17750.7 1225.13   5
   3   1  10 18139.3 1389.66   1
   3  -1  10 17328.2 1247.90   1
  -3   1 -10 17794.4 1440.08   2
  -3  -1 -10 17397.2 1350.86   2
  -3  -1 -10 16060.4 1306.00   6
   3   1  11 9974.40 1138.01   5
   3  -1  11 10866.3 1041.36   5
   3   1  11 9263.85 1094.28   1
   3  -1  11 10554.6 1024.71   1
  -3  -1 -11 8425.24 1045.68   2
  -3  -1 -11 10393.4 1071.44   6
  -3   1 -11 8830.22 1150.69   2
  -3  -1 -12 3966.07 810.173   2
  -3  -1 -12 2770.82 585.973   6
   3   1  12 5688.11 882.605   5
   3  -1  12 5371.52 811.836   1
   3   1  12 3463.91 788.626   1
  -3   1 -12 4782.81 832.506   2
  -3  -1 -13 6582.61 1069.84   2
   3   1  13 5741.23 944.302   5
   3   1  13 5690.92 891.456   1
   3  -1  13 5594.53 806.363   1
  -3  -1 -13 5459.96 859.272   6
  -3   1 -13 6399.66 1132.69   2
  -3  -1 -14 2061.59 631.497   2
  -3  -1 -14 3218.45 692.094   6
   3   1  14 2650.57 706.978   1
   3   1  14 2287.45 696.694   5
   3  -1  14 3400.07 704.463   1
  -3   1 -14 2978.31 809.279   2
  -3  -1 -15 833.486 577.698   2
   3   1  15 1291.94 477.706   1
   3   1  15 1502.51 721.587   5
   3  -1  15 916.677 357.615   1
  -3   1 -15-7.17186 382.286   2
   3   1  16 636.583 464.290   1
  -3  -2  17-44.2365 310.794   5
   3  -2 -17 89.9586 343.999   6
  -3   2  16-736.894 623.335   5
  -3  -2  16-206.116 518.746   5
   3   2 -16 558.975 466.774   4
   3  -2 -16-148.471 506.537   4
   3  -2 -16 896.442 675.621   6
   3  -2 -15 268.807 379.056   6
  -3   2  15 1665.88 631.052   5
  -3  -2  15 1077.13 487.782   5
   3   2 -15 1081.88 498.896   4
   3  -2 -15 938.680 596.318   4
   3  -2 -14-251.462 549.632   6
  -3   2  14-210.937 464.365   5
  -3  -2  14-760.513 460.824   5
   3   2 -14 232.596 257.130   4
   3  -2 -14 555.297 618.093   4
   3  -2 -13 202.754 319.566   6
  -3  -2  13 457.326 260.503   1
   3  -2 -13 469.126 516.813   4
  -3   2  13 463.259 314.328   5
  -3  -2  13 122.198 336.685   5
   3   2 -13 330.641 422.689   4
   3  -2 -12 2347.51 857.470   6
  -3   2  12 2459.55 674.614   5
  -3  -2  12 2328.79 441.384   1
  -3  -2  12 1303.62 574.152   5
   3  -2 -12 3841.61 838.037   4
   3   2 -12 2128.70 661.171   4
   3  -2 -11 14859.1 1558.10   6
  -3   2  11 15189.7 1433.20   5
  -3  -2  11 14642.5 1216.70   5
   3   2 -11 15179.3 997.231   7
  -3  -2  11 15852.6 1009.42   1
   3   2 -11 13905.0 1507.99   4
   3  -2 -11 13924.1 1472.75   4
   3   2 -10 4258.29 888.395   4
  -3   2  10 4335.09 764.010   5
  -3  -2  10 4722.39 713.743   5
  -3  -2  10 3588.44 490.191   1
   3   2 -10 3935.79 547.428   7
   3  -2 -10 3376.08 738.926   4
   3  -2  -9 7657.11 1044.19   4
  -3  -2   9 8413.31 844.426   5
  -3   2   9 5480.82 815.767   5
  -3  -2   9 6958.79 667.261   1
   3   2  -9 7376.14 982.979   4
   3   2  -9 7120.54 684.958   7
  -3  -2   8 5739.35 698.071   5
   3  -2  -8 6273.45 894.837   4
   3  -2  -8 5161.57 273.400   1
  -3  -2   8 5439.26 594.143   1
   3   2  -8 5308.04 799.888   4
   3   2  -8 5015.31 607.876   7
   3  -2  -8 5122.65 270.088   7
  -3   2   8 5352.77 734.266   5
  -3  -2   7 3031.60 452.963   1
   3   2  -7 3681.98 632.101   4
   3  -2  -7 3567.74 311.644   7
   3  -2  -7 3840.94 228.875   1
  -3   2   7 3932.28 618.512   5
   3  -2  -7 4804.64 731.651   4
  -3  -2   7 3621.09 543.679   5
   3   2  -7 2233.33 411.489   7
   3  -2  -6 65858.9 2508.29   4
  -3   2   6 68779.7 2223.25   5
   3  -2  -6 66370.4 1012.41   1
  -3  -2   6 67857.2 2105.57   5
   3   2  -6 63478.2 2357.24   4
   3  -2  -6 68882.0 1533.57   7
   3   2  -6 68171.3 2075.56   7
   3  -2  -5 545.368 328.347   4
  -3   2   5 429.606 254.515   5
  -3  -2   5 607.187 263.796   5
   3   2  -5 336.449 199.117   7
   3  -2  -5 466.773 145.151   7
   3   2  -5-1.49766 250.305   4
   3  -2  -5 512.600 94.9269   1
  -3   2   4 12643.8 834.502   5
  -3  -2   4 13992.7 933.380   5
   3  -2  -4 12586.8 542.859   1
   3   2  -4 13623.6 963.150   4
   3  -2  -4 12082.1 1005.65   4
   3  -2  -4 11888.0 700.719   7
   3   2  -4 12104.1 858.325   7
  -3  -2   4 13505.0 767.784   6
   3   2  -3 54482.9 1794.37   4
   3   2  -3 51547.5 1729.65   7
  -3   2   3 54983.1 1580.84   5
  -3  -2   3 53891.6 1511.16   6
   3  -2  -3 52867.7 1618.53   8
  -3  -2   3 53290.9 1814.50   4
   3  -2  -3 51365.3 1159.82   1
   3  -2  -3 50452.9 1996.43   4
   3   2  -2 36470.1 1392.53   4
  -3  -2   2 35900.6 1104.32   8
  -3   2   2 38713.0 1206.12   5
   3  -2  -2 36602.4 1152.68   5
  -3   2   2 38146.5 1484.12   2
   3  -2  -2 37928.8 1060.80   1
   3  -2  -2 35675.5 1351.64   8
   3  -2  -2 36820.7 1670.16   4
  -3  -2   2 36433.9 1420.85   4
  -3  -2   2 38897.9 1319.51   6
   3   2  -1 50149.8 1558.15   4
   3   2  -1 46275.4 1645.85   1
  -3   2   1 47556.1 1774.10   3
   3  -2  -1 50511.2 1211.08   5
   3   2  -1 48280.3 664.064   2
  -3   2   1 49874.9 1669.20   2
  -3  -2   1 51759.2 1569.15   6
   3  -2  -1 51141.4 1297.74   1
  -3   2   1 49779.2 1211.02   5
   3   2   0 49855.7 1719.88   1
  -3   2   0 47430.8 1007.87   5
   3  -2   0 49744.4 1032.68   5
  -3   2   0 48352.8 1650.55   2
   3  -2   0 48824.1 1353.29   1
  -3   2   0 48589.2 1790.96   3
   3   2   0 48514.4 1413.09   8
   3   2   0 49625.6 1527.99   4
  -3  -2   0 46128.5 1557.73   6
   3   2   1 128761. 2793.47   1
  -3   2  -1 126859. 2876.54   3
  -3   2  -1 122592. 1301.74   5
  -3   2  -1 127593. 2717.17   2
  -3  -2  -1 127184. 2691.15   6
   3  -2   1 126198. 2263.11   1
   3  -2   1 125312. 1964.48   6
   3   2   2 10990.2 858.484   1
  -3  -2  -2 11393.4 379.137   2
   3  -2   2 11178.5 731.548   1
   3  -2   2 10857.1 553.849   6
  -3  -2  -2 11413.1 869.930   6
  -3   2  -2 11329.7 849.588   2
   3   2   3 22951.9 1260.63   1
  -3   2  -3 21804.4 1210.35   2
  -3  -2  -3 21297.5 690.320   2
   3  -2   3 22067.7 1059.19   1
   3  -2   3 20625.9 767.537   6
  -3  -2  -3 22078.9 1253.64   6
   3   2   4 3953.01 613.261   5
   3   2   4 4929.23 647.174   1
  -3   2  -4 4711.65 607.769   2
   3  -2   4 3998.37 510.002   1
  -3  -2  -4 4749.72 399.783   2
  -3  -2  -4 4022.36 580.232   6
   3  -2   4 4337.02 354.946   6
  -3  -2  -5 30.9125 240.652   6
  -3  -2  -5 30.7762 61.6314   2
   3  -2   5-43.6225 47.9053   6
   3   2   5 464.665 298.483   1
  -3   2  -5 115.658 218.751   2
   3   2   5-44.7186 194.060   5
   3  -2   5 214.152 215.833   1
  -3   2  -5 107.221 66.7365   5
  -3  -2  -6 4176.67 638.554   6
   3   2   6 5917.25 757.803   1
   3   2   6 5384.07 763.256   5
  -3   2  -6 5334.41 714.230   2
   3  -2   6 5340.52 617.075   1
  -3  -2  -6 4701.71 499.255   2
  -3   2  -6 4743.60 317.796   5
  -3   2  -6 4870.70 353.848   6
   3  -2   6 4267.79 385.673   6
  -3  -2  -7 5452.88 759.068   6
  -3   2  -7 6002.44 397.967   6
   3  -2   7 5925.02 477.028   6
   3  -2   7 5291.17 432.927   5
   3   2   7 6433.12 831.269   1
  -3   2  -7 5751.40 422.674   5
  -3   2  -7 5411.72 750.692   2
   3   2   7 6162.69 838.803   5
   3  -2   7 6637.25 718.585   1
  -3  -2  -7 5161.80 568.495   2
   3  -2   8 13476.1 776.514   5
   3   2   8 12532.9 1220.03   5
   3   2   8 13389.7 1180.11   1
  -3  -2  -8 13161.9 1209.69   6
   3  -2   8 12726.6 1016.39   1
  -3   2  -8 12196.4 1141.84   2
  -3  -2  -8 12743.3 981.040   2
  -3   2  -8 12017.0 585.150   6
   3   2   9 20567.9 1621.20   5
   3  -2   9 18600.1 979.852   5
   3   2   9 16617.2 1386.86   1
  -3  -2  -9 20815.9 1570.59   6
   3  -2   9 19594.1 1283.85   1
  -3   2  -9 18951.3 1501.10   2
  -3  -2  -9 20897.6 1327.51   2
   3   2  10 7784.65 1093.09   5
   3   2  10 9971.86 1080.01   1
   3  -2  10 8598.85 922.978   1
  -3   2 -10 9535.67 1172.39   2
  -3  -2 -10 9251.07 953.613   2
  -3  -2 -10 8282.25 1061.46   6
   3   2  11 7018.79 961.323   1
  -3   2 -11 8842.75 1144.87   2
   3   2  11 7951.29 1221.63   5
  -3  -2 -11 7094.83 993.244   6
   3  -2  11 8441.25 972.197   1
  -3  -2 -11 7171.54 930.451   2
   3  -2  12 821.072 370.034   1
   3   2  12 1124.89 437.259   1
  -3  -2 -12 893.934 422.223   6
   3   2  12 904.713 692.916   5
  -3   2 -12 523.885 476.106   2
  -3  -2 -12 1420.55 412.618   2
   3   2  13 3201.70 717.848   1
  -3  -2 -13 2535.97 720.644   2
   3   2  13 5094.43 943.198   5
  -3  -2 -13 1780.67 543.885   6
   3  -2  13 3013.03 688.147   1
  -3   2 -13 2891.41 716.709   2
  -3  -2 -14 929.063 501.847   2
   3   2  14-550.283 328.933   1
   3   2  14-409.192 361.720   5
  -3  -2 -14-345.437 506.616   6
   3  -2  14-143.088 325.544   1
  -3   2 -14 1558.95 549.621   2
  -3  -2 -15 189.938 383.677   2
  -3  -2 -15 1835.51 599.855   6
   3   2  15 1366.28 617.074   1
   3   2  15 1547.43 695.445   5
   3  -2  15 2010.42 654.801   1
   3  -3 -16 2132.30 818.888   6
   3  -3 -16-273.921 389.260   4
   3   3 -15 1790.66 694.138   2
   3  -3 -15 1829.77 867.670   6
  -3   3  15 2427.48 931.715   5
  -3  -3  15 1352.36 515.390   5
   3   3 -15 1788.15 636.806   4
   3  -3 -15 695.897 656.356   4
   3  -3 -14 505.622 350.765   4
  -3   3  14 146.115 412.448   5
  -3  -3  14 906.485 529.168   5
   3  -3 -14 4.17494 542.436   6
   3   3 -14 419.685 356.196   4
   3   3 -14 284.831 403.056   2
   3   3 -13-84.4835 393.874   2
   3  -3 -13-120.909 301.835   6
  -3   3  13 136.728 432.618   5
  -3  -3  13 600.972 389.857   5
  -3  -3  13 100.703 241.152   1
   3  -3 -13-38.4208 301.556   4
   3   3 -13 816.383 400.629   4
   3  -3 -12 5292.33 1056.41   6
  -3   3  12 2995.45 705.283   5
  -3  -3  12 3822.52 684.991   5
   3  -3 -12 5349.81 976.409   4
  -3  -3  12 3906.72 607.009   1
   3   3 -12 4662.68 987.928   4
   3  -3 -11 222.601 249.018   6
  -3  -3  11 260.846 157.232   1
  -3   3  11 536.579 448.779   5
  -3  -3  11-184.891 350.619   5
   3  -3 -11-32.4959 451.267   4
   3   3 -11-152.221 237.179   7
   3   3 -11 704.160 468.818   4
   3  -3 -10 498.861 439.196   4
  -3   3  10 814.271 419.059   5
  -3  -3  10 956.028 337.224   5
  -3  -3  10 1114.45 377.769   1
   3  -3 -10 860.262 595.937   6
   3   3 -10 1101.03 385.935   7
   3   3 -10 1055.01 381.684   4
   3   3  -9 4140.03 782.589   4
   3  -3  -9 4580.25 859.581   6
  -3  -3   9 5090.29 708.131   1
  -3   3   9 3892.23 758.650   5
  -3  -3   9 5145.34 731.396   5
   3   3  -9 4606.02 735.171   7
   3  -3  -9 4655.02 849.878   4
  -3  -3   8 3619.01 595.140   1
  -3   3   8 3952.53 695.859   5
  -3  -3   8 4649.04 673.100   5
   3   3  -8 3544.11 601.797   7
   3   3  -8 4143.65 710.187   4
   3  -3  -8 4294.60 696.829   4
   3   3  -7 1776.78 475.951   7
  -3   3   7 1266.06 415.884   5
  -3  -3   7 1359.11 362.870   5
   3   3  -7 579.855 329.617   4
   3  -3  -7 1192.85 377.846   4
  -3   3   6 1134.01 388.328   5
   3  -3  -6 994.424 193.878   1
  -3  -3   6 1324.68 340.454   5
   3   3  -6 1294.02 407.734   4
   3   3  -6 1669.36 431.464   7
   3  -3  -6 1274.54 482.263   4
  -3  -3   5 10092.1 691.641   6
   3  -3  -5 9476.00 961.647   4
   3  -3  -5 8482.61 597.130   1
  -3  -3   5 10019.5 867.949   5
  -3   3   5 9040.29 835.158   5
   3   3  -5 8639.68 688.862   2
   3   3  -5 9296.55 848.675   4
   3   3  -5 8979.18 877.188   7
   3  -3  -4 27634.0 1554.01   4
  -3   3   4 25515.7 1279.18   5
  -3  -3   4 26434.3 1367.27   5
   3   3  -4 27911.6 1080.05   2
   3  -3  -4 26526.7 1376.95   8
   3   3  -4 30465.2 1583.10   7
   3   3  -4 25834.2 1298.87   4
  -3  -3   4 27897.4 1146.05   6
  -3  -3   3 1035.62 298.186   6
  -3  -3   3 811.833 270.236   4
  -3  -3   3 781.209 213.336   3
  -3   3   3 1064.61 295.614   5
  -3  -3   3 991.859 291.441   8
   3   3  -3 1278.59 362.991   7
   3  -3  -3 609.392 286.764   8
   3  -3  -3 1418.27 281.603   1
   3   3  -3 1320.88 334.882   4
   3  -3  -3 829.046 353.488   4
   3   3  -3 945.731 204.838   2
  -3   3   2 13826.6 807.345   5
  -3   3   2 14755.8 1028.64   2
  -3   3   2 12606.7 1081.00   3
   3   3  -2 14821.9 536.069   2
  -3  -3   2 13096.7 861.949   8
   3  -3  -2 13443.9 826.250   1
   3   3  -2 14229.3 814.741   4
   3  -3  -2 12549.8 974.115   8
   3  -3  -2 12329.6 1018.80   4
   3   3  -2 14448.7 1086.87   7
  -3  -3   2 13145.3 855.036   6
   3  -3  -1 2728.69 411.212   1
   3   3  -1 4712.93 661.264   7
  -3   3   1 3633.77 395.596   5
   3  -3  -1 3167.15 325.659   5
  -3   3   1 3442.63 607.158   3
   3   3  -1 3335.47 398.851   4
  -3   3   1 3469.67 567.799   2
  -3  -3   1 3502.30 487.274   6
  -3  -3   1 3357.56 451.421   8
  -3   3   0 73761.2 2486.29   3
  -3   3   0 73833.9 1429.86   5
   3  -3   0 73392.2 1357.09   5
  -3   3   0 73371.5 2270.61   2
   3  -3   0 73446.6 2054.54   1
   3   3   0 72871.6 1638.02   4
   3   3   0 80085.0 2479.43   7
  -3  -3   0 76536.7 2249.54   6
   3   3   1 31919.9 768.821   3
   3   3   1 32164.2 1628.69   1
  -3   3  -1 31050.9 1627.50   3
  -3   3  -1 30377.3 712.439   5
   3  -3   1 30611.3 654.588   5
  -3   3  -1 32398.5 1522.82   2
   3  -3   1 33285.5 1415.75   1
   3   3   1 32187.3 1125.54   4
  -3  -3  -1 32095.7 1522.29   6
  -3  -3  -2 74491.4 2408.52   6
   3   3   2 75887.6 2511.04   1
  -3   3  -2 74046.9 2358.92   2
   3  -3   2 79770.7 2242.56   1
   3   3   3 1537.42 444.369   1
  -3  -3  -3 1516.84 146.532   2
  -3  -3  -3 1868.23 177.153   2
   3   3   3 1701.15 288.668   4
   3  -3   3 1637.42 217.095   6
  -3   3  -3 1683.16 440.737   2
  -3  -3  -3 1873.08 511.282   6
   3  -3   3 2812.35 468.484   1
  -3  -3  -4 1225.37 186.249   2
  -3  -3  -4 1704.53 444.516   6
  -3   3  -4 1234.13 421.076   2
   3  -3   4 1598.94 363.439   1
   3  -3   4 1416.59 188.855   6
   3   3   4 1424.87 435.284   1
   3   3   5 38763.4 1940.01   1
   3   3   5 39555.1 2052.14   5
  -3  -3  -5 40211.4 2041.43   6
  -3   3  -5 43383.3 2022.06   2
   3  -3   5 41761.7 1774.26   1
   3  -3   5 39522.6 833.649   6
   3   3   6 27699.3 1819.25   5
  -3   3  -6 25835.3 1643.40   2
   3  -3   6 29746.8 1530.20   1
   3   3   6 27555.9 1696.68   1
  -3  -3  -6 25531.9 1685.27   6
   3   3   7 49883.2 2318.66   1
   3   3   7 47062.3 2416.27   5
  -3   3  -7 43951.2 2194.99   2
   3  -3   7 47843.2 1991.06   1
  -3  -3  -7 44515.3 2304.74   6
   3   3   8 15187.0 1354.30   1
   3   3   8 11462.4 1276.94   5
  -3  -3  -8 13048.0 1354.80   6
  -3   3  -8 12274.9 1239.86   2
   3  -3   8 12984.3 1105.45   1
   3   3   9 5951.21 873.450   1
   3   3   9 7813.94 1112.37   5
   3  -3   9 6667.48 826.777   1
  -3   3  -9 8657.03 1053.81   2
  -3  -3  -9 7568.59 1038.34   6
   3   3  10 4351.26 807.750   1
  -3  -3 -10 2817.01 665.336   6
   3  -3  10 4683.01 696.484   1
   3   3  10 4666.78 881.192   5
  -3   3 -10 5273.68 956.940   2
   3   3  11 1369.54 446.814   1
   3  -3  11 1492.12 443.466   1
  -3  -3 -11 1028.52 674.763   6
  -3  -3 -11 1524.12 495.748   2
   3   3  11 650.662 384.889   5
  -3   3 -11 1547.56 573.026   2
   3  -3  12 148.245 234.171   1
  -3  -3 -12 296.470 465.771   6
   3   3  12 840.769 390.791   5
  -3   3 -12-189.183 397.787   2
   3   3  12-8.65460 157.467   1
   3   3  13 1188.87 423.724   1
   3   3  13 940.373 653.741   5
  -3   3 -13-346.986 499.771   2
  -3  -3 -13 1083.16 561.046   6
   3  -3  13 1731.51 609.435   1
   3  -3  14 577.907 313.285   1
   3   3  14-264.705 271.572   1
   3   3  14 60.9722 228.781   5
   3   3  15-306.464 401.756   1
   3   4 -15 2262.17 681.741   2
   3   4 -15 866.530 542.736   4
   3   4 -14 792.713 441.430   2
   3  -4 -14 119.801 237.138   6
  -3   4  14 529.152 562.694   5
   3   4 -14 202.708 358.872   4
   3  -4 -14 570.936 416.532   4
   3   4 -13 168.386 470.623   2
  -3  -4  13 78.9820 171.816   1
   3  -4 -13 366.673 404.984   6
   3  -4 -13 329.380 334.626   4
  -3   4  13 871.153 427.072   5
  -3  -4  13 423.036 374.770   5
   3   4 -13-77.7735 174.014   4
  -3   4  12 426.751 387.971   5
  -3  -4  12 291.550 277.278   5
   3  -4 -12-16.0827 311.897   4
   3   4 -12 200.280 359.980   2
   3   4 -12 333.435 282.927   4
   3  -4 -12-430.745 294.100   6
  -3  -4  12 450.569 318.049   1
   3   4 -11 2776.63 633.580   2
   3  -4 -11 2468.83 910.567   6
  -3   4  11 1670.65 598.101   5
  -3  -4  11 1546.31 460.771   1
  -3  -4  11 1318.06 506.691   5
   3   4 -11 1690.62 628.845   4
   3   4 -11 1809.05 592.566   7
   3  -4 -11 1503.91 625.735   4
   3  -4 -10 1102.11 456.470   4
   3  -4 -10 448.227 608.371   6
  -3   4  10 1815.03 629.270   5
  -3  -4  10 1366.82 481.906   5
   3   4 -10 1039.34 569.206   4
   3   4 -10 1968.35 577.854   7
   3   4 -10 1075.51 419.838   2
  -3  -4  10 1068.77 375.223   1
  -3   4   9 471.336 414.490   5
  -3  -4   9 363.082 248.324   5
  -3  -4   9-345.555 245.567   1
   3   4  -9 198.391 189.456   4
   3   4  -9 233.688 186.261   7
   3   4  -9 650.167 343.864   2
   3  -4  -9 156.977 408.810   4
   3  -4  -9 86.7956 191.640   6
   3   4  -8 2022.59 509.397   4
   3  -4  -8 3460.90 896.168   6
  -3   4   8 2890.64 624.872   5
   3  -4  -8 2943.10 625.420   4
  -3  -4   8 3164.92 638.817   1
  -3  -4   8 3024.36 550.369   5
   3   4  -8 2644.82 567.698   2
   3   4  -8 2666.95 602.880   7
   3   4  -7 5745.07 815.459   4
   3  -4  -7 5796.76 947.400   6
  -3  -4   7 7030.87 815.869   5
  -3   4   7 6474.60 853.450   5
   3   4  -7 6222.07 756.311   2
   3   4  -7 6332.52 879.822   7
   3  -4  -7 6956.21 903.631   4
   3   4  -6 3480.04 647.962   7
   3  -4  -6 2822.28 623.247   6
  -3   4   6 3311.41 601.452   5
  -3  -4   6 3488.38 560.886   5
   3   4  -6 3119.80 541.209   4
   3  -4  -6 2929.92 581.117   4
   3   4  -6 3376.08 499.927   2
   3  -4  -5 9500.57 1100.44   6
  -3   4   5 9266.27 899.956   5
  -3  -4   5 10058.3 932.287   5
   3   4  -5 8904.35 717.374   2
   3   4  -5 9601.17 838.483   4
   3  -4  -5 11098.2 1053.19   4
   3   4  -5 9493.34 1051.69   7
  -3  -4   5 10150.4 762.786   6
   3  -4  -4 27025.2 1722.06   6
   3  -4  -4 28957.0 1668.09   8
   3  -4  -4 32223.1 1706.20   4
  -3   4   4 30225.2 1521.74   5
   3   4  -4 30037.9 1177.21   2
  -3  -4   4 27999.9 1260.24   6
   3   4  -4 28311.0 1309.79   4
   3   4  -4 28183.5 1784.20   7
  -3  -4   3 2430.22 444.786   6
  -3   4   3 2051.19 533.677   3
  -3  -4   3 1986.90 385.020   4
  -3   4   3 1705.67 396.226   5
  -3  -4   3 1453.82 413.205   8
   3   4  -3 2074.42 518.103   7
   3  -4  -3 2584.97 578.916   8
   3   4  -3 2247.42 371.224   4
   3   4  -3 2047.29 305.538   2
   3  -4  -3 1900.18 524.569   4
  -3   4   2 20673.1 1496.08   3
  -3   4   2 18225.7 1032.03   5
  -3   4   2 18893.3 1274.93   2
   3   4  -2 18989.5 683.475   2
   3  -4  -2 21795.7 1467.25   8
   3  -4  -2 20242.0 1345.63   4
   3   4  -2 19068.7 831.071   4
   3  -4  -2 21633.2 1269.31   1
  -3  -4   2 18166.4 1216.95   8
   3   4  -2 20509.5 1489.40   7
  -3  -4   2 20080.0 1163.81   6
  -3  -4   1 1009.46 368.180   8
  -3  -4   1 1322.66 367.784   6
   3  -4  -1 508.200 387.368   4
  -3   4   1 1197.08 454.044   3
  -3   4   1 735.639 199.473   5
   3   4  -1 1005.43 127.446   2
  -3   4   1 744.547 324.111   2
   3   4  -1 870.453 384.022   7
   3  -4  -1 1473.02 407.447   1
   3   4  -1 874.124 155.444   4
   3   4   0 1374.94 413.939   7
   3  -4   0 1545.14 379.366   1
  -3   4   0 1913.89 471.007   3
  -3   4   0 1756.70 280.795   5
   3  -4   0 1878.86 245.134   5
  -3  -4   0 1874.99 410.920   8
  -3   4   0 1979.58 444.815   2
   3   4   0 1831.66 177.454   4
  -3  -4   0 1479.52 386.419   6
   3   4   1 9007.02 529.628   3
  -3   4  -1 8949.01 954.348   3
   3  -4   1 7431.60 397.805   5
  -3   4  -1 8449.55 888.312   2
   3  -4   1 8928.48 885.230   1
   3   4   1 8573.18 955.482   7
  -3  -4  -1 8257.76 866.827   6
  -3  -4  -2 2994.65 571.837   6
   3  -4   2 2316.10 342.307   6
   3   4   2 1837.33 269.818   3
   3  -4   2 2078.32 435.352   1
   3   4   2 2483.94 564.698   7
   3   4   2 1956.55 217.170   4
  -3   4  -2 2873.66 563.082   2
   3   4   2 2056.34 228.359   4
   3   4   3 6867.21 883.981   7
   3   4   3 7365.01 939.413   1
  -3   4  -3 6893.52 849.968   2
   3  -4   3 7358.55 813.881   1
  -3  -4  -3 7195.11 874.976   6
   3  -4   3 7632.04 567.643   6
   3   4   4 8481.99 1025.36   1
  -3   4  -4 7744.95 925.570   2
   3  -4   4 7225.40 818.399   1
   3   4   4 8094.98 963.864   7
  -3  -4  -4 7808.25 948.962   6
   3  -4   4 7073.23 440.759   6
   3   4   5 43904.8 2292.01   1
   3  -4   5 41985.8 2002.90   1
  -3   4  -5 43735.1 2192.31   2
   3   4   5 43294.5 2131.53   7
  -3  -4  -5 42371.2 2265.95   6
   3   4   6 20061.0 1584.05   1
   3   4   6 18677.9 1610.37   5
  -3   4  -6 17449.9 1433.89   2
   3  -4   6 19235.5 1385.27   1
   3   4   6 19751.3 1478.87   7
  -3  -4  -6 19145.7 1587.38   6
  -3  -4  -7 2689.42 697.405   6
   3   4   7 2931.35 708.183   5
   3  -4   7 2100.79 510.834   1
  -3   4  -7 1229.77 473.502   2
   3   4   7 2444.82 630.470   1
   3   4   7 2728.30 597.192   7
  -3  -4  -8 2403.17 676.011   6
   3   4   8 2421.89 688.851   5
   3  -4   8 3403.57 652.987   1
  -3   4  -8 2511.61 630.493   2
   3   4   8 2521.53 765.636   1
   3   4   8 1990.69 523.224   7
  -3   4  -9 4735.71 881.540   2
   3   4   9 3535.41 650.768   7
  -3  -4  -9 4221.69 889.177   6
   3   4   9 4254.31 903.920   5
   3  -4   9 3893.48 725.096   1
   3   4   9 3082.73 830.199   1
  -3  -4 -10 3398.46 843.860   6
   3   4  10 3552.85 994.378   5
   3  -4  10 4137.26 735.715   1
  -3   4 -10 3225.76 781.568   2
   3   4  10 3546.92 801.784   1
  -3   4 -11 2128.05 678.783   2
  -3  -4 -11 598.146 362.792   6
   3   4  11 1569.82 587.678   5
   3  -4  11 1838.41 530.086   1
   3   4  11 1525.36 658.399   1
  -3  -4 -12 1602.44 622.339   6
   3  -4  12 1286.84 504.015   1
   3   4  12 1340.75 943.059   5
   3   4  12 743.138 362.567   1
  -3   4 -12 808.184 378.203   2
  -3  -4 -13-180.284 383.042   6
   3   4  13 200.631 481.579   1
   3   4  14 308.166 371.919   1
   3   5 -14 90.2621 318.129   4
  -3  -5  14-136.379 449.419   1
   3   5 -14 20.8317 110.707   2
  -3  -5  13 479.384 294.214   1
  -3   5  13-276.673 604.239   5
   3   5 -13 327.182 490.566   4
   3   5 -13 168.206 391.665   2
   3  -5 -12 1485.22 612.158   6
  -3  -5  12 943.880 443.483   1
  -3   5  12 613.642 456.250   5
   3   5 -12 112.863 195.059   4
   3   5 -12-306.198 466.597   7
   3   5 -12 1425.40 629.240   2
   3  -5 -11 981.488 715.479   6
  -3   5  11 1671.66 531.339   5
  -3  -5  11 631.145 382.348   1
   3   5 -11 1436.17 632.418   4
   3   5 -11-115.701 452.233   7
   3   5 -11 255.676 290.651   2
   3  -5 -10 1384.05 606.589   6
  -3  -5  10 315.964 228.519   1
  -3   5  10 1710.54 648.778   5
  -3  -5  10 789.666 304.196   5
   3   5 -10 498.804 321.619   4
   3   5 -10 782.183 399.448   7
   3   5 -10 1124.19 478.505   2
  -3  -5   9 640.282 390.065   1
   3  -5  -9 186.158 288.256   6
  -3   5   9-405.216 363.937   5
  -3  -5   9-42.6750 397.104   5
   3   5  -9 204.575 408.153   7
   3   5  -9-24.8644 150.206   4
   3   5  -9-479.821 247.620   2
   3  -5  -8 1094.08 606.834   6
  -3   5   8 1700.52 522.312   5
  -3  -5   8 2568.27 514.101   5
   3   5  -8 1734.59 510.663   4
  -3  -5   8 1166.83 415.017   1
   3   5  -8 2116.81 538.407   7
   3   5  -8 1868.16 476.684   2
   3  -5  -7 1877.74 515.018   4
   3   5  -7 2071.52 504.388   2
   3  -5  -7 1974.47 643.465   6
   3   5  -7 1772.63 468.511   4
  -3   5   7 1584.47 486.522   5
  -3  -5   7 1926.59 499.670   5
   3   5  -7 1536.55 496.832   7
  -3  -5   6 406.633 178.334   6
   3  -5  -6 569.298 319.887   6
   3   5  -6 14.1957 75.8993   2
  -3   5   6 441.105 235.921   5
   3   5  -6-174.144 196.220   4
  -3  -5   6 5.66536 210.308   5
   3   5  -6 35.3343 313.270   7
   3  -5  -6 631.749 381.807   4
   3  -5  -5 2951.44 626.583   8
  -3  -5   5 3371.53 478.949   6
   3  -5  -5 2648.87 739.062   6
  -3   5   5 2590.97 531.002   5
  -3  -5   5 3111.24 596.081   5
   3   5  -5 2842.77 787.170   7
   3   5  -5 3114.28 466.540   2
   3  -5  -5 2421.17 537.215   4
   3  -5  -4 10474.1 1151.72   8
  -3   5   4 10987.4 1235.19   3
  -3   5   4 11135.5 1037.14   5
   3   5  -4 10073.1 737.519   2
   3  -5  -4 10842.3 1044.06   4
  -3  -5   4 10030.0 1101.59   8
   3   5  -4 12637.3 1310.54   7
  -3  -5   4 10776.6 872.118   6
   3  -5  -4 10900.0 1151.19   6
   3  -5  -3 14968.0 1386.42   8
   3   5  -3 17288.1 1561.80   7
  -3  -5   3 16259.7 1115.69   6
   3  -5  -3 15190.6 1187.75   4
  -3   5   3 13873.1 1390.12   3
  -3   5   3 14789.0 1133.81   5
  -3  -5   3 16210.1 1344.05   8
   3  -5  -3 14995.9 1340.74   6
  -3   5   2 15595.8 1082.13   5
  -3   5   2 15107.5 1262.20   2
  -3  -5   2 16934.3 1385.03   8
  -3   5   2 13727.5 1368.59   3
   3  -5  -2 13995.7 1185.50   1
   3  -5  -2 16591.1 1432.95   8
   3  -5  -2 12999.4 1146.50   4
   3   5  -2 14061.0 1415.52   7
  -3  -5   2 15211.7 1116.95   6
   3  -5  -2 14911.3 1277.62   6
  -3   5   1 8723.84 776.228   5
  -3   5   1 7766.51 1045.30   3
  -3   5   1 7207.38 884.878   2
   3   5  -1 7459.96 1047.04   7
   3  -5  -1 8248.16 975.572   1
  -3  -5   1 9268.96 1050.08   8
   3  -5  -1 7624.77 1026.35   8
   3  -5  -1 8148.55 946.298   4
  -3  -5   1 7701.50 883.165   6
   3  -5  -1 7093.93 866.836   6
   3   5   0 4217.07 839.449   7
  -3  -5   0 3700.80 639.140   6
  -3  -5   0 3836.11 679.030   8
   3  -5   0 3550.30 635.923   4
  -3   5   0 3523.99 711.826   3
   3  -5   0 4186.44 683.188   1
   3  -5   0 4011.00 640.340   6
  -3   5   0 3959.79 677.440   2
  -3  -5  -1 4134.02 707.031   6
   3  -5   1 4413.62 759.854   1
   3  -5   1 3999.12 563.178   6
  -3   5  -1 4546.51 816.170   3
   3   5   1 3734.37 741.229   7
  -3   5  -1 4168.73 675.690   2
   3  -5   2 2101.94 375.922   6
  -3  -5  -2 2193.94 624.267   6
  -3   5  -2 2689.70 616.628   2
   3  -5   2 2545.67 511.856   1
   3   5   2 2698.42 655.111   7
  -3   5  -3 9745.34 1094.91   2
   3  -5   3 12430.3 1178.18   1
   3   5   3 11893.9 1276.90   7
  -3  -5  -3 9912.01 1116.06   6
  -3   5  -4 11068.6 1194.83   2
   3  -5   4 11385.0 1137.09   1
   3   5   4 13476.7 1354.47   7
  -3  -5  -4 11180.1 1254.54   6
  -3  -5  -5 4620.42 852.788   6
   3  -5   5 3621.55 672.565   1
   3   5   5 4652.54 784.593   7
  -3   5  -5 2852.14 631.842   2
  -3  -5  -6 4680.22 892.926   6
   3   5   6 4115.43 799.669   7
   3   5   6 4266.29 883.453   1
  -3   5  -6 4127.83 804.341   2
   3  -5   6 4326.29 756.958   1
  -3  -5  -7 1143.77 430.899   6
   3   5   7 929.059 479.914   1
   3   5   7 1039.84 464.837   7
  -3   5  -7 474.398 418.441   2
   3  -5   7 849.031 421.474   1
  -3  -5  -8 1399.41 600.077   6
   3   5   8 1609.99 648.128   5
   3   5   8 2003.48 727.320   1
   3  -5   8 1888.26 583.846   1
  -3   5  -8 2172.46 561.485   2
   3   5   8 2472.36 673.566   7
   3   5   9 2391.85 634.590   7
  -3  -5  -9 4351.55 893.227   6
   3  -5   9 2643.79 602.409   1
   3   5   9 2334.32 715.266   5
   3   5   9 2865.86 757.877   1
  -3   5  -9 2855.20 863.530   2
  -3  -5 -10 3590.95 853.571   6
   3   5  10 3992.66 1006.74   5
   3  -5  10 2864.06 652.852   1
   3   5  10 4504.21 872.205   1
  -3   5 -10 3308.20 785.416   2
  -3  -5 -11-201.506 469.904   6
   3   5  11 1348.34 767.728   5
   3  -5  11 2368.22 737.616   1
   3   5  11 3077.47 755.628   1
  -3   5 -11 1214.39 529.778   2
   3   5  12 1362.19 639.936   1
  -3  -6  12-224.556 521.316   1
   3   6 -12 940.159 414.995   7
  -3   6  11 1379.77 631.823   5
  -3  -6  11 210.218 477.300   1
   3   6 -11 302.667 418.403   7
   3  -6 -10 881.785 631.330   6
  -3  -6  10 1153.65 630.466   1
  -3   6  10 1698.21 622.202   5
   3   6 -10 944.380 649.340   7
  -3  -6   9 269.621 496.279   1
   3  -6  -9 1082.10 575.173   6
   3   6  -9 17.2529 728.749   7
   3  -6  -8 398.822 433.088   6
  -3   6   8 1634.84 576.567   5
  -3  -6   8 889.869 531.029   1
   3   6  -8 229.540 507.846   7
   3  -6  -7-3.44743 673.374   6
  -3   6   7 209.852 361.517   5
  -3  -6   7-15.1492 215.280   5
   3   6  -7 131.557 289.521   7
   3  -6  -6 1036.38 659.278   6
  -3   6   6 503.990 433.060   3
  -3   6   6 490.510 443.655   5
  -3  -6   6 1373.78 500.699   5
  -3  -6   6 808.809 409.955   8
   3   6  -6 1243.80 572.532   7
   3  -6  -5 865.124 377.573   6
  -3   6   5 542.524 497.697   3
  -3   6   5 1104.82 398.776   5
  -3  -6   5 724.470 470.677   5
  -3  -6   5 1350.31 626.622   8
   3   6  -5 1229.06 527.269   7
   3  -6  -4 977.210 424.957   6
  -3   6   4-182.439 320.032   3
  -3   6   4 613.823 326.856   5
  -3  -6   4 78.9724 474.321   8
   3   6  -4 265.828 348.105   7
   3  -6  -4 409.607 266.974   8
  -3  -6   3 5016.96 691.992   6
   3  -6  -3 5731.54 946.144   6
   3  -6  -3 5089.53 865.136   1
  -3   6   3 5015.89 916.616   3
  -3   6   3 3801.51 671.813   5
   3  -6  -3 5410.25 889.903   8
  -3  -6   3 5952.93 939.128   8
   3   6  -3 5354.14 975.853   7
  -3  -6   2 1460.15 582.166   8
  -3  -6   2 1768.10 505.467   6
   3  -6  -2 1740.91 544.144   6
   3   6  -2 650.365 370.921   7
  -3   6   2 1219.31 650.561   3
   3  -6  -2 1539.40 586.181   8
  -3   6   2 795.468 391.514   2
   3  -6  -2 925.292 569.319   1
  -3  -6   1 4343.45 820.840   8
   3  -6  -1 3326.47 694.126   1
   3  -6  -1 2993.57 661.590   6
  -3   6   1 3501.33 796.921   3
  -3   6   1 3769.32 729.391   2
   3  -6  -1 2299.13 594.005   8
   3   6  -1 3703.12 794.751   7
  -3  -6   1 3785.61 659.114   6
  -3  -6   0 1309.86 480.778   6
  -3   6   0 739.602 627.281   3
  -3  -6   0 1114.14 439.499   8
   3  -6   0 722.175 463.544   8
   3  -6   0 1340.24 454.135   1
  -3   6   0 953.000 429.636   2
   3   6   0 1699.00 624.153   7
   3   6   1 7735.69 1125.35   7
  -3  -6  -1 7603.10 1003.53   6
  -3   6  -1 7797.67 1145.97   3
   3  -6   1 7249.02 1054.92   1
  -3   6  -1 6820.97 961.409   2
   3   6   2 2952.47 668.736   7
  -3  -6  -2 2225.66 539.082   6
  -3   6  -2 1961.74 538.208   2
   3  -6   2 3886.67 724.803   1
  -3  -6  -3 3400.19 763.244   6
   3   6   3 3820.45 825.161   7
   3  -6   3 3520.56 680.483   1
  -3   6  -3 3243.58 718.225   2
   3   6   4 2201.16 691.303   7
   3  -6   4 3113.38 659.778   1
  -3  -6  -4 2943.62 773.490   6
  -3   6  -4 2174.42 684.739   2
   3   6   5-87.4779 328.392   7
  -3  -6  -5 15.6057 419.913   6
  -3   6  -5 8.44902 301.752   2
   3  -6   5 639.895 309.240   1
  -3   6  -6 542.652 392.786   2
  -3  -6  -6 2236.22 718.876   6
   3  -6   6 1403.95 566.184   1
   3   6   6 833.036 377.323   7
  -3  -6  -7 2019.89 777.553   6
  -3   6  -7 1453.38 567.152   2
   3   6   7 1535.63 642.156   7
   3  -6   7 1199.98 466.101   1
   3   6   8 599.772 527.004   7
  -3  -6  -8 466.528 535.593   6
  -3   6  -8 1148.04 706.642   2
   3  -6   8 231.630 359.466   1
  -3  -6  -9 2666.64 864.299   6
  -3   6  -9 1018.12 525.861   2
  -3   7   9 460.736 364.853   5
   3  -7  -8 158.619 235.298   6
  -3   7   8 2138.54 685.584   3
  -3   7   8 599.300 407.879   5
  -3  -7   8 1396.11 745.306   1
   3   7  -8 804.701 503.779   7
  -3  -7   7 31.4198 391.641   1
   3  -7  -7 255.183 309.890   6
  -3   7   7 603.226 524.089   3
  -3   7   7 883.584 417.011   5
  -3  -7   7-354.714 471.757   8
   3   7  -7-84.2855 453.211   7
   3  -7  -6 755.616 560.665   6
  -3   7   6 162.620 418.162   3
  -3  -7   6 811.488 430.873   8
   3   7  -6 1607.13 592.555   7
   3  -7  -5 89.9336 135.013   6
   3   7  -5-179.623 255.478   7
  -3  -7   5 411.536 484.005   8
   3  -7  -4 253.344 315.689   8
   3  -7  -4-40.3668 182.804   6
  -3   7   4-89.9934 250.444   3
  -3  -7   4-373.738 432.433   8
   3  -7  -4 588.379 369.578   1
   3   7  -4-169.057 205.671   7
   3   7  -3 2051.67 782.082   7
  -3  -7   3 665.138 574.231   8
   3  -7  -3 738.442 330.839   1
   3  -7  -3 1459.84 492.648   6
  -3   7   3 2374.05 708.585   3
   3  -7  -3 832.266 517.075   8
   3  -7  -2 786.625 433.844   8
  -3  -7   2 1439.06 685.396   8
  -3   7   2 1326.77 541.428   3
   3  -7  -2 380.838 413.862   1
   3   7  -2 1764.06 613.903   7
   3  -7  -1-278.556 155.467   8
  -3   7   1 789.833 515.344   3
  -3  -7   1 143.940 297.842   6
  -3   7   1 5.31298 330.202   2
  -3  -7   1 278.216 574.578   8
   3   7  -1-100.723 414.030   7
   3  -7  -1 204.038 371.957   1
  -3  -7   0 3597.21 779.434   6
   3  -7   0 1698.04 607.858   8
  -3   7   0 1477.56 646.497   3
   3  -7   0 2279.97 655.153   1
  -3   7   0 3319.96 748.633   2
   3   7   0 1315.81 546.746   7
   3  -7   1 531.096 514.796   8
  -3  -7  -1 484.977 487.532   6
   3  -7   1 1471.29 535.269   1
  -3   7  -1 560.702 371.186   2
   3   7   1 500.694 388.678   7
   3  -7   2 851.402 372.906   1
  -3   7  -2 759.225 507.413   2
  -3  -7  -2 1184.82 547.022   6
   3  -7   2 1158.75 561.788   8
   3   7   2 397.173 310.218   7
  -3  -7  -3 810.393 501.181   6
  -3   7  -3 1363.31 496.699   2
   3  -7   3 587.099 351.989   1
   3   7   3 44.6184 192.931   7
  -3  -7  -4-740.409 529.959   6
   3  -7   4-69.7651 438.549   1
   3   7   4-689.647 459.508   7
  -3   7  -4 264.090 354.717   2
  -3  -7  -5 1013.19 478.050   6
   3  -7   5 734.062 367.129   1
  -3   7  -5 273.435 293.995   2
   3   7   5 665.330 442.215   7
   3   7   6 516.823 320.127   7
  -3  -7  -6 655.798 478.354   6
  -3   7  -6 555.232 430.011   2
   3   7   7 415.860 300.989   7
  -3   7  -7 298.781 423.382   2
  -3  -8   4 392.973 422.991   8
   3  -8  -3 892.277 725.849   1
  -3   8   3-174.318 254.362   3
  -3  -8   3 366.735 542.889   8
  -3   8   2 767.611 492.277   3
   3  -8  -2 378.844 303.674   1
  -3  -8   2 162.915 616.440   8
  -3   8   1 670.078 384.577   3
   3  -8  -1 575.087 407.123   1
   3  -8   0-670.561 481.004   1
  -3   8   0-68.0761 302.720   2
  -3   8  -1 792.559 480.426   2
  -3   8  -2 1508.22 518.056   2
  -3   8  -3 1274.20 549.098   2
  -3  -8  -3 1838.35 646.239   6
   4   0 -16 385.615 414.752   6
  -4   0  16 672.436 436.903   5
   4   0 -16 663.266 518.105   4
   4   0 -15 2686.47 697.588   6
  -4   0  15 2233.20 543.581   5
   4   0 -15 2322.16 709.740   4
  -4   0  14 3826.12 787.943   5
   4   0 -14 4922.03 1094.30   4
   4   0 -13 6440.78 1134.44   4
  -4   0  13 4671.68 902.589   5
  -4   0  12 105.811 322.617   5
   4   0 -12-269.409 439.732   4
  -4   0  11 64018.4 2716.47   5
   4   0 -11 62151.0 3159.34   4
  -4   0  10 16028.8 1267.81   5
   4   0 -10 14550.1 1528.85   4
   4   0  -9 23.6590 35.5900   7
  -4   0   9 263.780 265.577   5
  -4   0   9 104.947 59.0729   1
  -4   0   9 125.591 85.5906   1
   4   0  -9 218.179 344.251   4
  -4   0   8 78.3724 42.3881   1
  -4   0   8 65.0865 220.446   5
   4   0  -8-93.2451 72.3797   7
  -4   0   8 59.3121 62.7678   1
   4   0  -8 194.814 317.701   4
   4   0  -7 30654.7 1899.77   4
  -4   0   7 28040.8 505.712   1
  -4   0   7 29215.6 1512.25   5
  -4   0   7 29232.1 456.514   1
  -4   0   6 8916.91 293.563   1
  -4   0   6 8934.87 813.310   5
  -4   0   6 8811.65 302.162   1
   4   0  -6 9077.28 1014.60   4
  -4   0   5 83697.5 2299.87   5
  -4   0   5 85443.5 1021.51   1
  -4   0   5 81775.4 1230.47   8
   4   0  -5 84753.3 2865.17   4
   4   0  -4 17631.5 613.940   1
  -4   0   4 19066.3 1052.35   5
  -4   0   4 18407.9 542.322   1
   4   0  -4 16860.4 1251.77   4
   4   0  -3 4271.08 643.607   4
   4   0  -3 5436.50 378.175   1
  -4   0   3 5382.83 552.969   5
  -4   0   3 5756.96 345.265   1
   4   0  -2 2207.55 465.233   4
   4   0  -2 2536.55 292.180   1
  -4   0   2 2580.90 260.569   1
  -4   0   2 2490.51 386.320   5
  -4   0   1 108001. 2086.17   3
  -4   0   1 110803. 2262.33   5
  -4   0   1 107274. 2098.21   2
  -4   0   1 109996. 1763.97   1
   4   0  -1 108631. 2979.25   4
  -4   0   0 64364.6 1732.10   6
  -4   0   0 67048.4 1619.45   3
   4   0   0 67010.0 1655.92   1
  -4   0   0 65305.6 1648.38   2
   4   0   1 9347.20 648.661   3
   4   0   1 8882.62 651.307   1
  -4   0  -1 7829.97 601.280   2
  -4   0  -1 9493.39 682.280   6
   4   0   2 8060.16 672.842   1
  -4   0  -2 8119.32 621.527   2
  -4   0  -2 8749.58 681.001   6
   4   0   3 40610.8 1511.30   1
  -4   0  -3 39708.3 1418.33   2
  -4   0  -3 42358.8 1491.83   6
   4   0   4 80155.6 2244.24   1
  -4   0  -4 80809.0 2151.15   2
  -4   0  -4 82345.1 2138.87   6
  -4   0  -5 2626.58 395.879   6
  -4   0  -5 3912.53 509.470   2
   4   0   5 3217.50 536.204   1
   4   0   6 6433.91 733.490   1
  -4   0  -6 5332.14 634.167   2
  -4   0  -6 5139.11 573.199   6
  -4   0  -7 2481.83 440.626   6
   4   0   7 2983.84 521.711   5
   4   0   7 3398.02 581.103   1
  -4   0  -7 3553.80 544.394   2
   4   0   8 5256.78 726.941   1
   4   0   8 5637.48 725.729   5
  -4   0  -8 4841.46 606.778   6
  -4   0  -8 5196.71 732.963   2
   4   0   9 907.791 318.398   5
   4   0   9 1702.97 496.304   1
  -4   0  -9 932.158 296.871   6
  -4   0  -9 1664.64 450.616   2
   4   0  10 10481.4 1123.10   1
   4   0  10 8602.02 965.259   5
  -4   0 -10 10344.8 1115.45   2
  -4   0 -10 7847.94 865.466   6
   4   0  11 7618.58 987.555   1
   4   0  11 5731.25 876.380   5
  -4   0 -11 6838.52 811.884   6
  -4   0 -11 6758.12 962.455   2
   4   0  12 2433.33 590.721   5
   4   0  12 3508.85 685.881   1
  -4   0 -12 2432.76 653.993   2
   4   0  13-398.784 465.346   1
  -4   0 -13 432.760 250.965   2
   4   0  14 3414.32 749.113   1
  -4   0 -14 4420.49 906.221   2
  -4   0 -15 746.971 433.310   2
   4  -1 -17 1674.88 605.757   6
  -4  -1  17 1034.95 546.252   5
   4  -1 -16 599.506 490.221   6
  -4   1  16 1590.36 716.672   5
  -4  -1  16 777.064 621.658   5
   4   1 -16 807.923 502.275   4
   4  -1 -16 832.369 802.026   4
  -4   1  15 519.941 488.481   5
  -4  -1  15-21.6584 294.155   5
   4  -1 -15-652.839 386.142   6
   4   1 -15 438.548 416.418   4
   4  -1 -15 515.054 680.238   4
   4  -1 -14 2927.04 848.325   4
  -4   1  14 3425.53 952.282   5
  -4  -1  14 3291.40 740.110   5
   4   1 -14 3233.51 952.891   4
  -4   1  13 3484.94 757.879   5
  -4  -1  13 2362.33 709.539   5
   4   1 -13 3279.94 898.212   4
   4  -1 -13 3346.67 825.459   4
  -4  -1  12 7570.70 1006.05   5
   4   1 -12 7657.11 1170.93   4
  -4   1  12 8516.41 1126.91   5
   4  -1 -12 6109.41 1100.05   4
  -4   1  11 31031.0 1944.09   5
  -4  -1  11 29110.2 1798.31   5
  -4  -1  11 28463.3 1013.27   1
   4   1 -11 25372.3 2030.39   4
   4  -1 -11 27493.0 2101.02   4
  -4   1  10 27554.3 1744.47   5
  -4  -1  10 24628.4 1621.95   5
  -4  -1  10 26774.3 967.656   1
   4   1 -10 30347.6 2114.01   4
   4   1 -10 27906.2 1123.70   7
   4  -1 -10 28002.2 2063.40   4
  -4   1   9 25824.5 1614.48   5
  -4  -1   9 25320.4 1539.61   5
  -4  -1   9 24878.9 928.557   1
   4   1  -9 24281.5 1818.26   4
   4  -1  -9 29614.7 2022.04   4
   4   1  -9 25870.2 1125.03   7
  -4  -1   8 1011.64 218.607   1
  -4   1   8 1447.57 418.843   5
  -4  -1   8 349.247 258.721   5
  -4  -1   8 852.071 219.053   1
   4   1  -8 608.037 212.450   7
   4   1  -8 1309.60 491.666   4
   4  -1  -8 749.996 386.264   4
  -4  -1   7 16756.7 806.227   1
  -4   1   7 18063.6 1218.90   5
  -4  -1   7 18032.3 1202.04   5
  -4  -1   7 16802.0 801.609   1
   4   1  -7 15658.3 1351.08   4
   4  -1  -7 16064.8 1397.06   4
   4   1  -7 17328.1 933.260   7
  -4  -1   6 33605.9 1105.51   1
  -4   1   6 32407.6 1522.87   5
  -4  -1   6 32616.4 1543.37   5
   4   1  -6 32920.4 1825.53   4
  -4   1   6 32512.8 1167.03   8
   4  -1  -6 32875.8 1900.58   4
  -4  -1   5 6440.36 482.168   1
  -4   1   5 6706.65 662.863   5
  -4  -1   5 5998.24 687.982   5
   4   1  -5 5908.13 787.114   4
  -4   1   5 6470.62 484.916   8
   4  -1  -5 7448.20 896.191   4
  -4  -1   4 26899.8 963.933   1
   4  -1  -4 26631.6 546.159   1
  -4   1   4 25606.0 1198.52   5
  -4  -1   4 25440.5 1273.88   5
   4   1  -4 24644.4 1485.33   4
   4  -1  -4 24647.6 1529.72   4
   4   1  -3 41223.6 1316.56   1
  -4  -1   3 45524.0 1275.14   1
  -4   1   3 45074.0 1501.48   5
  -4  -1   3 45204.5 1650.89   5
   4  -1  -3 47666.1 932.267   1
   4   1  -3 47082.5 1331.75   2
   4   1  -3 42907.7 1886.21   4
  -4   1   3 45230.4 959.556   1
   4  -1  -3 44491.7 2028.45   4
   4  -1  -3 45868.3 1112.35   8
   4   1  -2 4413.25 649.108   4
   4  -1  -2 5543.74 747.668   4
  -4  -1   2 5558.83 561.160   6
   4   1  -2 4812.09 472.328   1
  -4   1   2 5367.46 514.981   5
  -4   1   2 4739.45 526.448   2
   4  -1  -2 5102.04 352.304   1
   4   1  -2 4928.72 418.455   2
  -4   1   2 4962.18 367.138   1
  -4  -1   1 44407.2 953.674   3
   4   1  -1 44095.2 1448.46   1
  -4   1   1 44057.2 1601.02   3
  -4   1   1 43764.9 1304.71   5
   4   1  -1 42928.5 903.756   8
  -4   1   1 44923.6 1556.34   2
   4  -1  -1 44387.7 1112.61   1
   4   1  -1 42958.3 1118.09   2
  -4   1   1 43524.1 1153.91   1
   4   1  -1 44273.8 1834.26   4
  -4  -1   1 43194.7 1494.56   6
  -4   1   0 14671.3 929.754   3
   4   1   0 14460.9 877.105   1
  -4   1   0 15125.5 734.755   5
  -4  -1   0 15785.4 653.379   2
  -4   1   0 15502.3 929.292   2
   4  -1   0 15082.3 709.013   1
   4   1   0 14493.8 635.347   2
  -4  -1   0 14798.9 900.425   6
  -4  -1  -1 139609. 2777.21   6
  -4   1  -1 134267. 2807.14   3
   4   1   1 134404. 1923.83   3
   4   1   1 137515. 2754.65   1
  -4   1  -1 136692. 2108.08   5
  -4  -1  -1 135283. 1994.34   2
   4  -1   1 136817. 2262.41   1
  -4   1  -1 132493. 2716.45   2
   4   1   1 130805. 1960.29   2
  -4   1  -2 184840. 2764.16   6
  -4  -1  -2 189257. 3333.53   6
   4   1   2 180971. 2472.50   3
   4   1   2 185165. 3346.29   1
   4  -1   2 181433. 2815.66   1
  -4  -1  -2 180564. 2483.74   2
  -4   1  -2 180012. 3272.47   2
   4   1   2 172094. 2453.09   2
  -4   1  -3 52554.9 1400.15   5
   4   1   3 52276.5 1883.91   1
   4  -1   3 52383.3 1605.75   1
  -4   1  -3 52923.5 1837.84   2
  -4  -1  -3 49719.8 1394.88   2
  -4   1  -3 52218.2 1479.64   6
  -4  -1  -3 51148.2 1811.96   6
  -4  -1  -4 3756.46 547.357   6
  -4   1  -4 3615.32 393.983   5
   4   1   4 4407.16 599.187   1
   4  -1   4 4008.17 502.384   1
  -4   1  -4 3580.64 432.439   6
  -4  -1  -4 3609.35 423.452   2
  -4   1  -4 4270.33 561.854   2
  -4   1  -5 30133.4 1130.19   5
   4   1   5 31292.9 1592.70   1
   4  -1   5 32462.1 1428.09   1
  -4   1  -5 30783.5 1548.29   2
  -4  -1  -5 30147.1 1265.41   2
  -4   1  -5 30986.2 1207.73   6
  -4  -1  -5 30031.0 1500.39   6
   4   1   6 13100.2 1110.35   1
   4  -1   6 12303.9 935.267   1
  -4   1  -6 13397.4 1064.95   2
  -4  -1  -6 12834.8 902.031   2
  -4   1  -6 11720.5 774.120   6
  -4  -1  -6 13631.0 1071.53   6
  -4   1  -7 253.754 165.244   6
   4   1   7 810.508 378.320   5
   4   1   7 341.606 364.881   1
  -4  -1  -7 213.139 189.287   6
   4  -1   7 490.078 340.870   1
  -4   1  -7 98.8831 253.875   2
  -4  -1  -7 459.000 187.629   2
   4   1   8 30310.5 1795.61   5
   4   1   8 29007.0 1748.03   1
   4  -1   8 29623.5 1601.28   1
  -4   1  -8 30059.5 1758.78   2
  -4  -1  -8 26947.6 1491.49   2
  -4  -1  -8 28032.9 1627.67   6
  -4   1  -8 29279.9 1303.62   6
  -4  -1  -9 4978.23 768.919   6
   4  -1   9 4183.28 662.543   1
   4  -1   9 5644.19 685.191   5
   4   1   9 5023.04 792.451   5
   4   1   9 4591.85 754.924   1
  -4  -1  -9 5902.39 782.992   2
  -4   1  -9 5671.13 841.348   2
  -4   1  -9 4438.55 539.554   6
   4  -1  10 3706.57 599.666   5
   4   1  10 3639.78 757.684   1
   4   1  10 2684.96 643.416   5
   4  -1  10 3364.71 629.644   1
  -4  -1 -10 2758.62 601.258   6
  -4   1 -10 3438.61 735.750   2
  -4  -1 -10 2665.11 645.752   2
  -4  -1 -11 308.426 216.579   6
   4   1  11 1201.38 416.057   1
   4   1  11 1534.92 548.829   5
   4  -1  11 600.548 313.423   1
  -4   1 -11 248.144 317.407   2
  -4  -1 -11 513.753 333.303   2
  -4  -1 -12 1689.40 540.121   6
   4   1  12 2752.24 659.416   1
   4   1  12 1776.72 688.299   5
   4  -1  12 2719.52 690.950   1
  -4   1 -12 1968.74 578.047   2
  -4  -1 -12 2749.42 653.533   2
  -4  -1 -13 488.263 497.382   6
   4   1  13 346.263 276.888   1
   4   1  13 201.314 182.797   5
   4  -1  13 233.349 392.046   1
  -4   1 -13 803.192 563.817   2
  -4  -1 -13 42.0915 361.651   2
   4   1  14 47.4802 287.361   1
   4   1  14-145.814 553.789   5
   4  -1  14 555.271 395.155   1
  -4   1 -14 637.736 517.206   2
  -4  -1 -14 613.610 522.595   2
  -4  -1 -15 111.327 453.599   2
  -4  -2  17-574.844 594.935   5
   4  -2 -16 2561.98 835.060   6
  -4  -2  16 2093.49 737.860   5
   4   2 -16 1302.32 792.844   4
   4  -2 -16 18.6636 338.668   4
   4  -2 -15 278.794 280.100   6
  -4   2  15 265.120 523.857   5
  -4  -2  15 637.037 369.069   5
   4   2 -15-579.530 554.841   4
   4  -2 -15-536.229 693.726   4
   4   2 -14 1157.41 735.232   4
   4  -2 -14 1790.04 733.975   6
   4  -2 -14 1741.22 752.745   4
  -4   2  14 2318.31 816.314   5
  -4  -2  14 2319.36 752.999   5
   4  -2 -13 258.539 345.346   6
  -4   2  13-213.184 368.550   5
  -4  -2  13-112.586 374.153   5
   4  -2 -13-507.137 550.103   4
   4   2 -13 119.416 247.261   4
  -4   2  12 218.628 480.284   5
  -4  -2  12-524.995 448.442   5
   4   2 -12 272.548 358.519   4
   4  -2 -12 883.177 549.098   4
  -4   2  11 145.150 186.927   5
  -4  -2  11 401.628 328.079   5
   4   2 -11 109.218 277.300   4
  -4  -2  11 188.118 152.605   1
   4  -2 -11 872.247 521.834   4
  -4   2  10 19743.7 1561.35   5
  -4  -2  10 17766.2 1367.23   5
  -4  -2  10 19500.5 1089.24   1
   4   2 -10 21015.3 1823.19   4
   4  -2 -10 19354.8 1697.18   4
   4   2 -10 20539.3 1233.14   7
  -4   2   9 23512.5 1605.54   5
  -4  -2   9 24581.0 1548.57   5
  -4  -2   9 24827.6 1245.82   1
   4   2  -9 27778.3 1949.33   4
   4  -2  -9 27035.8 1960.91   4
   4   2  -9 25835.7 1378.11   7
  -4   2   8 31970.4 1760.64   5
  -4  -2   8 30042.7 1637.50   5
  -4  -2   8 31714.4 1403.46   1
   4   2  -8 32826.2 1992.21   4
   4  -2  -8 32582.9 2067.05   4
   4  -2  -8 31327.9 986.881   7
   4   2  -8 32299.1 1543.36   7
   4   2  -7 4127.02 577.758   7
  -4   2   7 4242.92 636.773   5
  -4  -2   7 3533.96 588.439   5
   4  -2  -7 4129.75 413.762   7
   4   2  -7 3381.90 615.580   4
   4  -2  -7 5674.18 811.643   4
   4  -2  -6 16295.4 829.907   7
  -4   2   6 18633.5 1202.00   5
  -4  -2   6 19125.2 1253.10   5
   4   2  -6 17411.4 1329.95   4
   4  -2  -6 17496.4 1436.56   4
   4   2  -6 17404.1 1115.14   7
   4  -2  -5 4258.20 750.631   4
   4  -2  -5 3982.18 260.879   1
   4  -2  -5 4481.43 229.482   1
  -4   2   5 4149.27 542.242   5
  -4  -2   5 4048.53 575.316   5
   4   2  -5 5420.27 631.441   7
   4   2  -5 3675.51 647.720   4
   4  -2  -4 26964.5 1669.39   4
  -4   2   4 25473.3 1225.70   5
  -4  -2   4 24861.0 1335.10   5
   4  -2  -4 24929.7 661.645   1
  -4  -2   4 24119.8 880.274   8
   4   2  -4 24650.6 1418.45   4
   4  -2  -4 24869.1 1111.53   8
  -4  -2   4 25959.8 1193.97   6
  -4   2   3 27636.0 1190.85   5
   4  -2  -3 26893.2 789.997   1
   4  -2  -3 26868.6 1649.72   4
  -4  -2   3 28183.0 888.641   8
   4   2  -3 25978.6 1423.86   4
   4  -2  -3 27858.1 1197.29   8
  -4  -2   3 27662.2 1237.90   6
   4   2  -2 30667.3 1409.34   1
  -4   2   2 29915.2 1553.93   3
  -4   2   2 31878.8 1179.56   5
   4   2  -2 32296.3 846.078   2
  -4   2   2 32952.5 1511.72   2
   4  -2  -2 34472.5 986.175   1
   4   2  -2 30379.9 1502.57   4
   4  -2  -2 30266.6 1713.15   4
  -4  -2   2 32937.1 1366.81   6
   4   2  -1 7581.02 733.301   1
  -4   2   1 7209.47 797.081   3
  -4   2   1 7631.93 539.461   5
   4  -2  -1 7357.86 522.877   5
  -4   2   1 7543.78 747.811   2
   4   2  -1 7422.31 335.625   2
   4  -2  -1 7090.26 493.638   1
   4   2  -1 7233.07 747.574   4
  -4  -2   1 8271.81 720.935   6
   4   2   0 74167.0 2259.07   1
  -4   2   0 72995.1 2356.10   3
  -4   2   0 73660.8 1474.54   5
  -4   2   0 76612.7 2280.26   2
   4  -2   0 75137.1 1701.03   1
   4   2   0 71965.3 855.551   2
   4   2   0 74133.6 2265.99   4
  -4  -2   0 73920.5 2151.02   6
   4   2   0 78503.2 1839.03   8
   4   2   1 80888.5 2410.34   1
  -4   2  -1 77122.1 1326.65   5
  -4   2  -1 80958.7 2361.95   2
   4  -2   1 79978.1 1860.26   1
  -4   2  -1 76749.5 2439.53   3
  -4  -2  -1 77400.0 2277.13   6
  -4   2  -2 57489.3 1091.32   5
  -4   2  -2 57839.7 1006.25   5
  -4  -2  -2 59720.7 1033.38   2
  -4   2  -2 58044.6 2056.59   2
  -4  -2  -2 57494.3 2029.29   6
   4  -2   2 59053.2 1702.92   1
   4   2   2 61848.4 2164.01   1
   4   2   3 34118.3 1652.31   1
  -4   2  -3 32795.4 726.902   5
  -4   2  -3 31224.7 662.597   5
  -4   2  -3 32110.7 1583.88   2
  -4  -2  -3 33349.9 936.943   2
   4  -2   3 34161.4 1362.61   1
  -4  -2  -3 33498.6 1611.22   6
   4   2   4 6091.97 761.957   1
  -4   2  -4 6005.95 306.675   5
  -4   2  -4 6059.57 298.277   5
  -4   2  -4 7108.94 784.516   2
   4  -2   4 6820.95 670.644   1
  -4  -2  -4 5832.07 448.673   2
  -4  -2  -4 6001.89 721.277   6
   4   2   5 17014.3 1276.45   1
  -4   2  -5 16144.6 538.244   5
   4  -2   5 16813.2 1058.51   1
  -4   2  -5 17339.4 1250.88   2
  -4  -2  -5 16478.0 855.148   2
  -4  -2  -5 16769.6 1227.45   6
  -4  -2  -6 1513.96 455.874   6
   4  -2   6 1352.34 375.269   1
   4   2   6 1559.30 530.625   1
  -4   2  -6 1618.92 414.278   2
  -4  -2  -6 957.415 231.969   2
  -4   2  -7 52524.2 1384.72   6
   4   2   7 54167.0 2495.36   5
   4   2   7 54855.3 2422.13   1
   4  -2   7 54696.7 2079.41   1
  -4   2  -7 52633.2 2360.25   2
  -4  -2  -7 54582.2 1880.02   2
  -4  -2  -7 56557.9 2454.02   6
   4  -2   8 138.371 307.681   1
  -4  -2  -8 204.576 375.690   6
   4   2   8 404.527 456.690   1
   4   2   8 338.043 362.203   5
  -4   2  -8 360.546 238.723   2
  -4  -2  -8 179.606 242.294   2
  -4  -2  -9 2435.19 494.694   2
   4   2   9 3876.67 800.829   1
  -4  -2  -9 2520.50 607.703   6
  -4   2  -9 2845.48 658.911   2
   4   2   9 2132.12 638.694   5
   4  -2   9 2818.70 591.772   1
  -4  -2 -10 1071.31 364.313   2
  -4  -2 -10 679.521 326.733   6
   4   2  10 1056.38 485.705   1
  -4   2 -10 1313.72 545.028   2
   4   2  10 662.427 483.014   5
   4  -2  10 1204.39 488.311   1
  -4  -2 -11 610.029 403.646   2
  -4  -2 -11 269.193 331.154   6
   4   2  11 575.754 424.926   1
   4   2  11 268.424 399.337   5
   4  -2  11 725.897 337.323   1
  -4   2 -11 636.312 481.295   2
  -4  -2 -12 477.342 382.131   2
  -4  -2 -12-101.470 302.150   6
   4   2  12-66.9039 443.001   1
   4   2  12 46.4558 533.536   5
  -4   2 -12-239.590 197.027   2
   4  -2  12-138.524 434.043   1
  -4  -2 -13 143.716 551.519   6
   4  -2  13 636.226 384.406   1
   4   2  13 137.187 300.899   1
   4   2  13 973.589 677.406   5
  -4   2 -13 300.230 576.162   2
   4   2  14-453.238 515.712   1
   4   2  14 1689.26 885.825   5
   4  -2  14 1434.70 566.041   1
  -4  -3  16 747.901 496.263   5
   4  -3 -16-898.568 505.075   4
   4  -3 -15 3117.76 910.208   6
  -4   3  15 3176.95 1032.52   5
  -4  -3  15 4410.49 940.270   5
   4   3 -15 3330.99 1048.16   4
   4  -3 -15 3805.51 1037.90   4
   4  -3 -14 2353.05 826.154   6
   4  -3 -14 1613.64 787.962   4
  -4   3  14 3573.22 831.448   5
  -4  -3  14 2627.58 657.194   5
   4   3 -14 3185.04 841.960   4
   4  -3 -13 294.687 482.785   6
  -4   3  13 682.487 569.673   5
   4   3 -13 962.985 689.415   4
  -4  -3  13 739.322 372.521   5
   4  -3 -13 784.781 677.672   4
  -4  -3  12 1296.57 425.816   1
   4  -3 -12 1181.54 563.630   6
  -4   3  12 1404.26 645.441   5
  -4  -3  12 1464.68 559.268   5
   4   3 -12 1559.33 607.068   4
   4  -3 -12 1624.39 672.569   4
  -4   3  11 1333.89 607.980   5
  -4  -3  11 1088.95 360.074   1
  -4  -3  11 1147.58 431.496   5
   4   3 -11 1389.39 458.103   7
   4   3 -11 1934.82 588.527   4
   4  -3 -11 1343.14 557.093   4
  -4  -3  10 2590.20 522.476   1
  -4   3  10 2442.55 592.453   5
  -4  -3  10 2513.18 549.559   5
   4   3 -10 3255.91 587.984   7
   4   3 -10 2860.81 717.969   4
   4  -3 -10 3717.40 733.971   4
  -4   3   9 23928.1 1696.94   5
  -4  -3   9 23422.2 1535.74   5
  -4  -3   9 23023.2 1442.05   1
   4   3  -9 24491.6 1815.48   4
   4  -3  -9 22548.5 1797.34   4
   4   3  -9 23985.0 1531.43   7
  -4   3   8 18602.8 1447.08   5
  -4  -3   8 20231.0 1399.27   5
   4   3  -8 20806.2 1585.84   4
   4  -3  -8 19225.7 1613.93   4
   4   3  -8 20743.4 1409.89   7
  -4   3   7 10724.3 1048.95   5
  -4  -3   7 8579.79 931.964   5
   4  -3  -7 11039.5 1228.98   4
   4  -3  -7 8235.02 488.065   1
   4   3  -7 9408.88 1024.64   4
   4   3  -7 10394.9 992.368   7
   4  -3  -6 17790.5 744.995   1
  -4   3   6 16715.8 1232.40   5
  -4  -3   6 16441.9 1203.89   5
   4  -3  -6 16813.4 722.565   1
   4   3  -6 17466.6 1315.48   4
   4  -3  -6 16760.5 1409.61   4
   4   3  -6 18694.1 1339.44   7
   4   3  -5-126.035 131.814   4
  -4   3   5 94.0745 158.409   5
  -4  -3   5 371.647 304.426   5
   4  -3  -5 281.666 116.296   1
   4  -3  -5-23.7457 97.0499   1
   4  -3  -5-148.337 316.371   4
  -4  -3   5 438.307 231.733   6
   4   3  -5 237.236 269.222   7
   4  -3  -4 2341.99 592.549   4
   4   3  -4 1414.55 403.489   7
  -4   3   4 2048.86 404.272   5
   4  -3  -4 1414.88 240.672   1
  -4  -3   4 1350.31 387.154   5
  -4  -3   4 1127.84 276.793   8
   4  -3  -4 1241.65 294.642   8
   4   3  -4 1694.76 462.353   4
  -4  -3   4 1344.38 309.036   6
  -4  -3   3 1459.65 343.198   6
   4  -3  -3 1442.56 451.574   4
   4  -3  -3 1241.24 302.380   8
  -4  -3   3 1792.45 335.621   8
   4  -3  -3 1765.56 289.496   1
  -4   3   3 1903.60 419.072   2
  -4   3   3 1043.98 290.683   5
   4   3  -3 1773.88 252.982   2
  -4  -3   3 1765.93 180.507   3
   4   3  -3 1863.83 433.465   7
   4   3  -3 1457.04 375.732   4
  -4  -3   2 6950.07 603.570   8
   4   3  -2 6997.33 708.240   4
  -4   3   2 6455.68 861.977   3
  -4   3   2 7088.03 598.599   5
   4   3  -2 7019.64 305.913   2
  -4   3   2 7059.08 808.675   2
   4   3  -2 6978.32 315.757   2
   4  -3  -2 6623.09 559.205   1
   4  -3  -2 6283.71 710.879   8
   4  -3  -2 7589.35 914.330   4
   4   3  -2 6567.14 776.705   7
  -4  -3   2 8144.24 760.276   6
  -4   3   1 23711.4 1515.78   3
  -4   3   1 24127.6 973.327   5
   4  -3  -1 23437.4 919.225   5
  -4   3   1 24233.4 1417.04   2
   4  -3  -1 25100.5 1130.62   1
   4   3  -1 24910.8 1237.38   4
  -4  -3   1 24994.1 1328.37   6
  -4  -3   0 1690.50 410.723   6
   4   3   0 1451.60 352.247   4
  -4   3   0 1802.31 506.278   3
  -4   3   0 1974.29 266.961   5
   4  -3   0 2107.54 262.769   5
  -4   3   0 1916.96 476.131   2
   4   3   0 2601.02 537.109   1
   4  -3   0 2312.24 398.502   1
   4   3   1 8240.92 881.992   1
  -4   3  -1 9243.31 983.417   3
  -4   3  -1 8870.21 401.910   5
  -4   3  -1 9378.39 912.186   2
   4  -3   1 10033.5 773.696   1
   4   3   1 9068.65 782.732   4
  -4  -3  -1 8551.91 851.721   6
  -4  -3  -2 1288.23 449.736   6
   4  -3   2 1217.25 327.797   1
  -4   3  -2 1618.64 403.504   2
   4   3   2 1373.58 451.839   1
   4  -3   3 4614.71 587.601   1
  -4   3  -3 4700.35 663.933   2
  -4  -3  -3 5767.52 721.919   6
   4   3   3 5138.50 765.187   1
  -4  -3  -4 914.010 150.620   2
  -4  -3  -4 1197.22 448.333   6
   4  -3   4 698.228 340.572   1
  -4   3  -4 1300.09 495.413   2
   4   3   4 1235.31 416.671   1
   4   3   5 32604.4 1908.89   1
  -4   3  -5 33068.5 1864.56   2
   4  -3   5 36617.4 1687.22   1
  -4  -3  -5 31896.9 1047.93   2
  -4  -3  -5 31772.7 1879.73   6
   4   3   6 26959.5 1773.92   1
  -4   3  -6 27295.8 1757.08   2
   4  -3   6 28622.4 1547.64   1
  -4  -3  -6 26357.4 1096.65   2
  -4  -3  -6 25877.7 1733.88   6
   4   3   7 6482.61 950.733   1
  -4   3  -7 9025.35 1085.20   2
   4  -3   7 7787.75 876.157   1
  -4  -3  -7 6945.00 643.743   2
  -4  -3  -7 7431.97 1008.42   6
  -4  -3  -8 2367.95 458.347   2
   4   3   8 3683.79 714.128   1
   4  -3   8 3621.59 581.859   1
   4   3   8 2583.07 702.616   5
  -4  -3  -8 2500.28 625.525   6
  -4   3  -8 2942.86 654.859   2
   4   3   9 1086.73 520.065   1
  -4  -3  -9 1808.03 539.992   6
   4  -3   9 1207.00 440.158   1
   4   3   9 1394.91 567.630   5
  -4   3  -9 1195.37 533.394   2
   4   3  10-412.043 378.340   1
   4  -3  10-172.392 358.088   1
  -4  -3 -10 318.351 356.019   6
   4   3  10 101.578 227.084   5
  -4   3 -10 262.747 329.608   2
   4  -3  11 885.150 432.641   1
   4   3  11 212.978 376.737   1
  -4  -3 -11 874.107 544.008   6
   4   3  11-376.380 466.572   5
  -4   3 -11 566.606 546.981   2
   4   3  12 1264.19 449.769   1
  -4  -3 -12 1069.05 418.593   6
   4   3  12 485.174 397.175   5
  -4   3 -12 880.110 536.452   2
   4  -3  12 1059.13 410.046   1
  -4  -3 -13 534.953 371.061   6
   4   3  13-188.896 408.396   5
   4  -3  13 669.526 525.796   1
  -4  -3 -14 483.582 540.285   6
   4   4 -15 2017.68 671.606   2
   4   4 -15 1577.06 987.546   4
   4  -4 -15-549.672 716.194   4
   4   4 -14 414.866 531.217   2
   4  -4 -14 553.189 505.822   4
   4  -4 -14-327.265 756.739   6
  -4   4  14 424.951 288.765   5
  -4  -4  14 624.163 570.786   5
   4   4 -14-420.744 309.265   4
   4  -4 -13 4780.77 1128.43   4
   4   4 -13 3923.49 902.190   2
   4  -4 -13 4594.96 1106.79   6
  -4   4  13 4882.84 994.128   5
  -4  -4  13 4248.61 838.803   5
   4   4 -13 3542.99 864.801   4
   4  -4 -12-8.40567 407.226   6
   4   4 -12 211.964 290.636   2
  -4  -4  12 279.677 326.167   1
  -4   4  12 272.903 366.997   5
   4  -4 -12 3.50216 437.956   4
  -4  -4  12-321.187 486.945   5
   4   4 -12 703.204 381.221   4
   4   4 -11-83.1576 170.907   2
   4  -4 -11 684.414 582.973   6
   4  -4 -11 418.533 416.621   4
  -4   4  11 435.048 340.029   5
  -4  -4  11 426.015 483.708   5
  -4  -4  11 341.173 258.510   1
   4   4 -11 490.159 270.891   7
   4   4 -11 219.345 227.054   4
   4   4 -10 375.659 334.976   2
   4  -4 -10 174.342 374.616   6
  -4   4  10 666.180 372.102   5
  -4  -4  10 285.055 370.825   1
  -4  -4  10 960.710 351.898   5
   4   4 -10 480.955 447.551   7
   4   4 -10 292.098 378.995   4
   4  -4 -10 186.858 441.571   4
   4   4  -9-142.952 141.682   2
   4  -4  -9-10.0747 484.756   6
  -4   4   9 333.522 258.722   5
  -4  -4   9-133.982 309.548   5
   4   4  -9 33.7196 235.702   7
   4   4  -9-482.521 306.365   4
  -4  -4   9-204.052 260.362   1
   4  -4  -9 11.2541 313.645   4
   4  -4  -8 8250.98 1091.06   4
  -4   4   8 5984.22 886.348   5
   4   4  -8 7066.85 826.787   2
  -4  -4   8 6675.29 900.244   5
   4   4  -8 7740.60 982.947   4
   4   4  -8 7681.46 992.875   7
  -4   4   7 13447.7 1227.95   5
  -4  -4   7 13333.8 1178.17   5
   4   4  -7 14326.6 1043.17   2
   4   4  -7 14112.7 1216.23   4
   4  -4  -7 12674.1 1287.74   4
   4   4  -7 11818.6 1221.67   7
  -4   4   6 16564.9 1291.20   5
  -4  -4   6 16752.6 1300.43   5
   4   4  -6 15747.1 1007.24   2
   4  -4  -6 15690.8 952.126   1
   4   4  -6 17291.0 1278.55   4
   4  -4  -6 17658.2 1477.70   4
   4   4  -6 17401.0 1469.19   7
  -4  -4   5 14084.5 1082.53   8
   4  -4  -5 14331.2 1208.34   8
  -4   4   5 16233.6 1194.74   5
  -4  -4   5 15573.7 1223.22   5
   4   4  -5 15139.9 880.448   2
   4  -4  -5 14272.0 935.092   1
   4   4  -5 14213.5 1094.01   4
   4  -4  -5 14773.0 1362.67   4
  -4  -4   5 14729.3 1009.72   6
   4   4  -5 15022.7 1361.81   7
  -4   4   4 32115.8 1572.44   5
   4   4  -4 32117.9 1109.71   2
   4  -4  -4 32306.2 1901.46   4
  -4  -4   4 27000.7 1481.96   8
   4  -4  -4 29551.9 1354.25   1
   4   4  -4 34019.7 1562.64   4
   4  -4  -4 33644.6 1815.00   8
   4   4  -4 33361.9 1964.70   7
  -4  -4   4 30065.4 1441.66   6
   4  -4  -3 7424.81 904.143   8
   4  -4  -3 8163.61 1043.55   4
  -4   4   3 8149.09 1028.84   3
  -4   4   3 7958.11 747.470   5
  -4   4   3 6472.55 844.039   2
   4   4  -3 7402.36 433.758   2
   4  -4  -3 7289.61 723.472   1
   4   4  -3 7879.52 731.505   4
  -4  -4   3 6680.99 746.036   8
   4   4  -3 8168.36 990.832   7
  -4  -4   3 6682.40 739.448   6
  -4   4   2 22731.8 1657.54   3
  -4   4   2 25561.5 1207.81   5
  -4   4   2 24061.0 1537.16   2
   4  -4  -2 24092.4 1275.15   1
  -4  -4   2 23949.2 1374.46   6
   4   4  -2 23622.4 1125.39   4
   4  -4  -2 25111.1 1589.58   8
  -4  -4   2 23768.4 1335.81   8
   4  -4  -2 24901.9 1669.57   4
   4   4  -2 23311.0 1616.61   7
  -4  -4   1 271.312 206.044   6
   4  -4  -1-358.116 279.580   4
  -4   4   1-479.023 380.550   3
  -4   4   1 185.485 159.982   5
   4  -4  -1 208.716 253.742   1
  -4   4   1-263.697 362.988   2
   4   4  -1 2.13956 230.067   7
   4   4  -1 196.223 199.022   4
   4   4   0 764.468 252.213   4
  -4  -4   0 1524.39 439.365   6
  -4   4   0 941.153 402.276   3
   4  -4   0 1407.02 353.516   1
  -4   4   0 936.993 219.447   5
  -4   4   0 1336.89 427.652   2
   4   4   0 1144.68 442.563   7
   4   4   1 5584.87 513.343   4
  -4   4  -1 5753.74 323.671   5
  -4   4  -1 6131.78 882.872   3
   4  -4   1 6160.83 725.999   1
  -4   4  -1 5892.25 808.885   2
   4   4   1 7187.62 950.964   7
  -4  -4  -1 6116.06 795.205   6
   4  -4   2 4959.20 659.779   1
  -4  -4  -2 4498.63 701.188   6
   4   4   2 5621.92 853.416   1
  -4   4  -2 3434.50 671.105   2
   4   4   2 4890.55 530.401   4
   4   4   2 6034.04 897.035   7
   4   4   3 9589.95 1093.57   1
  -4   4  -3 8097.18 964.858   2
   4  -4   3 9693.21 954.732   1
   4   4   3 8326.53 986.923   7
  -4  -4  -3 8334.75 972.060   6
  -4  -4  -4 4832.62 825.268   6
   4  -4   4 4083.18 641.692   1
  -4   4  -4 4420.24 765.025   2
   4   4   4 5365.73 865.452   1
   4   4   4 4700.95 766.109   7
   4   4   5 11408.8 1257.37   1
  -4   4  -5 11442.2 1207.86   2
   4  -4   5 15213.0 1210.94   1
   4   4   5 12473.6 1244.64   7
  -4  -4  -5 10923.5 1192.17   6
  -4  -4  -6 7311.67 1042.53   6
   4   4   6 8729.67 1115.57   1
  -4   4  -6 7846.63 1018.20   2
   4  -4   6 9864.09 1038.38   1
   4   4   6 10804.4 1108.62   7
  -4  -4  -7 1356.69 580.833   6
   4  -4   7 918.556 393.206   1
  -4   4  -7 1615.04 482.054   2
   4   4   7 1146.00 518.614   1
   4   4   7 1133.80 418.498   7
  -4  -4  -8-90.6090 442.092   6
   4  -4   8 273.887 341.916   1
   4   4   8-400.195 288.651   7
  -4   4  -8-471.657 491.739   2
   4   4   8 89.6211 242.680   1
  -4  -4  -9-263.450 384.659   6
   4  -4   9 429.058 368.117   1
   4   4   9 315.373 527.660   1
  -4   4  -9-179.116 183.690   2
   4   4   9-299.990 283.038   7
  -4  -4 -10 13.6479 322.939   6
   4   4  10 680.130 481.905   5
   4  -4  10 477.651 248.696   1
  -4   4 -10 601.437 418.584   2
   4   4  10 833.251 505.093   1
  -4  -4 -11 871.818 482.104   6
   4  -4  11 1365.15 419.406   1
   4   4  11 482.724 677.239   5
   4   4  11 483.480 308.781   1
  -4   4 -11 918.803 589.170   2
  -4  -4 -12 915.182 745.652   6
   4   4  12 412.221 580.959   5
   4   4  12 1522.20 622.766   1
   4  -5 -12 1256.74 643.042   6
  -4   5  12 55.0131 339.541   5
  -4  -5  12 946.258 514.193   1
  -4  -5  11 386.998 275.304   1
   4  -5 -11-295.755 366.483   6
  -4   5  11 128.592 400.016   5
  -4  -5  11 142.396 424.696   5
   4   5 -11-284.260 244.739   7
   4  -5 -10 707.072 578.880   6
  -4   5  10 1208.69 550.816   5
  -4  -5  10 863.472 408.042   5
  -4  -5  10 739.667 433.783   1
   4   5 -10 1770.46 772.476   7
   4  -5  -9 2571.18 758.670   6
  -4  -5   9 842.547 423.913   1
  -4   5   9 1695.90 498.885   5
  -4  -5   9 2559.98 616.409   5
   4   5  -9 2606.64 678.397   7
   4  -5  -8 1721.35 730.429   6
  -4   5   8 1949.30 583.191   5
  -4  -5   8 1251.63 374.960   5
   4  -5  -8 1620.46 511.926   4
   4   5  -8 1944.12 606.726   7
   4  -5  -7 1300.82 699.294   6
  -4   5   7 965.253 495.900   5
  -4  -5   7 1252.69 513.290   5
   4   5  -7 1325.88 600.160   7
   4  -5  -7 1486.03 468.868   4
  -4  -5   6 2844.26 459.734   6
   4  -5  -6 3134.02 731.355   6
  -4   5   6 2573.99 560.082   5
   4   5  -6 2507.32 761.089   7
  -4  -5   6 2772.13 608.078   5
  -4  -5   6 2265.91 517.115   8
   4  -5  -6 3235.31 660.807   4
   4  -5  -5 8058.92 1042.28   4
   4  -5  -5 6703.58 1091.41   6
  -4   5   5 7933.94 931.988   5
  -4  -5   5 8971.87 1039.33   5
  -4   5   5 8734.67 1157.22   3
   4  -5  -5 6474.19 770.925   1
  -4  -5   5 7949.47 958.303   8
   4  -5  -5 7966.21 1007.17   8
   4   5  -5 9764.93 1254.89   7
  -4  -5   5 8102.88 794.343   6
   4  -5  -4 8226.71 1053.03   6
   4  -5  -4 7585.08 1000.51   4
  -4   5   4 7210.76 820.630   5
  -4   5   4 9332.34 1257.45   3
   4  -5  -4 9270.70 907.869   1
  -4  -5   4 8869.66 1005.07   8
   4  -5  -4 10541.9 1142.68   8
   4   5  -4 8473.64 1111.15   7
  -4  -5   4 9729.71 909.543   6
  -4  -5   3 5588.18 741.088   6
   4  -5  -3 6579.58 886.503   6
  -4   5   3 7338.56 789.336   5
  -4   5   3 5463.71 926.954   3
   4  -5  -3 4588.90 666.148   1
   4  -5  -3 6040.32 942.198   4
  -4  -5   3 7363.40 909.398   8
   4  -5  -3 6717.92 920.344   8
   4   5  -3 5879.17 1034.68   7
  -4  -5   2 4754.41 723.923   6
   4  -5  -2 5030.89 859.982   4
   4  -5  -2 3949.30 703.062   6
  -4   5   2 4604.82 885.273   3
  -4   5   2 4098.31 568.851   5
  -4   5   2 4425.78 719.437   2
   4  -5  -2 4817.51 827.745   8
  -4  -5   2 4314.89 740.495   8
   4   5  -2 4758.76 833.657   7
   4  -5  -2 5092.31 715.133   1
   4  -5  -1 768.644 418.326   8
   4  -5  -1 839.019 350.511   4
   4  -5  -1 1175.51 491.056   6
  -4   5   1 214.271 426.128   3
  -4   5   1 939.006 426.714   2
   4  -5  -1 1733.38 478.686   1
   4   5  -1 1439.77 568.096   7
  -4  -5   1 1677.72 460.318   6
   4  -5   0 11244.6 1011.74   6
  -4  -5   0 9440.80 992.209   6
  -4   5   0 9252.21 1152.00   3
  -4   5   0 10550.3 1135.93   2
   4  -5   0 10803.7 1053.46   1
   4  -5   0 10651.1 1170.27   4
   4   5   0 11945.4 1351.97   7
  -4  -5  -1 5622.86 843.869   6
   4  -5   1 5315.25 685.837   6
  -4   5  -1 7191.28 1001.85   3
   4   5   1 6159.00 916.608   7
   4  -5   1 8425.89 935.468   1
  -4   5  -1 7063.78 939.053   2
  -4  -5  -2 2959.76 630.805   6
   4  -5   2 2471.02 565.543   1
   4   5   2 2584.38 714.240   7
  -4   5  -2 1867.86 539.106   2
   4  -5   3 4127.73 701.698   1
  -4  -5  -3 5325.47 944.120   6
   4   5   3 5982.41 1008.28   7
  -4   5  -3 3680.45 750.384   2
  -4  -5  -4 4356.47 892.642   6
   4   5   4 3010.00 744.983   1
  -4   5  -4 4318.45 789.493   2
   4  -5   4 6028.19 884.968   1
   4   5   4 3790.51 805.917   7
  -4  -5  -5-457.680 448.566   6
   4   5   5 723.121 563.028   1
  -4   5  -5 70.3419 189.170   2
   4  -5   5 96.5243 277.870   1
   4   5   5 354.732 263.212   7
  -4  -5  -6 21.1571 383.376   6
   4  -5   6-29.6904 291.132   1
   4   5   6 173.870 173.112   1
  -4   5  -6 267.117 339.269   2
   4   5   6 14.1745 183.654   7
  -4  -5  -7 906.946 440.540   6
  -4   5  -7 1972.98 662.267   2
   4  -5   7 1198.39 506.674   1
   4   5   7 1677.27 658.699   1
   4   5   7 1863.71 667.903   7
  -4  -5  -8 144.364 399.501   6
   4  -5   8 732.550 371.335   1
   4   5   8 419.745 383.957   7
   4   5   8 383.425 395.122   1
  -4   5  -8 303.497 282.764   2
  -4  -5  -9 1904.50 599.365   6
   4  -5   9 2246.00 591.059   1
  -4   5  -9 2011.95 740.164   2
   4   5   9 2062.63 664.146   1
   4   5   9 1327.09 440.269   7
  -4  -5 -10 418.971 595.613   6
   4  -5  10-486.337 404.368   1
  -4   5 -10 287.305 585.482   2
   4   5  10 362.683 541.028   1
   4   5  11 1278.52 732.404   1
  -4  -6  12 168.657 448.182   1
  -4  -6  11 1481.27 700.749   1
  -4   6  11 2158.10 685.052   5
   4   6 -11 2321.43 684.543   7
   4  -6 -10 741.183 485.922   6
  -4   6  10 912.270 558.987   5
   4   6 -10 311.809 369.355   7
  -4  -6  10 436.520 532.065   1
   4  -6  -9 938.742 602.469   6
  -4   6   9 777.095 403.272   5
   4   6  -9 1190.10 510.958   7
  -4  -6   9 149.595 456.016   1
   4  -6  -8 836.389 719.412   6
  -4   6   8 1021.99 489.002   5
  -4  -6   8 887.271 428.656   5
   4   6  -8 1195.95 744.443   7
   4  -6  -7 2442.02 755.433   6
  -4   6   7 3875.78 825.209   5
  -4  -6   7 3471.96 743.743   5
  -4  -6   7 2894.34 781.161   8
   4   6  -7 4163.38 904.445   7
   4  -6  -6 582.789 458.033   6
  -4   6   6 973.527 525.234   3
  -4   6   6 1355.08 444.315   5
  -4  -6   6 725.308 414.074   5
  -4  -6   6 875.935 417.519   8
   4   6  -6 430.780 616.899   7
   4  -6  -5-50.4919 171.419   8
   4  -6  -5 266.253 234.670   6
  -4   6   5 490.415 377.001   3
  -4   6   5-447.730 339.743   5
  -4  -6   5 202.983 243.089   5
  -4  -6   5 440.572 498.435   8
   4   6  -5 380.797 346.576   7
  -4  -6   4-90.4857 300.673   6
   4  -6  -4 477.166 466.866   6
  -4   6   4 170.201 301.243   3
   4  -6  -4 2.16443 193.058   1
  -4  -6   4 369.955 241.807   8
   4  -6  -4 362.102 245.741   8
   4   6  -4-430.040 295.627   7
   4   6  -3 2740.48 798.474   7
  -4  -6   3 2479.16 537.140   6
   4  -6  -3 2655.67 691.519   6
  -4   6   3 1563.56 686.548   3
  -4  -6   3 2247.74 612.194   8
   4  -6  -3 1667.38 576.020   1
   4  -6  -3 2672.23 667.356   8
   4  -6  -2 3259.08 747.412   8
  -4  -6   2 4956.11 804.223   6
   4  -6  -2 3847.64 698.275   1
   4  -6  -2 4052.79 808.744   6
  -4   6   2 4771.43 1006.56   3
  -4   6   2 3833.56 831.355   2
  -4  -6   2 5467.40 828.451   8
   4   6  -2 3572.96 849.711   7
   4  -6  -1 2615.11 617.165   1
  -4  -6   1 2824.44 569.925   6
   4  -6  -1 3195.18 650.277   6
  -4   6   1 1945.71 670.966   3
   4  -6  -1 2462.45 616.928   8
  -4   6   1 3836.75 750.793   2
   4   6  -1 2603.35 763.484   7
  -4  -6   0 5562.44 832.579   6
  -4   6   0 4181.56 965.629   3
  -4   6   0 3321.14 735.417   2
   4  -6   0 4169.33 735.769   1
   4  -6   0 5524.99 1012.52   8
   4   6   0 3637.91 772.370   7
  -4  -6  -1 1845.95 586.464   6
  -4   6  -1 416.662 368.167   3
   4  -6   1 1812.40 601.106   1
  -4   6  -1 1241.19 564.861   2
   4   6   1 639.366 343.886   7
  -4  -6  -2 748.800 478.799   6
   4  -6   2-36.6960 364.596   1
   4   6   2 418.114 444.274   7
  -4   6  -2 541.846 468.934   2
  -4  -6  -3-265.218 297.056   6
   4  -6   3 193.055 391.403   1
   4   6   3-443.209 371.092   7
  -4   6  -3 346.200 307.224   2
   4  -6   4 656.733 391.264   1
  -4  -6  -4 823.862 411.051   6
   4   6   4-360.134 462.044   7
  -4   6  -4 1018.61 576.745   2
  -4  -6  -5 501.391 323.133   6
  -4   6  -5 49.4420 331.653   2
   4  -6   5 793.799 441.346   1
   4   6   5 809.353 658.888   7
  -4  -6  -6 1150.52 521.829   6
   4   6   6 1239.88 508.967   7
  -4   6  -6 286.627 584.053   2
   4  -6   6 1169.71 505.638   1
  -4  -6  -7 253.174 365.930   6
   4  -6   7 633.325 451.020   1
  -4   6  -7 399.120 536.980   2
   4   6   7-114.348 603.511   7
  -4   6  -8 152.713 508.668   2
   4   6   8 59.3235 441.165   7
   4  -7  -8 207.740 343.804   6
   4  -7  -7-409.589 624.149   6
  -4   7   7 174.948 375.094   3
   4   7  -7 133.147 546.316   7
   4  -7  -6 492.514 518.612   6
  -4   7   6 1005.72 572.864   3
  -4  -7   6-291.202 594.798   8
   4   7  -6 1000.15 651.294   7
  -4  -7   5 1354.81 521.410   8
   4  -7  -5 1996.96 578.701   6
  -4   7   5 350.520 408.952   3
  -4  -7   5 503.234 341.072   5
   4   7  -5 1516.11 854.461   7
  -4  -7   4 1423.72 545.646   8
   4  -7  -4 373.628 290.928   6
  -4   7   4 700.344 398.081   3
   4  -7  -4 1118.34 462.321   8
   4   7  -4 1676.61 750.144   7
  -4   7   3-320.128 632.302   3
   4  -7  -3 703.400 320.315   1
   4  -7  -3-169.577 351.091   8
  -4  -7   3-24.7726 424.282   8
   4   7  -3-190.528 591.883   7
  -4   7   2 4119.93 1000.03   3
   4  -7  -2 2896.73 739.318   1
   4  -7  -2 3911.30 842.406   8
  -4  -7   2 3418.52 831.094   8
   4   7  -2 2698.18 835.008   7
  -4  -7   1 3351.82 755.491   6
  -4   7   1 2105.89 737.695   3
  -4   7   1 3124.13 772.594   2
   4  -7  -1 3500.00 810.237   8
   4  -7  -1 2976.76 673.459   1
   4   7  -1 2054.52 647.233   7
  -4  -7   0 689.688 333.051   6
  -4   7   0 869.472 423.233   3
  -4   7   0 869.088 509.598   2
   4  -7   0 1749.91 626.785   1
   4  -7   0 336.717 389.329   8
   4   7   0 1693.93 749.706   7
  -4  -7  -1 1629.00 591.042   6
   4  -7   1 1778.67 569.423   1
  -4   7  -1 1109.06 418.083   2
   4  -7   1 342.153 407.736   8
   4   7   1 1390.33 582.340   7
  -4  -7  -2 216.435 428.355   6
   4   7   2 843.546 606.783   7
   4  -7   2 704.182 547.901   1
  -4   7  -2 400.744 357.558   2
  -4  -7  -3-6.46892 465.605   6
   4  -7   3 901.670 365.930   1
  -4   7  -3 629.054 602.655   2
   4   7   3 685.225 406.479   7
  -4  -7  -4 1659.69 593.140   6
   4  -7   4 1641.03 636.816   1
  -4   7  -4 823.432 516.979   2
   4   7   4 404.969 458.646   7
  -4  -7  -5 824.495 415.504   6
  -4   7  -5 623.492 589.957   2
   4   7   5-68.5853 378.467   7
   4   7   6 186.547 329.131   7
  -4   8   0 253.698 429.003   2
  -5   0  16 479.189 398.064   5
   5   0 -15 8467.16 1410.39   4
  -5   0  15 9648.05 1379.24   5
  -5   0  14 3408.89 809.475   5
   5   0 -14 3626.65 977.675   4
  -5   0  13 5052.19 947.109   5
   5   0 -13 4519.86 1079.47   4
  -5   0  12 1999.16 558.759   5
   5   0 -12 1428.05 657.022   4
  -5   0  11 2397.02 681.392   5
   5   0 -11 2015.50 660.167   4
  -5   0  10 11447.7 1186.11   5
   5   0 -10 10519.8 1326.49   4
  -5   0   9 92.6845 285.623   5
   5   0  -9 146.567 103.858   7
   5   0  -9 145.350 250.750   4
   5   0  -8 8449.57 1106.93   4
  -5   0   8 8113.29 891.914   5
  -5   0   7 2393.82 517.789   5
  -5   0   7 1754.56 232.389   8
   5   0  -7 1862.23 592.202   4
   5   0  -6 4906.34 771.770   4
  -5   0   6 5006.11 244.640   1
  -5   0   6 4715.38 648.274   5
  -5   0   5 33947.9 1589.36   5
  -5   0   5 34300.8 762.796   1
   5   0  -5 34539.4 2021.56   4
   5   0  -4 9465.48 544.378   1
  -5   0   4 9453.18 813.602   5
  -5   0   4 9418.40 465.902   1
   5   0  -4 9848.53 1090.51   4
   5   0  -3 269.821 118.692   1
  -5   0   3 8.71692 176.006   5
  -5   0   3 72.2503 93.2829   1
  -5   0   2 65613.0 1871.21   3
   5   0  -2 63406.7 1612.56   1
  -5   0   2 66329.9 1990.02   5
   5   0  -2 63727.2 2574.48   4
   5   0  -1 4013.40 724.245   4
  -5   0   1 4047.72 468.017   3
   5   0  -1 3698.74 439.639   1
  -5   0   1 4990.63 562.699   5
  -5   0   1 4539.21 494.281   2
  -5   0   0 3366.15 436.117   3
   5   0   0 3119.16 417.166   1
  -5   0   0 3508.75 495.117   6
  -5   0   0 3265.80 438.027   2
   5   0   1 71703.9 2025.82   1
  -5   0  -1 70397.8 1938.62   2
  -5   0  -1 71177.4 2057.41   6
  -5   0  -2 285.819 284.011   6
   5   0   2 363.018 233.588   1
  -5   0  -2 252.966 193.569   2
  -5   0  -3 14.8062 224.822   6
   5   0   3-199.373 261.240   1
  -5   0  -3 114.345 152.036   2
   5   0   4 8414.55 829.919   1
  -5   0  -4 6998.60 702.215   2
  -5   0  -4 8848.54 779.720   6
  -5   0  -5 825.392 315.656   6
   5   0   5 871.941 333.393   1
  -5   0  -5 497.283 226.852   2
  -5   0  -6 828.008 287.338   6
   5   0   6 698.191 324.167   1
  -5   0  -6 1277.96 334.261   2
  -5   0  -7 71.9111 233.581   6
  -5   0  -7-67.7830 221.189   2
   5   0   7 191.608 279.567   1
  -5   0  -8 5054.97 697.772   6
  -5   0  -8 5324.01 754.732   2
   5   0   8 5453.88 847.173   1
  -5   0  -9 1055.90 330.880   6
   5   0   9 452.470 440.238   1
  -5   0  -9 592.554 322.991   2
  -5   0 -10 872.500 283.964   6
   5   0  10 867.497 451.586   1
  -5   0 -10 637.490 295.849   2
   5   0  11 2423.11 678.854   1
  -5   0 -11 2466.57 498.962   6
  -5   0 -11 2430.62 566.240   2
   5   0  12 2849.51 741.941   1
  -5   0 -12 4496.22 897.221   2
   5   0  13 268.210 213.928   1
  -5   0 -13-523.267 538.927   2
  -5   0 -14-397.768 552.794   2
   5  -1 -17 1295.08 684.237   6
   5  -1 -16 1370.80 610.886   6
  -5  -1  16 1365.77 505.791   5
   5  -1 -15 1862.94 793.835   4
  -5   1  15 1261.21 624.011   5
  -5  -1  15 2413.38 683.860   5
   5   1 -15 2653.94 790.026   4
  -5   1  14 5496.75 962.411   5
  -5  -1  14 4464.33 899.943   5
   5   1 -14 4516.23 1157.88   4
   5  -1 -14 3588.86 1030.25   4
   5  -1 -13 2847.85 842.198   4
  -5   1  13 2844.80 775.759   5
  -5  -1  13 2686.47 651.504   5
   5   1 -13 1310.62 804.942   4
   5  -1 -12 582.248 444.288   4
  -5   1  12-290.923 412.314   5
  -5  -1  12 440.243 535.452   5
   5   1 -12 14.5427 452.373   4
  -5   1  11 12145.4 1285.64   5
  -5  -1  11 11679.9 1235.87   5
   5   1 -11 9165.65 1282.06   4
   5  -1 -11 9967.79 1375.23   4
  -5   1  10 577.742 281.553   5
  -5  -1  10-497.564 361.456   5
   5   1 -10-19.3131 69.3499   7
   5   1 -10-226.937 342.208   4
   5  -1 -10 203.447 442.641   4
  -5   1   9 4776.56 742.178   5
  -5  -1   9 4654.78 755.138   5
  -5  -1   9 5172.47 432.885   1
   5   1  -9 4720.02 533.747   7
   5   1  -9 5100.34 885.834   4
   5  -1  -9 4950.20 942.687   4
  -5   1   8 999.831 381.208   5
  -5  -1   8 892.849 383.177   5
  -5  -1   8 916.457 201.687   1
   5   1  -8 879.786 235.552   7
   5   1  -8 938.574 401.121   4
   5  -1  -8 1062.83 626.751   4
   5  -1  -7 5235.59 862.314   4
  -5  -1   7 6373.66 482.886   1
  -5   1   7 6552.37 761.135   5
  -5  -1   7 6833.99 808.200   5
  -5   1   7 7154.20 584.104   8
   5   1  -7 6207.37 913.986   4
  -5  -1   6 13850.3 719.096   1
  -5   1   6 13922.8 1067.81   5
  -5  -1   6 13470.0 1063.96   5
   5   1  -6 13791.7 1276.64   4
   5  -1  -6 14284.6 1385.78   4
   5   1  -5 1175.26 458.551   4
   5  -1  -5 1241.98 496.687   4
   5  -1  -5 860.020 103.093   1
  -5  -1   5 830.550 210.889   1
  -5   1   5 289.398 224.572   5
  -5  -1   5 1059.49 354.130   5
   5  -1  -4 8487.79 431.122   1
  -5   1   4 7845.36 720.500   5
  -5  -1   4 7854.45 779.994   5
  -5   1   4 8357.53 422.611   1
   5   1  -4 7765.98 940.900   4
   5  -1  -4 8713.77 992.167   4
   5   1  -3 5306.97 772.903   4
   5  -1  -3 3886.68 694.228   4
   5   1  -3 3942.30 453.460   1
   5  -1  -3 4037.73 352.545   1
  -5   1   3 3635.07 474.644   5
  -5   1   3 4101.67 347.253   1
  -5  -1   3 3944.74 547.212   5
   5  -1  -3 4254.12 354.635   8
   5   1  -2 4486.43 680.909   4
   5  -1  -2 4419.71 726.717   4
  -5  -1   2 3636.54 354.936   3
  -5   1   2 3765.16 473.724   5
  -5   1   2 3543.57 518.431   3
   5  -1  -2 3688.69 355.611   1
  -5   1   2 3812.52 371.249   1
  -5   1   2 3903.03 553.523   2
  -5  -1   2 3625.59 529.752   5
  -5  -1   2 4368.31 544.787   6
   5   1  -2 3137.80 429.219   1
  -5  -1   1 12710.4 607.338   3
  -5   1   1 12566.2 934.469   3
   5   1  -1 12652.3 873.424   1
  -5   1   1 12984.9 801.534   5
   5  -1  -1 13692.5 731.434   1
  -5   1   1 13333.3 951.782   2
   5   1  -1 14668.5 768.941   2
   5   1  -1 13599.4 544.370   8
   5   1  -1 10895.1 1045.10   4
  -5  -1   1 12860.2 903.090   6
  -5   1   0 8248.91 779.057   3
   5   1   0 9672.01 803.630   1
  -5   1   0 8826.39 639.291   5
   5  -1   0 8610.16 621.079   1
  -5  -1   0 8711.22 577.337   2
  -5   1   0 8658.30 772.731   2
   5   1   0 8084.87 559.209   2
  -5  -1   0 9238.90 797.982   6
   5   1   1 7794.67 747.248   1
  -5   1  -1 7094.62 585.327   5
   5  -1   1 7753.48 634.549   1
  -5  -1  -1 7013.96 528.390   2
  -5   1  -1 8194.57 769.538   2
   5   1   1 7363.30 544.667   2
  -5  -1  -1 7059.51 713.443   6
   5   1   2 8541.28 610.178   3
   5   1   2 11264.4 925.330   1
   5  -1   2 9765.69 757.199   1
  -5  -1  -2 8876.23 626.919   2
  -5   1  -2 9159.41 819.674   2
  -5  -1  -2 9219.52 824.281   6
   5   1   3 36686.8 1725.30   1
   5  -1   3 34601.6 1444.90   1
  -5  -1  -3 35139.8 1297.57   2
  -5   1  -3 34421.2 1613.50   2
  -5   1  -3 33926.6 1369.23   6
  -5  -1  -3 35738.6 1632.94   6
  -5   1  -4 895.877 261.232   6
  -5  -1  -4 899.577 313.327   6
   5   1   4 1383.22 369.267   1
   5  -1   4 249.090 258.337   1
  -5   1  -4 490.165 226.056   2
  -5  -1  -4 618.278 204.318   2
   5   1   5 5212.84 749.169   1
   5  -1   5 5851.50 685.790   1
  -5  -1  -5 4940.22 563.574   2
  -5   1  -5 4868.76 672.496   2
  -5   1  -5 4626.90 549.149   6
  -5  -1  -5 5627.01 714.653   6
  -5   1  -6 3619.16 482.368   6
  -5  -1  -6 3028.01 591.759   6
   5   1   6 3280.65 630.889   1
  -5  -1  -6 3653.69 502.888   2
   5  -1   6 3289.58 545.186   1
  -5   1  -6 3395.74 615.009   2
   5   1   7 4816.16 798.228   1
   5  -1   7 4704.74 728.321   1
  -5   1  -7 5774.84 809.595   2
  -5   1  -7 4959.81 592.096   6
  -5  -1  -7 4647.46 639.738   2
  -5  -1  -7 5187.10 746.838   6
  -5  -1  -8 1016.26 300.891   2
  -5   1  -8 996.823 322.138   6
  -5  -1  -8 150.002 180.197   6
   5   1   8 762.779 399.170   1
   5  -1   8 1026.94 487.346   1
  -5   1  -8 587.397 350.084   2
  -5   1  -9 1291.86 303.610   6
  -5  -1  -9 1184.71 365.985   6
   5   1   9 1717.70 571.454   1
   5  -1   9 1009.22 449.830   1
  -5   1  -9 779.927 372.058   2
  -5  -1  -9 1808.72 486.469   2
  -5  -1 -10 607.786 342.257   6
  -5   1 -10 772.786 450.965   2
   5   1  10 968.925 459.949   1
   5  -1  10 1239.63 448.136   1
  -5  -1 -10 540.175 312.170   2
  -5  -1 -11 1956.01 543.970   6
   5   1  11 780.564 478.576   1
   5  -1  11 1129.51 478.007   1
  -5   1 -11 1734.80 610.623   2
  -5  -1 -11 1554.43 492.590   2
  -5  -1 -12 1169.20 420.958   2
  -5  -1 -12 1870.80 517.312   6
   5   1  12 1086.94 445.365   1
   5  -1  12 486.173 318.330   1
  -5   1 -12 638.982 541.167   2
  -5   1 -13 531.812 340.084   2
   5   1  13 916.651 573.594   1
   5  -1  13 1317.51 576.152   1
  -5  -1 -13 776.968 427.423   2
   5  -2 -16 2398.51 751.097   6
  -5  -2  16 1567.45 734.047   5
   5  -2 -15-124.537 206.372   6
  -5   2  15 351.426 602.387   5
  -5  -2  15-232.443 688.463   5
   5   2 -15 944.366 500.774   4
   5  -2 -15 1374.70 660.310   4
  -5   2  14-201.448 303.425   5
  -5  -2  14 266.015 394.751   5
   5   2 -14 140.071 334.702   4
  -5   2  13 350.009 371.807   5
  -5  -2  13 374.094 398.387   5
   5   2 -13-433.778 524.094   4
   5  -2 -13 31.8824 343.750   4
   5   2 -12 6548.57 1094.68   4
  -5   2  12 5349.50 918.681   5
  -5  -2  12 6559.34 1020.65   5
   5  -2 -12 6627.31 1141.93   4
   5  -2 -11 1978.48 660.522   4
  -5   2  11 2017.84 637.880   5
  -5  -2  11 2305.58 607.337   5
   5   2 -11 1407.86 637.025   4
  -5   2  10 7447.03 960.276   5
  -5  -2  10 6893.85 931.548   5
  -5  -2  10 6870.81 671.435   1
   5   2 -10 6045.67 709.000   7
   5   2 -10 6026.38 1076.10   4
   5  -2 -10 6621.06 1112.50   4
  -5   2   9 12768.8 1215.38   5
  -5  -2   9 12467.0 1181.34   5
  -5  -2   9 12486.5 918.903   1
   5   2  -9 15034.3 1503.33   4
   5  -2  -9 11903.6 1411.80   4
   5   2  -9 12433.3 1050.37   7
  -5   2   8 11457.7 1104.43   5
  -5  -2   8 12462.8 1123.87   5
   5   2  -8 11732.8 1332.21   4
   5  -2  -8 12146.5 1394.53   4
   5   2  -8 11460.0 996.876   7
   5  -2  -7 2032.65 643.185   4
  -5   2   7 2416.36 505.208   5
  -5  -2   7 3040.75 575.419   5
   5   2  -7 3764.96 550.022   7
   5   2  -7 3001.30 617.391   4
   5   2  -6 11378.1 1170.53   4
  -5   2   6 11115.6 989.103   5
  -5  -2   6 10888.9 1016.04   5
   5  -2  -6 10869.8 1215.78   4
   5   2  -6 12546.8 1011.96   7
   5   2  -5 2403.47 600.771   4
   5  -2  -5 3158.30 739.761   4
   5  -2  -5 2803.38 206.279   1
  -5   2   5 2731.27 491.487   5
  -5  -2   5 3356.92 606.918   5
  -5  -2   5 2764.90 257.570   8
  -5   2   4 18554.9 1115.76   5
   5  -2  -4 18963.4 992.331   8
  -5  -2   4 19244.5 1288.99   5
   5  -2  -4 20142.4 657.756   1
   5   2  -4 18187.7 1361.31   4
   5  -2  -4 21547.7 1659.79   4
  -5   2   3 18756.3 1059.85   5
   5  -2  -3 17618.3 986.352   8
  -5  -2   3 19483.5 1283.97   5
   5   2  -3 17776.6 797.691   2
   5  -2  -3 18837.9 723.782   1
   5   2  -3 20003.2 1384.59   4
   5  -2  -3 17311.7 1474.99   4
  -5  -2   3 18459.1 1136.59   6
   5   2  -2 44283.4 1804.43   1
  -5   2   2 41803.7 1947.60   3
  -5   2   2 42249.2 1474.08   5
  -5   2   2 43959.7 1877.35   2
   5   2  -2 42215.1 1112.84   2
   5  -2  -2 43662.5 1198.52   1
   5   2  -2 42243.0 1967.17   4
   5  -2  -2 40035.4 2202.13   4
  -5  -2   2 42262.2 1719.00   6
   5   2  -1 18168.1 1206.83   1
  -5   2   1 18940.2 1318.18   3
  -5   2   1 19661.6 944.110   5
  -5   2   1 19851.9 1270.90   2
   5  -2  -1 20383.9 884.926   1
   5   2  -1 19018.3 667.565   2
   5   2  -1 19740.3 1371.72   4
  -5  -2   1 20534.2 1231.15   6
   5   2   0 9519.60 892.764   1
  -5   2   0 8476.91 904.736   3
  -5   2   0 9219.47 603.827   5
  -5   2   0 8658.14 856.760   2
   5  -2   0 9517.05 649.882   1
   5   2   0 8892.85 429.902   2
   5   2   0 8979.80 662.258   8
   5   2   0 9500.38 964.915   4
  -5  -2   0 9276.43 862.284   6
  -5   2  -1 14253.5 1144.86   3
   5   2   1 16746.2 1199.21   1
  -5   2  -1 14308.0 696.906   5
  -5   2  -1 15354.5 1152.83   2
   5  -2   1 15297.9 880.436   1
   5   2   1 14025.9 565.582   2
  -5  -2  -1 16446.3 1143.30   6
   5   2   2 9108.29 491.577   3
   5   2   2 8916.70 920.901   1
  -5   2  -2 9751.60 530.009   5
  -5  -2  -2 10443.9 520.479   2
  -5   2  -2 9120.32 901.098   2
   5  -2   2 10033.5 760.703   1
  -5  -2  -2 9486.35 930.700   6
   5  -2   3 1089.32 303.214   1
  -5  -2  -3 1352.49 392.415   6
   5   2   3 898.177 316.021   1
   5   2   3 983.781 212.292   3
  -5   2  -3 976.383 189.196   5
  -5   2  -3 1149.51 175.385   5
  -5  -2  -3 711.598 157.508   2
  -5   2  -3 800.603 306.164   2
   5   2   4 5517.10 731.297   1
  -5   2  -4 4399.70 672.318   2
  -5   2  -4 5016.03 354.298   5
   5  -2   4 4481.57 567.851   1
  -5  -2  -4 4578.59 424.807   2
  -5  -2  -4 6132.31 792.218   6
  -5  -2  -5 1449.59 372.561   6
   5   2   5 772.889 433.112   1
  -5   2  -5 1350.55 214.668   5
  -5   2  -5 1263.12 381.602   2
  -5  -2  -5 1040.79 255.207   2
   5  -2   5 1178.83 322.652   1
  -5  -2  -6 482.890 319.668   6
   5   2   6 1459.87 440.405   1
  -5   2  -6 1586.92 444.363   2
  -5  -2  -6 1142.53 290.981   2
   5  -2   6 946.719 372.826   1
   5  -2   7 716.874 310.989   1
  -5  -2  -7 712.976 403.994   6
   5   2   7 894.251 356.540   1
  -5   2  -7 644.695 302.975   2
  -5  -2  -7 873.336 311.856   2
  -5  -2  -8 611.127 464.350   6
   5   2   8 720.016 516.857   1
  -5   2  -8 1135.03 464.434   2
   5  -2   8 850.135 405.544   1
  -5  -2  -8 742.110 336.420   2
  -5  -2  -9 825.316 420.981   6
   5   2   9 387.743 476.096   1
   5  -2   9 696.683 372.148   1
  -5   2  -9 650.276 431.034   2
  -5  -2  -9 856.604 431.094   2
  -5  -2 -10-21.0625 246.385   6
   5   2  10 411.728 388.591   1
   5  -2  10-34.6464 172.937   1
  -5   2 -10-181.140 351.639   2
  -5  -2 -11 385.591 438.570   6
   5   2  11 397.225 537.145   1
  -5   2 -11-27.5486 185.349   2
   5  -2  11 441.553 360.364   1
  -5  -2 -12 429.317 358.952   6
   5   2  12-885.824 494.327   1
   5  -2  12-440.039 391.806   1
  -5   2 -12 366.813 403.228   2
  -5  -2 -13-328.757 519.335   6
   5   2  13-153.464 290.784   1
  -5   2 -13 124.764 416.162   2
  -5  -3  16 303.516 518.509   5
  -5  -3  15 1092.75 733.075   5
   5   3 -15 639.607 599.533   4
   5  -3 -15-515.476 603.218   4
   5  -3 -14 2116.77 912.708   6
  -5   3  14 3444.74 925.314   5
  -5  -3  14 3269.71 744.708   5
   5   3 -14 2726.20 776.021   4
   5  -3 -14 2898.59 936.851   4
   5  -3 -13-4.26654 175.706   6
  -5   3  13-983.284 485.615   5
  -5  -3  13-164.787 249.274   5
   5   3 -13-752.088 439.163   4
   5  -3 -13 44.4020 683.498   4
  -5   3  12 279.606 240.194   5
  -5  -3  12-26.6252 367.029   5
   5  -3 -12-509.659 532.273   4
  -5   3  11 244.099 350.257   5
  -5  -3  11-84.9856 302.388   5
  -5  -3  11 162.226 254.521   1
   5   3 -11 486.832 483.549   4
   5  -3 -11 49.4280 458.851   4
   5   3 -10 2088.31 735.471   4
  -5   3  10 2117.35 618.436   5
  -5  -3  10 2676.67 626.527   5
  -5  -3  10 2777.72 505.759   1
   5   3 -10 2483.96 573.459   7
   5  -3 -10 2062.14 707.303   4
   5   3  -9 6998.96 904.889   7
  -5   3   9 8013.89 1044.04   5
  -5  -3   9 6271.02 870.611   5
  -5  -3   9 6615.34 834.168   1
   5   3  -9 6947.20 1000.08   4
   5  -3  -9 8119.42 1193.30   4
  -5   3   8 14134.6 1281.54   5
  -5  -3   8 16001.8 1350.29   5
   5   3  -8 15301.7 1473.19   4
   5  -3  -8 15373.9 1578.35   4
   5   3  -8 13691.3 1241.45   7
  -5   3   7 23965.0 1558.88   5
  -5  -3   7 23622.2 1590.84   5
   5   3  -7 25004.0 1733.84   4
   5  -3  -7 25522.9 1952.14   4
   5   3  -7 25742.4 1660.10   7
  -5   3   6 8686.12 909.944   5
  -5  -3   6 9214.01 984.441   5
   5  -3  -6 8768.06 421.264   1
   5  -3  -6 9229.57 1191.73   4
   5   3  -6 9486.46 1051.07   4
  -5  -3   6 9502.33 723.258   8
   5   3  -6 9626.58 1008.32   7
   5  -3  -5 1596.26 546.738   4
  -5   3   5 2163.22 447.882   5
   5  -3  -5 2134.10 263.880   1
  -5  -3   5 2186.37 564.815   5
  -5  -3   5 2019.87 332.676   8
   5  -3  -5 2123.66 415.695   8
   5   3  -5 2832.77 587.057   7
   5   3  -5 1656.27 463.733   4
  -5   3   4 23830.7 1293.48   5
  -5  -3   4 23199.0 1501.31   5
   5  -3  -4 25350.2 919.874   1
   5  -3  -4 26002.6 1861.46   4
   5   3  -4 25604.0 1573.79   4
   5  -3  -4 26198.9 1402.75   8
  -5  -3   4 26724.0 1099.01   8
   5   3  -4 25053.9 1573.74   7
  -5  -3   4 24795.3 1357.58   6
  -5   3   3 26169.0 1727.21   3
  -5   3   3 22091.2 1172.20   5
  -5   3   3 25655.8 1573.58   2
   5   3  -3 23091.3 764.387   2
   5  -3  -3 23164.7 952.025   1
   5  -3  -3 24381.6 1381.86   8
   5   3  -3 24972.8 1489.75   4
   5  -3  -3 23500.9 1775.70   4
  -5  -3   3 25591.4 1394.25   6
   5  -3  -2 6257.37 986.248   4
  -5   3   2 7433.50 652.636   5
  -5   3   2 7120.26 921.314   3
  -5   3   2 7896.38 901.657   2
   5   3  -2 7063.62 276.278   2
   5  -3  -2 7641.04 587.897   1
   5   3  -2 7158.57 289.520   2
   5   3  -2 6520.76 768.690   4
  -5  -3   2 8066.81 823.087   6
  -5  -3   1 2627.77 548.798   6
   5  -3  -1 2378.18 620.939   4
  -5   3   1 2361.59 587.460   3
  -5   3   1 2132.07 335.961   5
   5  -3  -1 2123.39 343.233   1
  -5   3   1 2285.67 533.368   2
   5   3  -1 1978.54 531.262   1
   5   3  -1 1497.13 426.415   4
  -5  -3   0 386.721 258.756   6
   5   3   0 352.527 341.652   4
  -5   3   0-216.197 356.287   3
   5  -3   0 294.064 237.375   1
  -5   3   0 318.800 168.133   5
  -5   3   0 497.369 291.556   2
   5   3   0 369.832 291.313   1
  -5  -3  -1 3477.84 613.025   6
   5   3   1 3270.29 571.852   4
  -5   3  -1 3055.78 643.141   3
  -5   3  -1 3129.59 297.890   5
   5  -3   1 4201.10 501.303   1
  -5   3  -1 3865.71 661.767   2
   5   3   1 4049.69 713.749   1
  -5  -3  -2 896.293 368.835   6
   5  -3   2 608.311 233.458   1
  -5   3  -2 496.571 77.8549   5
  -5   3  -2 237.198 269.691   2
   5   3   2 394.896 292.453   1
   5   3   3 12485.0 1217.48   1
  -5   3  -3 13305.5 1154.38   2
   5  -3   3 13066.5 970.989   1
  -5  -3  -3 12847.1 1175.82   6
  -5  -3  -4 20.9602 243.243   6
   5  -3   4 408.543 352.835   1
  -5   3  -4 872.749 305.728   2
   5   3   4 420.274 280.552   1
  -5  -3  -5 1441.76 589.387   6
   5  -3   5 1532.41 448.872   1
  -5   3  -5 2342.29 545.235   2
   5   3   5 2787.33 696.271   1
  -5  -3  -6 5681.80 827.372   6
   5  -3   6 6028.72 748.801   1
  -5   3  -6 4955.79 824.480   2
   5   3   6 5774.20 952.666   1
   5   3   7-372.688 294.026   1
  -5  -3  -7 611.334 410.758   6
   5  -3   7-1.88461 269.106   1
  -5   3  -7 107.808 410.434   2
   5   3   8 1250.18 537.106   1
   5  -3   8 992.497 425.173   1
  -5  -3  -8 348.456 289.397   6
  -5   3  -8 1916.49 675.725   2
   5  -3   9 387.827 370.517   1
   5   3   9 1595.30 629.888   1
  -5  -3  -9 1349.55 646.182   6
  -5   3  -9 745.245 525.341   2
  -5  -3 -10-6.13008 333.320   6
  -5   3 -10-160.233 314.072   2
   5   3  10 308.234 465.417   1
   5  -3  10-108.120 321.203   1
   5   3  11-91.9314 284.472   1
  -5  -3 -11-22.7253 200.991   6
  -5   3 -11-205.380 208.209   2
   5  -3  11 18.2416 227.997   1
   5   3  12-198.500 422.124   1
  -5  -3 -12-54.9245 190.656   6
  -5   3 -12 292.402 591.755   2
  -5  -3 -13 923.729 504.425   6
   5   4 -14 1277.69 471.098   2
  -5  -4  14 726.734 415.372   5
   5   4 -14-4.24848 475.371   4
   5  -4 -14 404.267 296.620   4
   5   4 -13 2924.04 796.946   2
   5  -4 -13 2995.88 993.145   6
  -5   4  13 3310.01 905.033   5
  -5  -4  13 3260.20 842.950   5
   5   4 -13 4141.98 1034.46   4
   5  -4 -13 3294.57 913.991   4
   5   4 -12 1352.57 450.545   2
   5  -4 -12 1249.54 562.050   6
  -5   4  12 428.974 387.922   5
  -5  -4  12 931.941 509.574   5
   5   4 -12 71.6698 407.002   4
   5  -4 -12 1769.72 604.701   4
   5   4 -11-34.1823 320.402   2
   5  -4 -11-256.092 400.767   6
  -5  -4  11-53.2217 81.8353   1
  -5   4  11-628.571 313.379   5
  -5  -4  11 597.265 495.637   5
   5   4 -11-207.002 484.494   7
   5   4 -11 115.109 340.677   4
   5  -4 -11-39.4813 401.732   4
   5   4 -10-112.888 271.519   2
  -5  -4  10 534.450 352.324   1
  -5   4  10 335.980 379.738   5
   5   4 -10 998.221 424.166   4
  -5  -4  10 1132.75 497.073   5
   5   4 -10 784.396 345.111   7
   5  -4 -10 1237.79 612.777   4
   5   4  -9 996.272 316.141   2
  -5   4   9 943.660 349.342   5
  -5  -4   9 441.340 264.910   5
   5   4  -9 771.973 452.303   7
   5   4  -9 525.737 446.915   4
   5  -4  -9 514.882 482.091   4
   5   4  -8 3837.33 562.824   2
  -5   4   8 4214.64 802.351   5
  -5  -4   8 4235.51 741.957   5
   5   4  -8 4300.30 881.207   7
   5   4  -8 3922.30 746.002   4
   5  -4  -8 4027.95 884.675   4
   5  -4  -7 3190.79 655.955   4
   5   4  -7 3402.71 510.347   2
  -5   4   7 4414.57 774.162   5
  -5  -4   7 4078.16 737.781   5
   5   4  -7 4212.98 817.716   7
   5   4  -7 3681.98 656.991   4
   5  -4  -6 4407.84 830.179   4
   5   4  -6 3627.58 498.424   2
  -5   4   6 4485.24 730.215   5
  -5  -4   6 4572.45 765.496   5
  -5  -4   6 1815.19 447.887   8
   5   4  -6 5269.88 852.750   7
   5   4  -6 5154.76 769.816   4
  -5   4   5 6414.12 798.712   5
   5  -4  -5 4778.69 492.047   1
  -5  -4   5 6749.50 931.919   5
   5  -4  -5 7752.83 896.193   8
   5  -4  -5 6658.22 1056.99   4
   5   4  -5 6242.21 877.452   7
  -5  -4   5 6147.01 744.844   6
   5   4  -5 5221.84 736.965   4
  -5  -4   4 2862.58 544.750   6
   5  -4  -4 2553.48 377.800   1
   5  -4  -4 3221.87 747.348   4
  -5   4   4 1982.05 630.219   3
  -5   4   4 2106.69 490.411   5
   5  -4  -4 2747.34 529.234   8
   5   4  -4 1788.39 546.408   7
   5   4  -4 1797.79 503.758   4
   5  -4  -3 3614.35 478.398   1
  -5  -4   3 3081.82 554.825   6
   5  -4  -3 3820.51 792.562   4
  -5   4   3 2422.16 718.558   3
  -5   4   3 4060.62 711.009   2
  -5   4   3 4136.73 587.029   5
   5  -4  -3 3405.81 616.188   8
   5   4  -3 1811.08 532.756   7
   5   4  -3 3176.00 516.041   4
  -5  -4   2 691.206 383.964   6
   5  -4  -2 724.595 541.914   4
  -5   4   2 150.989 460.549   3
  -5   4   2 726.887 268.716   5
  -5   4   2 1034.59 471.786   2
   5  -4  -2 331.855 220.624   8
   5  -4  -2 1065.72 296.120   1
   5   4  -2 825.692 371.331   7
   5   4  -2 686.268 336.266   4
   5   4  -1 1030.47 309.309   4
  -5  -4   1 1355.33 493.459   6
   5  -4  -1 1373.49 529.950   4
  -5   4   1 949.922 545.553   3
  -5   4   1 1420.71 304.022   5
  -5   4   1 317.004 313.403   2
   5  -4  -1 1343.40 332.511   1
   5   4  -1 978.665 416.703   7
   5   4   0 1063.23 341.306   4
  -5  -4   0 842.809 420.561   6
  -5   4   0 1325.07 494.517   3
   5  -4   0 1410.54 356.127   1
  -5   4   0 511.075 416.013   2
   5   4   0 1271.83 507.372   7
  -5   4  -1 7130.66 976.202   3
  -5   4  -1 7446.45 915.874   2
   5  -4   1 7035.54 788.598   1
   5   4   1 7554.47 1001.68   1
   5   4   1 7237.49 754.010   4
   5   4   1 7839.00 1004.37   7
  -5  -4  -1 8070.65 933.182   6
   5   4   2 15058.1 1458.05   1
  -5   4  -2 12982.4 1287.58   2
   5  -4   2 13786.5 1090.89   1
   5   4   2 13526.5 1031.28   4
  -5  -4  -2 12830.8 1190.95   6
  -5  -4  -3 3726.15 718.019   6
   5  -4   3 4023.28 636.429   1
  -5   4  -3 4386.69 818.090   2
   5   4   3 5479.07 903.697   1
  -5  -4  -4 708.496 496.847   6
   5  -4   4 897.769 320.967   1
  -5   4  -4 1038.66 444.590   2
   5   4   4 870.505 500.598   1
  -5  -4  -5-366.290 428.084   6
   5  -4   5 78.6020 352.044   1
  -5   4  -5 78.4131 228.664   2
   5   4   5 260.535 438.645   1
  -5  -4  -6 2197.04 706.873   6
   5  -4   6 2789.35 631.092   1
  -5   4  -6 2696.22 663.162   2
   5   4   6 2698.99 769.303   1
  -5  -4  -7 2609.85 633.146   6
   5  -4   7 1855.40 522.528   1
  -5   4  -7 935.042 391.345   2
   5   4   7 1748.22 728.486   1
  -5  -4  -8 174.827 357.803   6
   5  -4   8 898.210 411.447   1
  -5   4  -8-624.933 436.701   2
   5   4   8 508.448 442.210   1
  -5  -4  -9-227.389 355.172   6
   5  -4   9 45.9911 272.285   1
  -5   4  -9-32.9664 238.428   2
   5   4   9 105.357 345.813   1
  -5  -4 -10-91.9559 344.750   6
   5  -4  10-204.788 222.022   1
  -5   4 -10 241.926 407.447   2
   5   4  10-159.029 417.875   1
  -5  -4 -11 250.227 233.784   6
   5   4  11 548.963 636.102   1
  -5   5  12 1030.90 524.082   5
  -5  -5  12 1897.27 608.219   5
   5  -5 -11 3016.70 916.743   6
  -5   5  11 3852.44 808.346   5
  -5  -5  11 3791.30 871.023   1
  -5  -5  11 4571.94 820.328   5
   5   5 -11 3836.93 854.336   7
   5  -5 -10 824.094 507.502   6
  -5   5  10 649.150 412.360   5
  -5  -5  10 826.041 510.954   1
  -5  -5  10 1334.32 510.076   5
   5   5 -10 893.832 473.401   7
   5  -5  -9 417.115 522.481   6
  -5   5   9 372.249 270.715   5
  -5  -5   9 708.774 417.866   5
   5   5  -9-172.545 511.611   7
   5  -5  -9 339.646 469.363   4
   5  -5  -8 1121.78 514.778   6
  -5   5   8 61.1792 277.341   5
  -5  -5   8 143.221 365.141   5
   5   5  -8 242.574 363.724   7
   5  -5  -8-172.827 273.683   4
   5  -5  -7 509.241 446.379   6
  -5   5   7 1038.23 391.787   5
  -5  -5   7 686.301 410.589   5
   5   5  -7 1249.05 587.670   7
   5  -5  -7 322.411 255.773   4
   5  -5  -6 2276.13 700.748   4
  -5   5   6 2735.72 705.425   3
  -5   5   6 2841.41 557.534   5
  -5  -5   6 1917.62 484.950   5
  -5  -5   6 2539.52 603.079   8
   5   5  -6 2792.95 777.096   7
  -5  -5   6 2547.43 518.986   6
  -5  -5   5 201.124 219.236   6
   5  -5  -5 327.581 416.202   4
  -5   5   5 73.9843 481.461   3
  -5   5   5 345.317 317.621   5
  -5  -5   5 12.3311 334.807   5
  -5  -5   5 422.714 229.694   8
   5  -5  -5-557.996 288.803   8
   5   5  -5-293.479 410.643   7
  -5  -5   4 2414.31 552.541   6
   5  -5  -4 2239.74 672.536   4
  -5  -5   4 2172.67 515.577   8
  -5   5   4 2862.30 714.874   3
   5  -5  -4 2110.04 415.840   1
  -5   5   4 2391.84 479.188   5
   5  -5  -4 2115.53 546.818   8
   5   5  -4 3435.06 828.197   7
  -5  -5   3 549.498 343.998   6
   5  -5  -3 607.363 499.195   4
  -5   5   3 1174.55 414.552   3
   5  -5  -3 274.634 215.108   1
  -5   5   3 976.398 433.376   2
   5  -5  -3 585.733 369.663   8
  -5  -5   3 662.619 300.234   8
   5   5  -3-17.5018 491.252   7
   5  -5  -2-94.5784 141.200   4
  -5  -5   2 330.677 367.479   6
   5  -5  -2 479.232 232.713   1
  -5   5   2-707.620 430.935   3
  -5   5   2-906.261 444.220   2
   5  -5  -2 54.2943 223.595   8
   5   5  -2 733.040 330.916   7
  -5  -5   1 527.687 335.713   6
   5  -5  -1 116.524 209.224   1
   5  -5  -1 750.662 452.502   4
  -5   5   1 2.91431 450.561   3
  -5   5   1 112.510 343.293   2
   5  -5  -1 166.113 166.498   8
   5   5  -1 421.878 360.181   7
   5  -5   0 5768.20 736.299   1
  -5  -5   0 6375.89 873.070   6
   5  -5   0 6598.50 1032.29   4
  -5   5   0 5483.59 997.504   3
  -5   5   0 4637.05 813.550   2
   5   5   0 3460.05 759.165   7
  -5  -5  -1 2627.21 662.973   6
  -5   5  -1 2975.17 820.780   3
  -5   5  -1 2509.60 629.139   2
   5  -5   1 4025.92 650.434   1
   5   5   1 2090.63 732.347   7
  -5  -5  -2 4566.48 798.625   6
  -5   5  -2 2827.39 607.682   2
   5  -5   2 3967.48 674.202   1
   5   5   2 4654.81 921.049   7
  -5  -5  -3 1774.92 609.984   6
  -5   5  -3 1747.14 614.177   2
   5  -5   3 1025.11 414.555   1
   5   5   3 1908.41 669.715   7
  -5  -5  -4 1074.70 585.757   6
   5  -5   4 639.769 346.518   1
  -5   5  -4 669.314 450.968   2
   5   5   4 753.796 559.309   1
   5   5   4 360.487 523.294   7
  -5  -5  -5 1449.64 460.720   6
   5  -5   5 1700.80 491.525   1
  -5   5  -5 1326.76 595.065   2
   5   5   5 1697.58 585.606   1
   5   5   5 902.116 516.647   7
  -5  -5  -6-163.620 271.985   6
   5  -5   6 162.497 165.011   1
  -5   5  -6-34.6049 517.157   2
   5   5   6-603.414 437.422   1
   5   5   6-65.7133 396.378   7
  -5  -5  -7 380.102 440.644   6
   5  -5   7-114.756 320.629   1
  -5   5  -7 172.732 298.309   2
   5   5   7 388.354 429.517   1
   5   5   7-569.046 375.875   7
  -5  -5  -8 622.196 376.525   6
   5  -5   8 331.947 400.836   1
  -5   5  -8-379.308 415.826   2
   5   5   8 1117.49 548.260   1
   5   5   8-274.315 435.025   7
  -5  -5  -9 1586.84 747.639   6
   5  -5   9 524.643 339.341   1
   5   5   9-362.927 547.640   1
   5   5   9 1282.78 463.469   7
  -5   6  11 1030.44 589.662   5
  -5  -6  11 78.4711 687.158   1
  -5   6  10 2409.02 675.679   5
  -5  -6  10 1458.16 502.734   5
   5   6 -10 2254.92 650.623   7
   5  -6  -9 1499.59 635.191   6
  -5   6   9 646.536 408.217   5
  -5  -6   9 501.017 401.266   5
  -5  -6   9 89.1918 305.746   1
   5   6  -9 633.747 455.359   7
   5  -6  -8 1112.33 528.074   6
  -5   6   8 1228.96 430.269   5
  -5  -6   8 932.567 382.845   5
   5   6  -8 685.569 384.745   7
   5  -6  -7-245.426 573.867   6
  -5   6   7 739.538 676.490   3
  -5   6   7-85.2489 133.727   5
  -5  -6   7 246.762 214.704   5
   5   6  -7-139.473 450.918   7
   5  -6  -6 715.339 495.689   6
  -5   6   6 702.981 373.033   3
  -5  -6   6 197.167 413.256   5
   5   6  -6-58.0638 519.346   7
   5  -6  -5 461.854 496.037   6
  -5   6   5 208.168 424.971   3
  -5  -6   5 1803.19 633.601   5
   5  -6  -5 851.652 451.061   8
   5   6  -5 219.257 330.151   7
  -5  -6   4 120.127 362.474   6
   5  -6  -4 1385.54 581.026   6
  -5   6   4 1203.38 549.959   3
  -5  -6   4 1580.37 529.753   8
   5   6  -4 905.782 419.103   7
  -5  -6   3 1157.68 439.673   6
   5  -6  -3 919.999 435.897   6
  -5   6   3 1135.12 584.363   3
   5  -6  -3-209.622 198.901   1
   5  -6  -3 1259.10 457.974   8
   5   6  -3 1024.01 542.419   7
  -5  -6   2 1942.55 590.721   6
   5  -6  -2 2219.23 698.023   6
  -5   6   2 1247.33 580.853   3
   5  -6  -2 3063.20 601.248   1
  -5   6   2 3126.94 773.526   2
   5  -6  -2 1984.72 604.171   8
   5   6  -2 3283.31 876.467   7
  -5  -6   1 1716.03 465.892   6
   5  -6  -1 1728.15 444.635   1
  -5   6   1 1473.68 599.655   3
   5   6  -1 1786.24 706.339   7
  -5   6   1 1392.14 634.407   2
   5  -6  -1 1518.82 550.695   8
  -5  -6   0 4409.12 827.317   6
   5  -6   0 4435.00 706.093   1
  -5   6   0 5064.97 1097.70   3
  -5   6   0 4009.53 772.026   2
   5  -6   0 4249.65 877.130   8
   5   6   0 3406.46 970.485   7
   5  -6   1 887.042 314.108   1
  -5  -6  -1 210.938 339.486   6
  -5   6  -1-128.270 404.713   2
   5   6   1-208.586 368.143   7
   5  -6   2 219.684 382.446   1
  -5  -6  -2 606.923 376.882   6
  -5   6  -2 852.772 426.155   2
   5   6   2 764.512 604.137   7
  -5  -6  -3 894.412 450.572   6
  -5   6  -3 856.422 483.656   2
   5  -6   3 867.078 436.665   1
   5   6   3 715.733 386.154   7
  -5  -6  -4 452.759 538.473   6
  -5   6  -4 227.247 345.289   2
   5  -6   4 369.978 356.287   1
   5   6   4 1445.83 536.239   7
  -5  -6  -5 1058.23 683.699   6
   5  -6   5 1122.90 464.407   1
  -5   6  -5 261.117 382.274   2
   5   6   5 605.286 455.343   7
  -5  -6  -6 157.569 507.250   6
   5  -6   6-310.269 296.193   1
  -5   6  -6 963.281 503.978   2
   5   6   6-389.686 427.669   7
   5   6   7 326.287 370.845   7
   5   6   8 571.384 389.124   7
   5  -7  -7 1015.79 632.433   6
   5  -7  -6 284.411 433.998   6
  -5  -7   6-41.3296 459.191   5
  -5  -7   5 218.888 329.696   5
   5  -7  -5 397.318 360.547   8
  -5   7   4-339.757 320.035   3
   5  -7  -4 850.458 444.267   8
  -5   7   3 802.387 427.877   3
   5  -7  -3 277.128 488.617   8
   5   7  -3 1329.03 611.682   7
  -5  -7   2 96.9200 384.696   6
  -5   7   2 619.883 524.907   3
   5  -7  -2 882.348 446.383   8
   5   7  -2 335.156 448.677   7
  -5  -7   1 1338.94 531.025   6
  -5   7   1 1219.76 269.409   3
   5  -7  -1 966.382 569.535   1
  -5   7   1 224.736 245.104   2
   5  -7  -1 800.781 478.107   8
   5   7  -1 502.478 450.417   7
  -5  -7   0 985.615 582.320   6
  -5   7   0-151.502 265.017   3
   5  -7   0 231.111 376.887   1
  -5   7   0-29.6123 343.748   2
   5  -7   0 15.5987 473.727   8
   5   7   0-851.998 616.905   7
  -5  -7  -1 753.468 356.623   6
   5  -7   1 1400.72 498.293   1
  -5   7  -1 642.745 457.107   2
   5  -7   1 1069.31 849.209   8
   5   7   1-25.3445 576.247   7
  -5  -7  -2 1579.58 769.416   6
  -5   7  -2 2272.94 702.484   2
   5   7   2 2079.61 1050.53   7
   5  -7   2 1060.83 401.740   1
  -5  -7  -3-482.801 641.908   6
  -5   7  -3 149.576 363.391   2
   5  -7   3 505.096 499.873   1
  -6   0  15 3190.93 914.267   5
   6   0 -15 2776.17 1052.75   4
  -6   0  14 4290.07 862.545   5
   6   0 -14 7910.87 1426.41   4
  -6   0  13-161.016 228.872   5
   6   0 -13-430.684 466.579   4
  -6   0  12 9065.76 1174.78   5
   6   0 -12 8326.57 1446.84   4
  -6   0  11 875.628 460.172   5
   6   0 -11 1614.99 716.699   4
  -6   0  10 6314.16 933.165   5
   6   0 -10 6302.54 1084.04   4
  -6   0   9-182.422 177.436   5
   6   0  -9 404.136 365.815   4
  -6   0   8-55.6089 217.943   5
   6   0  -8 483.474 464.007   4
   6   0  -7-690.567 514.109   4
  -6   0   7 264.817 373.166   5
   6   0  -6 77.2620 265.480   4
  -6   0   6 385.835 249.668   5
   6   0  -5-108.700 296.861   4
   6   0  -5 30.9027 57.4336   1
  -6   0   5 308.864 245.664   5
  -6   0   5 71.2958 101.284   1
   6   0  -4 4901.70 870.777   4
   6   0  -4 4738.45 478.924   1
  -6   0   4 4944.59 647.854   5
  -6   0   4 4345.92 374.280   1
   6   0  -3 2651.45 367.822   1
  -6   0   3 3683.93 568.601   3
  -6   0   3 3243.40 558.299   5
   6   0  -2 5723.72 951.837   4
  -6   0   2 6533.59 662.080   3
   6   0  -2 5775.70 585.503   1
  -6   0   2 6748.37 703.887   5
   6   0  -1 2273.66 604.206   4
   6   0  -1 2409.07 412.502   1
  -6   0   1 1738.98 394.490   3
  -6   0   1 2387.12 427.518   2
  -6   0   1 2629.34 441.838   5
   6   0   0 1896.60 404.031   1
  -6   0   0 1757.44 359.262   2
  -6   0   0 2784.59 437.218   5
  -6   0   0 2126.77 429.903   6
  -6   0  -1 174.860 232.758   6
   6   0   1 301.786 221.570   1
  -6   0  -1 178.312 250.704   2
   6   0   2 31519.6 1579.24   1
  -6   0  -2 30555.6 1453.96   2
  -6   0  -2 32640.8 1559.53   6
  -6   0  -3 2631.94 524.357   6
   6   0   3 2389.17 525.436   1
  -6   0  -3 2388.89 422.292   2
  -6   0  -4 1469.49 425.288   6
   6   0   4 3002.45 580.006   1
  -6   0  -4 2855.84 542.645   2
  -6   0  -5 2148.91 419.470   6
   6   0   5 1777.83 517.602   1
  -6   0  -5 2242.01 429.293   2
   6   0   6 7749.71 1009.83   1
  -6   0  -6 6630.99 815.923   2
  -6   0  -6 6282.72 766.561   6
   6   0   7 6409.84 900.783   1
  -6   0  -7 5329.01 742.663   2
  -6   0  -7 6048.32 764.295   6
  -6   0  -8 3401.90 587.577   6
   6   0   8 3516.97 681.725   1
  -6   0  -8 3375.69 678.920   2
  -6   0  -9 5639.55 830.812   6
   6   0   9 5397.20 939.852   1
  -6   0  -9 7677.99 960.772   2
  -6   0 -10 875.721 352.222   6
   6   0  10 2029.09 597.433   1
  -6   0 -10 1820.22 593.591   2
   6   0  11 2249.57 634.320   1
  -6   0 -11 1479.62 501.442   2
   6   0  12 660.043 551.071   1
  -6   0 -12 889.167 477.717   2
  -6   0 -13 1435.57 609.047   2
  -6   1  15 1904.51 761.591   5
  -6  -1  15 1246.95 660.860   5
   6   1 -15 1408.93 914.031   4
   6  -1 -15 340.916 610.773   4
  -6   1  14 1287.77 569.825   5
  -6  -1  14 1573.37 669.933   5
   6  -1 -14 2172.95 775.823   4
  -6   1  13 1762.27 704.915   5
  -6  -1  13 1393.67 499.971   5
   6   1 -13 1477.23 556.756   4
   6  -1 -13 3245.21 941.028   4
  -6   1  12 3260.78 805.324   5
  -6  -1  12 2631.58 685.531   5
   6   1 -12 3653.51 934.067   4
   6  -1 -12 2267.77 801.072   4
  -6   1  11 2395.70 636.358   5
  -6  -1  11 3478.07 728.675   5
   6   1 -11 3337.01 962.020   4
   6  -1 -11 2592.51 754.756   4
  -6   1  10 12102.4 1251.06   5
  -6  -1  10 11171.9 1176.32   5
   6  -1 -10 10566.9 1454.46   4
   6   1 -10 9503.05 1338.43   4
  -6   1   9 12604.8 1231.17   5
  -6  -1   9 12804.3 1241.78   5
   6   1  -9 11570.2 1402.76   4
   6  -1  -9 11984.8 1465.60   4
   6   1  -9 12930.0 984.839   7
   6  -1  -8 366.280 391.790   4
  -6   1   8 358.010 286.426   5
  -6  -1   8 952.052 377.195   5
   6   1  -8 428.881 397.495   4
   6  -1  -7 848.408 519.059   4
  -6   1   7 1411.82 434.784   5
  -6  -1   7 1061.35 348.004   5
   6   1  -7 713.000 432.565   4
  -6   1   6 19644.9 1323.84   5
  -6  -1   6 20650.2 1438.88   5
   6   1  -6 20225.1 1681.57   4
   6  -1  -6 20419.5 1763.83   4
   6   1  -5 3075.40 755.187   4
   6  -1  -5 2619.18 650.639   4
   6  -1  -5 2300.17 240.102   1
  -6   1   5 2801.43 550.017   5
  -6  -1   5 2737.90 558.572   5
  -6   1   5 2398.16 246.315   1
   6   1  -4 1047.62 410.212   4
   6  -1  -4 1819.99 550.384   4
   6  -1  -4 887.770 184.623   1
  -6   1   4 1076.95 185.450   1
  -6   1   4 902.352 363.394   5
  -6  -1   4 669.325 276.794   5
   6   1  -4 1073.56 269.174   1
   6   1  -3 616.621 356.934   4
   6  -1  -3 1160.77 514.285   4
   6  -1  -3 595.969 151.217   1
  -6  -1   3 592.347 222.946   3
  -6   1   3 874.253 266.054   3
  -6   1   3 441.640 245.731   5
  -6  -1   3 940.663 343.680   5
   6  -1  -3 949.615 164.632   8
   6   1  -3 1136.36 356.269   1
   6   1  -2 226.811 366.845   4
   6  -1  -2 321.259 424.643   4
  -6  -1   2 388.047 175.330   3
  -6   1   2 563.362 255.386   3
   6  -1  -2 348.091 137.245   1
  -6   1   2 1102.22 319.845   2
  -6   1   2 291.288 143.490   5
  -6  -1   2 475.288 246.927   5
  -6  -1   2 722.225 341.407   6
   6   1  -2 634.605 234.997   1
  -6  -1   1-285.578 264.306   6
   6   1  -1 272.092 196.907   1
   6   1  -1 161.786 408.419   4
   6  -1  -1-548.714 444.751   4
  -6   1   1 12.4556 84.6933   3
   6  -1  -1 254.461 150.950   1
  -6   1   1-123.134 296.879   2
  -6   1   1-7.09990 96.7399   5
   6   1  -1 8.82503 79.7250   8
  -6  -1   0 3446.69 562.675   6
   6   1   0 3947.72 565.061   1
  -6   1   0 3758.57 563.708   3
   6  -1   0 4384.12 524.469   1
  -6  -1   0 3276.55 386.585   2
  -6   1   0 3384.88 481.383   5
  -6   1   0 3858.53 577.806   2
   6   1   1 32448.4 1636.15   1
  -6   1  -1 30289.3 1289.43   5
   6  -1   1 32289.6 1427.61   1
  -6  -1  -1 31875.4 1257.47   2
  -6   1  -1 30738.6 1588.68   2
  -6  -1  -1 31396.6 1596.07   6
  -6  -1  -2 3038.96 592.983   6
   6   1   2 3710.57 607.801   1
   6  -1   2 4253.59 592.055   1
  -6   1  -2 3437.63 463.231   5
  -6  -1  -2 2782.92 380.518   2
  -6   1  -2 3853.12 589.733   2
   6   1   3 16893.7 1277.05   1
   6  -1   3 17132.8 1150.34   1
  -6  -1  -3 14226.6 924.663   2
  -6   1  -3 14510.8 1142.15   2
  -6   1  -3 15930.7 1042.80   6
  -6  -1  -3 15576.5 1193.60   6
  -6   1  -4 2997.80 488.158   6
  -6  -1  -4 4157.95 665.391   6
   6   1   4 3615.44 592.587   1
  -6   1  -4 3179.91 586.213   2
   6  -1   4 2168.46 506.619   1
  -6  -1  -4 3002.80 496.746   2
   6   1   5 8936.63 1006.71   1
   6  -1   5 8703.94 898.023   1
  -6   1  -5 9006.84 992.846   2
  -6  -1  -5 9067.53 815.101   2
  -6   1  -5 8633.11 790.607   6
  -6  -1  -5 9437.66 993.240   6
  -6   1  -6-33.9859 255.158   6
  -6  -1  -6-506.128 390.276   6
   6   1   6-42.6814 325.192   1
   6  -1   6 443.030 352.498   1
  -6   1  -6 63.2890 160.580   2
  -6  -1  -6 40.3036 242.021   2
   6   1   7 8573.28 1097.28   1
   6  -1   7 9469.82 1040.88   1
  -6   1  -7 9229.91 1047.77   2
  -6  -1  -7 10184.0 952.687   2
  -6   1  -7 11025.0 910.624   6
  -6  -1  -7 10445.1 1076.12   6
  -6   1  -8 2908.75 545.780   6
  -6  -1  -8 3417.84 670.865   6
   6   1   8 4590.92 872.569   1
   6  -1   8 3440.00 763.840   1
  -6   1  -8 2191.49 589.496   2
  -6  -1  -8 1963.18 432.810   2
  -6  -1  -9 301.365 248.936   6
   6   1   9-395.808 256.483   1
   6  -1   9-95.6268 344.626   1
  -6   1  -9-337.385 311.533   2
  -6  -1  -9 302.815 180.623   2
  -6  -1 -10 1908.24 515.086   6
   6   1  10 1092.02 428.622   1
   6  -1  10 2632.54 698.888   1
  -6   1 -10 334.407 516.152   2
  -6  -1 -10 1242.04 519.924   2
  -6  -1 -11 803.600 353.531   6
   6   1  11 1026.78 716.751   1
   6  -1  11 1044.81 474.246   1
  -6   1 -11 1591.78 620.888   2
   6   1  12 776.911 389.530   1
   6  -1  12 1874.00 654.554   1
  -6   1 -12 2022.07 607.689   2
  -6   1 -13 1595.14 663.919   2
  -6  -2  15 644.350 337.605   5
   6   2 -15 614.283 450.117   4
   6  -2 -15 83.3910 363.972   4
  -6   2  14 934.605 515.376   5
  -6  -2  14 493.763 428.628   5
   6   2 -14-707.336 522.408   4
   6  -2 -14 147.215 630.030   4
  -6   2  13 1352.93 693.789   5
  -6  -2  13 837.544 504.692   5
   6   2 -13 1174.43 720.483   4
   6  -2 -13 1436.04 760.485   4
  -6   2  12 1833.17 670.943   5
  -6  -2  12 2240.58 596.913   5
   6   2 -12 1901.97 707.202   4
   6  -2 -12 1394.66 581.358   4
  -6   2  11 1683.98 530.733   5
  -6  -2  11 1740.78 650.177   5
   6   2 -11 1741.87 688.513   4
   6  -2 -11 3144.49 871.725   4
  -6   2  10 1978.71 481.944   5
  -6  -2  10 1359.07 514.350   5
   6   2 -10 1832.96 481.967   7
   6   2 -10 1777.66 571.201   4
   6  -2 -10 2084.48 750.829   4
  -6   2   9 592.352 448.463   5
  -6  -2   9 1329.97 622.152   5
   6   2  -9 886.998 410.401   7
   6   2  -9 933.820 532.368   4
   6  -2  -9 1671.92 755.814   4
   6  -2  -8 2988.85 836.951   4
  -6   2   8 1553.81 488.313   5
  -6  -2   8 2181.37 547.432   5
   6   2  -8 1980.73 498.553   7
   6   2  -8 2044.43 610.899   4
   6  -2  -7 1023.91 522.308   4
  -6   2   7 1584.90 427.787   5
  -6  -2   7 770.498 331.600   5
   6   2  -7 1334.16 459.557   7
  -6   2   6 19524.2 1351.32   5
  -6  -2   6 17782.1 1390.08   5
   6   2  -6 17441.5 1542.99   4
   6  -2  -6 19933.6 1812.57   4
   6  -2  -5 8521.99 1172.83   4
  -6   2   5 6134.11 733.366   5
   6  -2  -5 6824.62 393.671   1
  -6  -2   5 7902.79 914.541   5
   6   2  -5 8409.52 1064.58   4
   6   2  -4 5390.01 843.831   4
   6  -2  -4 4859.43 875.243   4
   6  -2  -4 4771.66 381.757   1
  -6   2   4 4662.86 613.777   5
  -6  -2   4 4757.26 705.898   5
   6  -2  -4 4650.17 504.177   8
  -6  -2   3 1405.56 400.066   6
   6   2  -3 2116.37 553.934   4
   6  -2  -3 1605.03 530.196   4
  -6  -2   3 1712.05 202.881   3
  -6   2   3 1545.23 512.784   3
  -6   2   3 1550.38 344.320   5
  -6  -2   3 1872.78 492.367   5
   6  -2  -3 1711.43 247.776   1
   6   2  -3 1002.17 301.486   1
   6  -2  -3 1711.70 351.917   8
  -6  -2   2 2361.02 486.404   6
   6   2  -2 1284.73 432.633   4
   6  -2  -2 1906.74 595.444   4
  -6   2   2 1456.19 550.513   3
  -6   2   2 1779.39 362.907   5
  -6   2   2 2055.37 495.199   2
   6  -2  -2 1219.65 231.596   1
   6   2  -2 2058.61 466.410   1
  -6  -2   1 2416.77 476.592   6
   6   2  -1 1784.90 525.561   4
   6  -2  -1 2076.87 571.240   4
  -6   2   1 2234.87 562.076   3
  -6   2   1 1882.67 345.995   5
  -6   2   1 2057.83 512.340   2
   6  -2  -1 2609.93 377.745   1
   6   2  -1 2069.61 270.134   2
   6   2  -1 1976.45 497.081   1
   6   2   0 6960.10 928.321   4
   6   2   0 7463.16 823.923   1
  -6   2   0 8439.22 947.348   3
  -6   2   0 6254.29 588.294   5
  -6   2   0 6204.96 796.705   2
   6  -2   0 6357.96 592.134   1
  -6  -2   0 7023.24 802.149   6
  -6  -2  -1 1710.08 481.597   6
  -6   2  -1 1360.08 279.383   5
  -6   2  -1 1345.74 494.194   2
   6  -2   1 1398.41 369.786   1
   6   2   1 1118.72 412.421   1
   6   2   2 8508.96 987.794   1
  -6   2  -2 8549.30 597.420   5
  -6  -2  -2 9120.60 558.517   2
  -6   2  -2 8240.61 935.855   2
   6  -2   2 8841.69 780.002   1
  -6  -2  -2 7505.98 892.177   6
  -6  -2  -3 5892.89 809.928   6
   6   2   3 6677.54 880.967   1
  -6   2  -3 5796.52 470.092   5
  -6  -2  -3 6463.59 505.964   2
   6  -2   3 6967.30 737.483   1
  -6   2  -3 5585.76 796.958   2
  -6  -2  -4 5182.87 810.512   6
   6   2   4 5313.15 779.739   1
   6  -2   4 5531.43 694.867   1
  -6  -2  -4 4444.52 465.305   2
  -6   2  -4 4641.02 740.979   2
  -6  -2  -5 5721.52 839.482   6
   6   2   5 6576.45 907.323   1
   6  -2   5 7158.37 820.502   1
  -6  -2  -5 3865.99 489.354   2
  -6   2  -5 4625.81 767.271   2
   6   2   6 18358.3 1567.50   1
   6  -2   6 22972.1 1501.43   1
  -6   2  -6 17251.2 1449.32   2
  -6  -2  -6 19699.6 1536.08   6
  -6  -2  -7 2452.68 562.331   6
   6   2   7 2259.68 685.173   1
  -6   2  -7 2678.17 650.904   2
   6  -2   7 1710.22 505.774   1
  -6  -2  -8 1257.81 431.135   6
   6   2   8 738.686 545.944   1
   6  -2   8 1550.11 475.919   1
  -6   2  -8 1132.17 510.252   2
  -6  -2  -9 936.363 349.922   6
   6   2   9 57.3297 291.900   1
   6  -2   9 555.348 440.811   1
  -6   2  -9 622.243 321.845   2
  -6  -2 -10 1231.66 477.196   6
   6   2  10 681.940 529.697   1
   6  -2  10 2013.96 614.308   1
  -6   2 -10 633.486 583.567   2
  -6  -2 -11 612.306 422.957   6
   6   2  11 298.248 433.107   1
   6  -2  11 604.084 545.414   1
  -6   2 -11 739.668 580.445   2
  -6  -2 -12 875.795 388.350   6
  -6   2 -12 931.610 418.956   2
  -6   3  14-710.507 628.629   5
  -6  -3  14 296.376 367.382   5
   6   3 -14 504.399 511.694   4
   6  -3 -14 414.892 360.405   4
  -6   3  13 309.103 378.497   5
  -6  -3  13 1018.31 434.582   5
   6   3 -13-198.347 262.921   4
   6  -3 -13 558.378 494.231   4
  -6   3  12 392.038 364.195   5
  -6  -3  12 763.363 423.426   5
   6   3 -12 470.805 366.757   4
   6  -3 -12-4.14714 324.647   4
  -6   3  11 365.482 456.294   5
  -6  -3  11 393.220 327.352   5
   6   3 -11 278.788 426.004   4
   6  -3 -11 105.877 615.542   4
  -6   3  10 2532.36 779.745   5
  -6  -3  10 3334.88 715.830   5
   6   3 -10 3975.67 797.647   7
   6   3 -10 3416.92 754.807   4
   6  -3 -10 4015.23 985.206   4
  -6   3   9 5850.65 894.676   5
  -6  -3   9 5668.27 904.326   5
   6   3  -9 6516.88 860.355   7
   6   3  -9 5963.22 1046.29   4
   6  -3  -9 5136.54 1065.15   4
   6  -3  -8 1105.24 653.231   4
  -6   3   8 1385.97 455.949   5
  -6  -3   8 1871.74 610.154   5
   6   3  -8 1263.42 478.679   7
   6   3  -8 1599.75 611.415   4
   6  -3  -7 10176.7 1352.65   4
  -6   3   7 9960.09 1032.75   5
  -6  -3   7 8003.24 972.460   5
   6   3  -7 10252.9 1089.71   7
   6   3  -7 8331.24 1073.57   4
   6  -3  -6 1525.12 584.656   4
  -6   3   6 1326.85 431.568   5
  -6  -3   6 636.562 369.006   5
   6   3  -6 1000.07 415.362   7
   6   3  -6 2156.06 565.218   4
   6  -3  -5 1614.28 670.959   4
  -6   3   5 851.766 390.946   5
  -6  -3   5 1427.27 517.325   5
   6  -3  -5 2054.75 382.541   8
   6   3  -5 1750.62 513.712   7
   6   3  -5 750.841 506.175   4
  -6  -3   4 381.510 299.701   6
   6   3  -4 174.522 151.510   4
   6  -3  -4-31.8775 55.7947   1
   6  -3  -4-12.0272 436.585   4
  -6   3   4 40.0546 205.048   3
  -6   3   4 549.289 260.570   5
  -6  -3   4-108.305 322.345   5
   6  -3  -4 76.5861 186.730   8
   6   3  -3 6299.70 880.516   4
   6  -3  -3 5859.48 1028.13   4
  -6   3   3 5587.37 645.197   5
  -6   3   3 5698.76 906.966   3
  -6   3   3 6518.12 886.084   2
   6  -3  -3 5500.01 494.212   1
   6  -3  -3 5816.01 709.919   8
  -6  -3   3 6253.69 776.629   6
  -6  -3   2 418.456 250.985   6
   6   3  -2 806.785 308.154   4
   6   3  -2 457.176 372.805   1
   6  -3  -2 217.649 457.154   4
   6  -3  -2 1073.84 249.445   1
  -6   3   2 442.659 331.187   3
  -6   3   2 700.247 217.490   5
  -6   3   2 305.266 284.912   2
  -6  -3   1 3903.84 633.435   6
   6   3  -1 3283.36 646.947   4
   6  -3  -1 3247.10 760.382   4
   6  -3  -1 2442.34 370.300   1
  -6   3   1 2080.48 552.877   3
  -6   3   1 3485.99 454.216   5
  -6   3   1 3602.51 645.961   2
   6   3  -1 3980.24 646.601   1
  -6  -3   0 2458.86 636.709   6
   6   3   0 3723.39 660.799   4
   6  -3   0 3270.88 461.392   1
  -6   3   0 2965.25 619.543   3
  -6   3   0 2713.25 363.376   5
  -6   3   0 3519.82 697.533   2
   6   3   0 3627.93 677.057   1
  -6  -3  -1 262.192 262.334   6
   6   3   1-95.5403 369.932   4
   6  -3   1 405.350 287.609   1
  -6   3  -1 312.587 449.157   3
  -6   3  -1 126.460 313.934   2
   6   3   1 1041.36 533.715   1
  -6  -3  -2 1974.90 575.055   6
   6  -3   2 2814.24 487.051   1
  -6   3  -2 1874.45 522.763   2
   6   3   2 3302.04 753.487   1
  -6  -3  -3 1113.60 478.186   6
   6  -3   3 1203.19 405.950   1
  -6   3  -3 1131.67 398.661   2
   6   3   3 963.057 355.256   1
  -6  -3  -4 2099.75 628.970   6
   6  -3   4 2226.80 480.790   1
  -6   3  -4 1894.07 567.440   2
   6   3   4 1133.20 593.143   1
   6  -3   5 2677.26 598.635   1
  -6  -3  -5 2378.99 570.623   6
  -6   3  -5 2130.64 584.311   2
   6   3   5 2967.75 653.579   1
   6  -3   6 2641.95 564.128   1
  -6  -3  -6 2534.21 694.777   6
  -6   3  -6 3813.83 711.778   2
   6   3   6 3009.75 707.023   1
   6   3   7 2009.89 740.075   1
  -6  -3  -7 1341.15 429.663   6
  -6   3  -7 2124.65 603.574   2
   6  -3   7 2264.23 552.491   1
   6   3   8 1095.97 449.435   1
  -6  -3  -8 54.7232 144.175   6
  -6   3  -8 445.859 471.830   2
   6  -3   8 79.6159 339.398   1
   6   3   9 311.854 358.684   1
  -6  -3  -9-151.858 269.977   6
  -6   3  -9-9.58663 283.225   2
   6  -3   9 690.313 429.823   1
   6   3  10-215.192 352.141   1
  -6  -3 -10-365.032 406.984   6
  -6   3 -10 639.401 484.364   2
   6  -3  10 819.713 431.394   1
  -6  -3 -11-155.147 390.044   6
  -6  -4  14 361.163 611.649   5
   6   4 -14 70.8943 406.631   4
   6  -4 -14-42.2875 274.097   4
  -6   4  13 1127.78 577.402   5
  -6  -4  13 1263.81 572.065   5
   6   4 -13 1257.97 500.769   4
   6  -4 -13 1772.96 906.487   4
  -6  -4  12-374.453 387.970   5
   6   4 -12 250.582 217.333   4
   6  -4 -12-437.846 732.004   4
  -6   4  11 191.714 295.562   5
  -6  -4  11 859.173 498.307   5
   6   4 -11 867.677 465.890   4
   6  -4 -11 906.014 482.292   4
  -6  -4  10 585.529 302.555   1
  -6   4  10-188.078 402.973   5
  -6  -4  10 242.825 338.019   5
   6   4 -10 259.863 361.253   7
   6   4 -10-390.190 478.462   4
   6  -4 -10-171.025 451.546   4
  -6  -4   9 278.328 261.352   5
   6   4  -9 61.1752 368.310   7
   6   4  -9-515.293 375.955   4
   6  -4  -9 58.2393 283.119   4
  -6   4   8-147.548 316.815   5
  -6  -4   8 98.3820 250.485   5
   6   4  -8-77.3690 260.297   7
   6   4  -8-41.4384 328.873   4
   6  -4  -8 981.800 531.530   4
   6  -4  -7 553.548 411.056   4
  -6   4   7 599.073 259.639   5
  -6  -4   7 739.771 379.834   5
   6   4  -7 792.489 369.688   7
   6   4  -7 1008.46 412.740   4
   6  -4  -6 1911.30 818.891   4
  -6   4   6 2021.02 460.144   5
  -6  -4   6 1372.61 477.422   5
   6   4  -6 1654.09 605.565   7
   6   4  -6 1531.55 522.782   4
  -6  -4   5 2022.66 535.210   6
   6  -4  -5 2660.58 797.955   4
  -6   4   5 3081.18 796.056   3
  -6   4   5 1909.25 455.254   5
  -6  -4   5 2092.29 605.794   5
   6   4  -5 1843.35 682.135   7
   6  -4  -5 2375.62 499.651   8
   6   4  -5 2242.26 556.733   4
  -6  -4   4 274.668 298.968   6
   6  -4  -4-221.837 322.007   4
  -6   4   4 55.6505 302.644   3
  -6   4   4 259.714 227.090   5
  -6  -4   4-104.172 246.992   5
   6  -4  -4 88.6041 147.558   8
   6   4  -4 352.381 573.558   7
   6   4  -4-579.252 278.985   4
  -6  -4   3 275.307 325.789   6
   6  -4  -3 1048.19 594.213   4
  -6   4   3 913.259 518.984   3
  -6   4   3 386.907 409.315   2
  -6   4   3 864.756 270.339   5
   6  -4  -3 1074.82 268.672   1
   6  -4  -3 281.972 194.393   8
   6   4  -3 443.572 370.501   7
   6   4  -3 1144.05 333.091   4
   6   4  -2 1614.06 485.000   4
  -6  -4   2 2733.27 566.536   6
   6  -4  -2 2107.12 627.529   4
  -6   4   2 1649.55 571.348   3
   6  -4  -2 2250.05 417.109   1
  -6   4   2 1853.83 583.742   2
   6  -4  -2 2509.56 526.819   8
   6   4  -2 1563.02 497.858   7
   6   4  -1 3823.65 680.855   4
  -6  -4   1 4639.80 772.610   6
   6  -4  -1 3572.97 765.880   4
  -6   4   1 4278.15 833.880   3
   6  -4  -1 4637.07 568.852   1
  -6   4   1 4326.59 781.369   2
   6   4  -1 3992.10 826.125   7
  -6  -4   0 1210.12 509.605   6
   6   4   0 1794.78 421.334   4
   6   4   0 2526.79 690.127   1
  -6   4   0 1949.42 626.490   3
   6  -4   0 2028.57 411.830   1
  -6   4   0 1745.69 517.742   2
  -6  -4  -1 1212.13 467.083   6
  -6   4  -1 2831.29 697.794   3
   6  -4   1 2092.00 434.615   1
  -6   4  -1 2682.44 638.283   2
   6   4   1 1192.98 580.687   1
  -6  -4  -2 283.001 322.370   6
   6  -4   2 553.572 307.321   1
  -6   4  -2-63.4385 368.142   2
   6   4   2-110.013 277.126   1
  -6  -4  -3 1122.32 507.845   6
   6  -4   3 929.706 397.923   1
  -6   4  -3 1843.79 556.248   2
   6   4   3 1344.04 508.952   1
  -6  -4  -4 36.7781 367.092   6
   6  -4   4 1124.08 376.756   1
  -6   4  -4 293.177 290.847   2
   6   4   4 696.270 494.044   1
  -6  -4  -5 1191.18 542.228   6
   6  -4   5 275.878 298.652   1
  -6   4  -5-14.4363 313.300   2
   6   4   5 850.968 421.380   1
  -6  -4  -6 700.168 380.526   6
   6  -4   6 93.5872 320.923   1
  -6   4  -6 571.991 324.657   2
   6   4   6 152.640 287.763   1
  -6  -4  -7 83.8207 225.307   6
   6  -4   7 654.316 295.141   1
  -6   4  -7 686.994 353.480   2
   6   4   7 948.209 604.788   1
   6  -4   8 1562.94 539.018   1
  -6  -4  -8 1570.13 527.989   6
  -6   4  -8 1662.77 571.049   2
   6   4   8 2106.66 662.520   1
   6  -4   9 113.299 320.647   1
  -6  -4  -9-149.788 387.451   6
  -6   4  -9 161.639 557.229   2
   6   4   9-546.764 618.290   1
  -6   5  12 381.513 362.261   5
  -6  -5  12 806.795 484.616   5
  -6   5  11 770.304 502.529   5
  -6  -5  11 481.596 574.544   5
   6  -5 -10 1166.17 562.249   6
  -6  -5  10 1751.93 551.648   1
  -6   5  10 1285.54 530.623   5
  -6  -5  10 1586.79 588.898   5
   6   5 -10 1144.39 589.189   7
   6  -5 -10 1891.62 666.721   4
  -6   5   9 672.422 319.932   5
  -6  -5   9 195.163 390.548   5
   6   5  -9 665.013 487.470   7
  -6   5   8 384.894 470.439   5
  -6  -5   8-94.4716 377.842   5
   6   5  -8 225.488 486.163   7
   6  -5  -8 910.682 460.445   4
   6  -5  -7 375.228 346.260   4
  -6   5   7 542.678 369.663   3
  -6   5   7 170.200 312.259   5
  -6  -5   7 55.8565 377.105   5
   6   5  -7-482.452 464.915   7
   6  -5  -6 71.5407 284.048   4
  -6   5   6-542.316 618.925   3
  -6   5   6 15.8245 126.031   5
  -6  -5   6-64.1966 207.633   5
   6   5  -6 257.200 271.227   7
  -6  -5   5 728.721 395.475   6
   6  -5  -5 491.453 394.827   4
  -6   5   5 898.709 603.328   3
  -6  -5   5 1080.06 410.910   5
   6  -5  -5 707.981 310.053   8
   6   5  -5 651.335 556.557   7
  -6  -5   4 73.4132 303.096   6
   6  -5  -4 46.5268 508.530   4
  -6   5   4 776.152 594.599   3
   6  -5  -4-121.827 319.468   8
   6   5  -4 259.098 412.417   7
  -6  -5   3-124.262 191.485   6
   6  -5  -3 421.932 433.532   4
  -6   5   3 135.318 536.006   3
   6  -5  -3 642.041 382.933   8
   6   5  -3-34.7138 237.732   7
  -6  -5   2 154.694 341.610   6
   6  -5  -2-349.427 266.600   4
  -6   5   2 122.991 592.200   3
  -6   5   2-224.485 227.215   2
   6  -5  -2 123.077 237.511   1
   6  -5  -2 149.304 307.097   8
   6   5  -2 135.709 281.513   7
  -6  -5   1 1408.76 552.493   6
   6  -5  -1 3.33260 467.453   4
  -6   5   1 561.721 620.545   3
  -6   5   1 874.279 432.265   2
   6  -5  -1 627.190 270.051   1
   6  -5  -1 1053.40 416.256   8
   6   5  -1 1459.98 573.900   7
  -6  -5   0 39.6903 449.733   6
   6  -5   0-17.0236 245.169   4
  -6   5   0-247.434 470.144   3
   6  -5   0 77.2772 108.179   1
  -6   5   0 130.127 261.807   2
   6   5   0-16.0030 454.992   7
  -6  -5  -1 440.358 500.936   6
   6  -5   1 772.220 351.469   1
  -6   5  -1 968.754 391.259   2
   6   5   1 83.8682 325.149   7
  -6  -5  -2-37.6144 216.274   6
   6  -5   2 172.213 336.842   1
  -6   5  -2 739.016 368.567   2
   6   5   2 661.501 397.548   7
  -6  -5  -3 231.337 377.373   6
   6   5   3 1066.67 434.581   1
   6  -5   3 806.666 390.033   1
  -6   5  -3 1195.98 538.607   2
   6   5   3 1006.34 621.795   7
  -6  -5  -4 773.483 402.614   6
   6  -5   4 651.505 266.256   1
  -6   5  -4 304.444 492.856   2
   6   5   4 522.653 470.361   1
   6   5   4 1174.21 593.143   7
  -6  -5  -5-358.695 494.055   6
   6  -5   5 195.560 402.086   1
  -6   5  -5 627.793 456.459   2
   6   5   5-347.984 267.361   1
   6   5   5 453.863 473.511   7
  -6  -5  -6 989.065 646.178   6
   6  -5   6 677.461 528.206   1
  -6   5  -6 2283.06 783.107   2
   6   5   6 1071.50 494.198   1
   6   5   6 1310.83 500.462   7
  -6  -5  -7 291.735 343.901   6
   6  -5   7 918.534 497.620   1
  -6   5  -7 1029.21 605.340   2
   6   5   7 866.582 601.454   1
   6   5   7 910.751 544.809   7
   6   5   8 1082.29 519.554   7
   6   5   9 1526.90 699.034   7
  -6  -6  10-197.112 567.933   5
   6   6 -10 261.812 428.075   7
  -6  -6  10 575.256 337.566   1
  -6  -6   9-325.039 328.310   5
   6   6  -9 272.435 459.948   7
   6  -6  -8 951.905 561.847   6
  -6  -6   8 273.407 482.450   5
   6   6  -8 690.138 623.702   7
   6  -6  -7-774.842 412.071   6
  -6   6   7 848.308 615.053   3
  -6  -6   7-166.546 403.425   5
   6   6  -7 892.001 464.782   7
   6  -6  -6 100.194 449.693   6
  -6   6   6 482.791 537.382   3
  -6  -6   6 126.439 342.849   5
   6   6  -6-358.876 276.049   7
  -6  -6   5 208.353 153.725   6
   6  -6  -5-317.256 389.213   6
  -6   6   5 560.766 597.205   3
  -6  -6   5 447.955 309.577   5
   6  -6  -5 149.337 257.312   8
   6   6  -5-91.9257 459.823   7
  -6  -6   4 399.555 375.476   6
   6  -6  -4-202.387 410.662   6
  -6   6   4-124.608 581.671   3
   6  -6  -4 24.7518 329.295   8
   6   6  -4 11.4435 430.406   7
  -6  -6   3 163.372 321.325   6
   6  -6  -3 1153.57 340.788   6
   6  -6  -3 397.256 305.004   8
   6   6  -3 1036.27 503.266   7
  -6  -6   2 77.5919 211.153   6
  -6   6   2-63.6100 370.200   3
  -6   6   2 400.639 343.241   2
   6  -6  -2 35.6393 350.020   8
   6   6  -2-144.586 278.071   7
  -6  -6   1 404.815 550.321   6
  -6   6   1 256.960 432.767   3
  -6   6   1 576.436 489.064   2
   6  -6  -1 916.641 407.767   8
   6  -6  -1 473.929 223.567   1
   6   6  -1 1565.22 617.690   7
  -6  -6   0 1066.73 387.894   6
  -6   6   0 1148.07 643.713   3
  -6   6   0 1185.72 643.444   2
   6  -6   0 423.747 245.658   1
   6  -6   0 903.953 460.268   8
   6   6   0 1339.84 658.381   7
  -6  -6  -1 706.639 407.088   6
  -6   6  -1 187.599 337.078   2
   6  -6   1-139.193 174.358   1
   6   6   1-26.8644 453.775   7
  -6  -6  -2-470.593 419.287   6
   6  -6   2 243.780 285.125   1
  -6   6  -2-309.123 427.183   2
   6   6   2-182.263 394.054   7
  -6  -6  -3-223.292 382.038   6
   6  -6   3 254.335 263.666   1
  -6   6  -3-6.87116 326.992   2
  -6  -6  -4 6.72852 120.522   6
   6  -6   4 345.936 221.872   1
  -6   6  -4 85.6731 420.636   2
   6   6   4 577.204 502.734   7
   6  -6   5 794.405 492.588   1
   6   6   5 604.676 715.987   7
   6   6   6 285.508 301.054   7
  -6  -7   5-308.108 491.389   5
   6  -7  -5-1379.07 558.054   8
   6  -7  -4 586.005 607.547   8
   6  -7  -3 809.024 430.607   8
  -6  -7   2 757.788 426.281   6
   6  -7  -2 810.325 573.797   8
  -6  -7   1-530.239 348.390   6
   6  -7  -1 759.624 447.853   8
  -6  -7   0 816.572 471.494   6
  -6  -7  -1 556.603 425.668   6
   6  -7   1-112.573 294.274   1
   6  -7   2 71.0832 247.326   1
  -7   0  14-795.610 574.284   5
   7   0 -14-728.140 746.343   4
  -7   0  13 1695.74 660.645   5
   7   0 -13 3155.53 971.197   4
  -7   0  12 33.5331 251.291   5
   7   0 -12-218.366 401.814   4
  -7   0  11 327.293 399.417   5
   7   0 -11 145.400 445.424   4
  -7   0  10 17751.2 1581.30   5
   7   0 -10 15673.2 1798.85   4
  -7   0   9 2342.02 565.363   5
   7   0  -9 2230.01 780.597   4
   7   0  -8 6746.09 1141.45   4
  -7   0   8 7449.31 1007.91   5
   7   0  -7 1801.83 690.178   4
  -7   0   7 1682.35 508.887   5
   7   0  -6 6525.98 1093.16   4
  -7   0   6 7031.86 873.438   5
   7   0  -5 1670.46 653.841   4
  -7   0   5 1066.66 429.000   5
   7   0  -5 1264.21 268.947   1
   7   0  -4 4316.45 853.165   4
   7   0  -4 5100.36 544.657   1
  -7   0   4 4725.64 641.051   3
  -7   0   4 4445.82 690.041   5
   7   0  -3 1561.70 332.972   1
   7   0  -3 1201.85 615.730   4
  -7   0   3 860.035 338.772   3
  -7   0   3 1026.26 360.701   5
  -7   0   2 17204.4 1113.64   3
   7   0  -2 17223.4 1080.68   1
  -7   0   2 15499.9 1162.02   5
  -7   0   1 9508.01 832.795   3
   7   0  -1 9922.66 867.094   1
  -7   0   1 9925.60 925.305   5
  -7   0   1 9765.42 873.354   2
   7   0  -1 10221.6 1349.29   4
   7   0   0 1539.04 445.558   1
  -7   0   0 1836.28 406.514   2
  -7   0   0 2060.81 494.127   5
   7   0   1 64773.0 2359.04   1
  -7   0  -1 61645.3 2195.19   2
  -7   0  -1 62356.6 2348.80   6
   7   0   2 6909.25 841.819   1
  -7   0  -2 6912.74 760.459   2
  -7   0  -2 6967.70 816.737   6
  -7   0  -3 620.948 314.182   6
   7   0   3 613.293 401.329   1
  -7   0  -3 276.815 336.046   2
   7   0   4 7947.52 1014.82   1
  -7   0  -4 6556.80 804.342   2
  -7   0  -4 7175.23 831.497   6
  -7   0  -5 153.967 214.693   6
   7   0   5 242.474 398.205   1
  -7   0  -5 245.145 204.710   2
  -7   0  -6 272.985 217.266   6
   7   0   6 887.203 447.755   1
  -7   0  -6 192.010 250.284   2
   7   0   7 9222.04 1155.33   1
  -7   0  -7 9381.50 1047.61   2
  -7   0  -7 9403.92 991.491   6
  -7   0  -8 16.5406 249.452   6
   7   0   8-286.264 429.864   1
  -7   0  -8 73.5760 207.639   2
  -7   0  -9 194.112 288.983   6
   7   0   9 648.570 356.745   1
  -7   0  -9 1144.87 483.030   2
   7   0  10 61.0160 309.574   1
  -7   0 -10-59.4093 135.559   2
  -7   0 -11-760.653 376.214   2
  -7   1  14-655.117 422.792   5
  -7  -1  14 262.334 465.140   5
   7   1 -14-436.247 391.446   4
   7  -1 -14 509.840 611.053   4
  -7   1  13 581.959 448.146   5
  -7  -1  13 904.962 464.295   5
   7   1 -13 1112.62 635.819   4
   7  -1 -13 203.719 258.988   4
  -7   1  12 980.281 523.575   5
  -7  -1  12 1027.34 645.343   5
   7   1 -12 953.223 613.377   4
   7  -1 -12 1468.39 685.200   4
  -7   1  11 253.095 314.937   5
  -7  -1  11-2.87424 324.971   5
   7   1 -11-398.147 445.295   4
   7  -1 -11 918.358 547.218   4
  -7   1  10 552.074 428.545   5
  -7  -1  10-166.946 219.423   5
   7   1 -10 18.7608 341.473   4
   7  -1 -10 462.507 640.398   4
  -7   1   9 5348.72 901.887   5
  -7  -1   9 4069.49 759.551   5
   7   1  -9 6060.52 1131.33   4
   7  -1  -9 6010.32 1168.05   4
   7  -1  -8 365.496 459.274   4
  -7   1   8-318.680 308.973   5
  -7  -1   8 38.2578 260.275   5
   7   1  -8-503.284 398.191   4
   7   1  -7 2076.92 718.028   4
   7  -1  -7 2446.96 682.562   4
  -7   1   7 3184.47 709.652   5
  -7  -1   7 2554.84 662.906   5
   7   1  -6 465.649 430.577   4
   7  -1  -6-461.156 539.729   4
  -7   1   6 232.175 301.830   5
  -7  -1   6 399.899 297.884   5
   7   1  -5 197.763 404.621   4
   7  -1  -5 224.042 278.868   4
  -7   1   5 1093.35 344.795   5
  -7  -1   5 1423.28 521.762   5
   7   1  -4 5368.34 1009.55   4
   7  -1  -4 5491.96 1002.93   4
   7   1  -4 6313.62 706.386   1
  -7  -1   4 6097.68 602.278   3
   7  -1  -4 5564.44 502.063   1
  -7   1   4 5595.27 710.345   5
  -7   1   4 4844.48 782.839   3
  -7  -1   4 5648.04 789.362   5
   7   1  -3 13156.9 1022.17   1
  -7  -1   3 14034.2 873.792   3
  -7   1   3 14147.6 1192.42   3
   7  -1  -3 14645.9 871.024   1
  -7   1   3 14037.8 1076.12   5
  -7  -1   3 14991.1 1222.02   5
   7  -1  -3 13827.1 640.012   8
   7   1  -3 14442.4 1505.57   4
   7  -1  -3 14303.3 1566.80   4
   7   1  -2 9562.80 1280.67   4
   7  -1  -2 7532.99 1196.42   4
  -7  -1   2 9369.68 701.850   3
   7   1  -2 10740.9 931.353   1
  -7   1   2 10738.0 1013.80   3
   7  -1  -2 9840.43 779.174   1
  -7   1   2 8896.55 851.937   5
  -7  -1   2 10058.9 1000.98   5
  -7   1   2 9284.64 944.698   2
   7  -1  -1 8658.74 1215.93   4
  -7   1   1 9349.13 945.063   3
   7   1  -1 11083.6 992.512   1
  -7   1   1 10828.2 902.154   5
   7  -1  -1 10939.3 863.127   1
  -7  -1   1 10340.1 1019.18   5
  -7   1   1 11417.2 1040.41   2
   7   1  -1 9914.93 1284.66   4
  -7  -1   1 11005.2 1035.28   6
  -7   1   0 16604.7 1263.35   3
   7   1   0 18807.2 1304.88   1
  -7   1   0 17927.9 1121.46   5
   7  -1   0 17567.1 1140.76   1
  -7   1   0 16889.4 1278.39   2
   7   1   0 17084.6 1664.99   4
  -7  -1   0 15411.5 1217.18   6
   7   1   1 29417.6 1692.59   1
   7  -1   1 31955.9 1590.36   1
  -7   1  -1 26123.5 1338.85   5
  -7  -1  -1 28696.5 1324.07   2
  -7   1  -1 27124.8 1603.33   2
  -7  -1  -1 29123.2 1695.27   6
   7   1   2 11957.9 1147.46   1
   7  -1   2 14792.7 1152.94   1
  -7   1  -2 13155.2 972.147   5
  -7  -1  -2 15025.0 986.416   2
  -7   1  -2 15428.3 1275.46   2
  -7  -1  -2 15117.8 1242.55   6
   7   1   3 27423.4 1723.54   1
   7  -1   3 25769.6 1560.67   1
  -7   1  -3 28696.9 1384.50   5
  -7  -1  -3 28480.2 1397.15   2
  -7   1  -3 27197.6 1662.97   2
  -7  -1  -3 28828.8 1722.53   6
  -7  -1  -4 1827.05 533.898   6
   7   1   4 2504.19 618.398   1
   7  -1   4 2012.97 527.551   1
  -7  -1  -4 2349.04 413.865   2
  -7   1  -4 1835.67 462.542   2
  -7   1  -5 2622.06 558.058   6
  -7  -1  -5 2911.45 562.262   6
   7   1   5 3120.03 690.413   1
   7  -1   5 4337.17 758.224   1
  -7  -1  -5 3360.90 580.480   2
  -7   1  -5 3006.81 703.964   2
  -7   1  -6 621.269 260.990   6
  -7  -1  -6 595.037 333.218   6
   7   1   6 360.743 500.210   1
   7  -1   6 850.633 520.368   1
  -7  -1  -6 668.139 275.097   2
  -7   1  -6 789.451 356.251   2
  -7   1  -7 3462.36 542.239   6
  -7  -1  -7 3418.97 703.644   6
   7   1   7 3168.30 729.012   1
   7  -1   7 3546.36 687.143   1
  -7   1  -7 2888.57 692.050   2
  -7  -1  -8 587.894 328.088   6
   7   1   8 1189.96 475.690   1
   7  -1   8 815.704 520.119   1
  -7   1  -8 1361.77 453.887   2
  -7  -1  -9 228.053 344.975   6
   7   1   9 263.467 409.764   1
   7  -1   9 1158.36 517.886   1
  -7   1  -9 223.350 383.979   2
  -7  -1 -10 1498.91 509.534   6
   7   1  10 607.296 595.237   1
   7  -1  10 913.806 555.359   1
  -7   1 -10 104.926 484.781   2
  -7  -1 -11 218.267 417.786   6
  -7   1 -11 879.524 552.643   2
  -7   1 -12 20.7901 247.503   2
  -7  -2  14 995.057 499.918   5
   7   2 -14 47.9290 633.806   4
   7  -2 -14 1380.95 667.096   4
  -7   2  13 3.48404 503.218   5
  -7  -2  13 675.614 621.299   5
   7   2 -13 1157.67 721.316   4
   7  -2 -13 748.081 803.121   4
  -7   2  12 164.018 217.395   5
  -7  -2  12 879.500 454.820   5
   7   2 -12 583.182 509.296   4
   7  -2 -12 587.952 575.727   4
  -7   2  11-2.96582 228.986   5
  -7  -2  11 197.470 299.266   5
   7   2 -11 260.214 436.162   4
   7  -2 -11-55.4566 461.477   4
  -7   2  10-150.806 332.829   5
  -7  -2  10 480.155 395.096   5
   7   2 -10 240.704 240.462   4
   7  -2 -10 486.570 580.074   4
  -7   2   9 740.365 329.032   5
  -7  -2   9 1223.54 598.802   5
   7   2  -9 824.246 338.709   7
   7   2  -9 1517.80 561.605   4
   7  -2  -9 81.5953 589.649   4
   7  -2  -8 3654.51 880.224   4
  -7   2   8 4885.91 823.488   5
  -7  -2   8 5894.68 921.466   5
   7   2  -8 5795.63 800.046   7
   7   2  -8 3039.49 856.685   4
   7  -2  -7 43.2754 425.087   4
  -7   2   7 278.220 387.679   5
  -7  -2   7 19.1068 349.461   5
   7   2  -7-65.6149 239.953   4
   7   2  -6 3530.99 883.707   4
   7  -2  -6 4081.14 962.829   4
  -7   2   6 3975.94 667.120   5
  -7  -2   6 3940.50 742.348   5
   7   2  -5 4696.30 900.557   4
   7  -2  -5 4512.26 909.085   4
  -7   2   5 5269.50 726.280   5
  -7  -2   5 4016.02 729.499   5
  -7   2   4 17496.3 1497.58   3
  -7   2   4 16596.3 1211.54   5
   7  -2  -4 17401.6 841.005   1
  -7  -2   4 16869.1 1395.01   5
   7  -2  -4 16887.7 932.081   8
   7   2  -4 16237.2 1614.59   4
   7  -2  -4 18306.4 1790.98   4
   7   2  -3 13227.9 1152.07   1
  -7   2   3 11940.2 1275.68   3
  -7   2   3 12227.1 993.218   5
   7  -2  -3 13038.0 822.039   1
  -7  -2   3 12445.0 1179.56   5
   7  -2  -3 13660.6 888.991   8
   7   2  -3 13771.5 1419.60   4
   7  -2  -3 12539.4 1511.70   4
  -7  -2   3 13376.0 1169.94   6
   7   2  -2 14730.3 1228.42   1
  -7   2   2 13727.2 1303.12   3
  -7   2   2 14583.7 1027.48   5
   7  -2  -2 14542.4 893.785   1
  -7   2   2 14349.2 1245.79   2
   7   2  -2 12555.2 1341.29   4
   7  -2  -2 11975.5 1485.12   4
  -7  -2   2 15540.2 1242.76   6
  -7  -2   1 5711.15 801.041   6
   7   2  -1 4909.99 946.431   4
   7  -2  -1 3095.90 813.664   4
   7   2  -1 7123.70 924.351   1
  -7   2   1 3723.48 716.144   3
   7  -2  -1 5396.17 592.402   1
  -7   2   1 4326.64 564.143   5
  -7   2   1 5390.48 852.043   2
  -7  -2   0 1327.49 436.275   6
   7   2   0 629.404 454.783   4
  -7   2   0 189.188 337.165   3
  -7   2   0 1180.47 318.881   5
  -7   2   0 779.413 411.095   2
   7  -2   0 1021.86 288.335   1
   7   2   0 1084.54 454.926   1
  -7  -2  -1 409.752 320.194   6
   7   2   1 330.586 416.714   4
  -7   2  -1 60.6565 112.656   5
  -7   2  -1 163.585 245.748   2
   7  -2   1 379.355 259.388   1
   7   2   1 496.658 365.103   1
   7   2   2 21087.2 1587.26   1
   7  -2   2 22140.6 1346.01   1
  -7   2  -2 20578.4 1517.28   2
  -7  -2  -2 17689.3 1396.98   6
   7   2   3 6549.95 948.484   1
   7  -2   3 7115.69 821.359   1
  -7   2  -3 7559.11 980.867   2
  -7  -2  -3 7091.65 934.380   6
  -7  -2  -4 6443.63 908.415   6
   7   2   4 7148.79 1000.19   1
   7  -2   4 7278.83 864.836   1
  -7   2  -4 5673.27 861.412   2
  -7  -2  -5 775.343 406.219   6
   7   2   5 149.609 415.651   1
   7  -2   5 207.056 297.118   1
  -7   2  -5 236.685 260.848   2
  -7  -2  -6 901.220 489.695   6
   7   2   6 1785.94 614.918   1
   7  -2   6 1172.44 437.155   1
  -7   2  -6 997.385 523.905   2
  -7  -2  -7 335.634 257.515   6
   7   2   7 53.9998 295.548   1
   7  -2   7-21.1594 476.980   1
  -7   2  -7-143.800 345.139   2
  -7  -2  -8 10.7788 125.568   6
   7   2   8-264.570 411.797   1
   7  -2   8-248.717 407.554   1
  -7   2  -8 214.496 350.461   2
  -7  -2  -9 157.763 176.169   6
   7   2   9-474.388 357.961   1
   7  -2   9 139.662 490.471   1
  -7   2  -9 406.478 266.177   2
  -7  -2 -10-671.640 376.718   6
   7   2  10 425.088 292.602   1
   7  -2  10 467.035 427.000   1
  -7   2 -10 552.227 415.336   2
  -7  -2 -11 643.596 536.477   6
   7   3 -14-569.009 431.368   4
  -7   3  13 771.512 484.386   5
  -7  -3  13 409.577 352.139   5
   7   3 -13 124.274 563.556   4
   7  -3 -13 584.596 482.459   4
  -7   3  12 920.331 611.454   5
  -7  -3  12-185.429 387.282   5
   7   3 -12 366.391 305.994   4
   7  -3 -12 910.212 689.276   4
  -7   3  11 1238.21 608.540   5
  -7  -3  11 1691.04 565.532   5
   7   3 -11 1009.08 503.049   4
   7  -3 -11 583.446 707.010   4
  -7   3  10 1043.14 340.351   5
  -7  -3  10 272.403 475.332   5
   7   3 -10 228.515 301.098   7
   7   3 -10 200.407 506.821   4
   7  -3 -10 456.405 530.362   4
  -7   3   9 188.980 271.086   5
  -7  -3   9-296.084 446.203   5
   7   3  -9 527.786 501.378   7
   7   3  -9-561.235 459.059   4
   7  -3  -9 967.111 526.620   4
   7  -3  -8 252.170 432.934   4
  -7   3   8 1095.09 513.033   5
  -7  -3   8 1080.87 520.565   5
   7   3  -8 741.082 489.930   7
   7   3  -8 525.342 421.321   4
   7  -3  -7 588.056 493.569   4
  -7   3   7 64.6573 234.171   5
  -7  -3   7 194.744 231.727   5
   7   3  -7 509.085 446.812   7
   7   3  -7-167.654 232.919   4
   7  -3  -6 2560.51 765.240   4
  -7   3   6 3099.41 660.209   5
  -7  -3   6 2882.25 689.461   5
   7   3  -6 2771.58 641.977   7
   7   3  -6 3560.51 835.858   4
  -7   3   5 12494.6 1419.74   3
  -7   3   5 14448.5 1171.76   5
  -7  -3   5 12321.6 1296.74   5
   7   3  -5 13423.3 1420.23   4
   7  -3  -5 15290.2 1058.79   8
   7  -3  -5 12118.2 1550.10   4
   7   3  -4 5596.74 897.969   4
   7  -3  -4 4831.02 1025.45   4
  -7   3   4 4430.32 892.538   3
  -7   3   4 5746.38 729.375   5
  -7  -3   4 6805.63 979.169   5
   7  -3  -4 5906.04 686.717   8
  -7  -3   4 5567.27 817.733   6
  -7   3   3 15051.1 1466.98   3
  -7   3   3 13117.4 1021.00   5
  -7  -3   3 13610.1 1336.71   5
   7  -3  -3 14830.8 857.576   1
   7  -3  -3 13781.6 1076.54   8
   7   3  -3 13750.1 1394.54   4
   7  -3  -3 13876.9 1656.51   4
  -7  -3   3 15056.2 1286.21   6
  -7  -3   2 706.281 338.540   6
   7   3  -2 291.186 389.542   4
   7  -3  -2 176.641 573.893   4
  -7   3   2 388.657 394.951   3
  -7   3   2 313.649 220.455   5
  -7   3   2 304.901 315.069   2
   7   3  -2-51.7869 302.876   1
   7  -3  -2 706.133 247.438   1
  -7  -3   1 3786.50 694.396   6
   7   3  -1 3598.54 794.365   4
   7  -3  -1 2100.54 722.188   4
  -7   3   1 2999.98 689.708   3
  -7   3   1 3908.03 482.993   5
  -7   3   1 3024.70 649.773   2
   7   3  -1 2786.72 607.298   1
   7  -3  -1 2486.57 424.800   1
  -7  -3   0 6368.97 888.835   6
   7   3   0 4850.68 798.418   4
  -7   3   0 6629.37 1010.69   3
   7  -3   0 7203.25 702.759   1
  -7   3   0 7474.18 950.436   2
   7   3   0 6529.61 931.561   1
  -7  -3  -1-72.7334 286.799   6
   7   3   1-274.300 417.801   4
  -7   3  -1-41.4290 361.834   2
   7   3   1-18.3982 266.621   1
   7  -3   1-313.386 274.733   1
  -7  -3  -2 4751.38 810.479   6
   7   3   2 4828.36 884.406   4
   7  -3   2 6548.16 771.782   1
  -7   3  -2 5546.52 922.226   2
   7   3   2 6357.01 997.012   1
  -7  -3  -3 2851.04 615.284   6
  -7   3  -3 2756.63 700.335   2
   7  -3   3 2997.90 536.631   1
   7   3   3 2415.12 726.237   1
  -7  -3  -4 1243.23 665.275   6
  -7   3  -4 1696.72 565.036   2
   7  -3   4 1033.81 426.919   1
   7   3   4 1279.23 521.087   1
  -7  -3  -5 1944.98 576.510   6
  -7   3  -5 2615.60 685.746   2
   7  -3   5 2928.33 605.275   1
   7   3   5 2247.34 703.837   1
  -7  -3  -6 2022.74 571.723   6
  -7   3  -6 2597.54 721.479   2
   7  -3   6 2029.91 556.878   1
   7   3   6 1527.22 581.493   1
   7   3   7 1519.19 600.260   1
  -7  -3  -7 2313.66 588.599   6
  -7   3  -7 1932.58 572.904   2
   7  -3   7 2900.42 655.830   1
   7   3   8 862.006 577.391   1
  -7  -3  -8 806.978 366.978   6
  -7   3  -8-19.7975 229.518   2
   7  -3   8 129.870 448.217   1
   7   3   9 1038.54 570.900   1
  -7  -3  -9 1003.45 409.632   6
  -7   3  -9 321.434 390.855   2
   7  -3   9-209.475 330.568   1
  -7  -3 -10 2099.20 677.433   6
   7   4 -13 222.196 425.356   4
   7  -4 -13 327.999 893.440   4
  -7   4  12 58.6078 321.368   5
  -7  -4  12 537.174 720.366   5
   7   4 -12 1405.99 795.137   4
   7  -4 -12 453.183 622.724   4
  -7   4  11 57.7041 190.003   5
   7   4 -11 619.966 411.158   4
   7  -4 -11 957.553 495.362   4
  -7   4  10 365.965 269.167   5
  -7  -4  10 137.690 331.676   5
   7   4 -10 45.4032 553.290   7
   7   4 -10 64.0525 153.637   4
   7  -4 -10 540.857 509.761   4
  -7   4   9 2730.87 646.671   5
  -7  -4   9 1328.33 553.791   5
   7   4  -9 2615.25 677.333   7
   7   4  -9 1836.68 611.850   4
   7  -4  -9 1410.55 632.444   4
   7  -4  -8-128.822 483.184   4
  -7   4   8 477.894 263.919   5
  -7  -4   8 208.235 237.289   5
   7   4  -8-65.9217 345.054   7
   7   4  -8 666.789 502.706   4
   7  -4  -7 1279.30 769.699   4
  -7   4   7 898.791 336.086   5
  -7  -4   7 521.792 446.431   5
   7   4  -7 1433.17 662.793   7
   7   4  -7 168.784 358.112   4
   7  -4  -6 2006.38 805.543   4
  -7   4   6 981.647 466.347   3
  -7   4   6 429.228 380.734   5
  -7  -4   6 1502.61 467.131   5
   7   4  -6 752.141 482.599   7
   7   4  -6 1708.36 497.218   4
   7  -4  -5-41.1988 411.418   4
  -7   4   5 950.879 464.967   3
  -7   4   5 1220.43 365.044   5
  -7  -4   5 680.734 362.786   5
   7  -4  -5 689.875 285.120   8
   7   4  -5 995.189 494.428   7
  -7  -4   5 736.438 529.951   6
   7   4  -5 782.805 372.433   4
  -7  -4   4 511.106 296.739   6
   7  -4  -4 328.221 423.054   4
  -7   4   4 295.092 393.085   3
  -7  -4   4-227.656 319.779   5
   7  -4  -4 551.445 266.045   8
   7   4  -4-280.772 547.748   7
   7   4  -4 507.698 437.792   4
   7   4  -3-14.4602 169.909   4
  -7  -4   3 294.238 367.927   6
   7  -4  -3 700.210 468.783   4
  -7   4   3-43.7342 516.791   3
   7  -4  -3 442.228 338.425   8
   7   4  -3 1189.46 531.494   7
  -7  -4   2 3899.24 731.006   6
   7  -4  -2 3242.88 880.939   4
   7  -4  -2 2666.88 434.790   1
  -7   4   2 2884.17 805.143   3
  -7   4   2 3132.03 637.817   2
   7  -4  -2 3767.79 655.553   8
   7   4  -2 4763.66 892.160   7
  -7  -4   1 6026.42 916.322   6
   7  -4  -1 4299.20 925.255   4
  -7   4   1 4833.18 930.582   3
   7  -4  -1 5701.46 630.993   1
  -7   4   1 5103.89 887.727   2
  -7  -4   0 739.826 423.822   6
   7  -4   0 405.791 270.780   1
  -7   4   0 39.8829 220.785   3
  -7   4   0 352.020 353.200   2
   7   4   0 666.609 518.525   1
  -7  -4  -1 3848.86 778.151   6
   7  -4   1 4748.42 639.791   1
  -7   4  -1 3208.03 711.816   2
   7   4   1 4691.46 884.315   1
  -7  -4  -2 192.315 409.064   6
   7  -4   2 41.5604 250.954   1
  -7   4  -2 908.942 419.224   2
   7   4   2 536.595 363.170   1
  -7  -4  -3 1423.32 437.049   6
   7  -4   3 2257.14 537.282   1
  -7   4  -3 2143.96 566.971   2
   7   4   3 1914.12 666.104   1
  -7  -4  -4 3096.67 840.970   6
   7  -4   4 5158.14 756.932   1
  -7   4  -4 4965.35 1030.34   2
   7   4   4 4195.54 1035.64   1
   7  -4   5 3325.71 679.304   1
  -7  -4  -5 3604.89 777.004   6
  -7   4  -5 3860.03 831.276   2
   7   4   5 3179.55 876.242   1
   7  -4   6 2378.47 591.572   1
  -7  -4  -6 2641.11 772.427   6
  -7   4  -6 2402.88 706.661   2
   7   4   6 2312.49 776.471   1
  -7   4  -7-126.067 437.229   2
   7   4   7 801.394 640.817   1
   7  -4   7-526.752 314.149   1
  -7   5  11 252.112 484.590   5
  -7   5  10 1613.89 644.208   5
  -7  -5  10 1375.44 712.523   5
   7   5 -10 783.471 404.186   7
   7  -5 -10 135.332 456.422   4
  -7   5   9-820.793 399.771   5
  -7  -5   9-3.28282 121.354   5
   7   5  -9-843.639 600.412   7
   7  -5  -8 859.307 818.411   4
  -7   5   8 1190.86 573.294   3
  -7   5   8 773.461 432.245   5
  -7  -5   8 1033.79 456.917   5
   7   5  -8 32.1638 291.033   7
   7  -5  -7 507.300 382.575   4
  -7   5   7 413.021 356.004   3
  -7  -5   7 178.098 252.467   5
   7   5  -7-431.036 377.399   7
   7  -5  -6-106.780 166.609   4
  -7   5   6-395.674 297.585   3
  -7  -5   6 43.4992 101.941   5
   7   5  -6 168.656 342.787   7
  -7  -5   5 56.4456 273.162   6
   7  -5  -5 215.009 268.529   4
  -7   5   5-219.974 331.329   3
  -7  -5   5-336.489 251.308   5
   7  -5  -5 506.568 284.505   8
   7   5  -5 608.996 489.447   7
  -7  -5   4 913.157 437.253   6
   7  -5  -4-289.281 438.754   4
  -7   5   4-537.754 566.336   3
  -7  -5   4 713.307 533.515   5
   7  -5  -4 383.286 301.925   8
   7   5  -4 553.617 388.967   7
  -7  -5   3 1973.32 670.676   6
   7  -5  -3 806.971 726.235   4
  -7   5   3 2056.95 672.930   3
   7  -5  -3 336.181 454.838   8
   7   5  -3 1160.65 626.719   7
  -7  -5   2-35.7989 312.277   6
   7  -5  -2 265.189 271.876   4
  -7   5   2-731.354 362.355   3
  -7   5   2-217.155 259.705   2
   7  -5  -2 38.5501 182.052   8
   7   5  -2-521.291 475.225   7
  -7  -5   1 602.310 391.026   6
   7  -5  -1-167.141 510.479   4
  -7   5   1 681.737 431.526   3
   7  -5  -1 677.155 383.980   1
  -7   5   1 777.356 611.834   2
   7  -5  -1 966.741 407.051   8
   7   5  -1 685.820 665.862   7
   7  -5   0-19.8716 392.069   4
  -7   5   0-273.905 379.634   3
   7  -5   0 367.448 239.809   1
  -7   5   0-251.299 231.916   2
   7   5   0-241.071 292.353   7
  -7  -5  -1 1267.69 511.363   6
   7  -5   1 390.286 264.354   1
  -7   5  -1 1057.03 475.973   2
   7   5   1 445.824 446.018   7
  -7  -5  -2 686.482 439.816   6
   7  -5   2 542.366 269.641   1
  -7   5  -2 259.011 425.227   2
   7   5   2 772.140 538.261   7
  -7  -5  -3 1185.96 486.317   6
   7  -5   3 1011.23 350.643   1
  -7   5  -3 1264.76 475.952   2
   7   5   3 633.253 388.247   1
   7   5   3 1672.12 719.906   7
  -7  -5  -4 519.058 440.152   6
   7  -5   4-519.097 271.622   1
  -7   5  -4-398.723 354.783   2
   7   5   4 20.3764 180.258   1
   7   5   4-683.934 466.999   7
  -7  -5  -5 1380.44 612.353   6
   7  -5   5 687.066 459.474   1
  -7   5  -5 1176.24 722.005   2
   7   5   5 1210.18 540.001   1
   7   5   5 2122.03 666.273   7
   7  -5   6 980.847 427.677   1
   7   5   6 231.260 407.097   7
   7   5   7 2933.52 750.491   7
   7  -6  -7 124.017 302.705   6
  -7  -6   7-506.758 450.403   5
   7  -6  -6-791.212 680.491   6
  -7  -6   6 521.867 445.932   5
   7   6  -6-199.182 507.999   7
  -7  -6   5 472.873 503.702   6
  -7  -6   5-28.2677 167.018   5
   7  -6  -5-52.4587 314.414   8
   7   6  -5 62.1276 285.434   7
  -7  -6   4 235.499 445.182   6
  -7   6   4-25.2451 504.781   3
  -7  -6   4-577.100 658.531   5
   7  -6  -4-695.623 399.250   8
   7   6  -4 256.056 427.719   7
  -7  -6   3 265.360 416.695   6
  -7   6   3 532.375 689.197   3
   7  -6  -3-660.828 612.915   8
   7   6  -3 325.090 350.862   7
  -7  -6   2 1059.33 500.586   6
  -7   6   2-892.526 523.800   3
  -7   6   2 315.533 454.012   2
   7  -6  -2 231.855 360.405   8
   7   6  -2 590.755 505.392   7
  -7  -6   1 529.554 214.644   6
  -7   6   1 661.995 602.817   3
  -7   6   1-385.220 538.913   2
   7  -6  -1 6.86123 102.231   8
   7   6  -1 778.381 502.663   7
  -7  -6   0 341.638 446.197   6
  -7   6   0 868.584 563.987   2
   7  -6   0 754.599 459.760   8
   7   6   0 781.287 496.204   7
  -7  -6  -1 1517.07 638.681   6
   7  -6   1 460.573 486.602   1
   7  -6   2-4.45035 200.289   4
   7  -6   2 290.717 336.099   1
   7  -6   3 41.5035 267.028   1
   7  -6   4 149.232 293.017   1
  -8   0  13 1317.70 492.451   5
   8   0 -13 877.154 667.922   4
  -8   0  12 2407.55 718.628   5
   8   0 -12 2323.16 750.711   4
  -8   0  11 616.503 308.465   5
   8   0 -11 357.912 621.713   4
  -8   0  10 2755.21 781.031   5
   8   0 -10 323.477 513.755   4
  -8   0   9 7022.44 1016.76   5
   8   0  -9 7538.26 1297.97   4
   8   0  -8 965.071 618.834   4
  -8   0   8 2070.59 633.629   5
  -8   0   7 12050.5 1254.69   5
   8   0  -7 13990.6 1689.55   4
   8   0  -6 2106.72 676.827   4
  -8   0   6 814.943 412.978   5
   8   0  -5 1177.37 588.103   4
  -8   0   5 1069.57 397.163   3
  -8   0   5 238.005 261.532   5
   8   0  -4 1209.19 801.250   4
  -8   0   4 1804.00 417.346   3
  -8   0   4 977.344 416.920   5
   8   0  -4 954.871 314.209   1
  -8   0   3 30190.9 1589.25   3
   8   0  -3 34917.9 1604.31   1
  -8   0   3 31528.6 1812.19   5
   8   0  -3 34704.6 2530.40   4
   8   0  -2-43.2522 217.430   1
   8   0  -2-499.166 533.960   4
  -8   0   2-443.147 361.974   3
  -8   0   2 81.9103 320.168   5
   8   0  -1 38344.3 1823.44   1
  -8   0   1 39008.1 1954.00   5
   8   0  -1 34091.7 2549.96   4
   8   0   0 2891.93 785.296   4
   8   0   0 2027.99 489.884   1
  -8   0   0 1846.53 473.560   2
  -8   0   0 2185.39 554.792   5
   8   0   1 2757.98 599.615   1
  -8   0  -1 3287.89 578.966   2
  -8   0  -1 2731.08 563.396   5
   8   0   2 2371.49 653.513   1
  -8   0  -2 3441.04 567.935   2
  -8   0  -2 2925.68 642.567   6
  -8   0  -3-12.3864 197.166   6
   8   0   3 80.0305 266.185   1
  -8   0  -3 271.054 287.934   2
  -8   0  -4 224.873 271.352   6
   8   0   4 582.617 354.839   1
  -8   0  -4 281.569 355.739   2
  -8   0  -5 387.058 320.860   6
   8   0   5-175.182 386.851   1
  -8   0  -5-158.164 258.768   2
  -8   0  -6 746.169 355.233   6
   8   0   6 480.780 356.385   1
  -8   0  -6 440.465 346.859   2
  -8   0  -7 530.658 304.027   6
   8   0   7-50.3560 334.520   1
  -8   0  -7 579.095 351.626   2
  -8   0  -8 378.714 428.385   6
   8   0   8 1212.51 517.266   1
   8   0   9 418.162 616.970   1
  -8   1  13 634.894 579.959   5
  -8  -1  13-710.411 577.339   5
   8   1 -13-14.6797 377.274   4
   8  -1 -13 1048.95 904.801   4
  -8   1  12 711.249 398.069   5
  -8  -1  12 229.140 462.756   5
   8   1 -12 908.141 595.732   4
   8  -1 -12 670.255 723.471   4
  -8   1  11 1198.21 517.822   5
  -8  -1  11 1167.43 495.807   5
   8   1 -11 866.156 586.921   4
   8  -1 -11 1487.63 631.643   4
  -8   1  10 3283.57 698.852   5
  -8  -1  10 3888.45 802.441   5
   8   1 -10 4625.55 1022.45   4
   8  -1 -10 4722.27 1326.77   4
   8  -1  -9 3048.01 869.702   4
  -8   1   9 3221.34 786.486   5
  -8  -1   9 2242.12 620.278   5
   8   1  -9 1609.62 604.437   4
   8   1  -8 10175.5 1397.12   4
   8  -1  -8 11807.1 1708.20   4
  -8   1   8 11146.1 1206.53   5
  -8  -1   8 11750.2 1335.00   5
   8   1  -7 5090.41 1052.57   4
   8  -1  -7 4331.64 1026.52   4
  -8   1   7 5086.93 805.395   5
  -8  -1   7 4073.58 755.648   5
   8   1  -6 3932.37 966.873   4
   8  -1  -6 5008.31 1124.00   4
  -8   1   6 3528.80 689.432   5
  -8  -1   6 5059.90 836.497   5
   8   1  -5 1150.18 619.735   4
   8  -1  -5 1623.39 665.108   4
  -8   1   5 415.448 308.426   3
  -8   1   5 1064.10 374.805   5
  -8  -1   5 627.576 339.967   5
   8   1  -4 5724.30 1047.17   4
   8  -1  -4 6114.39 1181.78   4
  -8   1   4 6776.29 880.684   3
  -8   1   4 5313.63 779.265   5
  -8  -1   4 4945.78 836.750   5
   8   1  -4 5122.56 726.713   1
   8   1  -3 4965.87 1017.71   4
   8  -1  -3 4121.42 1028.05   4
  -8   1   3 6567.15 895.113   3
   8  -1  -3 6572.43 668.072   1
  -8   1   3 5816.80 763.691   5
  -8  -1   3 5406.17 845.289   5
   8   1  -3 5768.57 736.399   1
   8   1  -2 23040.7 1490.55   1
  -8   1   2 21239.5 1519.70   3
   8  -1  -2 25576.4 1355.18   1
  -8   1   2 21685.7 1390.22   5
  -8  -1   2 24100.8 1645.39   5
   8   1  -2 21348.1 1985.76   4
   8  -1  -2 22521.7 2130.42   4
   8   1  -1 678.009 276.586   1
   8   1  -1 680.673 629.943   4
   8  -1  -1-471.682 530.799   4
  -8   1   1 405.388 411.526   3
   8  -1  -1 477.830 256.385   1
  -8   1   1 380.791 363.080   2
  -8   1   1 1056.14 349.559   5
  -8  -1   1 356.398 296.428   5
  -8  -1   0 2706.75 575.518   6
   8   1   0 4710.70 742.600   1
   8   1   0 3875.38 1009.44   4
   8  -1   0 4372.45 646.913   1
  -8   1   0 4275.47 707.047   2
  -8   1   0 4302.01 598.497   5
  -8  -1   0 3918.29 771.758   5
  -8  -1  -1 5432.16 790.625   6
   8   1   1 4730.51 808.922   1
  -8  -1  -1 4946.92 625.660   2
   8  -1   1 5603.67 749.625   1
  -8   1  -1 5652.68 718.013   5
  -8   1  -1 5427.24 783.531   2
  -8  -1  -2 2161.11 590.360   6
   8   1   2 2129.87 562.636   1
   8  -1   2 2414.85 594.971   1
  -8   1  -2 1937.75 436.525   5
  -8   1  -2 1346.16 523.585   2
  -8  -1  -3 5811.44 875.483   6
   8   1   3 6013.35 905.241   1
   8  -1   3 7204.19 906.155   1
  -8   1  -3 5078.33 825.761   2
  -8  -1  -4 335.447 264.938   6
   8   1   4 563.614 407.213   1
   8  -1   4 400.167 301.280   1
  -8   1  -4 1094.93 438.015   2
  -8  -1  -5 1698.61 513.360   6
   8   1   5 1268.67 479.784   1
   8  -1   5 2167.78 562.433   1
  -8   1  -5 771.552 356.207   2
  -8  -1  -6 366.118 289.050   6
   8   1   6 838.926 513.763   1
   8  -1   6 1117.34 400.505   1
  -8   1  -6 450.141 350.436   2
  -8  -1  -7 283.687 274.848   6
   8   1   7 256.874 443.240   1
   8  -1   7-135.359 283.552   1
  -8   1  -7 729.963 316.305   2
  -8  -1  -8 927.356 416.272   6
   8   1   8 1095.70 674.734   1
   8  -1   8 1066.56 525.734   1
  -8   1  -8 1694.26 516.945   2
  -8  -1  -9 1773.87 542.083   6
  -8   1  -9 1214.07 568.360   2
  -8  -1 -10 67.6772 198.778   6
  -8   1 -10 273.969 399.786   2
   8   2 -13-19.3555 228.880   4
  -8   2  12 751.449 407.161   5
  -8  -2  12 155.231 324.415   5
   8   2 -12 920.677 650.843   4
   8  -2 -12 326.918 723.928   4
  -8   2  11 1432.38 579.433   5
  -8  -2  11 410.821 536.585   5
   8   2 -11 1031.40 667.843   4
   8  -2 -11 823.418 745.450   4
  -8   2  10 2724.04 691.760   5
  -8  -2  10 3261.25 832.979   5
   8   2 -10 3154.72 848.228   4
   8  -2 -10 2432.08 1069.84   4
   8  -2  -9 218.826 569.437   4
  -8   2   9-417.156 514.435   5
  -8  -2   9 1032.23 427.133   5
   8   2  -9 264.610 195.177   7
   8   2  -9 659.600 477.101   4
   8  -2  -8 2732.02 957.103   4
  -8   2   8 2810.54 605.526   5
  -8  -2   8 3487.39 818.424   5
   8   2  -8 4008.74 910.024   4
   8   2  -7 5455.40 1057.79   4
   8  -2  -7 3923.43 1034.27   4
  -8   2   7 5110.99 840.441   5
  -8  -2   7 3520.41 832.719   5
   8  -2  -6 10571.5 1508.11   4
  -8   2   6 9838.76 1193.77   3
  -8   2   6 10002.4 1081.32   5
  -8  -2   6 11545.8 1254.66   5
   8   2  -6 10801.1 1423.73   4
   8   2  -5 6.77064 385.446   4
   8  -2  -5-113.787 342.169   4
  -8   2   5 188.439 391.320   3
  -8   2   5-348.780 309.261   5
  -8  -2   5 195.441 353.224   5
  -8   2   4 20341.1 1666.02   3
  -8   2   4 20669.4 1407.12   5
  -8  -2   4 19962.8 1582.15   5
   8   2  -4 19549.8 1931.26   4
   8  -2  -4 22722.7 2163.87   4
   8   2  -3 1953.72 767.219   4
   8  -2  -3 586.324 360.053   4
  -8   2   3 1576.34 566.741   3
  -8   2   3 2032.39 484.748   5
  -8  -2   3 1877.51 555.798   5
   8   2  -3 2495.71 576.279   1
  -8  -2   2 2045.17 619.329   6
   8   2  -2 2800.85 755.125   4
   8  -2  -2 4117.45 1003.66   4
  -8   2   2 2253.70 647.044   3
  -8   2   2 3851.94 730.900   2
   8  -2  -2 2888.47 460.823   1
  -8   2   2 3258.59 521.882   5
  -8  -2   2 3014.75 668.906   5
   8   2  -2 3395.30 680.691   1
  -8  -2   1 455.054 340.365   6
   8   2  -1 432.531 545.155   4
   8  -2  -1 55.0998 508.502   4
  -8   2   1-160.992 413.797   3
   8  -2  -1 546.945 290.343   1
  -8   2   1 537.417 278.658   5
  -8   2   1 175.366 346.069   2
   8   2  -1 955.799 526.321   1
  -8  -2   0 1854.24 522.673   6
   8   2   0 2826.61 819.254   4
   8  -2   0 1826.07 440.807   1
  -8   2   0 1423.40 362.615   5
  -8   2   0 2174.14 522.603   2
   8   2   0 2411.15 649.435   1
  -8  -2  -1 2165.67 593.337   6
   8   2   1 1460.28 508.167   4
   8  -2   1 2291.53 480.008   1
  -8   2  -1 1684.19 584.041   2
   8   2   1 1514.25 627.499   1
   8   2   2 3174.47 681.814   1
  -8  -2  -2 3333.37 729.661   6
   8  -2   2 4942.54 725.134   1
  -8   2  -2 3170.05 655.635   2
  -8  -2  -3 2940.29 614.847   6
   8   2   3 2984.44 750.129   1
   8  -2   3 2767.19 560.002   1
  -8   2  -3 3469.18 679.494   2
  -8  -2  -4 387.648 378.471   6
   8   2   4-315.660 364.771   1
   8  -2   4-100.274 303.389   1
  -8   2  -4 100.052 390.050   2
  -8  -2  -5-13.1211 182.866   6
   8   2   5 1398.75 494.651   1
   8  -2   5 848.758 528.054   1
  -8   2  -5 486.921 399.956   2
  -8  -2  -6 663.103 448.202   6
   8   2   6 910.148 390.069   1
   8  -2   6 27.8559 298.685   1
  -8   2  -6 703.571 424.675   2
  -8  -2  -7 671.832 342.160   6
   8   2   7 892.358 467.186   1
   8  -2   7 1228.92 428.890   1
  -8   2  -7 1323.27 591.278   2
  -8  -2  -8 321.769 283.000   6
   8   2   8-132.499 312.161   1
   8  -2   8 246.947 269.245   1
  -8   2  -8 429.666 298.967   2
  -8  -2  -9 254.436 519.166   6
  -8   2  -9 1156.45 541.765   2
   8   3 -13 1674.93 815.015   4
   8   3 -12 279.598 378.266   4
   8  -3 -12 320.628 520.134   4
  -8   3  11-63.3472 390.352   5
  -8  -3  11 743.261 645.240   5
   8   3 -11 887.852 568.895   4
   8  -3 -11 156.154 242.977   4
  -8   3  10 163.364 173.584   5
  -8  -3  10 1232.08 501.143   5
   8   3 -10 299.112 402.840   4
   8  -3 -10 784.086 634.659   4
   8  -3  -9 4520.26 1114.05   4
  -8   3   9 2011.20 639.094   5
  -8  -3   9 4295.48 883.532   5
   8   3  -9 2801.02 717.782   7
   8   3  -9 3246.87 998.434   4
   8  -3  -8 1889.85 670.742   4
  -8   3   8 2223.30 651.149   5
  -8  -3   8 1237.97 685.926   5
   8   3  -8 1470.70 493.245   7
   8   3  -8 493.884 344.627   4
   8  -3  -7 1091.76 706.083   4
  -8   3   7 162.924 497.813   3
  -8   3   7 948.316 474.269   5
  -8  -3   7 706.688 385.735   5
   8   3  -7 1229.92 478.041   7
   8   3  -7 167.689 277.043   4
   8  -3  -6 5224.38 1049.29   4
  -8   3   6 4593.81 938.774   3
  -8   3   6 4531.69 707.395   5
  -8  -3   6 5676.57 969.773   5
   8   3  -6 4241.27 956.486   4
   8   3  -5 8820.18 1255.46   4
   8  -3  -5 9777.04 1541.13   4
  -8   3   5 7015.16 1158.59   3
  -8  -3   5 8793.73 1177.48   5
  -8   3   5 7477.59 899.952   5
   8   3  -4 746.564 478.078   4
   8  -3  -4 1116.37 577.887   4
  -8   3   4 699.647 468.135   3
  -8   3   4 308.459 241.768   5
  -8  -3   4 874.738 413.080   5
  -8  -3   3 5863.65 901.029   6
   8   3  -3 5925.83 1062.14   4
   8  -3  -3 5832.05 1220.72   4
  -8   3   3 6271.45 1102.13   3
  -8   3   3 5101.07 702.814   5
  -8  -3   3 6272.08 995.500   5
  -8  -3   2 4594.02 857.149   6
   8   3  -2 5052.32 940.955   4
   8  -3  -2 5187.92 1161.62   4
  -8   3   2 4647.17 845.586   3
  -8   3   2 5669.84 962.491   2
   8   3  -2 4494.33 847.563   1
  -8  -3   1 243.377 381.853   6
   8   3  -1 395.981 272.413   4
   8  -3  -1-912.120 593.722   4
  -8   3   1 193.324 331.630   3
  -8   3   1-107.816 288.227   2
   8  -3  -1 120.010 232.532   1
   8   3  -1-58.0556 170.175   1
  -8  -3   0 3807.43 823.179   6
   8   3   0 3463.07 784.970   4
   8  -3   0 2846.12 889.306   4
  -8   3   0 3975.47 835.711   3
  -8   3   0 2631.19 624.705   2
   8  -3   0 4003.22 630.293   1
   8   3   0 4418.53 912.331   1
  -8  -3  -1 896.044 439.662   6
   8   3   1 2160.64 643.770   4
  -8   3  -1 1096.31 493.869   2
   8  -3   1 1179.79 335.608   1
   8   3   1 798.041 519.640   1
  -8  -3  -2-244.527 280.455   6
   8   3   2 1109.24 557.463   4
  -8   3  -2 568.743 407.656   2
   8  -3   2 209.469 293.485   1
   8   3   2 624.958 340.711   1
  -8  -3  -3 1794.68 636.060   6
   8   3   3 480.884 344.169   4
  -8   3  -3 1034.17 448.373   2
   8  -3   3 1619.02 402.080   1
   8   3   3 1593.15 696.098   1
  -8  -3  -4 1809.78 596.982   6
  -8   3  -4 2799.90 668.432   2
   8  -3   4 2752.66 656.503   1
  -8  -3  -5 855.265 392.168   6
  -8   3  -5 697.394 462.138   2
   8  -3   5 1671.73 549.235   1
   8   3   5 1499.76 723.029   1
  -8  -3  -6 370.093 264.318   6
  -8   3  -6 583.101 402.163   2
   8  -3   6 307.600 395.317   1
   8   3   6 639.361 459.627   1
  -8  -3  -7 530.239 348.942   6
  -8   3  -7 214.253 250.767   2
   8  -3   7 338.615 389.836   1
   8   3   7 484.748 368.907   1
  -8   4  11 725.832 410.098   5
   8   4 -11 1067.97 539.711   4
   8  -4 -11 509.886 546.389   4
  -8   4  10 105.261 502.125   5
  -8  -4  10 2208.02 756.178   5
   8   4 -10-50.9265 669.757   4
   8  -4 -10 660.421 668.841   4
   8  -4  -9 493.458 720.320   4
  -8   4   9 175.883 336.458   5
  -8  -4   9 696.786 515.124   5
   8   4  -9 962.097 492.564   7
   8   4  -9 834.366 489.209   4
   8  -4  -8 1008.72 851.497   4
  -8   4   8 397.500 744.705   3
  -8   4   8 1488.93 473.171   5
  -8  -4   8 367.601 242.975   5
   8   4  -8 906.464 589.285   7
   8  -4  -7 476.959 523.106   4
  -8   4   7 1682.35 613.723   3
  -8   4   7 1448.84 524.190   5
  -8  -4   7 1319.89 505.772   5
   8   4  -7 1650.51 761.990   7
   8  -4  -6 314.446 797.588   4
  -8   4   6 724.051 527.565   3
  -8  -4   6 481.845 515.780   5
   8   4  -6 351.124 508.914   7
   8  -4  -5 269.811 688.760   4
  -8   4   5 760.900 496.590   3
  -8  -4   5 33.7610 286.372   5
   8   4  -5 32.8618 353.270   7
  -8  -4   4-77.7129 366.227   6
   8  -4  -4 203.463 494.380   4
  -8   4   4-220.450 330.660   3
  -8  -4   4 650.157 456.971   5
   8   4  -4 696.874 373.206   7
  -8  -4   3 1599.43 587.449   6
   8  -4  -3 1449.70 636.303   4
  -8   4   3 1038.93 548.167   3
  -8  -4   3 1828.85 692.652   5
   8   4  -3 888.209 663.839   7
  -8  -4   2 295.079 414.530   6
   8  -4  -2 431.452 806.946   4
  -8   4   2-310.356 446.553   3
  -8   4   2-48.6707 332.952   2
  -8  -4   1 2110.06 585.861   6
   8  -4  -1 2194.05 954.040   4
  -8   4   1 2929.84 875.913   3
  -8   4   1 2061.28 670.149   2
  -8  -4   0 232.822 403.147   6
   8  -4   0 228.752 626.078   4
  -8   4   0 1186.56 534.495   3
  -8   4   0 559.635 548.208   2
   8   4   0 446.582 422.303   1
   8  -4   0 427.598 328.312   1
  -8  -4  -1 763.521 550.856   6
  -8   4  -1-3.11681 223.757   2
   8   4   1 1041.00 469.482   1
   8  -4   1 387.974 324.877   1
  -8  -4  -2 102.529 239.971   6
  -8   4  -2 299.607 315.183   2
   8   4   2 295.592 554.077   1
   8  -4   2 608.392 301.235   1
  -8  -4  -3 270.114 250.891   6
  -8   4  -3 1425.78 609.721   2
   8   4   3 1114.37 677.682   1
   8  -4   3 893.992 374.023   1
  -8  -4  -4 625.052 427.403   6
  -8   4  -4 328.795 551.418   2
   8   4   4 320.837 543.738   1
   8  -4   4 325.302 291.210   1
  -8  -4  -5 336.504 453.985   6
  -8   4  -5 330.695 254.467   2
   8   4   5-8.04966 322.567   1
   8  -4   5 656.455 381.327   1
   8  -4   6 731.870 445.510   1
   8   5  -9-167.389 385.393   7
   8  -5  -9 382.000 673.666   4
   8  -5  -8 516.021 579.032   4
   8   5  -8-31.2340 386.737   7
   8  -5  -7 1223.62 625.267   4
  -8  -5   7-191.776 560.117   5
   8   5  -7 193.488 550.320   7
   8  -5  -6-385.031 388.717   4
  -8   5   6 1252.81 669.331   3
  -8  -5   6-131.024 380.751   5
   8   5  -6 311.546 555.716   7
   8  -5  -5 1197.25 901.402   4
  -8   5   5 90.2938 578.249   3
  -8  -5   5 737.271 592.510   5
   8   5  -5 694.278 475.761   7
  -8  -5   5 1827.32 554.217   6
  -8  -5   4 483.468 373.752   6
   8  -5  -4-362.562 380.754   4
  -8  -5   4-80.4018 292.128   5
   8   5  -4-390.423 281.655   7
  -8  -5   3 131.933 423.790   6
   8  -5  -3 1065.34 652.773   4
  -8   5   3-561.410 644.173   3
   8   5  -3-419.175 427.062   7
  -8  -5   2 1027.93 516.103   6
   8  -5  -2 989.227 841.907   4
  -8   5   2 1102.39 644.733   3
  -8   5   2-112.771 322.742   2
   8   5  -2 1092.08 589.536   7
  -8  -5   1 144.843 323.869   6
   8  -5  -1 899.401 695.176   4
  -8   5   1 539.357 525.766   3
  -8   5   1-474.980 293.063   2
   8  -5  -1 351.563 500.094   8
   8   5  -1 546.059 618.049   7
  -8  -5   0-215.699 345.623   6
   8  -5   0-961.633 825.335   4
  -8   5   0 58.7750 483.298   2
   8   5   0 679.165 655.401   7
  -8  -5  -1 810.227 419.744   6
   8  -5   1 616.147 422.538   1
   8  -5   1 199.051 691.424   4
  -8   5  -1 207.695 338.786   2
   8   5   1 136.950 463.676   7
  -8  -5  -2 1228.51 367.668   6
   8  -5   2 670.784 465.575   1
   8   5   2 562.036 560.417   1
  -8   5  -2 1082.36 548.598   2
   8   5   2-167.576 471.863   7
   8  -5   3-114.124 274.135   1
   8  -5   4-591.853 435.594   1
  -8  -6   4-909.795 611.540   6
  -8  -6   3-135.994 285.496   6
  -9   0  11 827.974 633.169   5
   9   0 -11 895.605 665.634   4
  -9   0  10 276.281 362.496   5
   9   0 -10 546.730 556.454   4
   9   0  -9 1604.95 1051.00   4
  -9   0   9 821.333 429.703   5
   9   0  -8 338.537 715.096   4
  -9   0   8 831.097 384.834   5
   9   0  -7 565.244 477.436   4
  -9   0   7 176.888 380.251   5
   9   0  -6 635.858 714.157   4
  -9   0   6 569.583 341.715   5
   9   0  -5 642.561 562.208   4
  -9   0   5 213.002 419.882   5
   9   0  -4 1177.54 522.100   4
  -9   0   4 2220.09 546.006   5
   9   0  -3 1817.39 702.182   4
  -9   0   3 1381.89 583.676   5
   9   0  -2 4018.38 608.589   1
   9   0  -2 3066.79 838.986   4
  -9   0   2 3527.57 668.674   5
   9   0  -1 470.395 316.684   1
  -9   0   1 56.9535 199.752   5
   9   0   0 2795.03 629.427   1
   9   0   0 3900.20 1088.29   4
  -9   0   0 2842.30 631.670   2
  -9   0   0 2906.36 593.047   5
   9   0   1-88.0375 194.948   4
   9   0   1 13.4320 213.809   1
  -9   0  -1-71.7247 398.648   2
  -9   0  -1-25.7755 190.093   5
   9   0   2 105.273 213.182   1
  -9   0  -2 22.4635 221.860   2
  -9   0  -2 302.418 218.561   5
   9   0   3-202.133 289.533   1
  -9   0  -3-130.273 338.031   2
  -9   0  -3-239.147 264.256   5
   9   0   4 612.700 460.625   1
  -9   0  -4 469.597 334.307   6
  -9   0  -5 217.548 233.138   6
   9   0   5 491.131 288.730   1
  -9   0  -6 587.961 392.429   6
   9   0   6 586.871 561.383   1
  -9   0  -7 502.813 468.956   6
   9   0   7 526.474 718.007   1
  -9   1  11 828.661 465.672   5
  -9  -1  11 98.0707 542.199   5
   9   1 -11 556.358 440.655   4
   9  -1 -11 741.219 1035.04   4
  -9   1  10 1037.80 444.466   5
  -9  -1  10 1654.96 600.532   5
   9   1 -10 940.975 726.584   4
   9  -1 -10 1055.64 860.500   4
   9  -1  -9 1112.66 583.514   4
  -9   1   9 846.036 583.226   5
  -9  -1   9 619.559 468.036   5
   9   1  -9 298.942 435.328   4
   9   1  -8 1760.83 705.440   4
   9  -1  -8 1310.57 694.446   4
  -9   1   8 1600.76 619.314   5
  -9  -1   8 1413.08 510.771   5
   9   1  -7 3724.34 1011.14   4
   9  -1  -7 3164.75 986.230   4
  -9   1   7 3377.59 766.071   3
  -9   1   7 3220.42 698.883   5
  -9  -1   7 3399.35 751.290   5
   9   1  -6 226.526 357.916   4
   9  -1  -6 441.797 318.412   4
  -9   1   6 445.886 258.587   3
  -9   1   6 355.754 356.816   5
  -9  -1   6 165.588 191.798   5
   9   1  -5 3936.50 1071.27   4
   9  -1  -5 2740.73 930.395   4
  -9   1   5 4685.85 823.367   3
  -9   1   5 3697.94 718.102   5
  -9  -1   5 5031.39 944.324   5
   9   1  -4 776.767 462.597   4
   9  -1  -4 2367.02 935.976   4
  -9   1   4 1578.41 445.383   3
  -9   1   4 905.768 344.496   5
  -9  -1   4 1532.13 539.752   5
   9   1  -3-280.830 636.234   4
   9  -1  -3-306.396 449.183   4
  -9   1   3 235.446 235.478   3
  -9   1   3 42.6136 156.396   5
  -9  -1   3 288.830 291.125   5
   9   1  -3-60.7378 132.652   1
   9   1  -2 627.394 386.520   4
   9  -1  -2 1498.55 639.266   4
  -9   1   2 500.879 406.731   3
  -9   1   2 1296.28 372.315   5
  -9  -1   2 1344.60 483.469   5
   9   1  -2 1209.76 454.285   1
   9   1  -1 896.776 578.235   4
   9  -1  -1 409.806 514.218   4
   9  -1  -1 216.671 316.262   1
  -9   1   1 238.151 231.587   2
  -9   1   1-646.605 320.844   5
  -9  -1   1 941.238 449.395   5
   9   1  -1 645.070 333.388   1
   9   1   0 793.101 443.030   1
   9   1   0 873.917 542.172   4
   9  -1   0 1083.23 581.408   4
   9  -1   0 214.001 280.365   1
  -9   1   0 623.394 315.509   2
  -9   1   0 692.594 293.350   5
  -9  -1   0 1036.54 385.918   5
   9   1   1 500.444 367.142   1
   9   1   1-71.5304 440.796   4
   9  -1   1 284.882 272.263   1
  -9   1  -1 113.450 379.593   2
  -9  -1  -1 1202.45 451.401   5
  -9  -1  -1 171.907 303.321   6
  -9  -1  -2 2814.49 653.857   6
   9   1   2 3558.90 714.140   1
   9  -1   2 3389.31 689.557   1
  -9   1  -2 2617.37 615.904   2
  -9  -1  -3 1718.71 622.819   6
   9   1   3 1076.23 466.634   1
   9  -1   3 816.667 468.334   1
  -9   1  -3 1487.53 440.118   2
  -9  -1  -4 918.211 387.753   6
   9   1   4 549.267 470.637   1
   9  -1   4 1094.25 451.411   1
  -9   1  -4 613.629 407.866   2
  -9  -1  -5 511.157 289.948   6
   9   1   5 387.486 364.901   1
   9  -1   5 82.2119 302.163   1
  -9   1  -5 247.254 232.101   2
  -9  -1  -6 300.162 438.883   6
   9   1   6 780.029 423.254   1
   9  -1   6 851.284 564.732   1
  -9   1  -6 1578.93 635.198   2
  -9  -1  -7-354.134 378.088   6
   9  -1   7 471.328 489.429   1
  -9   1  -7 455.790 351.921   2
  -9  -1  -8 93.1053 436.537   6
  -9   2  11-255.355 513.178   5
   9   2 -11 19.1282 631.861   4
  -9   2  10 1007.11 579.397   5
  -9  -2  10 1485.78 527.525   5
   9   2 -10 346.772 303.423   4
   9  -2 -10 1011.12 886.896   4
   9  -2  -9 707.954 482.735   4
  -9   2   9 345.005 291.120   5
  -9  -2   9-768.639 355.720   5
   9   2  -9 599.895 578.788   4
   9  -2  -8 4024.71 972.080   4
  -9   2   8 4226.38 793.244   5
  -9  -2   8 3480.12 762.079   5
   9   2  -8 5321.77 1057.44   4
   9   2  -7 1157.84 604.715   4
   9  -2  -7 439.152 493.589   4
  -9   2   7 1189.02 475.390   3
  -9   2   7 464.631 262.450   5
  -9  -2   7 262.871 433.394   5
   9   2  -6 4277.11 1074.85   4
   9  -2  -6 8278.80 1416.77   4
  -9   2   6 5580.14 962.020   3
  -9   2   6 6340.13 936.804   5
  -9  -2   6 6687.70 1019.03   5
   9   2  -5 1305.79 722.507   4
   9  -2  -5 2935.34 834.545   4
  -9   2   5 1863.19 707.284   3
  -9   2   5 1245.29 435.853   5
  -9  -2   5 1738.24 556.136   5
   9   2  -4 362.788 654.085   4
   9  -2  -4 1970.04 799.366   4
   9   2  -4 1100.92 398.734   1
  -9   2   4 1380.14 562.607   3
  -9   2   4 671.813 349.629   5
  -9  -2   4 1138.65 551.696   5
   9   2  -3 897.890 439.028   4
   9  -2  -3 698.145 768.213   4
  -9   2   3 1118.14 449.763   3
  -9   2   3 528.916 266.725   5
  -9  -2   3 586.735 374.935   5
   9   2  -3 1050.80 433.471   1
   9   2  -2 6413.95 1215.06   4
   9  -2  -2 3544.02 1154.72   4
  -9   2   2 3877.35 808.800   3
  -9  -2   2 2532.10 752.538   5
   9   2  -2 4276.69 731.892   1
   9   2  -1 1167.77 643.300   4
   9  -2  -1 1438.65 676.465   4
  -9   2   1 897.772 503.124   3
  -9   2   1 397.156 312.851   2
  -9  -2   1 1134.25 493.186   5
   9   2  -1 989.163 479.161   1
  -9  -2   1 942.133 415.846   6
  -9  -2   0 605.485 292.935   6
   9   2   0 653.913 400.102   4
   9  -2   0 1676.81 835.002   4
   9  -2   0 214.450 232.832   1
  -9   2   0 599.955 369.102   2
   9   2   0 699.130 514.151   1
  -9  -2  -1 1048.44 484.400   6
   9   2   1 108.387 340.107   4
   9  -2   1 419.834 254.495   1
  -9   2  -1 335.496 395.960   2
   9   2   1 565.986 394.593   1
  -9  -2  -2 165.452 220.213   6
   9   2   2-707.348 525.704   4
   9  -2   2 248.752 184.468   1
  -9   2  -2 74.8073 363.302   2
   9   2   2 627.734 554.807   1
   9   2   3 819.219 551.821   1
  -9  -2  -3 819.018 445.523   6
   9  -2   3 1335.30 412.773   1
  -9   2  -3 502.642 427.350   2
  -9  -2  -4 91.0888 430.817   6
   9   2   4-207.953 479.325   1
   9  -2   4-137.791 294.295   1
  -9   2  -4-87.8704 314.664   2
  -9  -2  -5 234.975 541.107   6
   9   2   5 400.061 268.220   1
   9  -2   5 868.404 484.698   1
  -9   2  -5-81.9512 447.535   2
  -9  -2  -6 1328.11 551.995   6
   9   2   6 197.735 387.834   1
   9  -2   6 748.957 431.968   1
  -9   2  -6 433.666 439.195   2
  -9  -2  -7 18.7721 300.962   6
  -9   2  -7 142.089 367.537   2
  -9   3  11-808.740 484.667   5
   9   3 -11 640.090 427.432   4
  -9   3  10 3555.96 967.498   5
   9   3 -10 2912.93 854.540   4
   9  -3 -10 656.737 763.261   4
   9  -3  -9 769.187 748.292   4
  -9   3   9 1383.28 608.912   5
  -9  -3   9 1261.73 624.631   5
   9   3  -9 962.646 552.399   7
   9   3  -9 1374.91 571.175   4
   9  -3  -8 2460.12 1035.29   4
  -9   3   8 1215.18 636.987   3
  -9   3   8 1912.27 677.600   5
  -9  -3   8 2038.09 694.677   5
   9   3  -8 1925.91 722.725   7
   9   3  -8 588.110 606.866   4
   9  -3  -7-58.2249 485.367   4
  -9   3   7 312.565 350.346   3
  -9   3   7 914.318 397.391   5
  -9  -3   7 1025.20 458.370   5
   9   3  -7 1333.85 606.285   7
   9   3  -7 1404.72 522.965   4
   9   3  -6 2218.69 839.292   4
   9  -3  -6 1612.75 850.722   4
  -9   3   6 671.461 458.348   3
  -9   3   6 222.271 297.531   5
  -9  -3   6 428.236 396.316   5
   9   3  -5 1306.80 603.855   4
   9  -3  -5 871.317 469.320   4
  -9   3   5-156.681 500.718   3
  -9  -3   5 1013.53 511.700   5
   9   3  -4 1509.86 575.086   4
   9  -3  -4 762.714 769.142   4
  -9   3   4 798.558 387.864   3
  -9  -3   4 603.703 531.983   5
   9   3  -3 693.039 599.848   4
   9  -3  -3 27.8885 242.857   4
  -9   3   3 84.0247 203.535   3
  -9  -3   3 120.507 327.798   5
  -9  -3   2-166.658 345.031   6
   9  -3  -2-754.194 570.218   4
  -9   3   2 716.549 517.633   3
  -9   3   2-472.809 266.040   2
  -9  -3   2 229.230 416.714   5
   9   3  -2 403.736 394.947   1
  -9  -3   1 377.458 259.245   6
   9   3  -1 456.761 378.681   4
   9  -3  -1-700.374 717.874   4
  -9   3   1-182.861 372.934   3
  -9   3   1 115.399 289.645   2
   9   3  -1 31.0605 202.309   1
  -9  -3   0-81.8878 432.731   6
   9   3   0 993.861 592.139   4
   9  -3   0 858.649 575.182   4
  -9   3   0 747.147 470.919   2
   9   3   0 525.146 448.684   1
  -9  -3  -1 1473.56 536.490   6
   9   3   1 1429.18 904.537   4
  -9   3  -1 86.6655 372.390   2
   9  -3   1 1074.79 405.297   1
   9   3   1 1098.13 490.432   1
  -9  -3  -2 109.108 238.555   6
   9   3   2-288.395 524.270   4
  -9   3  -2 66.0580 357.031   2
   9  -3   2 457.045 281.966   1
   9   3   2-389.812 410.052   1
  -9  -3  -3 1380.83 606.901   6
  -9   3  -3 1562.23 600.289   2
   9  -3   3 1925.03 629.202   1
   9   3   3 1412.03 677.835   1
  -9  -3  -4 1018.23 485.847   6
   9  -3   4 293.624 409.218   1
  -9   3  -4 823.475 371.629   2
   9   3   4 413.528 513.172   1
   9  -3   5 225.283 383.067   1
  -9   3  -5 113.298 509.610   2
   9   4  -9 1502.19 799.219   7
   9  -4  -8-56.2803 685.121   4
  -9   4   8 524.050 678.385   3
   9   4  -8 1485.36 646.122   7
   9  -4  -7-807.755 522.927   4
  -9   4   7-826.575 413.903   3
   9   4  -7 523.846 470.483   7
   9  -4  -6 730.918 550.069   4
  -9   4   6-629.416 377.960   3
  -9  -4   6 991.482 586.824   5
   9   4  -6 903.441 562.413   7
   9  -4  -5 632.937 687.931   4
  -9   4   5-101.580 263.812   3
  -9  -4   5 513.616 494.260   5
   9   4  -5 608.337 450.738   7
   9  -4  -4 656.857 421.185   4
  -9   4   4 608.256 640.011   3
  -9  -4   4-220.894 498.244   5
   9   4  -4 465.305 403.469   7
  -9  -4   3-32.0032 344.776   6
   9  -4  -3 1092.73 758.887   4
  -9   4   3 682.996 472.377   3
  -9  -4   3-461.254 311.197   5
  -9  -4   2-32.5373 275.993   6
   9  -4  -2 672.209 572.846   4
  -9   4   2 44.3006 353.133   3
  -9   4   2 13.6575 404.460   2
  -9  -4   2-285.281 511.889   5
  -9  -4   1 1408.71 586.688   6
   9  -4  -1 2194.23 773.463   4
  -9   4   1 1921.88 765.267   3
  -9   4   1 395.196 624.323   2
  -9  -4   0-3.07307 202.659   6
   9  -4   0-608.976 484.971   4
  -9   4   0-267.405 332.305   2
   9   4   0-600.840 598.223   1
  -9  -4  -1 537.023 390.173   6
   9  -4   1 517.882 497.190   4
  -9   4  -1 609.921 340.913   2
   9   4   1 991.441 530.247   1
  -9   4  -2 407.650 372.857   2
   9  -4   2 370.790 258.240   1
   9   4   2 216.613 454.552   1
   9  -4   3 641.112 342.605   1
   9  -4   4 451.734 238.634   1
   9  -5  -6 690.177 748.923   4
   9  -5  -5-25.3047 741.405   4
   9  -5  -4-206.220 486.997   4
   9  -5  -3 367.745 319.109   4
   9  -5  -2 1126.89 665.566   4
   9  -5  -1 1649.27 699.139   4
   9  -5   0 1303.38 673.692   4
 -10   0  10 1919.43 707.394   5
  10   0  -9 1493.30 986.687   4
 -10   0   9 180.746 320.610   5
  10   0  -8-55.4557 397.026   4
 -10   0   8 627.816 464.926   5
  10   0  -7 396.440 343.844   4
 -10   0   7 528.867 314.823   5
  10   0  -6-602.110 560.289   4
 -10   0   6 374.859 236.905   5
  10   0  -5-310.018 425.782   4
 -10   0   5-846.593 514.324   5
  10   0  -4 236.124 292.380   4
 -10   0   4 505.403 413.446   5
  10   0  -3 178.617 226.191   4
 -10   0   3-451.497 251.111   5
  10   0  -2-475.511 593.892   4
 -10   0   2 1209.78 439.627   5
  10   0  -1 607.137 631.626   4
 -10   0   1 619.005 306.744   5
  10   0   0 1105.90 378.509   1
  10   0   0 1124.26 702.744   4
 -10   0   0 1283.91 464.130   5
  10   0   1 433.677 317.816   1
 -10   0  -1 324.047 314.706   5
  10   0   2 2105.75 879.872   4
  10   0   2 2708.13 756.257   1
  10   0   3 61.4222 425.717   1
  10   0   4 1704.00 598.694   1
  10   0   5 426.820 357.568   1
 -10   1  10-119.650 301.103   5
 -10   1   9-106.348 427.935   5
 -10  -1   9-613.996 652.077   5
  10   1  -9-433.859 460.581   4
  10   1  -8 909.444 682.578   4
  10  -1  -8 1172.09 782.146   4
 -10   1   8 1124.89 539.754   5
 -10  -1   8 305.169 333.606   5
  10   1  -7-655.377 844.806   4
  10  -1  -7-404.733 438.794   4
 -10   1   7-192.636 213.811   5
 -10  -1   7-747.175 500.341   5
  10   1  -6-297.946 381.036   4
  10  -1  -6-621.479 433.696   4
 -10   1   6 314.283 309.561   5
 -10  -1   6 444.721 321.886   5
  10   1  -5 79.7098 473.174   4
  10  -1  -5 535.347 515.328   4
 -10   1   5 210.773 375.324   5
 -10  -1   5 345.853 463.137   5
  10   1  -4 982.611 696.820   4
  10  -1  -4-194.574 404.570   4
 -10   1   4 839.656 442.328   5
 -10  -1   4 742.760 438.682   5
  10   1  -3 1552.77 793.570   4
  10  -1  -3 778.549 481.350   4
 -10   1   3 1690.07 498.955   5
 -10  -1   3 2114.08 602.214   5
  10   1  -2 65.4081 228.610   4
  10  -1  -2 40.2150 254.525   4
 -10   1   2 4.64745 396.333   5
 -10  -1   2-22.4882 374.186   5
  10   1  -1 805.181 568.539   4
 -10  -1   1 72.2742 329.474   5
  10   1  -1 693.909 340.765   1
  10   1   0 792.165 484.693   4
  10  -1   0 959.408 707.666   4
 -10   1   0 265.321 225.238   2
 -10  -1   0 50.4047 302.665   5
  10   1   0 526.622 280.663   1
  10   1   1 1004.65 384.357   1
  10   1   1 1316.54 746.235   4
  10  -1   1 502.787 503.108   4
  10  -1   1 804.413 492.562   1
 -10   1  -1 900.571 354.707   2
 -10  -1  -1 1125.36 413.927   5
  10   1   2 241.784 423.033   1
  10   1   2 744.095 718.920   4
  10  -1   2-5.28104 369.690   1
 -10   1  -2 435.033 445.996   2
 -10  -1  -2 216.812 348.030   5
  10  -1   3-245.635 405.626   1
 -10   1  -3 809.945 505.186   2
 -10  -1  -3 730.494 358.670   6
 -10  -1  -4 617.530 411.556   6
  10   1   4 1306.07 673.433   1
  10  -1   4 830.868 480.623   1
 -10  -1  -5 452.085 331.362   6
  10  -1   5 516.304 472.318   1
 -10   2  10 73.5130 193.782   5
 -10   2   9 347.825 458.219   3
 -10   2   9 268.969 461.595   5
  10   2  -9 1005.64 590.308   4
 -10   2   8-7.20869 476.718   3
 -10   2   8 731.579 384.711   5
 -10  -2   8 824.977 542.210   5
  10   2  -8 163.445 384.530   4
  10   2  -7 1554.15 716.482   4
  10  -2  -7 2098.32 1031.59   4
 -10   2   7 1813.47 647.355   3
 -10   2   7 1407.31 498.401   5
 -10  -2   7 764.808 560.192   5
  10   2  -6-908.992 881.156   4
  10  -2  -6-542.173 570.562   4
 -10   2   6-144.895 471.023   3
 -10   2   6 507.128 420.511   5
 -10  -2   6 322.312 493.980   5
  10   2  -5 2636.96 873.822   4
  10  -2  -5 490.536 616.220   4
 -10   2   5 2713.26 669.050   3
 -10   2   5 729.861 348.889   5
 -10  -2   5 1937.31 843.949   5
  10   2  -4 721.922 417.808   4
  10  -2  -4 690.371 570.265   4
 -10   2   4 64.5925 215.514   3
 -10  -2   4 270.843 455.522   5
  10   2  -3 750.109 533.749   4
  10  -2  -3 1002.29 885.914   4
 -10   2   3 781.858 382.831   3
 -10  -2   3 2137.22 640.026   5
  10   2  -2 1222.27 711.833   4
  10  -2  -2-718.310 859.597   4
 -10   2   2 168.276 357.951   3
 -10  -2   2-525.287 434.654   5
  10   2  -2-648.106 327.441   1
  10  -2  -1 264.313 306.191   4
 -10  -2   1 308.685 478.960   5
  10   2  -1 711.366 547.774   1
  10   2   0 466.214 652.532   4
  10  -2   0 463.970 513.517   4
 -10   2   0 129.519 427.532   2
 -10  -2   0 454.904 352.927   5
  10   2   0 728.939 374.010   1
 -10  -2   0 93.0215 308.961   6
 -10  -2  -1 397.350 426.975   6
  10   2   1-74.3098 396.865   4
  10  -2   1 629.315 817.929   4
 -10   2  -1 294.290 445.767   2
 -10  -2  -1 1333.13 704.205   5
  10   2   1-637.645 488.342   1
 -10  -2  -2-693.107 283.678   6
  10   2   2 450.643 491.824   4
  10  -2   2-196.017 205.252   1
 -10   2  -2-120.424 270.882   2
  10   2   2 165.254 438.174   1
 -10  -2  -3-341.642 525.427   6
  10   2   3 228.594 637.470   4
  10  -2   3-352.350 408.352   1
 -10   2  -3 333.410 322.216   2
  10   2   3-421.510 462.933   1
  10  -2   4 449.041 266.066   1
 -10   2  -4 90.4334 140.386   2
 -10   2  -5 1487.03 670.251   2
 -10   3   9 710.551 675.151   3
 -10   3   9-480.790 554.828   5
  10   3  -9-159.356 229.788   4
 -10   3   8 1997.02 701.113   3
  10   3  -8 1187.66 542.075   7
  10   3  -8 1487.75 768.774   4
 -10   3   7 307.683 451.239   3
  10   3  -7 647.422 338.794   7
  10   3  -7 865.588 685.175   4
  10   3  -6 1466.12 786.759   4
 -10   3   6 451.774 394.484   3
  10   3  -5 984.256 534.285   4
  10  -3  -5 1366.09 659.795   4
 -10   3   5 2033.57 820.369   3
 -10  -3   5 1107.99 562.141   5
  10   3  -4 3308.38 937.654   4
  10  -3  -4 953.255 797.291   4
 -10   3   4 1800.67 638.345   3
 -10  -3   4 1653.45 662.761   5
  10   3  -3 372.725 532.964   4
  10  -3  -3 165.409 646.641   4
 -10   3   3 529.552 508.415   3
 -10  -3   3-196.305 418.487   5
  10   3  -2-384.594 394.855   4
  10  -3  -2-48.4987 167.398   4
 -10  -3   2 79.7733 128.962   5
 -10  -3   1-1240.19 575.743   6
  10   3  -1 441.633 629.023   4
  10  -3  -1 49.3326 601.336   4
 -10   3   1 374.119 297.623   2
 -10  -3   1-118.471 300.809   5
  10   3  -1 448.898 281.400   1
 -10   3   0-384.569 412.014   2
  10   3   0 553.118 497.096   1
 -10   3  -1 154.441 208.896   2
  10   3   1-1152.38 678.698   1
 -10   3  -2 974.979 613.006   2
  10   3   2 855.509 467.036   1
  10  -3   3 226.840 562.982   1
 -10   4   3 1111.12 607.240   3
 -10   4   2 1188.73 611.996   3
 -11   0   7 1738.40 663.528   5
 -11   0   6 354.160 506.233   5
 -11   0   5-54.0418 451.808   5
  11   0  -4 2838.93 1239.65   4
 -11   0   4 1461.62 476.487   5
  11   0  -3 637.076 622.957   4
 -11   0   3 17.8917 195.799   5
  11   0  -2-607.169 1061.86   4
 -11   0   2-281.408 418.375   5
  11   0  -1-415.360 805.626   4
 -11   1   8 100.565 334.744   5
 -11   1   7 85.6986 332.245   5
 -11   1   6 225.908 302.603   5
 -11  -1   6 695.435 456.108   5
  11   1  -5 860.083 808.295   4
 -11   1   5 411.639 252.664   5
 -11  -1   5 91.2808 260.255   5
  11   1  -4-299.740 456.409   4
 -11  -1   4 804.830 472.300   5
  11   1  -3 888.015 791.895   4
 -11  -1   3 361.086 346.887   5
  11   1  -2 80.4396 727.211   4
 -11  -1   2 795.374 571.322   5
  11   1  -1 469.978 611.107   4
 -11  -1   1 231.352 252.044   5
  11   1   0 1747.70 909.940   4
 -11  -1   0 432.118 303.479   5
  11   1   1 443.225 581.296   4
 -11  -1  -1 856.068 394.682   5
  11   1   2 1223.82 614.190   1
  11   2  -6 1162.08 978.145   4
  11   2  -5 1247.23 690.842   4
  11   2  -4-1181.00 602.510   4
  11   2  -3-15.4947 358.742   4
  11   2  -2 858.070 765.192   4
 -11  -2   2 117.709 286.736   5
  11   2  -1 923.753 575.176   4
 -11  -2   1-145.918 269.043   5
  11   2   0 1644.56 744.709   4
 -11  -2   0 586.433 614.322   5
  11   2   1 2104.18 787.600   4
 -11  -2  -1 644.185 593.310   5
   0   0   0    0.00    0.00   0
TITL ez_aj195 in P2(1)/m
REM P2(1)/m (#11 in standard setting)
CELL 0.71073   8.700727   6.346569  13.345780  90.0000 100.2434  90.0000
ZERR    2.00   0.000280   0.000210   0.000413   0.0000   0.0032   0.0000
LATT  1
SYMM -x, y+1/2,-z
SFAC C H N O S
UNIT 28.00 44.00 2.00 16.00 2.00
TREF
HKLF 4
END
;
_shelx_hkl_checksum              5568
_shelx_res_file
;
TITL AJ_195 in P21
CELL  0.71073   8.7007   6.3466  13.3458   90.000  100.243   90.000
ZERR     2.00   0.0003   0.0002   0.0004    0.000    0.003    0.000
LATT  -1
SYMM  - X, 1/2 + Y, - Z
SFAC  C    H    N    O
UNIT  28   42   2    8
MERG   2
EQIV $1 x+1, y, z
HTAB C11 O2_$1
HTAB C14 O10_$2
EQIV $2 -x+1, y-0.5, -z+1
HTAB C12 O2_$3
EQIV $3 -x+1, y+0.5, -z+2
MPLA  4  C1 C2 C3 C4 C5
MPLA  6  C5 N6 C7 C8 O9 C10 O7 O10
MPLA  5  C1 C2 C3 C4 C5
MPLA  4  N6 C7 C10 O9 C5 C8 O7 O10
MPLA  4  C5 N6 O9 C10 C7 C8 O7 O10
MPLA  4  C1 C2 C3 C4 C5
FMAP   2
PLAN   20
SIZE     0.100   0.270   0.340
ACTA
BOND   $H
CONF
LIST   4
L.S.  12
TEMP    20.00
WGHT    0.048500    0.069200
FVAR      13.82081
MOLE    1
O9    4    0.588112    0.408989    0.694737    11.00000    0.05876    0.06502 =
         0.06301    0.02685    0.01911    0.01140
O10   4    0.334003    0.404321    0.669864    11.00000    0.06340    0.10081 =
         0.07354    0.03609    0.01214    0.02967
O2    4    0.287364   -0.012067    0.997043    11.00000    0.09678    0.08906 =
         0.07381    0.02327    0.04498    0.01398
O7    4    0.876872    0.109444    0.861837    11.00000    0.04393    0.07662 =
         0.04669    0.01064    0.00227    0.00054
N6    3    0.613351    0.088858    0.840762    11.00000    0.04242    0.05127 =
         0.04005    0.00293    0.00614    0.00004
C7    1    0.732467    0.160434    0.812280    11.00000    0.04695    0.05068 =
         0.03760    0.00117    0.00292    0.00146
C8    1    0.741968    0.313269    0.726168    11.00000    0.04259    0.06428 =
         0.04426    0.00785    0.00819   -0.00061
C10   1    0.454107    0.326707    0.712218    11.00000    0.05344    0.06405 =
         0.04546    0.00725    0.01145    0.00912
C5    1    0.458683    0.151858    0.788761    11.00000    0.04414    0.05082 =
         0.03913    0.00306    0.00556    0.00161
C1    1    0.367359    0.217129    0.872083    11.00000    0.05120    0.06239 =
         0.04618    0.00411    0.01301    0.00646
AFIX  23
H1A   2    0.432221    0.299766    0.924399    11.00000   -1.20000
H1B   2    0.275639    0.298741    0.843734    11.00000   -1.20000
AFIX   0
C13   1    0.785497    0.207854    0.629995    11.00000    0.05225    0.09523 =
         0.04077    0.00731    0.01102    0.00468
C16   1    0.948386    0.113208    0.651665    11.00000    0.05899    0.13516 =
         0.06990    0.00176    0.02019    0.01957
AFIX  33
H16A  2    1.023047    0.221525    0.675378    11.00000   -1.50000
H16B  2    0.972269    0.052183    0.590423    11.00000   -1.50000
H16C  2    0.952790    0.006099    0.702889    11.00000   -1.50000
AFIX   0
C2    1    0.322305    0.012722    0.914067    11.00000    0.04331    0.06547 =
         0.05972    0.01029    0.01360    0.00727
C14   1    0.670302    0.032065    0.592614    11.00000    0.08311    0.11236 =
         0.06014   -0.03216    0.01694   -0.00505
AFIX  33
H14A  2    0.566333    0.088517    0.578420    11.00000   -1.50000
H14B  2    0.676241   -0.074600    0.644163    11.00000   -1.50000
H14C  2    0.695731   -0.028507    0.531699    11.00000   -1.50000
AFIX   0
C15   1    0.778784    0.371594    0.544394    11.00000    0.10108    0.14309 =
         0.05886    0.03757    0.03168    0.02170
AFIX  33
H15A  2    0.676290    0.432684    0.529947    11.00000   -1.50000
H15B  2    0.801407    0.304181    0.484279    11.00000   -1.50000
H15C  2    0.854466    0.480137    0.565516    11.00000   -1.50000
AFIX   0
C4    1    0.369295   -0.048072    0.744660    11.00000    0.05241    0.06724 =
         0.05358   -0.00977    0.00306   -0.00178
AFIX  23
H4A   2    0.275837   -0.010886    0.696744    11.00000   -1.20000
H4B   2    0.434732   -0.136682    0.710477    11.00000   -1.20000
AFIX   0
C12   1    0.846525    0.498049    0.766869    11.00000    0.08916    0.07262 =
         0.06825    0.00689    0.01599   -0.02550
AFIX  33
H12A  2    0.951221    0.448590    0.789473    11.00000   -1.50000
H12B  2    0.808291    0.561564    0.822938    11.00000   -1.50000
H12C  2    0.845931    0.600402    0.713838    11.00000   -1.50000
AFIX   0
C3    1    0.328070   -0.158822    0.836864    11.00000    0.07092    0.06290 =
         0.07458   -0.00122    0.01285   -0.01075
AFIX  23
H3A   2    0.227657   -0.228634    0.819700    11.00000   -1.20000
H3B   2    0.406744   -0.262841    0.862960    11.00000   -1.20000
AFIX   0
C11   1    0.882355   -0.017012    0.951739    11.00000    0.05231    0.07416 =
         0.04954    0.01189   -0.00245    0.00268
AFIX  33
H11A  2    0.989210   -0.044865    0.981429    11.00000   -1.50000
H11B  2    0.828979   -0.147773    0.933936    11.00000   -1.50000
H11C  2    0.832537    0.057136    0.999904    11.00000   -1.50000
AFIX   0
HKLF 4
REM  AJ_195 in P21
REM R1 =  0.0522 for    2235 Fo > 4sig(Fo)  and  0.0881 for all    3396 data
REM    172 parameters refined using      1 restraints
END
WGHT      0.0485      0.0692
REM Highest difference peak  0.124,  deepest hole -0.150,  1-sigma level  0.035
Q1    1   0.6484 -0.2301  0.9149  11.00000  0.05    0.12
Q2    1   0.4387 -0.3704  0.9535  11.00000  0.05    0.12
Q3    1   0.8379  0.3390  0.9204  11.00000  0.05    0.11
Q4    1   1.0358  0.1643  1.0128  11.00000  0.05    0.11
Q5    1   0.5733  0.3085  0.5580  11.00000  0.05    0.11
Q6    1   0.3190 -0.3980  0.9227  11.00000  0.05    0.11
Q7    1   0.6825  0.7019  0.5445  11.00000  0.05    0.11
Q8    1   0.5663 -0.0029  0.9250  11.00000  0.05    0.11
Q9    1   1.0135 -0.1594  0.8163  11.00000  0.05    0.11
Q10   1   0.7421  0.2331  0.9737  11.00000  0.05    0.11
Q11   1   0.9790  0.1346  1.0827  11.00000  0.05    0.11
Q12   1   0.4424  0.4678  1.0242  11.00000  0.05    0.10
Q13   1   0.6485 -0.2653  0.5199  11.00000  0.05    0.10
Q14   1   1.0249  0.3742  0.6566  11.00000  0.05    0.10
Q15   1   1.0001  0.7028  0.5861  11.00000  0.05    0.10
Q16   1   0.5382  0.6169  0.5869  11.00000  0.05    0.10
Q17   1   0.8456  0.5254  0.8587  11.00000  0.05    0.10
Q18   1   1.0065  0.3698  0.5843  11.00000  0.05    0.10
Q19   1   0.5250  0.3234  0.9398  11.00000  0.05    0.10
Q20   1   1.0009  0.1008  0.7354  11.00000  0.05    0.09
;
_shelx_res_checksum              19052
_shelxl_version_number           .2013
loop_
_symmetry_equiv_pos_as_xyz
'x, y, z'
'-x, y+1/2, -z'
loop_
_atom_site_type_symbol
_atom_site_label
_atom_site_fract_x
_atom_site_fract_y
_atom_site_fract_z
_atom_site_U_iso_or_equiv
_atom_site_adp_type
_atom_site_calc_flag
_atom_site_occupancy
O O9 0.5881(3) 0.4090(4) 0.69474(18) 0.0612(7) Uani d 1
O O10 0.3340(3) 0.4043(5) 0.6699(2) 0.0793(9) Uani d 1
O O2 0.2874(3) -0.0121(5) 0.9970(2) 0.0829(9) Uani d 1
O O7 0.8769(2) 0.1094(4) 0.86184(15) 0.0565(6) Uani d 1
N N6 0.6134(3) 0.0889(4) 0.84076(18) 0.0447(6) Uani d 1
C C7 0.7325(4) 0.1604(5) 0.8123(2) 0.0456(8) Uani d 1
C C8 0.7420(4) 0.3133(6) 0.7262(2) 0.0503(8) Uani d 1
C C10 0.4541(4) 0.3267(6) 0.7122(2) 0.0540(9) Uani d 1
C C5 0.4587(3) 0.1519(5) 0.7888(2) 0.0449(8) Uani d 1
C C1 0.3674(4) 0.2171(6) 0.8721(2) 0.0527(8) Uani d 1
H H1A 0.4322 0.2998 0.9244 0.063 Uiso calc 1
H H1B 0.2756 0.2987 0.8437 0.063 Uiso calc 1
C C13 0.7855(4) 0.2079(7) 0.6300(2) 0.0624(10) Uani d 1
C C16 0.9484(4) 0.1132(9) 0.6517(3) 0.0869(14) Uani d 1
H H16A 1.023 0.2215 0.6754 0.13 Uiso calc 1
H H16B 0.9723 0.0522 0.5904 0.13 Uiso calc 1
H H16C 0.9528 0.0061 0.7029 0.13 Uiso calc 1
C C2 0.3223(4) 0.0127(7) 0.9141(3) 0.0556(9) Uani d 1
C C14 0.6703(5) 0.0321(9) 0.5926(3) 0.0847(14) Uani d 1
H H14A 0.5663 0.0885 0.5784 0.127 Uiso calc 1
H H14B 0.6762 -0.0746 0.6442 0.127 Uiso calc 1
H H14C 0.6957 -0.0285 0.5317 0.127 Uiso calc 1
C C15 0.7788(6) 0.3716(10) 0.5444(3) 0.0989(17) Uani d 1
H H15A 0.6763 0.4327 0.5299 0.148 Uiso calc 1
H H15B 0.8014 0.3042 0.4843 0.148 Uiso calc 1
H H15C 0.8545 0.4801 0.5655 0.148 Uiso calc 1
C C4 0.3693(4) -0.0481(6) 0.7447(3) 0.0585(10) Uani d 1
H H4A 0.2758 -0.0109 0.6967 0.07 Uiso calc 1
H H4B 0.4347 -0.1367 0.7105 0.07 Uiso calc 1
C C12 0.8465(5) 0.4980(7) 0.7669(3) 0.0764(12) Uani d 1
H H12A 0.9512 0.4486 0.7895 0.115 Uiso calc 1
H H12B 0.8083 0.5616 0.8229 0.115 Uiso calc 1
H H12C 0.8459 0.6004 0.7138 0.115 Uiso calc 1
C C3 0.3281(5) -0.1588(6) 0.8369(3) 0.0695(11) Uani d 1
H H3A 0.2277 -0.2286 0.8197 0.083 Uiso calc 1
H H3B 0.4067 -0.2628 0.863 0.083 Uiso calc 1
C C11 0.8824(4) -0.0170(7) 0.9517(2) 0.0601(9) Uani d 1
H H11A 0.9892 -0.0449 0.9814 0.09 Uiso calc 1
H H11B 0.829 -0.1478 0.9339 0.09 Uiso calc 1
H H11C 0.8325 0.0571 0.9999 0.09 Uiso calc 1
loop_
_atom_site_aniso_label
_atom_site_aniso_U_11
_atom_site_aniso_U_22
_atom_site_aniso_U_33
_atom_site_aniso_U_12
_atom_site_aniso_U_13
_atom_site_aniso_U_23
O9 0.0588(15) 0.0650(15) 0.0630(14) 0.0114(13) 0.0191(12) 0.0269(12)
O10 0.0634(17) 0.101(2) 0.0735(17) 0.0297(16) 0.0121(13) 0.0361(16)
O2 0.097(2) 0.0891(19) 0.0738(17) 0.0140(17) 0.0450(16) 0.0233(16)
O7 0.0439(12) 0.0766(16) 0.0467(12) 0.0005(12) 0.0023(10) 0.0106(12)
N6 0.0424(15) 0.0513(16) 0.0401(13) 0.0000(13) 0.0061(11) 0.0029(12)
C7 0.0469(19) 0.051(2) 0.0376(15) 0.0015(16) 0.0029(14) 0.0012(15)
C8 0.0426(18) 0.064(2) 0.0443(17) -0.0006(17) 0.0082(14) 0.0079(16)
C10 0.053(2) 0.064(2) 0.0455(18) 0.0091(19) 0.0114(16) 0.0072(17)
C5 0.0441(17) 0.0508(19) 0.0391(15) 0.0016(15) 0.0056(13) 0.0031(15)
C1 0.0512(19) 0.062(2) 0.0462(18) 0.0065(18) 0.0130(15) 0.0041(17)
C13 0.052(2) 0.095(3) 0.0408(17) 0.005(2) 0.0110(15) 0.0073(19)
C16 0.059(2) 0.135(4) 0.070(2) 0.020(3) 0.0202(19) 0.002(3)
C2 0.0433(18) 0.065(2) 0.060(2) 0.0073(17) 0.0136(16) 0.0103(19)
C14 0.083(3) 0.112(4) 0.060(2) -0.005(3) 0.017(2) -0.032(3)
C15 0.101(3) 0.143(5) 0.059(2) 0.022(3) 0.032(2) 0.038(3)
C4 0.052(2) 0.067(3) 0.054(2) -0.0018(18) 0.0031(16) -0.0098(18)
C12 0.089(3) 0.073(3) 0.068(2) -0.026(2) 0.016(2) 0.007(2)
C3 0.071(3) 0.063(2) 0.075(3) -0.011(2) 0.013(2) -0.001(2)
C11 0.052(2) 0.074(2) 0.0495(18) 0.0027(19) -0.0024(15) 0.0119(19)
loop_
_atom_type_symbol
_atom_type_description
_atom_type_scat_dispersion_real
_atom_type_scat_dispersion_imag
_atom_type_scat_source
C C 0.0033 0.0016 'International Tables Vol C Tables 4.2.6.8 and 6.1.1.4'
H H 0 0 'International Tables Vol C Tables 4.2.6.8 and 6.1.1.4'
N N 0.0061 0.0033 'International Tables Vol C Tables 4.2.6.8 and 6.1.1.4'
O O 0.0106 0.006 'International Tables Vol C Tables 4.2.6.8 and 6.1.1.4'
loop_
_geom_angle_atom_site_label_1
_geom_angle_atom_site_label_2
_geom_angle_atom_site_label_3
_geom_angle
C10 O9 C8 124.8(3)
C7 O7 C11 115.6(2)
C7 N6 C5 120.1(3)
N6 C7 O7 120.9(3)
N6 C7 C8 128.5(3)
O7 C7 C8 110.7(3)
O9 C8 C7 108.2(2)
O9 C8 C12 103.9(3)
C7 C8 C12 109.4(3)
O9 C8 C13 106.7(2)
C7 C8 C13 113.9(3)
C12 C8 C13 114.1(3)
O10 C10 O9 118.1(3)
O10 C10 C5 122.5(3)
O9 C10 C5 119.3(3)
N6 C5 C10 115.9(3)
N6 C5 C1 106.4(2)
C10 C5 C1 109.8(3)
N6 C5 C4 108.4(3)
C10 C5 C4 113.3(3)
C1 C5 C4 101.9(3)
C2 C1 C5 104.0(3)
C2 C1 H1A 111
C5 C1 H1A 111
C2 C1 H1B 111
C5 C1 H1B 111
H1A C1 H1B 109
C16 C13 C14 108.1(4)
C16 C13 C15 108.6(3)
C14 C13 C15 108.4(3)
C16 C13 C8 111.7(3)
C14 C13 C8 110.1(3)
C15 C13 C8 109.9(4)
C13 C16 H16A 109.5
C13 C16 H16B 109.5
H16A C16 H16B 109.5
C13 C16 H16C 109.5
H16A C16 H16C 109.5
H16B C16 H16C 109.5
O2 C2 C1 125.6(4)
O2 C2 C3 125.2(4)
C1 C2 C3 109.2(3)
C13 C14 H14A 109.5
C13 C14 H14B 109.5
H14A C14 H14B 109.5
C13 C14 H14C 109.5
H14A C14 H14C 109.5
H14B C14 H14C 109.5
C13 C15 H15A 109.5
C13 C15 H15B 109.5
H15A C15 H15B 109.5
C13 C15 H15C 109.5
H15A C15 H15C 109.5
H15B C15 H15C 109.5
C3 C4 C5 104.3(3)
C3 C4 H4A 110.9
C5 C4 H4A 110.9
C3 C4 H4B 110.9
C5 C4 H4B 110.9
H4A C4 H4B 108.9
C8 C12 H12A 109.5
C8 C12 H12B 109.5
H12A C12 H12B 109.5
C8 C12 H12C 109.5
H12A C12 H12C 109.5
H12B C12 H12C 109.5
C2 C3 C4 105.2(3)
C2 C3 H3A 110.7
C4 C3 H3A 110.7
C2 C3 H3B 110.7
C4 C3 H3B 110.7
H3A C3 H3B 108.8
O7 C11 H11A 109.5
O7 C11 H11B 109.5
H11A C11 H11B 109.5
O7 C11 H11C 109.5
H11A C11 H11C 109.5
H11B C11 H11C 109.5
loop_
_geom_bond_atom_site_label_1
_geom_bond_atom_site_label_2
_geom_bond_distance
O9 C10 1.335(4)
O9 C8 1.462(4)
O10 C10 1.202(4)
O2 C2 1.210(4)
O7 C7 1.351(3)
O7 C11 1.437(4)
N6 C7 1.251(4)
N6 C5 1.456(4)
C7 C8 1.517(4)
C8 C12 1.524(5)
C8 C13 1.553(5)
C10 C5 1.504(5)
C5 C1 1.534(4)
C5 C4 1.549(5)
C1 C2 1.493(5)
C1 H1A 0.97
C1 H1B 0.97
C13 C16 1.519(5)
C13 C14 1.523(6)
C13 C15 1.538(6)
C16 H16A 0.96
C16 H16B 0.96
C16 H16C 0.96
C2 C3 1.506(5)
C14 H14A 0.96
C14 H14B 0.96
C14 H14C 0.96
C15 H15A 0.96
C15 H15B 0.96
C15 H15C 0.96
C4 C3 1.515(5)
C4 H4A 0.97
C4 H4B 0.97
C12 H12A 0.96
C12 H12B 0.96
C12 H12C 0.96
C3 H3A 0.97
C3 H3B 0.97
C11 H11A 0.96
C11 H11B 0.96
C11 H11C 0.96
loop_
_geom_hbond_atom_site_label_D
_geom_hbond_atom_site_label_H
_geom_hbond_atom_site_label_A
_geom_hbond_site_symmetry_A
_geom_hbond_distance_DH
_geom_hbond_distance_HA
_geom_hbond_distance_DA
_geom_hbond_angle_DHA
C11 H11A O2 1_655 0.96 2.57 3.468(5) 155.1
C14 H14C O10 2_646 0.96 2.69 3.589(4) 156.1
C12 H12B O2 2_657 0.96 2.72 3.549(5) 145
loop_
_geom_torsion_atom_site_label_1
_geom_torsion_atom_site_label_2
_geom_torsion_atom_site_label_3
_geom_torsion_atom_site_label_4
_geom_torsion
C5 N6 C7 O7 177.7(2)
C5 N6 C7 C8 0.0(5)
C11 O7 C7 N6 -4.4(4)
C11 O7 C7 C8 173.7(3)
C10 O9 C8 C7 -21.1(4)
C10 O9 C8 C12 -137.3(3)
C10 O9 C8 C13 101.8(4)
N6 C7 C8 O9 13.9(5)
O7 C7 C8 O9 -163.9(2)
N6 C7 C8 C12 126.5(4)
O7 C7 C8 C12 -51.4(4)
N6 C7 C8 C13 -104.6(4)
O7 C7 C8 C13 77.6(3)
C8 O9 C10 O10 -169.3(3)
C8 O9 C10 C5 14.8(5)
C7 N6 C5 C10 -8.6(4)
C7 N6 C5 C1 -131.0(3)
C7 N6 C5 C4 120.0(3)
O10 C10 C5 N6 -174.2(3)
O9 C10 C5 N6 1.5(4)
O10 C10 C5 C1 -53.6(5)
O9 C10 C5 C1 122.1(3)
O10 C10 C5 C4 59.6(5)
O9 C10 C5 C4 -124.7(3)
N6 C5 C1 C2 -77.4(3)
C10 C5 C1 C2 156.5(3)
C4 C5 C1 C2 36.1(3)
O9 C8 C13 C16 176.6(3)
C7 C8 C13 C16 -64.0(4)
C12 C8 C13 C16 62.5(4)
O9 C8 C13 C14 -63.3(4)
C7 C8 C13 C14 56.0(4)
C12 C8 C13 C14 -177.5(3)
O9 C8 C13 C15 56.0(4)
C7 C8 C13 C15 175.3(3)
C12 C8 C13 C15 -58.2(4)
C5 C1 C2 O2 158.6(3)
C5 C1 C2 C3 -21.1(3)
N6 C5 C4 C3 73.6(3)
C10 C5 C4 C3 -156.3(3)
C1 C5 C4 C3 -38.4(3)
O2 C2 C3 C4 177.2(3)
C1 C2 C3 C4 -3.1(4)
C5 C4 C3 C2 25.9(3)

_cod_database_fobs_code 2020814
