#------------------------------------------------------------------------------
#$Date: 2017-02-04 05:56:06 +0200 (Sat, 04 Feb 2017) $
#$Revision: 191420 $
#$URL: file:///home/coder/svn-repositories/cod/cif/2/02/06/2020699.cif $
#------------------------------------------------------------------------------
#
# This file is available in the Crystallography Open Database (COD),
# http://www.crystallography.net/. The original data for this entry
# were provided by IUCr Journals, http://journals.iucr.org/.
#
# The file may be used within the scientific community so long as
# proper attribution is given to the journal article from which the
# data were obtained.
#
data_2020699
loop_
_publ_author_name
'Okuniewski, Andrzej'
'Rosiak, Damian'
'Chojnacki, Jaros\/law'
'Becker, Barbara'
_publ_section_title
;
 Crystallographic study of self-organization in the solid state including
 quasi-aromatic pseudo-ring stacking interactions in
 1-benzoyl-3-(3,4-dimethoxyphenyl)thiourea and
 1-benzoyl-3-(2-hydroxypropyl)thiourea
;
_journal_coeditor_code           CU3106
_journal_issue                   1
_journal_name_full               'Acta Crystallographica Section C'
_journal_page_first              52
_journal_page_last               56
_journal_paper_doi               10.1107/S2053229616019495
_journal_volume                  73
_journal_year                    2017
_chemical_formula_iupac          'C16 H16 N2 O3 S'
_chemical_formula_moiety         'C16 H16 N2 O3 S'
_chemical_formula_sum            'C16 H16 N2 O3 S'
_chemical_formula_weight         316.37
_chemical_name_systematic
;
<i>N</i>-[(3,4-Dimethoxyphenyl)carbamothioyl]benzamide
;
_space_group_IT_number           2
_symmetry_cell_setting           triclinic
_symmetry_space_group_name_Hall  '-P 1'
_symmetry_space_group_name_H-M   'P -1'
_atom_sites_solution_hydrogens   geom
_audit_conform_dict_name         cif_core.dic
_audit_conform_dict_version      2.4.3
_audit_creation_method           'WinGX routine CIF_UPDATE'
_cell_angle_alpha                94.047(5)
_cell_angle_beta                 93.143(5)
_cell_angle_gamma                95.735(5)
_cell_formula_units_Z            2
_cell_length_a                   6.5450(4)
_cell_length_b                   9.3526(6)
_cell_length_c                   12.7820(8)
_cell_measurement_reflns_used    1629
_cell_measurement_temperature    293(2)
_cell_measurement_theta_max      26.206
_cell_measurement_theta_min      2.699
_cell_volume                     775.05(8)
_computing_cell_refinement
;
CrysAlis PRO (Agilent, 2013)
;
_computing_data_collection
;
CrysAlis PRO (Agilent, 2013)
;
_computing_data_reduction
;
CrysAlis PRO (Agilent, 2013)
;
_computing_molecular_graphics
;
<i>OLEX2</i> (Dolomanov <i>et al.</i>, 2009)
;
_computing_publication_material
;
<i>WinGX</i> (Farrugia, 2012) and <i>PLATON</i> (Spek, 2009)
;
_computing_structure_refinement
;
<i>SHELXL2016</i> (Sheldrick, 2015)
;
_computing_structure_solution
;
<i>SHELXS2016</i> (Sheldrick, 2015)
;
_diffrn_ambient_temperature      293(2)
_diffrn_detector_area_resol_mean 8.1883
_diffrn_measured_fraction_theta_full 0.999
_diffrn_measured_fraction_theta_max 0.999
_diffrn_measurement_device_type
'Agilent Xcalibur (Sapphire2, large Be window)'
_diffrn_measurement_method       '\w scans'
_diffrn_radiation_monochromator  graphite
_diffrn_radiation_type           MoK\a
_diffrn_radiation_wavelength     0.71073
_diffrn_reflns_av_R_equivalents  0.0256
_diffrn_reflns_limit_h_max       8
_diffrn_reflns_limit_h_min       -6
_diffrn_reflns_limit_k_max       10
_diffrn_reflns_limit_k_min       -11
_diffrn_reflns_limit_l_max       15
_diffrn_reflns_limit_l_min       -15
_diffrn_reflns_number            4858
_diffrn_reflns_theta_full        25.242
_diffrn_reflns_theta_max         25.997
_diffrn_reflns_theta_min         2.616
_exptl_absorpt_coefficient_mu    0.223
_exptl_absorpt_correction_T_max  0.959
_exptl_absorpt_correction_T_min  0.923
_exptl_absorpt_correction_type   analytical
_exptl_absorpt_process_details
;
[CrysAlis PRO (Agilent, 2013), based on expressions derived by
Clark & Reid (1995)]
;
_exptl_crystal_colour            colourless
_exptl_crystal_density_diffrn    1.356
_exptl_crystal_description       prism
_exptl_crystal_F_000             332
_exptl_crystal_size_max          0.7274
_exptl_crystal_size_mid          0.414
_exptl_crystal_size_min          0.2707
_refine_diff_density_max         0.587
_refine_diff_density_min         -0.246
_refine_ls_extinction_method     none
_refine_ls_goodness_of_fit_ref   1.039
_refine_ls_hydrogen_treatment    constr
_refine_ls_matrix_type           full
_refine_ls_number_parameters     201
_refine_ls_number_reflns         3039
_refine_ls_number_restraints     0
_refine_ls_restrained_S_all      1.039
_refine_ls_R_factor_all          0.1090
_refine_ls_R_factor_gt           0.0709
_refine_ls_shift/su_max          0.000
_refine_ls_shift/su_mean         0.000
_refine_ls_structure_factor_coef Fsqd
_refine_ls_weighting_details
'w=1/[\s^2^(Fo^2^)+(0.1069P)^2^+0.0208P] where P=(Fo^2^+2Fc^2^)/3'
_refine_ls_weighting_scheme      calc
_refine_ls_wR_factor_gt          0.1693
_refine_ls_wR_factor_ref         0.2094
_reflns_number_gt                1883
_reflns_number_total             3039
_reflns_threshold_expression     'I > 2\s(I)'
_cod_data_source_file            cu3106sup1.cif
_cod_data_source_block           I
_cod_depositor_comments
'Adding full bibliography for 2020699--2020700.cif.'
_cod_database_code               2020699
_cod_database_fobs_code          2020699
_shelx_hkl_file
;
   0   0  -2 183594. 904.201   3
   0   0   2 183710. 903.326   3
   0   0   3 224.427 40.8727   3
   0   0  -3 233.386 44.4990   3
   0   0  -4 574.843 75.4931   3
   0   0  -5 3251.33 195.779   3
   0   0  -6 650.723 99.1630   3
   0   0  -6 469.000 35.0124   1
   0   0  -7 7138.97 346.449   3
   0   0  -8 677.180 123.093   3
   0   0  -9 14066.0 562.461   3
   0   0 -10 2835.87 271.743   3
   0   0 -11 23.8039 40.8547   3
   0   0 -12-13.5356 44.9037   3
   0   0  12-32.7972 37.6279   4
   0   0 -13 109.295 73.5084   3
   0   0  13 122.504 64.4818   4
   0   0 -14 101.733 76.7928   3
   0   0 -15-139.640 90.0183   3
   0   0 -16 8.01726 42.1419   3
   0   1 -16 63.3381 73.7134   3
   0   1 -15-15.6667 59.6216   3
   0   1 -14 169.096 90.6112   3
   0   1 -13 15.8968 65.6937   3
   0   1 -12 1196.69 206.426   3
   0  -1  12 799.515 126.874   4
   0   1 -11-12.2905 34.6268   3
   0  -1  11-34.5209 31.9377   4
   0   1 -10 1074.32 170.526   3
   0  -1  10 966.128 125.524   4
   0  -1   9 4337.67 245.601   4
   0   1  -9 5102.80 342.587   3
   0   1  -8 886.165 135.276   3
   0  -1   8 1005.04 111.607   4
   0   1  -7 3370.75 108.408   1
   0  -1   7 3384.67 187.793   4
   0   1  -6 9643.03 374.217   3
   0  -1   6 10520.2 298.915   4
   0   1  -6 9897.13 190.729   1
   0  -1   5 19201.3 359.692   4
   0   1  -5 19294.8 263.054   1
   0  -1   5 19094.5 261.443   1
   0   1  -5 19954.2 484.582   3
   0   1  -4 290.763 60.9905   3
   0  -1   4 357.519 43.2825   4
   0  -1   4 324.744 35.0850   1
   0   1  -4 250.071 30.1112   1
   0  -1   3 41983.5 373.795   1
   0   1  -3 42241.2 376.685   1
   0  -1   3 42402.1 385.014   4
   0   1  -3 41344.9 568.299   3
   0   1  -2 1104.03 79.6153   3
   0   1  -2 1071.05 50.2568   4
   0  -1   2 1129.15 59.5403   1
   0   1  -2 1158.42 62.1069   1
   0  -1   2 1126.63 50.9421   4
   0  -1   1 924.564 55.7744   1
   0   1   1 33196.7 393.582   4
   0  -1  -1 33507.4 363.759   3
   0   1   2 23443.0 358.744   3
   0  -1  -2 23275.6 358.374   3
   0  -1  -3 44587.9 591.207   3
   0  -1  -4 17.6055 21.3645   3
   0  -1  -5 33458.5 634.377   3
   0  -1  -6 22497.1 581.012   3
   0  -1  -7 1618.05 171.663   3
   0  -1  -8 293.365 83.9426   3
   0  -1  -9 2610.19 245.284   3
   0  -1  -9 2255.97 90.5732   1
   0  -1 -10 14204.9 605.441   3
   0  -1 -11 38.0053 47.3797   3
   0  -1 -12 195.591 90.3826   3
   0  -1 -13 1778.74 255.236   3
   0  -1 -14 1411.30 247.728   3
   0   1  14 1123.76 183.365   4
   0  -1 -15 133.693 94.5892   3
   0  -1 -16-14.8542 42.4297   3
   0   2 -16-164.066 101.638   3
   0   2 -15 261.670 120.102   3
   0   2 -14-45.9239 58.1850   3
   0   2 -13 45.5132 73.7183   3
   0   2 -12 2617.45 304.379   3
   0  -2  11 1745.15 161.748   4
   0   2 -11 1923.71 245.912   3
   0  -2  10 238.969 60.3931   4
   0   2 -10 303.003 101.347   3
   0   2  -9 6038.62 375.690   3
   0  -2   9 6066.46 265.543   4
   0  -2   8 10036.0 316.585   4
   0   2  -8 10119.8 461.921   3
   0  -2   7 1935.67 128.356   4
   0   2  -7 2097.49 200.124   3
   0  -2   7 2379.72 121.550   1
   0   2  -6 6953.71 332.983   3
   0  -2   6 6898.25 216.443   4
   0  -2   6 6964.67 209.321   1
   0  -2   5 17936.2 315.484   4
   0   2  -5 18098.8 498.043   3
   0  -2   5 18174.1 340.116   1
   0   2  -4 41481.4 442.121   4
   0  -2   4 43319.2 434.875   4
   0   2  -4 43387.5 697.924   3
   0  -2   4 42415.1 511.078   1
   0   2  -3 6879.78 162.941   4
   0  -2   3 6853.80 164.718   4
   0  -2   3 6465.57 200.288   1
   0  -2   2 4100.32 127.370   4
   0  -2   2 4148.91 162.426   1
   0   2  -2 4150.01 125.027   4
   0  -2   1 17350.2 285.875   4
   0   2  -1 17338.9 279.522   4
   0  -2   1 17481.6 337.791   1
   0  -2   0 37034.1 476.559   4
   0   2   0 36734.7 459.854   4
   0   2   0 36315.4 498.135   3
   0  -2  -1 5259.72 201.248   4
   0   2   1 5596.39 206.146   4
   0   2   1 5047.35 191.392   3
   0  -2  -1 5182.47 192.908   3
   0  -2  -2 936.364 91.1165   3
   0  -2  -3 1212.12 110.900   3
   0  -2  -4 2521.26 169.636   3
   0  -2  -5 22376.1 548.768   3
   0  -2  -6 194.637 62.5133   3
   0  -2  -7 2970.72 234.769   3
   0  -2  -8 6967.72 385.865   3
   0  -2  -9 1893.81 214.489   3
   0  -2  -9 1384.22 105.075   1
   0  -2 -10 956.796 163.384   3
   0  -2 -11 5006.09 401.391   3
   0  -2 -12 78.1380 95.0663   3
   0  -2 -13 1942.68 277.269   3
   0  -2 -14 896.527 201.043   3
   0  -2 -15-19.7504 59.4781   3
   0   3 -15 123.083 84.6112   3
   0   3 -14 3.45711 39.2712   3
   0   3 -13 192.410 67.5517   3
   0   3 -12 48.9916 42.8426   3
   0   3 -11 205.940 83.7334   3
   0   3 -10 2981.47 290.444   3
   0  -3  10 2891.45 179.642   4
   0   3  -9 5548.62 373.665   3
   0  -3   9 5863.35 227.164   1
   0  -3   9 5087.08 223.778   4
   0  -3   8 3.19112 17.3795   1
   0  -3   8-4.08500 13.3320   4
   0   3  -8 8.17717 30.2215   3
   0   3  -7 448.901 102.162   3
   0  -3   7 461.022 68.7884   1
   0  -3   7 352.579 52.7948   4
   0  -3   6 8418.21 284.552   1
   0   3  -6 8009.82 382.096   3
   0  -3   6 8025.67 237.463   4
   0   3  -5 2782.56 127.871   4
   0   3  -5 2614.35 205.935   3
   0  -3   5 3002.67 168.027   1
   0  -3   5 2423.20 121.385   4
   0  -3   4 4788.57 167.537   4
   0   3  -4 5139.03 170.144   4
   0  -3   4 5148.42 220.727   1
   0  -3   3 1260.44 88.3766   4
   0  -3   3 1473.29 119.276   1
   0   3  -3 1626.06 101.109   4
   0  -3   2 55013.7 605.847   4
   0   3  -2 53928.2 568.774   4
   0  -3   2 54091.0 728.356   1
   0  -3   1 32571.9 509.217   4
   0  -3   1 32166.7 570.138   1
   0  -3   0 3755.56 187.183   4
   0  -3   0 3906.49 201.295   1
   0  -3  -1 33851.7 600.892   3
   0  -3  -1 33853.1 615.147   4
   0  -3  -2 269.876 60.9710   3
   0  -3  -3 286.262 65.0599   3
   0  -3  -4 3598.48 228.330   3
   0  -3  -5-13.2084 43.1302   3
   0  -3  -6 9521.66 418.424   3
   0  -3  -7-8.93131 35.2108   3
   0  -3  -8 8947.79 333.826   1
   0  -3  -8 8889.33 455.516   3
   0  -3  -9 474.989 113.339   3
   0  -3  -9 349.409 67.3724   1
   0  -3 -11 2970.15 310.245   3
   0  -3 -12 152.392 83.3330   3
   0  -3 -13 810.370 183.587   3
   0  -3 -14-291.856 122.156   3
   0  -3 -15 577.324 171.440   3
   0   4 -15 275.407 133.319   3
   0   4 -14 76.6088 61.9732   3
   0   4 -13 517.583 158.658   3
   0   4 -12 4.69481 74.1315   3
   0   4 -11-59.3966 73.3958   3
   0   4 -10 527.879 130.873   3
   0  -4   9-66.4949 33.3295   1
   0   4  -9-22.1464 36.0041   3
   0  -4   9 15.2121 16.3854   4
   0  -4   8 91.8140 36.2755   1
   0  -4   8 19.5880 20.1184   4
   0   4  -8 112.914 68.4688   3
   0  -4   7 2189.60 132.872   4
   0   4  -7 2161.32 222.295   3
   0  -4   6 5536.75 209.692   4
   0   4  -6 5494.00 331.126   3
   0  -4   5 819.211 103.791   1
   0  -4   5 553.149 68.5695   4
   0  -4   4 2467.00 177.243   1
   0  -4   4 2369.45 141.804   4
   0  -4   3 22.4856 21.7366   4
   0  -4   3 6.89111 22.1933   1
   0  -4   2 2975.47 202.292   1
   0  -4   2 2830.68 170.433   4
   0  -4   1 8888.78 349.047   1
   0  -4   1 8820.10 318.604   4
   0  -4   0 31643.2 635.247   4
   0  -4   0 30826.7 662.923   1
   0  -4  -1 101.047 47.8816   1
   0  -4  -1 64.6374 37.7242   4
   0  -4  -2 3714.94 233.101   3
   0  -4  -3 31362.8 696.022   3
   0  -4  -4 20618.6 599.746   3
   0  -4  -5 3708.15 264.576   3
   0  -4  -6 175.872 58.7902   1
   0  -4  -6 145.311 62.2373   3
   0  -4  -7 1693.17 167.698   1
   0  -4  -7 1277.85 67.4107   2
   0  -4  -8 2072.69 186.262   1
   0  -4  -8 2293.64 255.647   3
   0  -4  -9 13187.1 615.023   3
   0  -4  -9 11210.6 425.584   1
   0  -4 -10 505.310 132.404   3
   0  -4 -11-111.010 75.1254   3
   0  -4 -12 322.413 126.521   3
   0  -4 -13 1150.29 228.234   3
   0  -4 -14 1287.17 262.608   3
   0   5 -15 322.321 132.272   3
   0   5 -14-148.553 88.9262   3
   0   5 -13 132.629 86.8861   3
   0   5 -12 668.661 166.592   3
   0   5 -11 784.007 171.841   3
   0   5 -10 172.505 92.0323   3
   0   5  -9 130.264 71.9236   3
   0  -5   9 67.6527 38.4833   1
   0  -5   8 49.6179 26.8013   4
   0  -5   8 84.7116 46.8960   1
   0   5  -8 121.209 71.4433   3
   0  -5   7-16.5759 35.9281   1
   0  -5   7 28.2282 19.1070   4
   0   5  -7-8.72159 42.4000   3
   0   5  -6 21.6520 40.3360   3
   0  -5   6 36.8918 29.8782   4
   0  -5   6 91.8020 53.6290   1
   0  -5   5 2633.98 207.546   1
   0  -5   5 2564.41 163.564   4
   0  -5   4 8271.37 305.840   4
   0  -5   4 8384.04 371.765   1
   0  -5   3 3029.87 195.800   4
   0  -5   3 2929.08 221.699   1
   0  -5   2 131.749 52.0881   4
   0  -5   2 132.635 52.1182   1
   0  -5   1 4404.09 258.377   4
   0  -5   1 4502.94 286.742   1
   0  -5   0 114.678 57.0068   4
   0  -5   0 101.730 53.2028   1
   0  -5  -1 1963.45 189.836   4
   0  -5  -1 2137.77 199.592   1
   0  -5  -2 20753.0 621.294   3
   0  -5  -2 20506.9 623.362   1
   0  -5  -3 13352.4 510.614   1
   0  -5  -3 13500.5 507.497   3
   0  -5  -4 9624.66 440.020   3
   0  -5  -4 9244.65 428.599   1
   0  -5  -5 85.3813 56.0318   3
   0  -5  -5-5.29131 37.1790   1
   0  -5  -6 1106.30 170.332   3
   0  -5  -6 937.848 140.298   1
   0  -5  -7 205.270 77.7551   3
   0  -5  -7 214.846 71.2196   1
   0  -5  -8 10050.0 455.902   1
   0  -5  -8 9910.46 526.259   3
   0  -5  -9 3828.88 280.785   1
   0  -5  -9 4355.94 373.051   3
   0  -5 -10 1096.78 194.729   3
   0  -5 -11 522.316 148.174   3
   0  -5 -12 65.1362 82.2594   3
   0  -5 -13 94.2690 91.9505   3
   0  -5 -14 654.508 188.749   3
   0   6 -14 137.803 95.1717   3
   0   6 -13-61.9461 69.3237   3
   0   6 -12 28.7674 63.2722   3
   0   6 -11 137.124 100.930   3
   0   6 -10 116.616 69.6934   3
   0   6  -9 38.3706 70.0118   3
   0  -6   9 56.6098 44.7736   1
   0  -6   8 1427.09 172.907   1
   0   6  -8 1020.60 182.756   3
   0  -6   7 990.081 109.531   4
   0   6  -7 1335.39 195.904   3
   0  -6   7 1181.15 153.442   1
   0  -6   6 450.418 102.360   1
   0  -6   6 297.092 67.6351   4
   0  -6   5 52.6111 31.3579   4
   0  -6   5 51.8322 36.9014   1
   0  -6   4 25.3358 28.4685   1
   0  -6   4 22.4557 36.0512   4
   0  -6   3 171.653 70.4947   1
   0  -6   3 121.215 48.4618   4
   0  -6   2 5786.74 350.216   1
   0  -6   2 5971.40 321.968   4
   0  -6   1 4746.80 300.130   4
   0  -6   1 4655.34 321.132   1
   0  -6   0 4795.62 312.362   4
   0  -6   0 4647.31 324.111   1
   0  -6  -1 185.718 70.1834   1
   0  -6  -1 153.977 65.1561   4
   0  -6  -2 613.060 121.569   1
   0  -6  -3 4394.17 324.634   3
   0  -6  -3 4181.95 319.160   1
   0  -6  -4 278.252 93.3889   1
   0  -6  -4 220.492 84.5081   3
   0  -6  -5 142.253 67.8322   1
   0  -6  -5 180.797 78.2223   3
   0  -6  -6 1556.03 210.980   3
   0  -6  -6 1122.88 169.853   1
   0  -6  -7-17.7034 37.4947   1
   0  -6  -7 18.9822 48.5328   3
   0  -6  -8-32.5995 54.4295   3
   0  -6  -8 97.3305 58.3587   1
   0  -6  -9 2125.83 231.516   1
   0  -6  -9 3014.74 334.571   3
   0  -6 -10-7.55334 65.0450   3
   0  -6 -11 1064.31 218.312   3
   0  -6 -12 258.698 119.884   3
   0  -6 -13-211.820 120.396   3
   0   7 -13 192.545 104.821   3
   0   7 -12 118.503 110.019   3
   0   7 -11-28.9388 53.3202   3
   0   7 -10 583.870 169.971   3
   0  -7   9 143.502 64.9121   1
   0   7  -9 54.6814 60.3039   3
   0  -7   8 1468.92 192.482   1
   0   7  -8 1053.53 202.099   3
   0  -7   7 1463.13 189.256   1
   0   7  -7 1895.94 248.247   3
   0  -7   6 519.344 97.7664   4
   0  -7   6 955.365 160.181   1
   0  -7   5 39.7839 45.6932   1
   0  -7   5 38.6689 34.2565   4
   0  -7   4 2292.68 208.326   4
   0  -7   4 2693.92 261.943   1
   0  -7   3 2317.33 314.321   4
   0  -7   3 2485.40 250.080   1
   0  -7   2 5.24102 47.6614   1
   0  -7   2 13.1682 29.8070   4
   0  -7   1 112.332 60.9563   4
   0  -7   1 53.1214 53.1071   1
   0  -7   0 84.4866 56.5871   1
   0  -7   0 27.3118 37.5112   4
   0  -7  -1 1916.64 230.391   1
   0  -7  -2 59.6301 45.7823   1
   0  -7  -3 661.474 141.599   1
   0  -7  -4 2820.62 288.311   1
   0  -7  -4 2576.29 279.205   3
   0  -7  -5 2001.17 244.311   1
   0  -7  -5 1973.54 245.554   3
   0  -7  -6 840.518 173.183   3
   0  -7  -6 714.812 150.182   1
   0  -7  -7 121.375 76.7423   1
   0  -7  -7 24.5844 47.9087   3
   0  -7  -8 91.5856 72.6783   3
   0  -7  -8 159.859 72.3492   1
   0  -7  -9 133.978 69.8067   1
   0  -7  -9 107.946 76.1485   3
   0  -7 -10 180.567 97.5193   3
   0  -7 -11 497.790 164.750   3
   0  -7 -12 460.944 170.961   3
   0   8 -12-17.5925 55.0425   3
   0   8 -11 20.6868 56.0790   3
   0   8 -10 18.1508 55.8993   3
   0  -8   9 115.585 84.1432   1
   0   8  -9 189.635 97.1007   3
   0   8  -8 246.451 111.522   3
   0  -8   8 122.598 76.3466   1
   0  -8   7-4.57099 39.1506   1
   0  -8   6 525.443 127.670   1
   0  -8   5 528.184 122.194   1
   0  -8   5 320.327 83.9404   4
   0  -8   4 1222.80 166.122   4
   0  -8   4 1393.72 208.964   1
   0  -8   3 1227.72 172.838   4
   0  -8   3 1346.09 206.990   1
   0  -8   2 3.19240 38.4744   4
   0  -8   2 71.0285 64.1787   1
   0  -8   1-1.45653 42.4406   1
   0  -8   0 665.584 152.724   1
   0  -8  -1-31.4519 44.8411   1
   0  -8  -2-42.0179 54.6559   1
   0  -8  -3 95.9458 86.8009   1
   0  -8  -4 21.7654 53.8331   1
   0  -8  -5 291.097 113.117   3
   0  -8  -5 244.431 95.0662   1
   0  -8  -6 1860.32 266.591   3
   0  -8  -6 1215.08 210.793   1
   0  -8  -7 411.127 125.113   1
   0  -8  -7 624.532 159.989   3
   0  -8  -8 106.011 70.6090   1
   0  -8  -8-124.917 83.3338   3
   0  -8  -9 58.8628 71.6494   3
   0  -8 -10 354.729 135.304   3
   0  -8 -11 335.463 135.502   3
   0   9 -11 81.5765 82.3764   3
   0   9 -10 76.5420 74.9426   3
   0  -9   9 20.7441 43.5103   1
   0   9  -9 75.1707 45.2574   3
   0  -9   8 145.190 82.6615   1
   0   9  -8-6.15159 49.8181   3
   0  -9   7 1104.71 201.870   1
   0  -9   6 76.7552 46.0465   1
   0  -9   5 114.608 79.9002   1
   0  -9   4 485.460 134.056   1
   0  -9   4 494.684 119.952   4
   0  -9   3 1212.86 212.222   1
   0  -9   2 114.163 80.5524   1
   0  -9   1 43.0755 54.7836   1
   0  -9   0 58.3737 62.5060   1
   0  -9  -1 38.9464 49.7436   1
   0  -9  -2 856.130 181.613   1
   0  -9  -3 1305.52 229.354   1
   0  -9  -4 98.6114 74.1691   1
   0  -9  -5 115.433 87.6371   1
   0  -9  -6 61.3892 55.6909   1
   0  -9  -7 90.6327 92.0188   3
   0  -9  -7-50.2632 63.0311   1
   0  -9  -8 155.668 88.4273   1
   0  -9  -8 1.51492 56.2818   3
   0  -9  -9 3.19167 79.5988   3
   0 -10   9 149.864 84.5515   1
   0  10  -9 53.9908 95.4118   3
   0  10  -8 35.1784 59.5532   3
   0 -10   8 33.8581 54.6500   1
   0 -10   7 581.265 157.981   1
   0 -10   6 288.955 111.931   1
   0 -10   5 95.5403 85.9915   1
   0 -10   4 24.4448 48.4529   1
   0 -10   3 417.798 134.222   1
   0 -10   2-2.60061 54.1796   1
   0 -10   1-6.57875 73.7211   1
   0 -10   0 349.359 127.428   1
   0 -10  -1 18.4100 50.7862   1
   0 -10  -2 593.820 175.083   1
   0 -10  -3 132.872 86.6020   1
   0 -10  -4 213.465 116.973   1
   0 -10  -5 71.9244 91.9176   1
   0 -10  -6-32.7959 59.0940   1
   0 -10  -7 99.0719 83.5787   1
   0 -10  -8 1.52000 40.4840   1
   0 -11   8 86.6678 120.882   1
   0 -11   7 111.440 83.4302   1
   0 -11   6-146.700 91.8841   1
   0 -11   5 68.6780 88.3541   1
   0 -11   4 487.646 154.342   1
   0 -11   3-24.0672 59.2374   1
   0 -11   2-46.0213 69.3831   1
   0 -11   1 154.830 98.1395   1
   0 -11   0 436.214 159.629   1
   0 -11  -1 88.3182 83.8316   1
   0 -11  -2 320.178 118.716   1
   0 -11  -3-59.9028 73.9045   1
   0 -11  -4 101.766 91.9074   1
   0 -11  -5-120.856 86.4857   1
   0 -11  -6 20.4990 68.8971   1
   1 -11  -6-96.3600 80.6345   1
   1 -11  -5-7.56481 40.7439   1
   1 -11  -4 23.9735 55.5486   1
   1 -11  -3 37.2415 86.7428   1
   1 -11  -2 197.154 105.562   1
   1 -11  -1 91.3776 77.8851   1
   1 -11   0 99.2324 69.0954   1
   1 -11   1-41.5525 64.3980   1
   1 -11   2 27.6039 60.3067   1
   1 -11   2 71.1352 61.6017   4
   1 -11   3-11.4168 47.5896   1
   1 -11   4 166.943 96.0313   1
   1 -11   5 203.370 99.8324   1
   1 -11   6 84.4519 76.1611   1
   1 -11   7 263.060 112.986   1
   1 -11   8 19.4409 51.7679   1
   1 -10  -8-27.8773 45.9613   1
   1 -10  -7 39.2886 64.2093   1
   1 -10  -6 7.66660 90.0938   1
   1 -10  -5 0.75421 81.5639   1
   1 -10  -4 418.388 146.562   1
   1 -10  -3 59.3615 67.8187   1
   1 -10  -2 121.606 75.8334   1
   1 -10  -1 28.3210 54.1096   1
   1 -10   0 281.744 111.892   1
   1 -10   0 211.088 93.7478   4
   1 -10   1 66.3017 60.3030   4
   1 -10   1 17.0292 51.5418   1
   1 -10   2 190.723 88.1415   4
   1 -10   2 78.8443 73.4781   1
   1 -10   3 196.957 86.6174   4
   1 -10   3 198.431 115.203   1
   1 -10   4 37.0720 45.9213   4
   1 -10   4 103.457 85.1666   1
   1 -10   5 221.088 104.992   1
   1 -10   6-130.631 80.7538   1
   1 -10   7 199.600 92.8863   1
   1 -10   8 51.9513 59.9113   1
  -1  10  -8 138.168 98.3023   3
  -1  10  -9 90.5152 78.6800   3
   1  -9  -9-78.5016 66.1167   1
   1  -9  -9-34.5948 107.674   3
   1  -9  -8 50.4605 76.6278   3
   1  -9  -8 135.223 84.7410   1
   1  -9  -7 169.547 100.748   3
   1  -9  -7 174.742 99.1711   1
   1  -9  -6 368.130 133.645   3
   1  -9  -6 270.417 124.330   1
   1  -9  -5 289.984 121.571   1
   1  -9  -4-5.19399 46.6744   1
   1  -9  -3-84.8976 66.7034   1
   1  -9  -2 111.827 76.4998   1
   1  -9  -2 379.610 134.629   4
   1  -9  -1 162.412 84.4600   1
   1  -9  -1 20.0054 63.5314   4
   1  -9   0 31.9728 46.3028   4
   1  -9   0 150.366 84.1989   1
   1  -9   1 267.266 103.007   4
   1  -9   1 319.618 115.755   1
   1  -9   2 72.9876 68.8041   1
   1  -9   2 35.7693 53.3368   4
   1  -9   3 540.898 141.456   1
   1  -9   3 371.185 121.937   4
   1  -9   4 134.687 68.2668   4
   1  -9   4 156.178 91.2430   1
   1  -9   5-7.98712 41.6136   4
   1  -9   5 7.29554 60.4834   1
   1  -9   6-54.9510 51.3298   1
   1  -9   7 40.4081 51.5123   1
   1  -9   8 135.479 80.4624   1
  -1   9  -8 291.660 112.450   3
  -1   9  -9 61.8065 66.2252   3
  -1   9 -10 155.965 97.5520   3
  -1   9 -11 60.3788 73.5025   3
   1  -8 -11 519.574 153.860   3
   1  -8 -10-123.621 91.2108   3
   1  -8  -9 58.9366 61.6044   1
   1  -8  -9 48.4561 74.4443   3
   1  -8  -8-134.554 88.4824   3
   1  -8  -8 104.473 70.2837   1
   1  -8  -7 970.769 197.948   3
   1  -8  -7 771.328 183.032   1
   1  -8  -6 247.767 85.9837   3
   1  -8  -6 376.447 121.803   1
   1  -8  -5 272.003 107.068   1
   1  -8  -5 230.643 101.409   3
   1  -8  -4 1025.81 196.262   1
   1  -8  -3 1073.32 198.984   4
   1  -8  -3 1112.35 197.999   1
   1  -8  -2 458.070 133.242   1
   1  -8  -2 414.481 119.975   4
   1  -8  -1 290.699 103.928   4
   1  -8  -1 330.761 114.390   1
   1  -8   0 364.854 115.141   4
   1  -8   0 318.545 114.823   1
   1  -8   1 656.028 149.698   4
   1  -8   1 720.071 160.045   1
   1  -8   2 189.949 75.6909   4
   1  -8   2 207.688 89.5325   1
   1  -8   3 260.078 95.9688   1
   1  -8   3 291.110 89.7746   4
   1  -8   4 315.258 97.8562   4
   1  -8   4 443.996 122.098   1
   1  -8   5 181.157 82.2514   1
   1  -8   5 122.339 50.0245   4
   1  -8   6 332.438 105.667   1
   1  -8   6 299.226 91.6041   4
   1  -8   7 132.937 69.9163   1
  -1   8  -8 236.678 100.861   3
   1  -8   8 213.959 81.7860   1
  -1   8  -9-95.5890 71.9467   3
  -1   8 -10 15.9671 47.6667   3
  -1   8 -11 95.9913 78.7580   3
  -1   8 -12 132.770 90.6505   3
   1  -7 -12 811.102 209.548   3
   1  -7 -11 229.817 115.966   3
   1  -7 -10 36.3770 86.2413   3
   1  -7  -9 135.717 73.3098   1
   1  -7  -9 327.752 122.486   3
   1  -7  -8 5683.59 457.102   3
   1  -7  -7 1143.22 201.416   3
   1  -7  -6 148.081 84.3699   3
   1  -7  -5 328.782 101.955   3
   1  -7  -4 117.437 66.3104   4
   1  -7  -4 130.697 73.5110   3
   1  -7  -3 86.3849 56.9288   4
   1  -7  -2 7164.81 454.073   4
   1  -7  -1 1900.99 226.663   4
   1  -7   0 535.669 129.265   4
   1  -7   1 1095.48 166.913   4
   1  -7   2 61.9393 50.2705   4
   1  -7   2 196.095 84.1443   1
   1  -7   3-32.9522 60.5932   1
   1  -7   3 162.837 64.7312   4
   1  -7   4 836.213 136.918   4
   1  -7   4 1006.46 162.891   1
   1  -7   5 58.4569 24.4680   4
   1  -7   5 3.81558 44.9649   1
   1  -7   6 526.436 113.174   1
   1  -7   6 401.364 93.9312   4
   1  -7   7 180.699 59.9868   4
   1  -7   7 228.352 88.6871   1
   1  -7   8-66.5002 47.8938   1
  -1   7  -8 53.9758 52.8275   3
  -1   7  -9-21.4180 50.5388   3
  -1   7 -10 90.5766 65.5348   3
  -1   7 -11 325.773 115.889   3
  -1   7 -12 78.1600 74.6372   3
  -1   7 -13-105.181 82.0472   3
   1  -6 -13 423.829 152.085   3
   1  -6 -12 166.262 79.1642   3
   1  -6 -11 48.4427 82.1332   3
   1  -6 -10 29.0695 67.4662   3
   1  -6  -9 317.280 116.030   3
   1  -6  -8 2149.19 282.532   3
   1  -6  -7 11885.4 599.504   3
   1  -6  -6 43.3017 51.4141   3
   1  -6  -5 1365.35 189.640   3
   1  -6  -4 1241.92 176.643   3
   1  -6  -4 791.486 154.003   4
   1  -6  -3 682.097 139.804   4
   1  -6  -3 690.040 136.396   3
   1  -6  -2 3012.11 277.050   4
   1  -6  -1 1452.10 185.633   4
   1  -6   0 1642.32 190.313   4
   1  -6   1 1181.47 157.321   4
   1  -6   2 7222.48 371.335   4
   1  -6   3 116.116 56.5890   4
   1  -6   3 84.0211 49.8050   1
   1  -6   4 279.343 82.5602   1
   1  -6   4 254.839 75.8440   4
   1  -6   5 214.974 69.2903   4
   1  -6   5 284.652 82.1359   1
   1  -6   6 264.080 71.3735   1
   1  -6   6 195.441 60.5864   4
  -1   6  -7 29.8062 45.8757   3
   1  -6   7-32.5150 29.5367   4
   1  -6   7 23.3772 40.4758   1
   1  -6   8 145.359 64.4579   1
   1  -6   8 39.5354 31.1884   4
  -1   6  -8 121.140 76.7240   3
  -1   6  -9 31.8436 65.0681   3
  -1   6 -10 15.0287 47.9922   3
  -1   6 -11 80.6364 67.3173   3
  -1   6 -12 207.635 96.8022   3
  -1   6 -13 160.574 95.5898   3
  -1   6 -14 148.432 109.406   3
   1  -5 -14-21.7922 69.2669   3
   1  -5 -13 2066.08 313.920   3
   1  -5 -12 349.370 135.476   3
   1  -5 -11 350.237 123.356   3
   1  -5 -10-25.6273 85.0174   3
   1  -5  -9 157.352 82.8988   3
   1  -5  -8 1563.30 216.099   3
   1  -5  -7 396.421 106.342   3
   1  -5  -6 152.292 76.7681   3
   1  -5  -5-12.5124 44.8328   3
   1  -5  -4 16496.5 612.573   4
   1  -5  -4 17269.5 599.986   3
   1  -5  -3 1761.06 188.484   3
   1  -5  -3 1407.88 178.830   4
  -1   5   3 1771.61 103.646   2
   1  -5  -2 344.174 90.4167   4
   1  -5  -2 354.416 81.5931   3
   1  -5  -1 5945.68 335.349   4
   1  -5   0 1623.29 170.220   4
   1  -5   1 3298.57 232.638   4
   1  -5   2 2185.36 186.172   4
   1  -5   3 905.482 117.026   4
   1  -5   4 7990.25 362.678   1
   1  -5   4 7624.77 327.045   4
   1  -5   5 1966.00 166.386   4
   1  -5   5 2135.47 186.961   1
   1  -5   6 1264.03 140.855   1
   1  -5   6 794.677 109.827   4
  -1   5  -6 1190.24 160.940   3
   1  -5   7 66.3824 40.0807   1
  -1   5  -7 35.9044 47.8388   3
   1  -5   7 52.7341 30.3919   4
  -1   5  -8 14.3824 48.0630   3
   1  -5   8 46.9897 34.5739   1
   1  -5   8 7.42334 22.5016   4
   1  -5   9 2078.27 181.200   4
  -1   5  -9 2256.95 267.441   3
  -1   5 -10 181.123 97.0219   3
  -1   5 -11 60.7714 74.1391   3
  -1   5 -12-0.62677 47.3111   3
  -1   5 -13 363.169 130.482   3
  -1   5 -14-31.0429 60.0835   3
  -1   5 -15 184.152 97.7838   3
   1  -4 -14 77.3979 69.0113   3
   1  -4 -13 119.958 82.3822   3
   1  -4 -12 1099.33 216.860   3
   1  -4 -11 4211.74 387.905   3
   1  -4 -10 752.815 161.430   3
   1  -4  -9 377.232 119.059   3
   1  -4  -8 968.619 164.838   3
   1  -4  -8 704.199 83.9139   2
   1  -4  -7 6805.55 403.923   3
   1  -4  -7 5614.66 206.233   2
   1  -4  -6-14.1157 12.3573   2
   1  -4  -6-39.7137 52.9584   3
   1  -4  -5 129.463 48.5376   3
   1  -4  -5 118.004 60.3904   4
   1  -4  -5 127.515 27.4880   2
   1  -4  -4 964.732 134.733   3
   1  -4  -4 1051.93 149.778   4
  -1   4   3 3915.34 146.928   2
   1  -4  -3 3619.92 259.034   4
   1  -4  -3 3843.01 250.937   3
   1  -4  -2 9388.64 371.199   3
  -1   4   2 9485.48 245.001   2
   1  -4  -2 9283.83 389.569   4
   1  -4  -1 398.911 81.6794   4
   1  -4  -1 381.252 79.7190   3
   1  -4   0 697.119 98.9466   4
   1  -4   1 1892.15 154.129   4
   1  -4   2 1061.36 117.043   4
   1  -4   3 17818.7 458.175   4
   1  -4   4 737.248 91.6281   4
   1  -4   5 646.460 92.0186   1
   1  -4   5 590.483 84.1465   4
   1  -4   6 12109.8 386.205   4
   1  -4   6 12678.2 387.078   1
  -1   4  -6 11465.9 480.006   3
   1  -4   7 1737.13 156.114   4
  -1   4  -7 2011.25 214.750   3
   1  -4   7 2396.94 162.992   1
  -1   4  -8 1828.22 215.371   3
   1  -4   8 1372.91 141.271   4
   1  -4   8 2013.85 145.143   1
  -1   4  -9 2750.49 277.338   3
   1  -4   9 2415.69 189.862   4
   1  -4  10 1805.14 170.091   4
  -1   4 -10 2381.76 272.564   3
  -1   4 -11-119.708 72.3131   3
  -1   4 -12 492.023 145.275   3
  -1   4 -13 68.0061 63.4120   3
  -1   4 -14 20.5866 53.0839   3
  -1   4 -15 27.4030 55.4056   3
   1  -3 -15 373.669 144.341   3
   1  -3 -14 298.831 128.106   3
   1  -3 -13 829.753 185.156   3
   1  -3 -12 601.768 150.936   3
   1  -3 -11 531.185 134.626   3
   1  -3 -10 4079.55 345.618   3
   1  -3  -9 71.2322 48.0485   3
   1  -3  -8 29052.9 826.086   3
   1  -3  -7 5559.92 236.885   2
   1  -3  -7 5848.71 348.394   3
   1  -3  -6 7823.29 259.303   2
   1  -3  -6 8105.59 392.387   3
   1  -3  -5 3422.57 238.667   3
   1  -3  -5 3124.82 235.593   4
   1  -3  -5 3014.95 147.932   2
   1  -3  -4 3728.59 236.141   3
   1  -3  -4 3915.83 256.330   4
   1  -3  -4 3486.57 140.685   2
   1  -3  -3 645.911 58.6861   2
   1  -3  -3 620.878 96.7932   3
  -1   3   3 698.007 62.5984   2
   1  -3  -3 699.702 105.049   4
   1  -3  -2 219.880 54.4102   3
   1  -3  -2 242.477 63.7893   4
  -1   3   2 249.626 38.0356   2
   1  -3  -1 351.286 69.7448   4
   1  -3  -1 379.243 69.3743   3
   1  -3   0 39024.2 632.170   4
   1  -3   1 149218. 1196.40   4
   1  -3   2 2755.69 160.428   4
   1  -3   3 5714.40 233.346   4
   1  -3   4 9803.08 321.823   4
   1  -3   5 1521.92 126.990   4
  -1   3  -5 1240.46 146.918   3
   1  -3   6 713.267 76.8946   1
  -1   3  -6 730.817 121.544   3
   1  -3   6 691.536 87.3375   4
   1  -3   7 87.7645 37.6521   4
   1  -3   7 141.497 34.8626   1
  -1   3  -8 24.4312 33.6324   3
   1  -3   8 21.6457 30.3531   4
   1  -3   8 33.7438 17.9227   1
  -1   3  -9 1310.64 190.163   3
   1  -3   9 1124.74 130.764   4
  -1   3 -10 82.7755 63.7260   3
   1  -3  10 37.1612 34.7187   4
   1  -3  11 1092.31 140.389   4
  -1   3 -11 1588.26 228.340   3
  -1   3 -12 1313.45 218.974   3
  -1   3 -13-21.6871 66.5106   3
  -1   3 -14 2.77024 36.8675   3
  -1   3 -15 60.3890 76.6555   3
   1  -2 -15 394.154 148.968   3
   1  -2 -14 412.947 137.583   3
   1  -2 -13 737.401 172.208   3
   1  -2 -12 125.919 74.9342   3
   1  -2 -11 893.237 168.709   3
   1  -2 -10 2569.84 270.638   3
   1  -2  -9 2930.27 274.957   3
   1  -2  -8 53.7999 50.2937   3
   1  -2  -7 953.896 135.544   3
   1  -2  -6 3.19316 31.5485   3
   1  -2  -5 25889.1 606.836   3
   1  -2  -4 3610.37 208.914   3
   1  -2  -4 3444.01 155.846   2
   1  -2  -4 3697.29 219.534   4
   1  -2  -3 3857.16 199.318   3
   1  -2  -3 3922.63 209.146   4
   1  -2  -3 3651.31 150.435   2
   1  -2  -2 7264.66 249.950   3
   1  -2  -2 7305.34 194.045   2
  -1   2   2 7484.19 200.075   2
   1  -2  -2 7217.41 260.488   4
   1  -2  -1 10006.9 285.555   4
   1  -2  -1 10004.3 269.835   3
  -1   2   1 9924.14 232.894   2
   1  -2   0 652164. 2191.04   4
  -1   2   0 644367. 2084.99   3
   1  -2   1 540.015 67.0765   4
   1  -2   2 999999. 2865.68   4
   1  -2   3 4911.57 195.658   4
  -1   2  -4 11345.4 362.989   3
   1  -2   4 11865.1 322.078   4
   1  -2   5 1418.08 118.413   4
  -1   2  -5 1276.92 134.563   3
   1  -2   6 9565.55 321.506   4
  -1   2  -6 9917.50 394.059   3
   1  -2   6 9381.51 208.359   1
  -1   2  -7 10588.6 435.158   3
   1  -2   7 10728.1 363.852   4
   1  -2   7 10393.9 204.365   1
   1  -2   8 605.146 95.3036   4
  -1   2  -8 594.680 115.187   3
   1  -2   9 1713.33 166.309   4
  -1   2  -9 1994.80 222.380   3
   1  -2  10 197.034 61.9812   4
  -1   2 -10 253.847 98.2935   3
  -1   2 -11 3401.57 328.640   3
   1  -2  11 2887.66 235.408   4
   1  -2  12 161.591 61.6327   4
  -1   2 -12-61.1349 63.5049   3
  -1   2 -13 204.839 97.4079   3
  -1   2 -14 112.966 77.4521   3
  -1   2 -15 82.1849 79.5874   3
  -1   2 -16 112.594 82.2238   3
   1  -1 -15-162.691 96.6707   3
   1  -1 -14 108.355 86.0163   3
   1  -1 -13 60.0477 66.5922   3
   1  -1 -12 338.102 112.481   3
   1  -1 -11 497.115 130.326   3
   1  -1 -10 6577.00 417.308   3
   1  -1  -9 377.256 104.289   3
   1  -1  -8 4181.05 294.649   3
   1  -1  -7 3371.80 244.026   3
   1  -1  -6 3563.95 234.374   3
   1  -1  -5 37267.5 681.964   3
   1  -1  -4 12903.8 362.839   3
   1  -1  -4 13368.0 355.439   4
  -1   1   3 11801.7 298.339   4
   1  -1  -3 11823.4 309.509   3
   1  -1  -3 11295.1 295.027   4
  -1   1   2 3878.77 150.123   3
   1  -1  -2 3981.69 151.609   2
  -1   1   2 4163.03 162.281   4
   1  -1  -2 4124.64 157.599   3
   1  -1  -2 3867.51 154.364   4
  -1   1   1 33569.1 425.665   4
  -1   1   1 33831.3 413.594   2
   1  -1  -1 32889.2 400.017   2
  -1   1   1 32791.5 370.099   3
   1  -1  -1 32356.8 379.466   3
   1  -1  -1 32923.6 423.972   4
  -1   1   0 6085.59 142.130   3
   1  -1   0 5929.45 177.009   4
  -1   1   0 5991.08 175.529   2
  -1   1   0 6189.41 188.284   4
   1  -1   0 5426.42 137.300   3
   1  -1   1 29618.5 400.998   4
  -1   1  -1 30721.7 420.822   4
   1  -1   2 2203.94 119.818   4
  -1   1  -2 2391.79 127.872   4
  -1   1  -2 2339.70 112.279   3
  -1   1  -3 74245.7 741.656   3
   1  -1   3 73682.4 740.987   4
   1  -1   4 11995.8 323.835   4
  -1   1  -4 11519.8 329.631   3
  -1   1  -5 3680.88 211.985   3
   1  -1   5 3791.20 199.332   4
  -1   1  -6 940.846 120.679   3
   1  -1   6 864.612 104.416   4
   1  -1   7 5013.37 263.270   4
  -1   1  -7 5122.39 295.481   3
   1  -1   8 3959.84 249.234   4
  -1   1  -8 4190.17 286.903   3
   1  -1   9 6268.42 333.242   4
  -1   1  -9 6643.93 395.022   3
  -1   1 -10 2279.07 248.283   3
   1  -1  10 1878.13 193.637   4
  -1   1 -11-9.40621 67.0008   3
   1  -1  11-10.3821 29.5311   4
   1  -1  12 187.105 69.9064   4
  -1   1 -12 181.647 63.4991   3
  -1   1 -13 722.099 163.749   3
   1  -1  13 629.104 131.037   4
  -1   1 -14 165.944 90.4557   3
  -1   1 -15 9.63509 46.5632   3
  -1   1 -16 281.159 124.924   3
   1   0 -16-50.5924 73.4783   3
   1   0 -15 604.752 168.231   3
   1   0 -14 134.534 79.7928   3
   1   0 -13 46.4755 53.8074   3
   1   0 -12 2734.28 307.553   3
   1   0 -11 620.480 142.954   3
   1   0 -10 996.476 164.146   3
   1   0  -9 2132.23 223.882   3
   1   0  -8 12013.3 489.421   3
   1   0  -7 33041.1 748.980   3
   1   0  -6 14420.8 459.235   3
  -1   0   5 7214.61 237.620   4
   1   0  -5 7280.84 296.848   3
  -1   0   4 12475.5 271.997   4
   1   0  -4 12581.0 348.599   3
   1   0  -4 12379.6 277.796   4
   1   0  -3 2209.03 126.607   3
   1   0  -3 2202.50 102.574   4
  -1   0   3 2076.44 97.8356   4
  -1   0   2 1711.90 78.0502   4
   1   0  -2 1570.21 88.2191   3
  -1   0   2 1517.55 86.2554   3
   1   0  -2 1632.34 76.7449   4
  -1   0   1 15709.8 282.181   2
  -1   0   1 15509.2 200.899   3
   1   0  -1 15634.1 284.454   2
  -1   0   1 15651.2 229.889   4
   1   0   0 25.4794 13.9923   4
  -1   0   0 23.1159 15.4453   2
   1   0   0 44.9112 17.4856   2
  -1   0   0 26.5494 12.6464   4
  -1   0  -1 2112.94 101.251   2
  -1   0  -1 2059.40 106.811   4
   1   0   1 2126.25 105.061   4
  -1   0  -2 110358. 672.037   3
   1   0   2 111890. 861.964   4
   1   0   2 109783. 661.641   3
  -1   0  -2 110385. 879.405   4
   1   0   2 110793. 628.079   1
   1   0   3 616.348 73.0179   4
   1   0   3 491.985 59.7046   3
  -1   0  -3 455.385 56.3525   3
   1   0   3 629.500 44.0522   1
  -1   0  -4 1079.61 99.9959   3
   1   0   4 1066.10 107.314   4
  -1   0  -5 16005.3 433.168   3
   1   0   5 17476.2 460.963   4
   1   0   6 1718.13 158.694   4
  -1   0  -6 1590.21 151.552   3
   1   0   7 1029.08 130.845   4
  -1   0  -7 971.328 129.897   3
  -1   0  -8 5289.05 316.774   3
   1   0   8 5704.65 322.544   4
  -1   0  -9 2224.77 225.214   3
   1   0   9 2114.99 206.338   4
  -1   0 -10 1049.26 173.179   3
   1   0  10 1263.26 168.671   4
   1   0  11 1020.23 159.966   4
  -1   0 -11 1169.89 190.238   3
  -1   0 -12 1918.81 258.938   3
   1   0  12 2325.06 248.609   4
  -1   0 -13 3752.82 375.480   3
   1   0  13 3161.17 302.784   4
   1   0  14 418.077 110.720   4
  -1   0 -14 414.022 132.379   3
  -1   0 -15-179.858 98.8715   3
  -1   0 -16-70.0939 76.1383   3
   1   1 -16-174.016 97.5387   3
   1   1 -15 431.932 154.633   3
   1   1 -14 155.379 90.8512   3
   1   1 -13 124.746 81.3122   3
   1   1 -12 3206.79 326.344   3
  -1  -1  11 554.574 91.9133   4
   1   1 -11 795.228 161.832   3
   1   1 -10 5397.81 379.435   3
   1   1  -9 2015.26 216.697   3
   1   1  -8 2621.35 230.525   3
   1   1  -7 3052.89 230.452   3
  -1  -1   7 2636.54 146.151   4
   1   1  -6 3226.22 218.151   3
  -1  -1   6 3044.58 137.920   4
   1   1  -5 172.053 51.2605   3
  -1  -1   5 188.834 29.2110   4
  -1  -1   4 23651.8 256.143   4
   1   1  -4 23656.2 483.697   3
  -1  -1   4 23752.1 427.219   1
   1   1  -3 47742.0 608.156   3
   1   1  -3 47685.8 590.408   1
  -1  -1   3 47514.3 578.880   1
   1   1  -2 138522. 980.532   1
  -1  -1   2 138905. 969.386   1
   1   1  -2 139189. 889.242   3
  -1  -1   1 25179.0 401.603   1
   1   1  -1 24716.0 273.281   4
   1   1  -1 25253.0 406.449   1
   1   1   0 3954.70 156.116   1
  -1  -1   0 3834.57 153.177   1
   1   1   0 3947.10 137.674   2
  -1  -1  -1 27154.6 398.136   1
  -1  -1  -1 27240.6 322.004   3
  -1  -1  -1 27544.6 350.618   2
   1   1   1 26892.7 391.359   1
   1   1   1 26821.8 339.923   2
   1   1   1 26308.1 312.917   3
  -1  -1  -2 957.682 73.8876   1
   1   1   2 1032.37 73.9255   1
  -1  -1  -2 1096.47 72.0005   2
   1   1   2 1047.86 75.6724   3
  -1  -1  -2 964.066 72.3446   3
  -1  -1  -3 1774.09 113.804   3
  -1  -1  -3 1594.54 94.1465   1
   1   1   3 1806.18 93.7960   1
  -1  -1  -4 698.320 82.9768   3
  -1  -1  -4 822.791 65.6296   1
   1   1   4 940.205 66.5197   1
  -1  -1  -5 4541.87 231.108   3
  -1  -1  -5 4346.54 142.669   1
  -1  -1  -6 11092.8 395.873   3
  -1  -1  -6 10403.7 206.713   1
  -1  -1  -7 5000.60 290.909   3
  -1  -1  -7 3395.50 99.6078   1
  -1  -1  -8 1446.66 172.715   3
  -1  -1  -9 925.777 145.709   3
  -1  -1 -10 2744.25 269.715   3
   1   1  11 980.344 170.871   4
  -1  -1 -11 857.032 170.367   3
  -1  -1 -12-202.710 90.7658   3
   1   1  12-87.7169 59.6541   4
  -1  -1 -13 60.1853 67.3084   3
   1   1  13 6.05528 41.5292   4
   1   1  14-83.6729 68.7102   4
  -1  -1 -14 52.5964 59.2512   3
  -1  -1 -15 1166.95 239.772   3
   1   1  15 767.012 171.790   4
  -1  -1 -16 379.884 140.081   3
   1   2 -15 73.4147 79.4848   3
   1   2 -14 46.0444 69.7030   3
   1   2 -13 8.51075 53.2469   3
   1   2 -12 677.334 164.365   3
   1   2 -11 2908.71 296.997   3
   1   2 -10 478.242 122.438   3
  -1  -2  10 314.915 55.2481   4
   1   2  -9 570.667 124.791   3
  -1  -2   9 545.758 65.4544   4
   1   2  -8 729.309 126.984   3
  -1  -2   8 593.425 62.9310   4
  -1  -2   8 593.496 59.9293   4
  -1  -2   7 11759.6 236.443   4
  -1  -2   7 13272.9 375.611   1
  -1  -2   7 12108.6 227.151   4
   1   2  -7 12850.4 487.395   3
   1   2  -6 11584.4 425.918   3
  -1  -2   6 10697.9 173.172   4
  -1  -2   6 11992.8 347.989   1
  -1  -2   6 10273.1 162.941   4
  -1  -2   5 198.247 46.0793   1
   1   2  -5 200.542 55.2677   3
   1   2  -4 1627.05 138.202   3
  -1  -2   4 1750.61 129.707   1
  -1  -2   3 51.7091 29.4457   1
   1   2  -3 70.5526 34.1958   3
  -1  -2   2 9686.86 299.727   1
   1   2  -2 10167.5 185.003   4
  -1  -2   1 8545.56 275.531   1
   1   2   0 82957.5 747.068   3
  -1  -2   0 81771.7 840.849   1
   1   2   1 36679.1 505.620   3
   1   2   1 35744.9 412.905   2
  -1  -2  -1 35885.1 505.255   3
  -1  -2  -1 36175.8 555.735   1
  -1  -2  -2 1879.66 127.767   3
  -1  -2  -2 1954.88 129.627   1
  -1  -2  -2 1891.25 89.8718   2
  -1  -2  -3 73475.6 834.023   3
  -1  -2  -3 74878.1 566.248   2
  -1  -2  -3 74024.6 786.928   1
  -1  -2  -4 18564.0 390.801   1
  -1  -2  -4 18305.7 450.659   3
  -1  -2  -5 7530.28 314.735   3
  -1  -2  -5 7251.60 243.832   1
  -1  -2  -6 3285.91 163.634   1
  -1  -2  -6 3523.63 235.088   3
  -1  -2  -7 3482.48 164.200   1
  -1  -2  -7 3899.92 267.206   3
  -1  -2  -8 36.4131 18.8023   1
  -1  -2  -8 33.5066 36.4712   3
  -1  -2  -9 11467.5 519.299   3
  -1  -2 -10 6744.49 428.180   3
  -1  -2 -11 2146.98 260.467   3
  -1  -2 -12 413.846 127.692   3
  -1  -2 -13 1045.08 207.464   3
  -1  -2 -14 169.066 96.4512   3
   1   2  14 35.4848 51.5403   4
  -1  -2 -15 656.824 188.034   3
   1   2  15 448.993 151.846   4
   1   3 -15 697.203 183.373   3
   1   3 -14 1117.23 226.718   3
   1   3 -13-124.123 81.8845   3
   1   3 -12 693.648 166.363   3
   1   3 -11 115.540 78.6661   3
   1   3 -10 1012.00 176.118   3
   1   3  -9 2087.90 230.701   3
  -1  -3   9 2028.40 164.538   1
   1   3  -8 543.398 113.492   3
  -1  -3   8 625.069 91.6847   1
  -1  -3   7 959.541 114.461   1
   1   3  -7 816.491 130.904   3
   1   3  -6 3226.03 242.517   3
  -1  -3   6 3402.61 206.633   1
  -1  -3   5 5294.13 257.814   1
   1   3  -5 5142.78 285.248   3
  -1  -3   4 21534.9 514.132   1
   1   3  -4 20699.3 528.688   3
  -1  -3   3 233.252 59.0160   1
   1   3  -3 272.854 32.5561   4
  -1  -3   2 3152.38 194.100   1
   1   3  -2 2985.18 133.911   4
  -1  -3   1 1113.35 116.278   1
  -1  -3   0 1028.69 109.938   1
  -1  -3  -1 4472.09 227.560   1
   1   3   1 4261.77 147.986   2
   1   3   2 9993.39 198.408   2
  -1  -3  -2 10316.2 346.685   1
  -1  -3  -2 10180.3 334.769   3
  -1  -3  -3 47484.0 744.750   1
  -1  -3  -3 49345.3 779.641   3
  -1  -3  -4 48554.8 807.948   3
  -1  -3  -4 46244.5 429.263   2
  -1  -3  -4 48695.3 757.388   1
  -1  -3  -5 5139.21 286.180   3
  -1  -3  -5 4446.71 143.904   2
  -1  -3  -5 4805.61 239.307   1
  -1  -3  -6 45.6454 35.2304   3
  -1  -3  -6 81.2957 36.7227   1
  -1  -3  -7 1769.64 191.722   3
  -1  -3  -7 1752.68 144.838   1
  -1  -3  -8 2134.34 224.635   3
  -1  -3  -8 1917.26 148.347   1
  -1  -3  -9 2176.68 246.773   3
  -1  -3  -9 2054.15 151.875   1
  -1  -3 -10 8716.84 501.686   3
  -1  -3 -11 656.253 151.482   3
  -1  -3 -12 259.806 101.799   3
  -1  -3 -13 1675.21 260.598   3
  -1  -3 -14 517.232 147.751   3
   1   3  15 226.343 104.375   4
  -1  -3 -15 120.617 91.4043   3
   1   4 -15 341.440 146.709   3
   1   4 -14 163.734 99.4815   3
   1   4 -13 27.0392 52.2779   3
   1   4 -12 347.531 129.976   3
   1   4 -11 1397.53 215.204   3
   1   4 -10 172.294 83.8058   3
  -1  -4  10 378.746 81.4647   1
   1   4  -9 1208.49 185.495   3
  -1  -4   9 1414.23 152.171   1
  -1  -4   8 647.930 103.835   1
   1   4  -8 477.474 112.327   3
  -1  -4   7 48.7751 37.0882   1
   1   4  -7 10.8876 39.5243   3
  -1  -4   6 2037.43 178.999   1
   1   4  -6 1908.13 195.628   3
   1   4  -5 1655.74 70.9712   4
   1   4  -5 1705.50 176.490   3
  -1  -4   5 1826.27 169.409   1
  -1  -4   4 7762.48 345.843   1
   1   4  -4 6750.28 175.763   4
  -1  -4   3 920.811 120.640   1
   1   4  -3 899.173 76.9564   4
  -1  -4   2 20507.9 550.352   1
  -1  -4   1 20768.0 559.205   1
  -1  -4   0 2056.27 176.248   1
  -1  -4  -1 575.092 96.7646   1
   1   4   2 3245.27 122.272   2
  -1  -4  -2 3263.71 220.846   3
  -1  -4  -2 2865.61 209.731   1
  -1  -4  -3 2061.23 180.613   3
  -1  -4  -3 1761.33 166.554   1
  -1  -4  -4 35.5519 32.1845   1
  -1  -4  -4 126.934 54.5365   3
  -1  -4  -5 6412.63 344.859   3
  -1  -4  -5 5600.79 299.047   1
  -1  -4  -6 6693.68 365.879   3
  -1  -4  -6 5604.83 298.195   1
  -1  -4  -7 307.750 71.0263   1
  -1  -4  -7 288.383 81.9482   3
  -1  -4  -8-18.1178 63.6187   3
  -1  -4  -8-20.9040 23.1554   1
  -1  -4  -9 1551.00 155.660   1
  -1  -4  -9 1709.50 223.740   3
  -1  -4 -10 134.893 76.5541   3
  -1  -4 -11-15.6147 63.6322   3
  -1  -4 -12 158.967 96.9291   3
  -1  -4 -13 473.450 132.625   3
  -1  -4 -14-216.516 109.196   3
   1   5 -14-46.0348 78.5417   3
   1   5 -13 562.575 164.079   3
   1   5 -12 839.636 183.378   3
   1   5 -11 598.611 153.498   3
   1   5 -10 177.301 95.3107   3
  -1  -5  10 63.4665 35.6016   1
  -1  -5   9 1508.68 171.721   1
   1   5  -9 1123.80 188.121   3
   1   5  -8 3586.40 315.283   3
  -1  -5   8 4286.26 287.723   1
  -1  -5   7 1127.67 151.171   1
   1   5  -7 992.883 165.581   3
  -1  -5   6 1656.23 179.677   1
   1   5  -6 1617.08 200.185   3
  -1  -5   5 1532.20 172.959   1
   1   5  -5 1613.03 99.4340   4
  -1  -5   4 21886.0 643.233   1
  -1  -5   3 554.815 106.642   1
  -1  -5   2 6287.39 341.041   1
  -1  -5   1 15976.9 541.649   1
  -1  -5   0 1721.26 183.513   1
  -1  -5  -1 10035.5 438.322   1
   1   5   2 521.797 54.8821   2
  -1  -5  -2 540.384 107.865   1
  -1  -5  -3 1.90965 28.5837   1
  -1  -5  -3 39.2711 35.7548   3
  -1  -5  -4 5077.76 316.863   3
  -1  -5  -4 4689.56 305.948   1
  -1  -5  -5 101.239 51.0260   3
  -1  -5  -5 151.320 67.4402   1
  -1  -5  -6 598.570 124.286   3
  -1  -5  -6 676.727 116.713   1
  -1  -5  -7 1635.30 212.038   3
  -1  -5  -7 1851.18 193.358   1
  -1  -5  -8 3063.00 294.392   3
  -1  -5  -8 2603.37 229.306   1
  -1  -5  -9 1074.56 191.135   3
  -1  -5 -10 6.08619 67.3663   3
  -1  -5 -11 392.879 127.828   3
  -1  -5 -12 581.318 160.025   3
  -1  -5 -13 64.3040 79.2246   3
  -1  -5 -14 90.2047 77.2114   3
   1   6 -14 170.102 88.6850   3
   1   6 -13 1980.68 301.867   3
   1   6 -12-55.1539 66.6203   3
   1   6 -11 2491.95 312.866   3
   1   6 -10 48.4717 60.5548   3
  -1  -6  10 143.764 66.5554   1
   1   6  -9 51.2385 53.5789   3
  -1  -6   9 190.181 78.5334   1
  -1  -6   8 140.845 60.2617   1
   1   6  -8 171.346 82.2919   3
   1   6  -7 17.9972 50.8897   3
  -1  -6   7-26.6471 52.0158   1
  -1  -6   6 6391.31 384.619   1
  -1  -6   5 209.305 74.8531   1
  -1  -6   4 1732.37 199.277   1
  -1  -6   3 3453.08 280.938   1
  -1  -6   2 3212.79 270.078   1
  -1  -6   1-17.3975 33.0978   1
  -1  -6   0 17.3071 35.4671   1
  -1  -6  -1 167.641 75.2757   1
   1   6   2 1033.89 80.6646   2
  -1  -6  -2 807.370 141.216   1
  -1  -6  -3 602.235 123.452   1
  -1  -6  -3 754.392 138.060   3
  -1  -6  -4 3540.71 294.201   3
  -1  -6  -4 3275.50 282.056   1
  -1  -6  -5 1293.21 182.984   3
  -1  -6  -5 1254.52 179.178   1
  -1  -6  -6 4101.15 330.737   3
  -1  -6  -6 3644.72 301.440   1
  -1  -6  -7 342.076 94.5992   1
  -1  -6  -7 334.851 104.170   3
  -1  -6  -8 135.468 62.9834   1
  -1  -6  -8 207.553 90.0238   3
  -1  -6  -9 228.686 96.0222   3
  -1  -6 -10-24.3106 89.6628   3
  -1  -6 -11 223.614 93.8911   3
  -1  -6 -12 1038.51 230.059   3
  -1  -6 -13 1099.56 242.714   3
   1   7 -13 383.850 142.137   3
   1   7 -12 1436.72 261.747   3
   1   7 -11 286.800 145.182   3
   1   7 -10 200.197 103.954   3
  -1  -7   9-32.4773 42.3854   1
   1   7  -9-104.937 72.9761   3
  -1  -7   8 427.199 110.399   1
   1   7  -8 433.377 132.054   3
   1   7  -7 757.446 158.375   3
  -1  -7   7 665.201 139.905   1
  -1  -7   6 691.124 141.882   1
  -1  -7   5 2031.68 234.709   1
  -1  -7   4 1010.67 175.242   1
  -1  -7   3 6156.54 402.852   1
  -1  -7   2 197.696 84.9498   1
  -1  -7   1 127.981 67.5918   1
  -1  -7   0 1387.19 196.396   1
  -1  -7  -1 607.208 141.218   1
  -1  -7  -2 679.419 143.263   1
  -1  -7  -3 16.2706 44.1538   1
  -1  -7  -4 2113.58 252.592   1
  -1  -7  -4 2412.06 266.164   3
  -1  -7  -5 1672.72 229.789   1
  -1  -7  -5 1665.15 227.199   3
  -1  -7  -6 288.835 96.0300   1
  -1  -7  -6 317.122 108.136   3
  -1  -7  -7 165.317 83.8249   3
  -1  -7  -7 66.7816 54.4648   1
  -1  -7  -8-36.0785 53.5122   3
  -1  -7  -8-57.4195 50.5170   1
  -1  -7  -9 1612.06 248.733   3
  -1  -7 -10 229.718 82.0110   3
  -1  -7 -11 234.376 113.198   3
  -1  -7 -12 114.076 91.7623   3
   1   8 -12-43.0615 74.7567   3
   1   8 -11 1225.22 240.309   3
   1   8 -10 53.6478 76.1961   3
  -1  -8   9-47.1357 54.5949   1
   1   8  -9 29.9629 58.6711   3
   1   8  -8 542.321 152.176   3
  -1  -8   8 482.302 126.038   1
  -1  -8   7 602.510 137.443   1
  -1  -8   6 370.685 121.885   1
  -1  -8   5 41.8657 43.0027   1
  -1  -8   4 203.252 84.8138   1
  -1  -8   3 765.345 153.798   1
  -1  -8   2 2.52061 42.6337   1
  -1  -8   1 2988.70 311.391   1
  -1  -8   0 493.381 138.959   1
  -1  -8  -1 38.4221 50.6381   1
  -1  -8  -2 3177.06 327.065   1
  -1  -8  -3 555.889 135.014   1
  -1  -8  -4-29.2918 61.7981   1
  -1  -8  -5 50.3150 54.1023   1
  -1  -8  -6 34.9028 67.5799   1
  -1  -8  -6 24.8409 49.5355   3
  -1  -8  -7 43.4375 63.7741   3
  -1  -8  -7 37.4036 55.6743   1
  -1  -8  -8 9.32203 48.3518   3
  -1  -8  -8-6.26895 37.5060   1
  -1  -8  -9 410.638 141.670   3
  -1  -8 -10 287.673 119.228   3
  -1  -8 -11 60.1983 97.7638   3
   1   9 -10-45.4757 66.5633   3
   1   9  -9 222.390 104.568   3
  -1  -9   9 473.756 137.650   1
   1   9  -8-68.5836 67.4390   3
  -1  -9   8 65.8815 60.1478   1
  -1  -9   7 359.392 131.828   1
  -1  -9   6 114.286 75.5975   1
  -1  -9   5 162.680 104.930   1
  -1  -9   4 1526.07 243.921   1
  -1  -9   3 10.5256 72.5890   1
  -1  -9   2 493.230 139.117   1
  -1  -9   1 119.598 78.9706   1
  -1  -9   0 1115.44 203.084   1
  -1  -9  -1 29.4200 51.8262   1
  -1  -9  -2 3030.74 339.713   1
  -1  -9  -3 74.1317 83.2801   1
  -1  -9  -4 56.5079 61.8533   1
  -1  -9  -5 778.366 184.383   1
  -1  -9  -6 286.798 116.991   1
  -1  -9  -7 169.702 109.152   3
  -1  -9  -7 113.937 77.1254   1
  -1  -9  -8-104.113 85.9939   3
  -1  -9  -9 198.439 108.193   3
  -1 -10   9 317.053 138.214   1
   1  10  -8-5.38062 57.5943   3
  -1 -10   8 56.5931 58.0222   1
  -1 -10   7 62.2336 70.6384   1
  -1 -10   6 224.152 136.683   1
  -1 -10   5 262.362 114.441   1
  -1 -10   4 283.133 126.257   1
  -1 -10   3 16.2979 60.5415   1
  -1 -10   2 574.522 161.841   1
  -1 -10   1 405.696 143.256   1
  -1 -10   0 1299.77 233.935   1
  -1 -10  -1 183.868 107.489   1
  -1 -10  -2-14.4466 49.8153   1
  -1 -10  -3 651.007 187.082   1
  -1 -10  -4-145.068 93.3833   1
  -1 -10  -5-143.118 86.7462   1
  -1 -10  -6 256.517 116.625   1
  -1 -10  -7 177.925 95.4725   1
  -1 -11   7 37.7574 70.2212   1
  -1 -11   6 114.228 93.9320   1
  -1 -11   5 156.096 100.929   1
  -1 -11   4 916.330 212.688   1
  -1 -11   3 286.288 142.822   1
  -1 -11   2 373.527 139.033   1
  -1 -11   1 112.796 87.0961   1
  -1 -11   0 651.493 197.907   1
  -1 -11  -1 333.372 131.997   1
  -1 -11  -2 137.135 92.7020   1
  -1 -11  -3-10.9848 55.4582   1
  -1 -11  -4-61.5173 76.1190   1
  -1 -11  -5 180.200 108.234   1
   2 -12   0-127.439 89.8597   4
   2 -12   1-41.4904 63.7853   4
   2 -12   2-249.230 119.656   4
   2 -11  -5-8.76455 84.0927   1
   2 -11  -4 31.7842 74.1999   1
   2 -11  -3 103.990 90.7244   1
   2 -11  -2 186.846 100.819   4
   2 -11  -2 198.115 109.649   1
   2 -11  -1 113.530 88.4800   1
   2 -11  -1-47.4436 65.9723   4
   2 -11   0-122.984 88.2673   4
   2 -11   0-14.0376 61.4266   1
   2 -11   1 43.8328 59.4729   4
   2 -11   1-125.047 94.3184   1
   2 -11   2-52.0949 64.6545   4
   2 -11   2-113.258 85.3636   1
   2 -11   3-21.1574 64.7742   1
   2 -11   3-61.1364 57.8257   4
   2 -11   4 98.3936 70.5590   4
   2 -11   4-12.6993 77.2457   1
   2 -11   5-260.643 114.768   1
   2 -11   6 52.1303 79.4288   1
   2 -11   7 98.0397 76.5211   1
   2 -10  -9 112.827 89.6566   1
   2 -10  -8 158.001 95.5079   1
   2 -10  -7 565.480 173.170   1
   2 -10  -6-14.2902 53.9870   1
   2 -10  -5 46.6117 65.5536   1
   2 -10  -4 842.308 208.645   4
   2 -10  -3-84.7026 73.2110   4
   2 -10  -2 54.2326 67.0883   4
   2 -10  -1 261.894 109.239   1
   2 -10  -1 90.6350 77.1492   4
   2 -10   0 212.622 104.807   1
   2 -10   0 60.5916 77.6896   4
   2 -10   1 39.7546 58.8686   1
   2 -10   1-63.6001 63.0075   4
   2 -10   2 144.308 98.4689   1
   2 -10   2 251.886 107.936   4
   2 -10   3 334.181 119.360   1
   2 -10   3 91.3934 66.2436   4
   2 -10   4-11.0625 35.4674   4
   2 -10   4-157.475 90.9419   1
   2 -10   5-1.68023 34.2842   4
   2 -10   5 12.8196 47.4778   1
   2 -10   6 10.1045 46.4862   1
   2 -10   7-86.3737 66.6130   1
  -2  10  -8 27.9758 83.7315   3
  -2  10  -9 5.56751 48.9295   3
   2  -9  -9-148.871 102.753   3
   2  -9  -8 527.099 163.607   3
   2  -9  -7 248.105 128.898   3
   2  -9  -6 2311.52 322.045   3
   2  -9  -5 574.569 156.169   4
   2  -9  -4 181.079 98.6291   4
   2  -9  -3 168.925 82.3450   4
   2  -9  -2 451.142 136.050   4
   2  -9  -1 78.4646 69.1655   4
   2  -9   0 365.853 125.003   4
   2  -9   1 14.6743 56.1261   4
   2  -9   2 141.744 78.2424   4
   2  -9   3 150.822 81.0248   1
   2  -9   3 133.886 70.4543   4
   2  -9   4-22.0007 40.9925   1
   2  -9   4 21.2645 54.2367   4
   2  -9   5-29.5161 57.8130   1
   2  -9   5 118.132 65.6733   4
   2  -9   6 330.885 109.544   1
   2  -9   6 108.454 64.1784   4
   2  -9   7-22.8328 46.2416   1
   2  -9   8 25.8675 44.1655   1
  -2   9  -8 43.2454 53.2282   3
  -2   9  -9-131.334 80.2273   3
  -2   9 -10 168.394 94.9317   3
  -2   9 -11-9.84606 47.1529   3
   2  -8 -10-300.779 131.478   3
   2  -8  -9 261.959 122.129   3
   2  -8  -8 113.990 99.7034   3
   2  -8  -7 1708.25 268.852   3
   2  -8  -6 472.159 148.040   3
   2  -8  -5 409.406 136.909   4
   2  -8  -5 579.415 151.727   3
   2  -8  -4 213.740 99.8626   4
   2  -8  -3 356.820 117.139   4
   2  -8  -2 454.113 136.636   4
   2  -8  -1 579.268 147.367   4
   2  -8   0 82.3397 66.2962   4
   2  -8   1 117.990 80.0950   4
   2  -8   2 667.486 147.307   4
   2  -8   3-68.1802 54.3060   4
   2  -8   4 169.748 72.4698   4
   2  -8   5 87.6194 53.6310   4
   2  -8   5 26.0247 46.5903   1
   2  -8   6-51.2235 48.2557   4
   2  -8   6 109.701 67.6605   1
   2  -8   7-102.592 58.2753   4
   2  -8   7 141.949 70.8516   1
   2  -8   8 7.24814 32.0275   1
  -2   8  -8 65.6102 66.9971   3
  -2   8  -9 41.0915 53.5710   3
  -2   8 -10-47.6108 54.0734   3
  -2   8 -11 126.520 81.9627   3
  -2   8 -12 376.271 140.472   3
   2  -7 -12 93.0789 97.4035   3
   2  -7 -11-87.0204 84.0689   3
   2  -7 -10 275.165 125.284   3
   2  -7  -9 235.606 111.125   3
   2  -7  -8-7.91114 54.6272   3
   2  -7  -7 75.7432 72.2695   3
   2  -7  -6 1932.83 258.266   3
   2  -7  -6 1927.49 263.832   4
   2  -7  -5-23.1514 58.4948   3
   2  -7  -5 63.3623 90.3302   4
   2  -7  -4 2571.16 283.939   3
   2  -7  -4 2737.21 303.111   4
   2  -7  -3 374.590 111.159   4
   2  -7  -2 878.044 172.371   4
   2  -7  -1-108.274 64.1351   4
   2  -7   0 15.0045 52.3127   4
   2  -7   1 1897.44 227.675   4
   2  -7   2 179.975 73.3378   4
   2  -7   3 92.9868 55.1669   4
   2  -7   4 2315.07 245.403   4
   2  -7   5 192.572 76.0189   4
   2  -7   6-7.73867 43.9964   1
   2  -7   6 3.34260 31.8809   4
   2  -7   7 222.484 77.5662   4
  -2   7  -7 198.149 97.2688   3
   2  -7   7 323.169 99.4461   1
   2  -7   8 132.775 72.9396   1
   2  -7   8 1.10814 31.7985   4
  -2   7  -8 48.3381 48.3782   3
  -2   7  -9 252.978 96.3803   3
  -2   7 -10 38.9706 40.9216   3
  -2   7 -11 244.325 104.996   3
  -2   7 -12 6.46237 46.4915   3
  -2   7 -13-42.4989 68.6263   3
   2  -6 -13 32.2729 81.5439   3
   2  -6 -12 617.849 178.778   3
   2  -6 -11 280.804 127.725   3
   2  -6 -10-9.67281 61.7589   3
   2  -6  -9 365.555 129.163   3
   2  -6  -8 23.1858 64.4749   3
   2  -6  -7 578.631 158.043   4
   2  -6  -7 628.229 149.608   3
   2  -6  -6 63.8528 58.9447   3
   2  -6  -6 242.444 104.882   4
   2  -6  -5 4401.77 343.523   3
   2  -6  -5 4071.25 352.130   4
   2  -6  -4 1819.09 217.834   3
   2  -6  -4 1953.50 236.737   4
   2  -6  -3 334.871 96.9597   3
   2  -6  -3 255.424 86.2078   4
   2  -6  -2 13.5034 53.7242   4
   2  -6  -1 30.3219 41.4316   4
   2  -6   0 221.338 75.2975   4
   2  -6   1 2590.86 239.605   4
   2  -6   2 17.8164 38.8166   4
   2  -6   3 213.017 83.1001   4
   2  -6   4 583.348 123.346   4
   2  -6   5 2395.63 220.714   4
   2  -6   6 646.354 118.981   4
   2  -6   7 813.260 134.995   1
  -2   6  -7 706.992 148.178   3
   2  -6   7 520.550 100.908   4
   2  -6   8 544.504 105.076   4
  -2   6  -8 570.559 139.117   3
   2  -6   8 871.939 133.548   1
   2  -6   9 10.8819 31.0264   4
  -2   6  -9-3.19671 41.2869   3
  -2   6 -10 1061.55 197.344   3
  -2   6 -11 208.739 92.7935   3
  -2   6 -12-108.885 73.1775   3
  -2   6 -13-8.63039 48.7267   3
  -2   6 -14 76.2364 78.7882   3
   2  -5 -13 56.0213 79.2002   3
   2  -5 -12 464.375 159.155   3
   2  -5 -11 1348.83 236.314   3
   2  -5 -10 37.4879 62.0074   3
   2  -5  -9 225.366 105.917   3
   2  -5  -8 13526.6 628.684   3
   2  -5  -7 1646.97 132.628   2
   2  -5  -7 1894.53 241.635   4
   2  -5  -6 3479.97 311.303   4
   2  -5  -6 3744.89 309.980   3
   2  -5  -5 125.224 67.2445   3
   2  -5  -5 74.7225 58.8696   4
   2  -5  -4 3296.45 266.175   3
   2  -5  -4 2806.77 263.028   4
   2  -5  -3 357.642 94.1250   4
   2  -5  -3 429.961 92.5911   3
   2  -5  -2 116.643 60.9874   3
   2  -5  -2 39.4813 42.3265   4
   2  -5  -1 227.323 75.7284   4
   2  -5   0 233.165 71.1669   4
   2  -5   1 30432.1 756.247   4
   2  -5   2 9254.06 411.930   4
   2  -5   3 19509.7 587.168   4
   2  -5   4 1244.81 156.301   4
   2  -5   5 719.372 116.019   4
   2  -5   6 99.3419 47.7558   4
  -2   5  -6 96.7899 55.8910   3
   2  -5   7 212.450 67.8593   4
  -2   5  -7 181.759 70.5501   3
  -2   5  -8-63.0358 53.4910   3
   2  -5   8 66.9448 43.6291   1
   2  -5   8 9.43746 37.3881   4
  -2   5  -9 29.4553 57.9859   3
   2  -5   9 8.68777 30.2569   4
   2  -5  10 435.553 109.066   4
  -2   5 -10 637.918 160.604   3
  -2   5 -11 887.419 180.253   3
  -2   5 -12 56.2785 62.7797   3
  -2   5 -13-43.5085 51.5030   3
  -2   5 -14 67.2446 81.7664   3
  -2   5 -15 38.9119 58.2191   3
   2  -4 -14 863.566 211.303   3
   2  -4 -13 58.0371 68.4855   3
   2  -4 -12-115.966 82.1253   3
   2  -4 -11 55.5987 77.3384   3
   2  -4 -10 574.499 150.008   3
   2  -4  -9 756.193 155.523   3
   2  -4  -9 436.473 84.7628   2
   2  -4  -8 1289.20 135.093   2
   2  -4  -8 2035.16 238.816   3
   2  -4  -7 3455.36 292.403   3
   2  -4  -7 2641.07 185.752   2
   2  -4  -7 3267.89 285.963   4
   2  -4  -6 190.357 72.6073   4
   2  -4  -6 122.779 41.6816   2
   2  -4  -6 200.567 78.5634   3
   2  -4  -5 7913.31 415.479   4
   2  -4  -5 8127.96 402.793   3
   2  -4  -5 7241.84 279.565   2
   2  -4  -4 7057.02 362.176   3
   2  -4  -4 6465.65 359.434   4
   2  -4  -3 2117.25 201.478   4
   2  -4  -3 2045.71 184.252   3
   2  -4  -2 76.3477 51.7782   4
   2  -4  -2 95.4386 47.7148   3
   2  -4  -1 277.965 78.5667   4
   2  -4  -1 187.142 58.1330   3
   2  -4   0 3217.10 228.805   4
   2  -4   1 2238.86 189.429   4
   2  -4   2 159437. 1552.61   4
   2  -4   3 1017.58 129.078   4
   2  -4   4 32127.2 702.327   4
   2  -4   5 2640.21 215.034   4
  -2   4  -5 2401.80 210.772   3
  -2   4  -6 4518.56 302.158   3
   2  -4   6 5004.14 298.987   4
   2  -4   7 3746.87 260.618   4
  -2   4  -7 3677.14 296.910   3
  -2   4  -8 1481.78 199.537   3
   2  -4   8 1883.68 146.820   1
   2  -4   8 1489.17 166.555   4
  -2   4  -9 247.117 84.1496   3
   2  -4   9 203.952 70.0454   4
  -2   4 -10 57.9515 41.1636   3
   2  -4  10 83.0099 44.0955   4
  -2   4 -11 1230.73 215.694   3
   2  -4  11 820.136 132.389   4
  -2   4 -12 119.088 73.6632   3
  -2   4 -13 416.995 145.078   3
  -2   4 -14 39.8271 55.1625   3
  -2   4 -15 37.8385 62.7145   3
   2  -3 -14 551.391 164.757   3
   2  -3 -13 306.002 126.257   3
   2  -3 -12 81.0016 50.4908   3
   2  -3 -11 791.077 172.485   3
   2  -3 -11 334.963 95.8766   2
   2  -3 -10 1081.36 188.382   3
   2  -3 -10 786.040 130.122   2
   2  -3  -9-59.4712 96.5589   3
   2  -3  -9 10.1329 25.8262   2
   2  -3  -8-9.01392 59.4034   3
   2  -3  -8 9.43442 23.4769   2
   2  -3  -7-50.0076 41.8855   3
   2  -3  -7 5.30909 32.9873   4
   2  -3  -7 4.06212 25.6809   2
   2  -3  -6 7471.08 378.128   3
   2  -3  -6 7039.10 309.183   2
   2  -3  -6 7489.64 379.247   4
   2  -3  -5 8378.70 383.756   3
   2  -3  -5 7853.42 306.502   2
   2  -3  -5 8106.78 381.825   4
   2  -3  -4 13545.8 452.666   3
   2  -3  -4 12554.2 367.639   2
   2  -3  -4 13281.4 461.268   4
   2  -3  -3 21818.9 476.345   2
   2  -3  -3 21795.8 541.837   3
   2  -3  -3 22290.5 569.951   4
   2  -3  -2 2452.72 170.713   3
   2  -3  -2 2512.38 191.063   4
   2  -3  -1 1486.77 129.973   3
   2  -3  -1 1293.93 135.514   4
   2  -3   0 15353.0 453.640   4
   2  -3   1 1310.31 132.850   4
   2  -3   2-5.47103 27.0280   4
   2  -3   3-17.2677 38.3930   4
   2  -3   4 190.744 55.7163   4
  -2   3  -4 176.074 52.1189   3
  -2   3  -5 24182.4 610.897   3
   2  -3   5 24005.1 588.756   4
   2  -3   6 2802.69 208.167   4
  -2   3  -6 2545.29 217.895   3
  -2   3  -7-112.164 53.1006   3
   2  -3   7-7.29584 21.8810   4
  -2   3  -8 630.455 118.241   3
   2  -3   8 550.127 102.898   4
   2  -3   8 825.454 80.6420   1
   2  -3   9 1078.17 149.011   4
  -2   3  -9 1155.35 175.402   3
  -2   3 -10-13.4617 63.6809   3
   2  -3  10-130.969 57.5714   4
   2  -3  11 508.181 109.911   4
  -2   3 -11 670.731 152.370   3
  -2   3 -12-22.9232 49.7687   3
   2  -3  12 15.2367 43.4030   4
  -2   3 -13 0.62708 41.5675   3
  -2   3 -14 101.108 95.8789   3
  -2   3 -15 446.379 144.510   3
   2  -2 -15-83.0712 79.5825   3
   2  -2 -14 6.99467 49.6309   3
   2  -2 -13 378.196 128.413   3
   2  -2 -12 628.427 151.573   3
   2  -2 -11 819.003 166.779   3
   2  -2 -10 5559.00 397.652   3
   2  -2  -9 9810.86 497.538   3
   2  -2  -8 2877.04 255.530   3
   2  -2  -7 723.288 123.821   3
   2  -2  -7 556.716 94.8964   2
   2  -2  -7 776.040 117.528   4
   2  -2  -6 8882.42 387.362   3
   2  -2  -6 8236.70 343.954   2
   2  -2  -6 8364.22 364.347   4
   2  -2  -5 3897.21 237.330   3
   2  -2  -5 3588.96 217.341   2
   2  -2  -5 3578.26 228.907   4
   2  -2  -4 12317.3 388.577   3
   2  -2  -4 13177.9 399.254   2
   2  -2  -4 12272.5 401.053   4
   2  -2  -3 1370.79 131.640   4
   2  -2  -3 1315.49 119.435   3
   2  -2  -3 1171.31 112.661   2
   2  -2  -2 59.9477 30.4998   2
   2  -2  -2 124.357 42.2287   3
   2  -2  -2 124.387 45.2968   4
   2  -2  -1 42437.6 647.073   2
   2  -2  -1 41670.6 557.262   3
   2  -2  -1 42557.2 678.367   4
  -2   2   0 14300.8 311.193   3
   2  -2   0 14243.9 394.798   4
   2  -2   1 669.175 91.1577   4
   2  -2   2 11271.5 358.384   4
  -2   2  -3 998.828 96.5613   3
   2  -2   3 972.872 109.881   4
  -2   2  -4 17202.3 440.219   3
   2  -2   4 16210.6 457.475   4
   2  -2   5 3176.32 211.552   4
  -2   2  -5 3184.22 206.464   3
  -2   2  -6 1859.25 169.729   3
   2  -2   6 1904.02 171.543   4
  -2   2  -7 1862.80 184.393   3
   2  -2   7 1792.56 175.289   4
  -2   2  -8 274.803 82.3036   3
   2  -2   8 457.067 98.6883   4
  -2   2  -9 658.108 132.757   3
   2  -2   9 537.762 106.183   4
  -2   2 -10 4535.89 352.745   3
   2  -2  10 4470.12 307.725   4
   2  -2  11 598.064 117.356   4
  -2   2 -11 347.099 114.700   3
   2  -2  12 328.692 89.9496   4
  -2   2 -12 322.528 113.631   3
   2  -2  13 1052.99 173.586   4
  -2   2 -13 1454.28 239.903   3
  -2   2 -14-119.105 82.2602   3
  -2   2 -15 133.838 92.1280   3
  -2   2 -16 204.868 110.028   3
   2  -1 -15 492.181 158.139   3
   2  -1 -14 522.761 153.484   3
   2  -1 -13-142.798 87.0300   3
   2  -1 -12 1278.00 218.945   3
   2  -1 -11 878.609 168.007   3
   2  -1 -10 963.446 163.294   3
   2  -1  -9 28.8738 43.2915   3
   2  -1  -8 14735.5 554.804   3
   2  -1  -7 3797.33 261.896   3
   2  -1  -6 166.385 54.3125   3
   2  -1  -6 204.992 55.4371   4
   2  -1  -5 2561.85 182.803   3
   2  -1  -5 2403.08 180.488   2
   2  -1  -5 2432.30 169.346   4
   2  -1  -4 36143.6 622.335   3
   2  -1  -4 36198.2 669.477   2
   2  -1  -4 35724.5 589.295   4
   2  -1  -3 13259.7 337.429   3
   2  -1  -3 13444.4 390.571   2
   2  -1  -3 13226.1 347.596   4
   2  -1  -2 2168.14 139.139   4
   2  -1  -2 2008.93 113.770   3
  -2   1   2 1956.38 111.187   3
   2  -1  -2 1779.46 138.543   2
   2  -1  -1 23211.8 322.892   3
   2  -1  -1 23152.1 473.023   2
  -2   1   1 22965.1 318.546   3
   2  -1  -1 23265.4 455.080   4
   2  -1   0 30507.7 543.362   2
  -2   1   0 30242.9 316.331   3
   2  -1   0 30569.9 537.514   4
   2  -1   1 31853.7 550.848   4
   2  -1   2 3616.41 196.147   4
  -2   1  -2 3635.47 133.343   3
   2  -1   3 7705.80 299.461   4
  -2   1  -3 7698.74 228.373   3
  -2   1  -4 7061.44 252.351   3
   2  -1   4 6595.40 292.779   4
  -2   1  -5 11052.8 357.116   3
   2  -1   5 11513.7 409.047   4
   2  -1   6 2410.49 111.547   1
  -2   1  -6 2204.11 176.096   3
   2  -1   6 2452.14 201.830   4
   2  -1   7 167.083 25.9120   1
   2  -1   7 152.321 55.6553   4
  -2   1  -7 128.941 46.7605   3
   2  -1   8 88.0584 50.2472   4
  -2   1  -8 50.5870 27.5697   3
   2  -1   9 215.185 61.6605   4
  -2   1  -9 321.074 89.8396   3
  -2   1 -10 1691.55 211.405   3
   2  -1  10 1801.41 207.788   4
   2  -1  11 115.809 66.6443   4
  -2   1 -11 52.9223 49.5805   3
   2  -1  12 308.001 94.5072   4
  -2   1 -12 248.397 99.9272   3
   2  -1  13 836.772 162.443   4
  -2   1 -13 789.932 181.271   3
   2  -1  14 224.653 92.6971   4
  -2   1 -14-61.0199 59.9307   3
  -2   1 -15 382.393 134.543   3
  -2   1 -16-63.9872 63.6071   3
   2   0 -15-136.518 93.9835   3
   2   0 -14 316.819 115.964   3
   2   0 -13 1439.45 232.276   3
   2   0 -12 834.471 171.425   3
   2   0 -11 1763.65 232.062   3
   2   0 -10 32.9497 44.7204   3
   2   0  -9 114.239 52.7297   3
   2   0  -8 31.5936 29.3514   3
   2   0  -7 1901.94 182.491   3
   2   0  -6 8966.05 364.906   3
   2   0  -6 9381.12 302.931   4
   2   0  -5 34540.5 655.187   3
   2   0  -5 34487.7 532.634   4
   2   0  -4 14059.4 318.180   4
   2   0  -4 15026.6 387.716   3
  -2   0   4 15044.1 331.668   4
   2   0  -3 6720.50 211.685   4
   2   0  -3 7124.70 233.701   3
   2   0  -3 6637.12 279.528   2
  -2   0   3 6813.41 225.300   4
  -2   0   2 2866.13 144.232   4
   2   0  -2 3060.44 127.569   3
   2   0  -2 3183.28 185.828   2
  -2   0   2 3030.39 128.128   3
   2   0  -2 3051.55 145.775   4
   2   0  -1 5293.22 126.633   3
   2   0  -1 5046.49 224.975   2
  -2   0   1 5225.92 127.533   3
   2   0  -1 5009.22 190.395   4
   2   0   0 8346.27 261.630   4
   2   0   0 8665.86 282.471   2
   2   0   1 62043.5 744.242   4
   2   0   1 62519.3 774.359   2
  -2   0  -2 20880.5 269.197   3
   2   0   2 22061.6 274.859   3
   2   0   2 21260.7 473.238   4
   2   0   3 3201.40 195.393   4
  -2   0  -3 3431.60 140.722   3
   2   0   3 3640.13 144.539   3
   2   0   4 221.655 40.7230   1
   2   0   4 177.912 53.5421   4
  -2   0  -4 148.249 39.0767   3
   2   0   5 50806.1 555.659   1
  -2   0  -5 51624.0 751.137   3
   2   0   5 50933.3 893.978   4
   2   0   6 5794.61 169.728   1
  -2   0  -6 5863.67 282.471   3
   2   0   6 5616.77 314.388   4
  -2   0  -7 772.113 113.514   3
   2   0   7 959.131 56.7240   1
   2   0   7 899.556 133.154   4
   2   0   8 1.38936 43.9391   4
  -2   0  -8 51.0610 26.7058   3
  -2   0  -9 349.039 93.1190   3
   2   0   9 450.441 107.259   4
  -2   0 -10 3821.62 317.015   3
   2   0  10 3924.19 318.203   4
  -2   0 -11 2621.00 280.385   3
   2   0  11 2666.84 275.436   4
  -2   0 -12 413.409 115.074   3
   2   0  12 333.428 110.551   4
  -2   0 -13 657.985 157.174   3
   2   0  13 619.351 154.385   4
   2   0  14 75.0762 67.0787   4
  -2   0 -14 112.308 90.5995   3
   2   0  15 703.081 164.080   4
  -2   0 -15 831.749 198.442   3
  -2   0 -16 277.941 127.976   3
   2   1 -15 320.439 129.753   3
   2   1 -14 203.858 87.0861   3
   2   1 -13 922.477 189.568   3
   2   1 -12 698.093 160.119   3
   2   1 -11-25.0083 54.7016   3
   2   1 -10 7675.68 455.783   3
   2   1  -9 3155.30 276.849   3
   2   1  -8 251.615 74.7848   3
  -2  -1   7 299.597 44.6562   4
   2   1  -7 479.819 92.3581   3
   2   1  -6 507.519 89.8547   3
  -2  -1   6 342.539 45.7802   4
   2   1  -5 515.370 82.6491   3
  -2  -1   5 372.729 44.4173   4
   2   1  -5 447.144 49.7982   4
  -2  -1   4 1411.43 81.8891   4
   2   1  -4 1570.58 127.535   3
   2   1  -4 1520.39 85.0381   4
   2   1  -3 9793.19 279.548   3
   2   1  -3 9396.86 220.297   4
  -2  -1   3 9135.81 215.353   4
  -2  -1   2 24746.3 536.515   1
   2   1  -2 24199.7 381.288   3
   2   1  -2 25124.6 526.590   2
   2   1  -2 24164.1 376.896   4
  -2  -1   2 24632.4 385.840   4
   2   1  -1 826.896 76.7502   4
  -2  -1   1 965.879 106.710   1
   2   1  -1 938.959 100.146   2
   2   1  -1 946.357 63.7545   3
  -2  -1   1 795.513 77.7389   4
  -2  -1   0 1094.11 110.992   1
   2   1   0 1250.50 63.2095   3
   2   1   0 1308.47 113.881   2
   2   1   0 1202.06 101.078   4
  -2  -1  -1 364.886 62.0561   1
   2   1   1 430.884 65.6098   2
   2   1   1 383.922 36.2842   3
   2   1   1 494.615 70.0619   4
  -2  -1  -2 3455.97 186.421   1
  -2  -1  -2 3368.01 125.446   3
   2   1   2 3609.14 130.475   3
   2   1   2 3433.99 197.023   4
  -2  -1  -3 10366.5 263.005   3
   2   1   3 10961.4 380.167   4
  -2  -1  -3 10547.5 317.760   1
  -2  -1  -4 40971.7 602.897   3
  -2  -1  -4 40049.1 605.429   1
   2   1   5 19291.7 573.815   4
  -2  -1  -5 18480.5 458.395   3
   2   1   6 5088.57 181.442   1
   2   1   6 4749.32 302.911   4
  -2  -1  -7 1544.61 161.969   3
   2   1   7 1686.51 192.469   4
   2   1   8 46.4253 42.6029   4
  -2  -1  -8 19.6388 28.6040   3
  -2  -1  -9 783.750 137.493   3
   2   1   9 802.025 146.021   4
  -2  -1 -10 8661.34 473.178   3
   2   1  10 9349.84 506.752   4
  -2  -1 -11 1862.72 243.487   3
   2   1  11 1928.34 241.825   4
   2   1  12 497.093 137.792   4
  -2  -1 -12 521.900 137.476   3
   2   1  13 493.909 137.470   4
  -2  -1 -13 856.744 179.415   3
   2   1  14 28.5033 92.7561   4
  -2  -1 -14-69.4836 62.9898   3
   2   1  15-26.8743 62.6967   4
  -2  -1 -15-108.199 81.1826   3
   2   2 -15 477.057 167.451   3
   2   2 -14 524.221 158.817   3
   2   2 -13-10.3480 66.8800   3
   2   2 -12 361.730 112.336   3
   2   2 -11 748.681 162.086   3
   2   2 -10-46.8416 68.9854   3
   2   2  -9 429.772 113.441   3
   2   2  -8 580.972 115.437   3
   2   2  -7 13083.3 490.644   3
  -2  -2   6 7238.92 330.086   1
   2   2  -6 7083.42 336.579   3
  -2  -2   5 2635.26 195.288   1
   2   2  -5 2378.51 180.347   3
  -2  -2   4 490.121 83.4513   1
   2   2  -4 467.604 77.1374   3
   2   2  -4 397.662 34.5178   4
   2   2  -3 7262.78 178.617   4
  -2  -2   3 7090.41 308.116   1
   2   2  -3 7091.54 261.013   3
   2   2  -2 34.9855 21.0737   4
  -2  -2   2 7.44063 25.7562   1
  -2  -2   1 12535.8 400.674   1
   2   2  -1 11959.6 356.087   2
   2   2  -1 11997.9 298.960   4
   2   2   0 52181.4 698.694   4
  -2  -2   0 52339.2 807.084   1
   2   2   0 52996.0 581.142   3
   2   2   0 52542.2 717.060   2
  -2  -2  -1 15417.6 439.483   1
   2   2   1 15365.3 311.523   3
   2   2   1 15217.4 374.180   2
   2   2   1 16245.8 425.743   4
  -2  -2  -2 2477.48 175.462   1
   2   2   2 2773.55 158.661   2
  -2  -2  -2 2673.77 142.115   3
  -2  -2  -3 188.760 51.6909   1
  -2  -2  -3 172.095 41.3957   3
  -2  -2  -4 2.66557 20.0407   1
  -2  -2  -4 1.61969 22.2740   3
  -2  -2  -5 10968.4 351.939   1
  -2  -2  -5 11213.5 381.366   3
  -2  -2  -6 4586.03 223.630   1
  -2  -2  -6 5698.84 292.131   3
  -2  -2  -7 7.77776 34.2128   3
  -2  -2  -7 26.7897 25.2977   1
  -2  -2  -8 889.469 141.895   3
  -2  -2  -8 748.393 82.9430   1
  -2  -2  -9 83.4277 60.5973   3
  -2  -2 -10-44.4481 47.3604   3
   2   2  10 114.589 69.1959   4
  -2  -2 -11 509.126 126.188   3
   2   2  11 518.157 134.042   4
  -2  -2 -12 364.551 114.958   3
   2   2  12 250.885 99.8122   4
   2   2  13 753.133 179.785   4
  -2  -2 -13 948.577 188.812   3
  -2  -2 -14 168.365 99.5097   3
   2   2  14 329.774 127.723   4
  -2  -2 -15-178.649 108.371   3
   2   2  15 47.6609 61.6957   4
   2   3 -15 192.134 51.0412   3
   2   3 -14 144.484 89.6934   3
   2   3 -13 40.8433 80.9469   3
   2   3 -12 1837.19 256.748   3
   2   3 -11 3121.10 316.784   3
   2   3 -10 889.068 163.888   3
   2   3  -9 1098.66 166.413   3
   2   3  -8 1652.75 194.257   3
  -2  -3   8 1943.24 188.287   1
   2   3  -7-6.13906 44.1946   3
  -2  -3   7 37.4430 42.8161   1
  -2  -3   6 1774.12 173.577   1
   2   3  -6 1670.01 174.069   3
  -2  -3   5 9372.06 391.027   1
   2   3  -5 9397.62 386.362   3
   2   3  -4 9007.29 164.996   4
   2   3  -4 10311.8 372.773   3
  -2  -3   4 10799.4 415.998   1
   2   3  -4 8914.66 174.740   4
  -2  -3   3-1.02656 38.2302   1
   2   3  -3 28.6834 15.0395   4
   2   3  -2 120670. 942.121   4
  -2  -3   2 123917. 1376.23   1
  -2  -3   1 21378.8 577.014   1
   2   3   0 114.120 44.2014   2
  -2  -3   0 30.9181 31.2528   1
  -2  -3  -1 386.358 79.5407   1
   2   3   1 416.860 64.8240   2
  -2  -3  -2 21.5700 32.4553   1
  -2  -3  -2-5.21817 22.4936   3
   2   3   2 58.7944 33.4754   2
  -2  -3  -3 12110.8 380.710   3
  -2  -3  -3 11961.9 428.867   1
  -2  -3  -4 276.088 66.3911   1
  -2  -3  -4 222.815 63.1165   3
  -2  -3  -5 1978.86 173.153   1
  -2  -3  -5 2148.10 180.284   3
  -2  -3  -6 7860.47 377.067   3
  -2  -3  -6 7108.66 321.679   1
  -2  -3  -7 3351.86 216.126   1
  -2  -3  -7 3552.17 271.921   3
  -2  -3  -8 1298.06 133.606   1
  -2  -3  -8 1880.20 215.733   3
  -2  -3  -9 96.1711 66.4902   3
  -2  -3 -10 238.931 93.7429   3
  -2  -3 -11 19.3847 67.4321   3
   2   3  12 170.855 82.8392   4
  -2  -3 -12 281.784 107.766   3
  -2  -3 -13 213.356 101.494   3
   2   3  13 40.8884 63.6186   4
   2   3  14-0.70780 87.8581   4
  -2  -3 -14 133.775 91.7475   3
  -2  -3 -15 161.523 103.835   3
   2   4 -15-52.3125 68.3880   3
   2   4 -14 181.710 100.004   3
   2   4 -13-86.4335 69.4793   3
   2   4 -12 324.945 114.356   3
   2   4 -11 10642.6 589.771   3
   2   4 -10 8.76515 43.1434   3
  -2  -4  10 37.5116 33.8812   1
   2   4  -9 545.992 119.034   3
  -2  -4   9 578.194 108.826   1
   2   4  -8 2772.50 265.482   3
  -2  -4   8 2814.46 236.513   1
   2   4  -7 287.854 86.8422   3
  -2  -4   7 367.753 93.3303   1
  -2  -4   6 7178.45 374.490   1
   2   4  -6 6914.52 370.214   3
  -2  -4   5 763.379 123.430   1
   2   4  -5 555.603 104.477   3
  -2  -4   4 3594.72 260.311   1
   2   4  -4 3687.51 131.641   4
   2   4  -4 3446.80 132.059   4
  -2  -4   3 287.930 81.4712   1
  -2  -4   2 25665.3 696.020   1
  -2  -4   1 372.536 90.0071   1
  -2  -4   0 798.784 124.678   1
   2   4   0 688.322 92.4392   2
  -2  -4  -1 9261.20 418.371   1
   2   4   1 9327.91 306.267   2
  -2  -4  -2 3931.49 273.060   1
   2   4   2 3974.24 185.508   2
  -2  -4  -3 2761.78 206.714   3
  -2  -4  -3 2651.76 223.489   1
  -2  -4  -4 4035.08 257.512   3
  -2  -4  -4 3945.65 272.945   1
  -2  -4  -5 41.2361 33.2280   1
  -2  -4  -5-5.66258 28.0677   3
  -2  -4  -6 6.32987 24.1407   1
  -2  -4  -6 2.36550 45.7893   3
  -2  -4  -7 209.312 64.2856   1
  -2  -4  -7 69.2829 46.3254   3
  -2  -4  -8 4610.81 289.482   1
  -2  -4  -8 4746.29 347.842   3
  -2  -4  -9 935.074 163.536   3
  -2  -4 -10 353.923 106.823   3
  -2  -4 -11 509.295 136.649   3
  -2  -4 -12 1018.63 200.356   3
  -2  -4 -13 246.376 117.422   3
  -2  -4 -14-110.980 94.2123   3
   2   4  14 109.058 85.7764   4
   2   5 -14 199.267 106.638   3
   2   5 -13-1.37419 52.2159   3
   2   5 -12 669.131 174.801   3
   2   5 -11 4127.43 385.148   3
  -2  -5  10 3407.60 279.624   1
   2   5 -10 3416.88 333.633   3
  -2  -5   9 901.282 149.961   1
   2   5  -9 780.977 159.144   3
   2   5  -8 44.1155 50.1771   3
  -2  -5   8 25.5885 50.7037   1
  -2  -5   7 318.108 83.7967   1
   2   5  -7 308.023 96.3869   3
  -2  -5   6 5026.22 337.347   1
   2   5  -6 4719.68 331.048   3
   2   5  -5 7478.11 394.159   3
   2   5  -5 6790.26 170.161   4
  -2  -5   5 7839.95 422.293   1
  -2  -5   4 113.251 54.1633   1
  -2  -5   3 1116.59 160.657   1
  -2  -5   2 34.4160 34.6616   1
  -2  -5   1 6458.79 381.200   1
   2   5   0 505.299 81.3550   2
  -2  -5   0 475.336 109.660   1
  -2  -5  -1 17.8296 28.0335   1
   2   5   1 22.0142 24.1138   2
   2   5   2 354.958 58.3623   2
  -2  -5  -2 305.606 88.1271   1
  -2  -5  -3 4206.52 285.172   3
   2   5   3 4474.36 186.921   2
  -2  -5  -3 3688.94 289.937   1
  -2  -5  -4 6783.19 368.992   3
  -2  -5  -4 6836.31 393.760   1
  -2  -5  -5 1805.78 197.973   3
  -2  -5  -5 1577.83 190.455   1
  -2  -5  -6-36.7194 36.6452   1
  -2  -5  -6 22.8300 36.5890   3
  -2  -5  -7-25.4254 33.1238   1
  -2  -5  -7 19.3385 45.8127   3
  -2  -5  -8 90.8296 50.7412   1
  -2  -5  -8 52.4636 50.9919   3
  -2  -5  -9 860.444 168.379   3
  -2  -5 -10 81.3244 68.0764   3
  -2  -5 -11 521.954 156.666   3
  -2  -5 -12 107.731 81.7824   3
  -2  -5 -13 1284.30 247.206   3
  -2  -5 -14 450.823 152.230   3
   2   6 -13 110.872 86.4360   3
   2   6 -12 127.541 91.7089   3
   2   6 -11 3832.18 384.684   3
   2   6 -10 75.4531 85.7914   3
  -2  -6  10 185.494 83.0374   1
  -2  -6   9 1324.47 190.283   1
   2   6  -9 1444.04 228.095   3
  -2  -6   8 3153.71 293.825   1
   2   6  -8 2977.50 304.943   3
  -2  -6   7 180.376 76.4225   1
   2   6  -7 40.3323 48.2623   3
   2   6  -6 106.979 57.7374   3
  -2  -6   6 128.946 67.4219   1
  -2  -6   5 270.893 90.3245   1
  -2  -6   4 3040.52 282.481   1
  -2  -6   3 1493.85 201.032   1
  -2  -6   2 890.357 157.179   1
  -2  -6   1 10135.1 515.566   1
  -2  -6   0 903.289 157.410   1
  -2  -6  -1 863.127 155.566   1
   2   6   1 884.446 102.632   2
   2   6   2 489.121 71.6748   2
  -2  -6  -2 277.419 86.2435   1
  -2  -6  -3 30.7707 43.8704   1
  -2  -6  -4 2022.38 227.472   3
  -2  -6  -4 2270.88 251.141   1
  -2  -6  -5 1199.53 179.196   3
  -2  -6  -5 1460.80 206.859   1
  -2  -6  -6 2153.12 240.823   3
  -2  -6  -6 2027.50 237.945   1
  -2  -6  -7 504.284 118.922   1
  -2  -6  -7 364.193 106.011   3
  -2  -6  -8 168.027 73.6739   1
  -2  -6  -8 252.829 96.8321   3
  -2  -6  -9 87.3485 74.4844   3
  -2  -6 -10 169.385 86.4319   3
  -2  -6 -11-34.5328 61.3146   3
  -2  -6 -12 33.6244 59.5269   3
  -2  -6 -13 14.9494 56.6982   3
   2   7 -12 325.947 129.339   3
   2   7 -11 146.616 85.3422   3
   2   7 -10 249.635 106.497   3
  -2  -7  10 106.279 52.8368   1
  -2  -7   9 270.520 100.943   1
   2   7  -9 213.016 106.492   3
  -2  -7   8 841.816 167.653   1
   2   7  -8 702.499 167.046   3
  -2  -7   7 2109.04 257.638   1
   2   7  -7 2381.33 279.406   3
  -2  -7   6 611.104 141.287   1
  -2  -7   5 172.229 76.5436   1
  -2  -7   4 46.9616 72.5964   1
  -2  -7   3 365.583 114.623   1
  -2  -7   2 2761.51 296.899   1
  -2  -7   1 108.576 62.0651   1
  -2  -7   0 835.015 165.394   1
  -2  -7  -1 2416.49 279.135   1
  -2  -7  -2 15966.8 711.360   1
  -2  -7  -3 714.147 158.626   1
  -2  -7  -4 1732.30 239.158   1
  -2  -7  -5 441.822 117.567   3
  -2  -7  -5 510.404 130.921   1
  -2  -7  -6 174.230 93.5043   3
  -2  -7  -6-41.1037 45.8652   1
  -2  -7  -7 639.703 146.827   3
  -2  -7  -7 562.479 135.577   1
  -2  -7  -8 164.665 84.6214   3
  -2  -7  -9 677.618 159.249   3
  -2  -7 -10 0.67602 163.041   3
  -2  -7 -11 156.799 98.1436   3
  -2  -7 -12 77.1535 79.2802   3
   2   8 -11-132.666 93.6202   3
   2   8 -10 297.706 120.891   3
  -2  -8  10 453.510 128.176   1
  -2  -8   9 59.5641 53.8243   1
   2   8  -9 187.157 95.6168   3
   2   8  -8 944.929 193.298   3
  -2  -8   8 971.467 194.060   1
  -2  -8   7 974.464 185.578   1
   2   8  -7 1069.02 199.701   3
  -2  -8   6 556.612 144.181   1
  -2  -8   5 639.825 153.064   1
  -2  -8   4-60.4716 59.3760   1
  -2  -8   3 525.119 137.962   1
  -2  -8   2 1566.16 233.133   1
  -2  -8   1 547.454 143.832   1
  -2  -8   0 4888.59 423.170   1
  -2  -8  -1 2429.23 299.363   1
  -2  -8  -2 3267.80 349.470   1
  -2  -8  -3 1302.15 224.663   1
  -2  -8  -4 135.841 93.9162   1
  -2  -8  -5 40.5892 55.7272   1
  -2  -8  -6 517.018 158.820   1
  -2  -8  -7 304.656 111.844   1
  -2  -8  -7 446.787 133.009   3
  -2  -8  -8 280.221 112.116   3
  -2  -8  -9-76.9709 72.9431   3
  -2  -8 -10-190.356 101.792   3
   2   9 -10-25.0341 62.3864   3
  -2  -9  10 317.228 121.067   1
  -2  -9   9 231.781 113.661   1
   2   9  -9 271.195 121.843   3
  -2  -9   8 0.64468 70.0418   1
   2   9  -8-10.3137 49.6201   3
   2   9  -7 142.442 87.0226   3
  -2  -9   7 158.501 78.9207   1
  -2  -9   6 159.928 89.6204   1
  -2  -9   5-18.1054 55.7028   1
  -2  -9   4 707.953 172.906   1
  -2  -9   3 1541.58 254.133   1
  -2  -9   2 6310.13 510.445   1
  -2  -9   1 164.958 116.993   1
  -2  -9   0 298.804 119.808   1
  -2  -9  -1 162.662 113.872   1
  -2  -9  -2 7.61960 50.1913   1
  -2  -9  -3 125.473 82.7524   1
  -2  -9  -4 316.793 116.721   1
  -2  -9  -5 170.558 92.5022   1
  -2  -9  -6 134.071 83.0731   1
  -2  -9  -7 402.671 135.065   1
  -2  -9  -9 286.985 142.375   3
  -2 -10   9 57.6192 60.5963   1
  -2 -10   8 782.193 198.033   1
   2  10  -8 833.927 201.642   3
   2  10  -7 106.119 77.3322   3
  -2 -10   7 269.901 116.506   1
  -2 -10   6 35.4029 65.3395   1
  -2 -10   5 43.5384 68.0339   1
  -2 -10   4 77.2100 81.7262   1
  -2 -10   3 547.392 173.225   1
  -2 -10   2 382.698 135.639   1
  -2 -10   1 424.931 156.243   1
  -2 -10   0 32.4649 66.4686   1
  -2 -10  -1 174.750 101.506   1
  -2 -10  -2 219.273 110.314   1
  -2 -10  -3 368.159 140.063   1
  -2 -10  -4 83.4908 76.8617   1
  -2 -10  -5 166.357 100.603   1
  -2 -10  -6 110.173 85.3698   1
  -2 -11   2 199.997 109.262   1
  -2 -11   1 223.829 110.749   1
  -2 -11   0 202.971 118.058   1
  -2 -11  -1 51.2302 67.6268   1
   3 -11  -3 339.267 140.913   4
   3 -11  -2-131.132 92.2191   4
   3 -11  -1 1.64741 75.9542   4
   3 -11   0 61.5086 67.9311   4
   3 -11   1-188.110 99.3020   4
   3 -11   2-24.3328 53.1470   4
   3 -11   2 90.4650 57.3531   1
   3 -11   3 0.73540 50.2951   4
   3 -11   3-45.0939 67.0064   1
   3 -11   4-22.0532 43.9801   4
   3 -11   4-43.3412 62.4057   1
   3 -11   5-2.87444 77.3282   1
   3 -11   6 65.5580 48.8003   1
   3 -11   7-139.968 86.9701   1
   3 -10  -6 408.241 171.515   4
   3 -10  -5 611.929 179.999   4
   3 -10  -4 206.215 110.661   4
   3 -10  -3 168.150 100.593   4
   3 -10  -2 237.243 129.501   4
   3 -10  -1-30.7012 82.5726   4
   3 -10   0 17.0869 46.0737   4
   3 -10   1-44.5839 57.8394   4
   3 -10   2-21.2555 44.3394   4
   3 -10   3-80.3399 61.7466   4
   3 -10   4 51.8745 57.4354   4
   3 -10   5 19.0530 43.5060   4
   3 -10   5-58.6911 57.5054   1
   3 -10   6 199.441 86.8668   4
   3 -10   6 43.6991 54.6227   1
   3 -10   7 59.7988 61.3888   1
  -3  10  -8-0.75166 25.6770   3
  -3  10  -9-219.740 105.191   3
   3  -9  -8-1.58618 56.4045   3
   3  -9  -7-80.9627 84.2685   3
   3  -9  -7-270.994 125.775   4
   3  -9  -6 452.231 151.769   4
   3  -9  -6 422.400 160.821   3
   3  -9  -5-30.3886 96.6873   4
   3  -9  -4-33.4517 58.2489   4
   3  -9  -3-22.6548 50.0765   4
   3  -9  -2 1161.58 230.346   4
   3  -9  -1 16.6476 57.1333   4
   3  -9   0-19.1605 49.0951   4
   3  -9   1 11.4273 49.4437   4
   3  -9   2 91.6781 73.5662   4
   3  -9   3 66.6265 71.8957   4
   3  -9   4 10.0510 41.5705   4
   3  -9   5 7.76857 34.4766   4
   3  -9   6 61.2587 53.1165   4
   3  -9   6 406.275 134.517   1
   3  -9   7 105.495 63.2461   4
   3  -9   7 220.262 98.8364   1
  -3   9  -8 162.965 89.7591   3
  -3   9  -9 202.082 101.377   3
  -3   9 -10-136.745 86.2180   3
  -3   9 -11 277.791 118.891   3
   3  -8 -10 360.216 160.524   3
   3  -8  -9 25.8632 66.9184   3
   3  -8  -8 101.123 63.5941   3
   3  -8  -7-83.9380 75.5083   4
   3  -8  -7 48.9329 61.9182   3
   3  -8  -6 280.185 117.662   4
   3  -8  -6 613.705 163.489   3
   3  -8  -5 554.737 159.947   4
   3  -8  -5 719.998 177.406   3
   3  -8  -4 169.976 93.0710   4
   3  -8  -3 436.402 133.521   4
   3  -8  -2 204.553 99.7477   4
   3  -8  -1 146.627 94.1100   4
   3  -8   0-84.0828 65.0568   4
   3  -8   1-19.7369 60.7956   4
   3  -8   2 77.9806 75.5656   4
   3  -8   3 659.557 150.664   4
   3  -8   4-113.419 70.6764   4
   3  -8   5 630.520 149.222   4
   3  -8   6 70.9404 64.4138   4
  -3   8  -7 69.1245 58.6933   3
   3  -8   7 19.5003 38.9941   4
   3  -8   7 123.635 59.1148   1
   3  -8   8-4.39495 32.7488   4
  -3   8  -8-7.78521 36.1504   3
  -3   8  -9 23.5367 43.4491   3
  -3   8 -10 81.9627 69.6975   3
  -3   8 -11-96.2379 76.1920   3
  -3   8 -12 320.616 126.305   3
   3  -7 -11 469.765 151.269   3
   3  -7 -10 137.667 92.0012   3
   3  -7  -9-79.4133 79.1398   3
   3  -7  -8 575.076 164.955   4
   3  -7  -8 590.672 154.525   3
   3  -7  -7-50.4158 68.8698   3
   3  -7  -7 129.680 95.3494   4
   3  -7  -6 4190.26 377.000   3
   3  -7  -6 3882.43 393.587   4
   3  -7  -5 486.208 152.642   4
   3  -7  -5 589.956 149.986   3
   3  -7  -4 3.29382 53.5959   4
   3  -7  -4 119.252 71.1677   3
   3  -7  -3 142.002 81.0014   4
   3  -7  -2 34.6514 59.1139   4
   3  -7  -1 350.409 106.592   4
   3  -7   0-65.6564 58.8772   4
   3  -7   1 698.549 146.442   4
   3  -7   2 647.999 148.828   4
   3  -7   3 8436.47 497.037   4
   3  -7   4 105.922 69.6189   4
   3  -7   5 1049.66 174.714   4
   3  -7   6 378.177 109.145   4
   3  -7   7-136.430 68.8387   4
  -3   7  -7 40.4423 47.5736   3
   3  -7   8 142.964 76.8824   4
  -3   7  -8 72.3026 54.8129   3
   3  -7   9 107.402 68.5669   4
  -3   7  -9 191.140 91.0165   3
  -3   7 -10 157.839 84.3439   3
  -3   7 -11 121.349 75.6618   3
  -3   7 -12 147.583 76.5394   3
  -3   7 -13 128.632 84.2185   3
   3  -6 -12 260.155 118.562   3
   3  -6 -11 157.286 95.4417   3
   3  -6 -10 17.3695 56.4227   3
   3  -6  -9 196.855 86.4538   3
   3  -6  -8 1665.51 243.477   3
   3  -6  -8 1446.73 233.883   4
   3  -6  -7 106.241 74.7125   4
   3  -6  -7 77.4942 61.0661   3
   3  -6  -6-15.0728 63.8209   4
   3  -6  -6 21.4644 69.3770   3
   3  -6  -5-10.4921 49.2139   4
   3  -6  -5 0.43916 47.5749   3
   3  -6  -4 962.278 160.176   3
   3  -6  -4 898.258 168.746   4
   3  -6  -3 5229.97 364.362   3
   3  -6  -3 5053.01 375.937   4
   3  -6  -2 2103.66 240.665   4
   3  -6  -1 213.014 82.8681   4
   3  -6   0 36.6275 55.7139   4
   3  -6   1 866.337 157.831   4
   3  -6   2 6917.61 411.306   4
   3  -6   3 83.3633 47.5169   4
   3  -6   4 8378.97 450.419   4
   3  -6   5 989.359 157.761   4
  -3   6  -6 733.920 147.483   3
   3  -6   6 683.042 134.038   4
   3  -6   7 59.7720 48.1711   4
  -3   6  -7 18.1220 48.0432   3
  -3   6  -8 666.662 149.187   3
   3  -6   8 772.087 144.261   4
   3  -6   9 318.286 104.894   4
  -3   6  -9 447.380 145.813   3
   3  -6  10 47.0932 59.2234   4
  -3   6 -10 96.1082 68.0274   3
  -3   6 -11-96.3323 71.8857   3
  -3   6 -12 193.960 88.5770   3
  -3   6 -13 63.5131 65.6656   3
  -3   6 -14-0.77790 65.7953   3
   3  -5 -13 75.4750 82.1769   3
   3  -5 -12 71.4486 54.3269   3
   3  -5 -11 165.643 87.6740   3
   3  -5 -10-7.18042 78.2404   3
   3  -5  -9 585.441 144.541   4
   3  -5  -9 359.330 114.843   3
   3  -5  -8 796.719 167.310   4
   3  -5  -8 1080.29 183.113   3
   3  -5  -7 285.341 103.280   3
   3  -5  -7 199.133 86.2443   4
   3  -5  -7 159.281 54.0483   2
   3  -5  -6 3501.33 308.577   3
   3  -5  -6 2640.29 278.524   4
   3  -5  -5-23.0722 51.1533   4
   3  -5  -5-84.8515 58.1123   3
   3  -5  -4 181.732 74.9586   4
   3  -5  -4 207.344 75.8896   3
   3  -5  -3 5944.55 350.655   3
   3  -5  -3 5810.87 373.992   4
   3  -5  -2 1304.04 175.107   4
   3  -5  -2 1554.99 177.449   3
   3  -5  -1 2.93129 38.7789   4
   3  -5   0 1239.61 169.278   4
   3  -5   1 357.255 93.9066   4
   3  -5   2 2653.17 242.549   4
   3  -5   3 2075.94 215.549   4
   3  -5   4 197.948 76.9050   4
   3  -5   5 764.362 137.975   4
  -3   5  -6 412.915 101.266   3
   3  -5   6 541.109 116.325   4
  -3   5  -7 993.625 163.460   3
   3  -5   7 1089.08 167.985   4
  -3   5  -8-14.6907 34.3202   3
   3  -5   8 2.45087 41.0822   4
   3  -5   9 275.686 103.969   4
  -3   5  -9 212.536 91.0628   3
  -3   5 -10-41.3179 49.6321   3
   3  -5  10-169.325 75.6486   4
  -3   5 -11 1005.82 194.994   3
   3  -5  11 1190.47 188.875   4
  -3   5 -12 18.0539 50.7260   3
  -3   5 -13 49.9182 58.7767   3
  -3   5 -14-136.445 79.8001   3
  -3   5 -15 129.894 85.6049   3
   3  -4 -14 590.677 174.895   3
   3  -4 -13 347.143 144.004   3
   3  -4 -12-51.7029 72.8024   3
   3  -4 -11 593.359 165.517   3
   3  -4 -10 4127.71 372.854   3
   3  -4  -9 128.258 62.8877   4
   3  -4  -9 34.6161 56.1801   3
   3  -4  -9 41.8463 46.9606   2
   3  -4  -8-77.8394 59.4366   4
   3  -4  -8 19.8063 45.7969   3
   3  -4  -8-64.7028 42.0168   2
   3  -4  -7 3304.95 242.198   2
   3  -4  -7 3760.61 312.157   4
   3  -4  -6 2703.39 246.645   3
   3  -4  -6 2397.37 202.841   2
   3  -4  -5 701.073 134.636   4
   3  -4  -5 678.449 122.817   3
   3  -4  -5 562.345 100.502   2
   3  -4  -4 2433.46 215.876   3
   3  -4  -4 2275.14 192.714   2
   3  -4  -4 2213.94 218.308   4
   3  -4  -3 931.734 126.871   3
   3  -4  -3 803.234 131.802   4
   3  -4  -2 4723.89 273.192   3
   3  -4  -2 3927.04 283.869   4
   3  -4  -1 5494.99 329.664   4
   3  -4   0 3171.78 247.908   4
   3  -4   1 7257.93 367.948   4
   3  -4   2 961.161 140.401   4
   3  -4   3 62.4582 43.5218   4
   3  -4   4 1357.28 168.824   4
  -3   4  -5 11.1782 41.2949   3
   3  -4   5-8.62303 50.1961   4
  -3   4  -6 1214.05 161.773   3
   3  -4   6 1489.64 184.128   4
  -3   4  -7 1242.66 167.607   3
   3  -4   7 1234.84 171.680   4
   3  -4   8 2484.75 243.026   4
  -3   4  -8 2841.95 268.859   3
  -3   4  -9 160.343 73.5679   3
   3  -4   9 338.234 98.9844   4
   3  -4  10-40.9938 42.4723   4
  -3   4 -10-140.051 70.3439   3
  -3   4 -11 178.679 81.6666   3
   3  -4  11 267.629 87.8106   4
  -3   4 -12 70.7668 72.7800   3
   3  -4  12-2.69463 58.2130   4
  -3   4 -13 520.851 145.097   3
  -3   4 -14 152.924 86.4793   3
  -3   4 -15 333.948 131.995   3
   3  -3 -14-78.8590 77.4369   3
   3  -3 -13 264.239 97.9184   3
   3  -3 -12 65.6731 58.1358   3
   3  -3 -11 48.9121 78.0480   3
   3  -3 -11 142.547 67.9993   2
   3  -3 -10 3507.66 331.103   3
   3  -3 -10 2386.47 243.539   2
   3  -3  -9 1371.64 197.729   3
   3  -3  -9 1031.89 159.938   2
   3  -3  -9 1377.11 192.128   4
   3  -3  -8 1422.24 190.858   3
   3  -3  -8 919.811 142.696   2
   3  -3  -8 1094.47 166.810   4
   3  -3  -7 3220.22 268.464   3
   3  -3  -7 2500.64 222.730   2
   3  -3  -7 2881.14 252.821   4
   3  -3  -6 640.860 118.564   4
   3  -3  -6 696.331 125.825   3
   3  -3  -6 579.343 106.743   2
   3  -3  -5 1083.58 141.130   3
   3  -3  -5 887.768 123.145   2
   3  -3  -5 1058.94 144.657   4
   3  -3  -4 78.1715 48.2862   4
   3  -3  -4 68.7792 45.0299   2
   3  -3  -4 92.1619 32.3032   3
   3  -3  -3 60.0595 41.0767   4
   3  -3  -3 26.9643 22.5558   2
   3  -3  -3 39.6846 36.9818   3
   3  -3  -2 11233.3 367.522   3
   3  -3  -2 10999.1 428.590   4
   3  -3  -1 15426.9 415.140   3
   3  -3  -1 14998.6 505.268   4
   3  -3   0 4214.52 264.355   4
   3  -3   1 67.8007 40.0652   4
   3  -3   2 1425.75 161.550   4
   3  -3   3 2469.40 217.934   4
  -3   3  -4 239.994 60.6963   3
   3  -3   4 279.592 64.9034   4
  -3   3  -5 5500.94 290.389   3
   3  -3   5 6576.58 350.704   4
  -3   3  -6 615.101 114.547   3
   3  -3   6 758.123 124.673   4
  -3   3  -7 1836.93 194.435   3
   3  -3   7 1916.78 204.971   4
  -3   3  -8 523.819 110.394   3
   3  -3   8 427.584 100.253   4
  -3   3  -9 127.030 62.2982   3
   3  -3   9 174.587 79.5656   4
  -3   3 -10 143.603 76.1555   3
   3  -3  10 218.816 80.7393   4
  -3   3 -11 56.7528 69.2617   3
   3  -3  11 8.98896 33.6999   4
   3  -3  12 225.392 87.1618   4
  -3   3 -12 277.799 105.183   3
   3  -3  13 264.081 98.5132   4
  -3   3 -13 117.064 94.0885   3
  -3   3 -14 365.796 124.542   3
  -3   3 -15 52.5546 62.3677   3
   3  -2 -14-24.8699 63.1289   3
   3  -2 -13 915.540 195.442   3
   3  -2 -12 102.919 52.4272   3
   3  -2 -12 93.5364 65.6452   2
   3  -2 -11 9.48840 44.7971   3
   3  -2 -11-71.9257 54.8555   2
   3  -2 -10 28.3795 48.4170   3
   3  -2 -10 132.092 58.3278   2
   3  -2  -9 1816.50 217.408   3
   3  -2  -9 1165.43 171.174   2
   3  -2  -9 1634.17 189.603   4
   3  -2  -8 364.224 93.6649   4
   3  -2  -8 487.779 108.547   3
   3  -2  -8 296.427 85.3202   2
   3  -2  -7 33.5421 35.3597   4
   3  -2  -7 46.1274 36.3929   3
   3  -2  -7 72.6906 55.5807   2
   3  -2  -6 107.964 48.5812   4
   3  -2  -6 143.070 52.5698   3
   3  -2  -6 81.6256 53.8443   2
   3  -2  -5 13792.6 458.644   3
   3  -2  -5 12795.8 481.956   2
   3  -2  -5 13379.5 460.096   4
   3  -2  -4 15265.5 448.382   3
   3  -2  -4 15254.7 507.202   2
   3  -2  -4 14929.0 480.308   4
   3  -2  -3 2193.56 158.469   3
   3  -2  -3 1739.44 164.327   2
   3  -2  -3 2034.50 175.410   4
   3  -2  -2 35.7582 40.5419   4
   3  -2  -2 64.5558 32.7484   2
   3  -2  -2 29.8504 28.7565   3
   3  -2  -1-31.2912 32.4557   4
   3  -2  -1 22.3055 25.7109   2
   3  -2  -1 6.10613 17.2549   3
  -3   2   0 828.621 76.4379   3
   3  -2   0 1079.94 128.074   4
  -3   2  -1 13.0350 12.5813   3
   3  -2   1-0.25760 36.1382   4
   3  -2   2 8718.17 367.979   4
  -3   2  -3 8868.05 276.828   3
   3  -2   3 8919.77 383.207   4
  -3   2  -4 13.6882 20.0371   3
   3  -2   4-5.06194 29.8585   4
  -3   2  -5 18058.9 480.374   3
   3  -2   5 18358.5 583.487   4
  -3   2  -6 22.9108 26.2203   3
   3  -2   6 14.7164 43.5107   4
  -3   2  -7 1223.94 148.370   3
   3  -2   7 1152.93 158.418   4
  -3   2  -8 60.0337 43.4690   3
   3  -2   8-18.2589 54.4251   4
   3  -2   9 55.8046 40.5499   4
  -3   2  -9-3.00344 28.9626   3
   3  -2  10 262.670 86.8776   4
  -3   2 -10 242.667 90.3638   3
   3  -2  11 982.459 168.877   4
  -3   2 -11 996.351 174.481   3
  -3   2 -12 1779.69 256.553   3
   3  -2  12 1229.38 199.698   4
  -3   2 -13 514.385 156.093   3
   3  -2  13 342.816 111.594   4
   3  -2  14-35.2282 51.3818   4
  -3   2 -14-7.44741 47.5459   3
  -3   2 -15 312.473 124.987   3
   3  -1 -15 236.623 118.843   3
   3  -1 -14 222.363 108.640   3
   3  -1 -13 2228.95 296.886   3
   3  -1 -12 1559.93 233.231   3
   3  -1 -11-60.4707 56.1130   3
   3  -1 -10 1240.84 187.028   3
   3  -1  -9 1793.13 213.927   3
   3  -1  -9 1335.55 190.967   2
   3  -1  -8 3701.36 284.953   3
   3  -1  -8 3823.10 252.427   4
   3  -1  -7 81.5247 40.9560   4
   3  -1  -7 71.2618 36.9955   3
   3  -1  -7 83.7512 50.5428   2
   3  -1  -6 1251.84 134.456   4
   3  -1  -6 1279.80 144.175   3
   3  -1  -6 1025.87 146.263   2
   3  -1  -5 386.838 72.8143   4
   3  -1  -5 383.417 76.3453   3
   3  -1  -5 305.530 77.4685   2
   3  -1  -4 225.210 52.6675   4
   3  -1  -4 357.480 64.9237   3
   3  -1  -4 307.905 77.0434   2
   3  -1  -3 3897.73 189.548   3
   3  -1  -3 3767.28 249.500   2
   3  -1  -3 4192.94 227.436   4
   3  -1  -2 21406.7 382.944   3
   3  -1  -2 20649.4 556.913   2
   3  -1  -2 21755.0 521.083   4
   3  -1  -1 431.356 80.8357   2
   3  -1  -1 457.165 48.8819   3
  -3   1   1 446.291 46.0649   3
   3  -1  -1 563.134 90.0069   4
  -3   1   0 141.982 20.9320   3
   3  -1   0 224.028 66.5401   2
   3  -1   0 174.964 51.1751   4
  -3   1  -1 24.8718 8.69533   3
  -3   1  -1 19.1608 7.43796   3
  -3   1  -2 177.077 27.0146   3
   3  -1   2 143.833 51.7218   4
  -3   1  -3 915.326 74.7839   3
   3  -1   3 1120.23 134.990   4
  -3   1  -4 211.995 43.9055   3
   3  -1   4 249.293 71.0342   4
  -3   1  -5 6690.23 269.675   3
   3  -1   5 6115.00 336.889   4
  -3   1  -6 11745.3 398.448   3
   3  -1   6 12526.4 498.251   4
  -3   1  -7 547.916 105.271   3
   3  -1   7 807.549 138.078   4
   3  -1   8 199.343 74.3275   4
  -3   1  -8 190.377 71.0912   3
   3  -1   9 1298.32 186.396   4
  -3   1  -9 1122.06 160.331   3
  -3   1 -10 1845.02 220.015   3
   3  -1  10 1788.23 227.027   4
  -3   1 -11 63.1450 47.9563   3
   3  -1  11-82.0600 59.1874   4
  -3   1 -12 1626.65 239.429   3
   3  -1  12 1270.52 219.922   4
   3  -1  13-106.641 70.8487   4
  -3   1 -13-77.2186 66.4224   3
  -3   1 -14 77.6534 64.3734   3
   3  -1  14-11.3055 37.4764   4
  -3   1 -15 334.707 123.369   3
   3  -1  15 92.6341 70.2242   4
   3   0 -15 386.365 151.187   3
   3   0 -14-107.899 81.7729   3
   3   0 -13 105.375 75.7083   3
   3   0 -12-12.2222 41.4538   3
   3   0 -11-5.00889 41.3505   3
   3   0 -10 3684.19 320.414   3
   3   0  -9 1723.22 212.265   3
   3   0  -8 3355.84 266.862   3
   3   0  -8 3722.53 219.141   4
   3   0  -7 4579.79 288.768   3
   3   0  -7 4483.29 231.084   4
   3   0  -6 1903.16 174.008   3
   3   0  -6 1768.39 193.031   2
   3   0  -6 2097.36 151.356   4
   3   0  -5 2656.74 186.475   3
   3   0  -5 2143.96 203.994   2
   3   0  -5 2674.66 166.820   4
   3   0  -4 1084.39 108.493   3
   3   0  -4 974.930 135.060   2
   3   0  -4 1235.69 112.986   4
   3   0  -3 5.94399 21.2912   4
   3   0  -3 37.2981 37.3134   2
   3   0  -3 20.6200 21.5863   3
  -3   0   2 7.94238 11.2440   3
   3   0  -2 44.3216 38.7422   2
   3   0  -2 37.0032 17.3376   3
   3   0  -2 23.8445 30.6329   4
   3   0  -1 12689.2 192.997   3
   3   0  -1 12989.1 438.791   2
   3   0  -1 13012.7 380.009   4
   3   0   0 17238.9 459.485   4
   3   0   0 17685.8 509.656   2
   3   0   1 25596.5 611.270   2
   3   0   1 26554.2 592.091   4
   3   0   2 2869.36 200.978   4
  -3   0  -3 184.311 31.8088   3
   3   0   3 233.962 35.2731   3
   3   0   3 216.885 62.1421   4
  -3   0  -4 807.217 76.8782   3
   3   0   4 994.573 139.008   4
  -3   0  -5 1920.10 139.170   3
   3   0   5 2064.86 205.620   4
   3   0   6 423.032 100.806   4
  -3   0  -6 375.036 71.6681   3
  -3   0  -7 1983.24 179.197   3
   3   0   7 2335.60 237.137   4
  -3   0  -8 2555.64 223.351   3
   3   0   8 2954.52 274.293   4
   3   0   9 161.832 77.7150   4
  -3   0  -9 147.754 68.3348   3
   3   0  10-18.8513 51.5740   4
  -3   0 -10-72.1247 52.6144   3
   3   0  11 189.821 92.5071   4
  -3   0 -11 301.675 96.1765   3
   3   0  12 151.455 83.7857   4
  -3   0 -12 135.211 83.4688   3
  -3   0 -13 308.792 110.675   3
   3   0  13 311.140 113.564   4
  -3   0 -14 175.430 89.0862   3
   3   0  14-54.4544 61.1183   4
   3   0  15 112.703 80.7164   4
  -3   0 -15 80.6407 65.1952   3
   3   1 -15 248.152 113.990   3
   3   1 -14 232.309 101.876   3
   3   1 -13 458.149 132.079   3
   3   1 -12 166.074 81.9463   3
   3   1 -11 1655.07 225.825   3
   3   1 -10 5644.63 389.378   3
   3   1  -9 12.4223 47.0364   3
   3   1  -8 1473.06 178.617   3
   3   1  -7 6584.63 346.632   3
   3   1  -7 7079.11 243.643   4
   3   1  -6 3875.21 247.430   3
   3   1  -6 3749.07 172.926   4
   3   1  -5 10128.4 363.470   3
   3   1  -5 10483.5 452.437   2
   3   1  -5 10316.4 284.768   4
   3   1  -4 593.922 83.0940   3
   3   1  -4 543.170 105.127   2
   3   1  -4 513.372 69.5565   4
   3   1  -3 1654.44 118.761   3
   3   1  -3 1394.45 157.507   2
   3   1  -3 1801.59 133.948   4
   3   1  -2 76031.7 677.004   3
   3   1  -2 76157.8 870.608   4
   3   1  -1 256.540 33.9905   3
   3   1  -1 341.322 66.8333   4
   3   1  -1 300.871 74.4499   2
   3   1   0 47635.8 808.783   2
   3   1   0 41341.9 313.403   3
   3   1   0 45252.3 730.089   4
   3   1   1 9445.66 370.799   2
   3   1   1 9486.48 356.293   4
  -3  -1  -2 1194.99 69.4613   3
   3   1   2 1263.19 69.3733   3
   3   1   2 1409.60 145.271   4
  -3  -1  -3 5170.25 174.665   3
   3   1   3 5507.58 178.900   3
   3   1   3 5209.67 294.268   4
  -3  -1  -4 1540.52 112.913   3
   3   1   4 1291.01 154.333   4
  -3  -1  -5 162.353 45.4300   3
   3   1   5 130.911 63.4919   4
  -3  -1  -6 4620.71 247.096   3
   3   1   6 5666.07 358.889   4
  -3  -1  -7 38.3627 32.8910   3
   3   1   7 54.6902 34.6135   4
  -3  -1  -8-89.9041 48.7207   3
   3   1   8 8.90548 44.0936   4
  -3  -1  -9 581.858 114.061   3
   3   1   9 466.551 124.018   4
  -3  -1 -10 424.139 105.182   3
   3   1  10 542.369 133.917   4
  -3  -1 -11 136.371 66.9486   3
   3   1  11 110.967 63.9046   4
  -3  -1 -12 100.751 64.8601   3
   3   1  12-30.5422 49.3066   4
  -3  -1 -13 276.253 105.936   3
   3   1  13 174.917 91.0187   4
  -3  -1 -14 242.572 106.239   3
   3   1  14 264.418 133.389   4
   3   1  15-145.029 89.3474   4
   3   2 -15 578.484 163.971   3
   3   2 -14 129.240 82.7992   3
   3   2 -13 264.301 103.751   3
   3   2 -12 962.271 186.665   3
   3   2 -11 3874.21 346.560   3
   3   2 -10 939.065 164.006   3
   3   2  -9 8442.86 452.609   3
   3   2  -8 3447.02 272.766   3
   3   2  -7 558.505 108.526   3
   3   2  -6 34.4149 32.9489   3
   3   2  -6 43.7824 19.5984   4
  -3  -2   6 20.9627 13.6068   4
   3   2  -5 1996.83 168.078   3
   3   2  -5 2241.22 115.320   4
   3   2  -4 16394.8 437.524   3
  -3  -2   4 15567.7 342.122   4
  -3  -2   3 588.015 111.300   1
   3   2  -3 687.696 78.5700   4
   3   2  -3 706.586 113.701   2
   3   2  -3 716.869 86.0506   3
   3   2  -2 6778.56 258.466   4
  -3  -2   2 6766.88 354.665   1
   3   2  -2 6896.32 336.526   2
   3   2  -2 6773.10 234.338   3
  -3  -2   1 3838.03 260.866   1
   3   2  -1 4104.36 255.701   2
   3   2  -1 3821.84 207.649   4
  -3  -2   0 14714.3 503.889   1
   3   2   0 14259.2 286.080   3
   3   2   0 14313.8 463.327   2
   3   2   0 13766.9 417.351   4
  -3  -2  -1 23022.4 627.140   1
   3   2   1 22488.6 362.504   3
   3   2   1 22829.4 564.818   2
   3   2   1 22733.1 575.694   4
  -3  -2  -2 3541.29 244.254   1
   3   2   2 3665.00 228.863   2
   3   2   2 3727.26 250.816   4
  -3  -2  -3 1125.01 137.731   1
  -3  -2  -3 1142.36 97.3456   3
   3   2   3 1261.55 155.995   4
   3   2   4 91.7144 46.1788   4
  -3  -2  -4 66.7558 36.6695   3
  -3  -2  -4 75.6913 43.6750   1
  -3  -2  -5 3187.45 199.206   3
   3   2   5 3505.44 282.258   4
  -3  -2  -5 2851.39 215.483   1
  -3  -2  -6 5482.02 291.542   3
   3   2   6 5938.78 378.118   4
  -3  -2  -7 928.234 131.170   3
   3   2   7 957.714 160.993   4
  -3  -2  -8 2823.92 238.090   3
   3   2   8 3471.02 318.937   4
  -3  -2  -9 563.624 124.375   3
   3   2   9 454.758 132.945   4
  -3  -2 -10-29.8284 38.8666   3
   3   2  10 57.5444 57.1774   4
  -3  -2 -11 159.497 76.7743   3
   3   2  11 31.6370 44.8577   4
  -3  -2 -12-109.582 70.6228   3
   3   2  12 60.1216 64.1278   4
  -3  -2 -13-57.6654 50.8987   3
   3   2  13-157.579 88.2719   4
  -3  -2 -14 410.829 136.605   3
   3   2  14 630.059 174.759   4
   3   3 -15 85.2821 80.5877   3
   3   3 -14 22.4615 56.2788   3
   3   3 -13 103.626 76.6570   3
   3   3 -12 97.9288 72.2325   3
   3   3 -11 904.056 172.450   3
   3   3 -10 8915.78 502.069   3
   3   3  -9 11639.6 546.719   3
   3   3  -8 390.290 98.7544   3
   3   3  -7 527.278 108.924   3
   3   3  -6 531.127 97.6818   3
  -3  -3   6 446.310 103.699   1
  -3  -3   5 2384.50 224.656   1
   3   3  -5 2214.60 189.433   3
   3   3  -5 2257.11 102.790   4
   3   3  -4 216.974 62.8832   3
   3   3  -4 292.555 46.3091   4
  -3  -3   4 212.476 77.6406   1
  -3  -3   3 2258.66 218.091   1
   3   3  -3 2477.58 216.318   2
   3   3  -3 2481.32 173.173   3
   3   3  -3 2542.00 147.562   4
   3   3  -2 664.937 104.657   2
   3   3  -2 531.791 76.9540   4
  -3  -3   2 497.701 100.610   1
  -3  -3   1 8290.23 404.849   1
   3   3  -1 8217.20 366.737   2
   3   3  -1 8502.09 323.662   4
  -3  -3   0 4897.96 311.213   1
   3   3   0 4941.39 271.551   2
   3   3   0 4949.75 263.739   4
   3   3   1 97.2682 50.3343   4
   3   3   1 54.4931 37.6998   2
  -3  -3  -1 50.9260 38.4495   1
   3   3   2 783.718 125.027   4
   3   3   2 682.989 102.631   2
  -3  -3  -2 467.972 94.4516   1
  -3  -3  -3 4059.29 282.191   1
  -3  -3  -3 4080.37 220.250   3
   3   3   3 4490.70 307.834   4
  -3  -3  -4 4217.87 285.159   1
  -3  -3  -4 4443.43 239.903   3
   3   3   4 4560.59 325.715   4
  -3  -3  -5 124.720 51.4660   3
   3   3   5 161.730 68.0957   4
  -3  -3  -5 93.0954 45.5290   1
  -3  -3  -6 578.230 105.325   1
  -3  -3  -6 539.853 101.427   3
   3   3   6 614.465 134.097   4
  -3  -3  -7 301.941 76.1182   3
  -3  -3  -7 274.453 70.1630   1
   3   3   7 372.285 107.390   4
  -3  -3  -8 231.536 74.0418   3
   3   3   8 510.567 131.292   4
  -3  -3  -9-24.9040 36.0413   3
   3   3   9 36.6172 49.3792   4
   3   3  10 178.852 84.6047   4
  -3  -3 -10 1.42729 29.3350   3
  -3  -3 -11 2508.93 286.396   3
   3   3  11 2242.96 303.144   4
  -3  -3 -12 386.058 132.399   3
   3   3  12 435.369 141.156   4
  -3  -3 -13 143.347 75.0079   3
   3   3  13 114.246 83.3027   4
   3   4 -14 184.793 103.918   3
   3   4 -13 118.318 81.8686   3
   3   4 -12 321.024 115.984   3
   3   4 -11 500.864 140.110   3
   3   4 -10 174.843 90.1504   3
   3   4  -9 8367.61 477.038   3
  -3  -4   8 4568.17 340.002   1
   3   4  -8 4180.18 321.650   3
   3   4  -7 140.981 62.5320   3
  -3  -4   7 98.6584 50.7670   1
  -3  -4   6 12113.1 537.711   1
   3   4  -6 12261.6 506.177   3
  -3  -4   5 2987.96 268.201   1
   3   4  -5 3167.35 242.201   3
  -3  -4   4 3739.41 298.754   1
   3   4  -4 3547.23 162.417   4
   3   4  -4 3428.31 237.417   3
  -3  -4   3 5097.96 345.946   1
   3   4  -3 5091.44 223.225   4
  -3  -4   2 183.916 68.1054   1
   3   4  -2 305.038 64.3797   4
   3   4  -2 353.060 81.1711   2
  -3  -4   1-5.91765 25.9845   1
   3   4  -1 8.58206 25.3227   4
   3   4  -1 10.7189 30.3935   2
  -3  -4   0 277.240 90.9198   1
   3   4   0 429.149 87.1252   4
   3   4   0 302.850 75.4835   2
  -3  -4  -1 7741.54 421.647   1
   3   4   1 8115.25 345.832   2
  -3  -4  -2 534.529 115.354   1
   3   4   2 577.109 90.4001   2
  -3  -4  -3 473.138 107.204   1
  -3  -4  -4 4202.55 310.414   1
  -3  -4  -4 3868.87 160.957   3
  -3  -4  -5 1449.85 180.738   1
  -3  -4  -5 1847.53 182.121   3
  -3  -4  -6 832.177 137.168   1
  -3  -4  -6 958.818 138.663   3
  -3  -4  -7 1.84301 29.0023   3
  -3  -4  -7 22.4046 32.9423   1
  -3  -4  -8 522.869 114.529   3
  -3  -4  -9-72.3446 52.3804   3
   3   4   9-129.317 83.5984   4
  -3  -4 -10 71.1802 60.0048   3
   3   4  10 104.602 92.1404   4
  -3  -4 -11 1.11704 39.7550   3
   3   4  11 155.100 90.9240   4
  -3  -4 -12-66.4719 64.6352   3
   3   4  12 30.2749 55.1048   4
   3   5 -14 598.581 172.694   3
   3   5 -13 661.038 173.997   3
   3   5 -12 591.758 162.581   3
   3   5 -11-80.0861 70.0417   3
  -3  -5  10 127.916 80.8627   1
   3   5 -10 190.628 83.8191   3
   3   5  -9 334.380 107.119   3
  -3  -5   9 245.436 89.2904   1
  -3  -5   8 1526.97 209.655   1
   3   5  -8 1627.32 210.629   3
  -3  -5   7 852.965 158.540   1
   3   5  -7 929.683 148.824   3
  -3  -5   6 1092.47 171.425   1
   3   5  -6 751.165 131.647   3
  -3  -5   5 2974.31 282.688   1
   3   5  -5 2988.47 251.829   3
  -3  -5   4 5148.85 368.459   1
   3   5  -4 4754.39 206.218   4
  -3  -5   3 62.8070 44.0765   1
   3   5  -3 39.6171 25.4600   4
   3   5  -2 3011.44 208.734   4
  -3  -5   2 2736.52 270.053   1
   3   5  -2 2837.76 235.013   2
  -3  -5   1 16.3962 40.3174   1
   3   5  -1 29.3879 37.9873   2
  -3  -5   0 97.8530 57.3402   1
   3   5   0-1.35121 36.2444   2
  -3  -5  -1 8490.89 472.282   1
   3   5   1 8688.72 363.027   2
  -3  -5  -2 13045.9 589.099   1
   3   5   2 13197.5 425.202   2
  -3  -5  -3 607.550 139.961   1
   3   5   3 762.758 103.991   2
  -3  -5  -4 19862.2 720.207   1
  -3  -5  -5 1112.82 174.382   1
  -3  -5  -5 950.008 146.622   3
  -3  -5  -6 288.130 93.0775   1
  -3  -5  -6 417.422 98.2157   3
  -3  -5  -7 2405.16 251.655   1
  -3  -5  -7 2311.54 241.349   3
  -3  -5  -8 1267.19 189.537   3
  -3  -5  -9 154.036 87.3259   3
  -3  -5 -10 266.698 101.945   3
   3   5  11 141.132 97.8834   4
  -3  -5 -11-191.997 96.9119   3
   3   5  12 1.63739 57.1722   4
   3   6 -13 79.5693 74.5916   3
   3   6 -12-101.174 77.6452   3
   3   6 -11 615.844 161.159   3
   3   6 -10 153.704 84.0619   3
  -3  -6  10 66.5533 56.4766   1
   3   6  -9 48.3861 55.4816   3
  -3  -6   9 260.166 96.2955   1
  -3  -6   8 3227.20 317.908   1
   3   6  -8 3342.27 323.760   3
  -3  -6   7 1396.19 211.423   1
   3   6  -7 1322.58 195.852   3
  -3  -6   6 27.3975 43.7989   1
   3   6  -6 31.1920 40.5235   3
  -3  -6   5 18.2768 45.5002   1
   3   6  -5-26.9927 32.1306   3
  -3  -6   4 220.002 85.1448   1
  -3  -6   3 51.5382 38.4712   1
   3   6  -3 68.2381 37.5812   4
  -3  -6   2 1290.11 200.006   1
   3   6  -2 1384.63 173.414   2
  -3  -6   1 2469.33 279.014   1
   3   6  -1 2924.07 235.009   2
  -3  -6   0 6093.62 433.715   1
   3   6   0 7361.92 360.639   2
  -3  -6  -1 10762.0 574.625   1
   3   6   1 11429.9 419.421   2
  -3  -6  -2 15441.2 688.576   1
  -3  -6  -3 322.020 104.074   1
  -3  -6  -4 299.826 97.7689   1
  -3  -6  -5-6.01341 34.6793   1
  -3  -6  -6 123.612 76.8755   1
  -3  -6  -6 107.092 64.3755   3
  -3  -6  -7 293.148 97.4786   1
  -3  -6  -7 116.178 64.9441   3
  -3  -6  -8 221.732 87.6358   3
  -3  -6  -9 340.360 105.066   3
  -3  -6 -10 765.791 170.411   3
   3   7 -12-2.19102 82.9282   3
   3   7 -11 102.829 80.5976   3
   3   7 -10-4.47586 49.0645   3
  -3  -7  10 128.515 79.3562   1
   3   7  -9 52.4690 63.3494   3
  -3  -7   9-22.0083 46.0816   1
   3   7  -8 356.136 117.888   3
  -3  -7   8 375.621 118.582   1
  -3  -7   7 1596.85 234.718   1
   3   7  -7 1350.49 210.584   3
  -3  -7   6 307.709 113.090   1
   3   7  -6 410.798 114.853   3
  -3  -7   5 171.577 75.4376   1
  -3  -7   4 370.441 108.792   1
  -3  -7   3 953.904 189.975   1
  -3  -7   2 8659.63 546.108   1
   3   7  -2 7745.80 417.448   2
  -3  -7   1 2390.56 292.622   1
   3   7  -1 2317.58 217.930   2
  -3  -7   0 3363.07 346.488   1
  -3  -7  -1 70.5542 56.6518   1
  -3  -7  -2 704.520 165.694   1
  -3  -7  -3 126.633 87.1102   1
  -3  -7  -4 1562.49 246.105   1
  -3  -7  -5 300.898 117.251   1
  -3  -7  -6-12.7694 47.7269   1
  -3  -7  -7 719.165 168.414   1
  -3  -7  -7 755.582 169.162   3
  -3  -7  -8 128.548 76.4081   3
  -3  -7  -9-91.5501 65.8501   3
   3   8 -11-35.8593 71.2008   3
   3   8 -10 283.164 118.230   3
  -3  -8  10 346.495 121.119   1
   3   8  -9 4.67971 68.0138   3
  -3  -8   9 26.1428 71.1649   1
  -3  -8   8 973.893 192.812   1
   3   8  -8 936.021 190.146   3
  -3  -8   7 153.679 84.4402   1
   3   8  -7 65.9457 66.1015   3
  -3  -8   6 2336.70 304.825   1
   3   8  -6 2534.74 298.426   3
  -3  -8   5 83.5281 71.0279   1
  -3  -8   4 58.9362 70.2436   1
  -3  -8   3 24.8484 67.8463   1
  -3  -8   2 1087.89 218.036   1
  -3  -8   1 3603.55 379.622   1
  -3  -8   0-46.3432 63.7675   1
  -3  -8  -1 332.855 118.824   1
  -3  -8  -2-49.7796 57.7173   1
  -3  -8  -3-21.3682 51.5703   1
  -3  -8  -4-1.34150 44.6415   1
  -3  -8  -5 148.702 89.4929   1
  -3  -8  -6 413.450 132.577   1
  -3  -9  10 444.098 146.038   1
   3   9  -9 180.091 83.4947   3
  -3  -9   9 67.8232 71.5548   1
  -3  -9   8-63.8752 75.7962   1
   3   9  -8 188.819 125.722   3
  -3  -9   7 362.543 137.955   1
   3   9  -7 488.640 146.397   3
  -3  -9   6-64.9101 72.8437   1
   3   9  -6 29.6988 71.0091   3
  -3  -9   5 7.82221 83.8314   1
  -3  -9   4 42.4937 61.3849   1
  -3  -9   3-149.941 94.2657   1
  -3  -9   2 40.9577 64.7190   1
  -3  -9   1 561.231 160.404   1
  -3  -9   0 463.934 151.455   1
  -3  -9  -1 9.02531 44.3919   1
  -3  -9  -2 733.700 191.987   1
  -3  -9  -3 279.799 135.306   1
  -3  -9  -4 109.835 45.5952   1
  -3  -9  -5-162.585 91.4267   1
  -3  -9  -6 287.453 150.583   1
   3  10  -7 41.6643 62.8445   3
  -3 -10   6 355.369 139.777   1
  -3 -10   5 120.579 98.4717   1
  -3 -10   4 156.454 101.255   1
  -3 -10   3 98.5082 86.9256   1
  -3 -10   2-234.078 117.099   1
  -3 -10   1 27.6894 79.2908   1
  -3 -10   0-14.3976 62.3877   1
  -3 -10  -1-114.699 85.0082   1
  -3 -10  -2 362.349 146.766   1
  -3 -10  -3 129.687 93.3194   1
  -3 -10  -4 138.130 106.987   1
  -3 -10  -5 568.920 176.865   1
  -3 -10  -6 300.580 130.621   1
   4 -11   1 198.634 97.2152   4
   4 -11   2 84.0407 76.2458   4
   4 -11   3-31.6448 57.4197   4
   4 -11   4-266.612 121.039   4
   4 -11   5-54.6662 61.4587   4
   4 -10  -4-178.152 107.494   4
   4 -10  -3 290.853 128.395   4
   4 -10  -2 8.89239 48.3880   4
   4 -10  -1 55.3942 68.9313   4
   4 -10   0-58.2409 65.9685   4
   4 -10   1 179.103 98.2099   4
   4 -10   2 287.889 119.045   4
   4 -10   3 129.227 88.5922   4
   4 -10   4 15.9530 53.0056   4
   4 -10   5 158.137 90.0972   4
   4 -10   6 136.199 81.0812   4
   4 -10   7 116.001 78.5459   4
  -4  10  -7 222.280 100.016   3
  -4  10  -8 43.1268 50.3462   3
   4  -9  -8-1.63799 59.2017   3
   4  -9  -7 46.1139 84.1879   4
   4  -9  -7-26.5461 71.2330   3
   4  -9  -6 85.0834 77.5398   4
   4  -9  -5 135.475 87.2777   4
   4  -9  -4 122.479 106.393   4
   4  -9  -3 41.2395 78.9959   4
   4  -9  -2 21.2492 56.2928   4
   4  -9  -1-170.456 94.4524   4
   4  -9   0 93.4227 71.0537   4
   4  -9   1 46.1190 75.5313   4
   4  -9   2 25.7639 53.9545   4
   4  -9   3 460.211 135.441   4
   4  -9   4 81.4452 67.7612   4
   4  -9   5 590.832 150.329   4
   4  -9   6 74.2879 59.1380   4
   4  -9   7 52.2071 57.5081   4
  -4   9  -7 76.4459 63.0966   3
   4  -9   8-177.067 85.0281   4
  -4   9  -8-192.858 93.0435   3
  -4   9  -9-58.1033 59.6628   3
  -4   9 -10-85.3236 69.7668   3
   4  -8  -9 398.973 143.856   4
   4  -8  -9-153.327 105.284   3
   4  -8  -8 334.848 146.250   4
   4  -8  -8 60.2459 93.6203   3
   4  -8  -7 154.897 96.1982   4
   4  -8  -7 25.2276 75.6517   3
   4  -8  -6 168.387 119.799   4
   4  -8  -6 105.711 82.1361   3
   4  -8  -5 65.9185 67.9663   4
   4  -8  -4-107.797 82.4026   4
   4  -8  -3 471.676 140.503   4
   4  -8  -2 1038.62 208.578   4
   4  -8  -1 1022.23 205.160   4
   4  -8   0 108.714 78.3729   4
   4  -8   1 526.808 151.445   4
   4  -8   2 184.816 85.2908   4
   4  -8   3 268.164 104.304   4
   4  -8   4 949.905 203.094   4
   4  -8   5-30.5161 50.8041   4
   4  -8   6 172.930 83.7559   4
   4  -8   7 78.5096 66.6360   4
  -4   8  -7 276.000 99.8483   3
   4  -8   8-136.260 74.0680   4
  -4   8  -8 228.635 92.2696   3
   4  -8   9-16.1122 44.6477   4
  -4   8  -9-46.1817 47.1259   3
  -4   8 -10 66.4592 58.4033   3
   4  -7 -11 163.348 97.6360   3
   4  -7 -10-8.18352 73.5624   3
   4  -7  -9 691.191 177.476   4
   4  -7  -9 595.956 166.537   3
   4  -7  -8 294.147 124.469   4
   4  -7  -8 372.119 132.252   3
   4  -7  -7 38.4036 57.7956   4
   4  -7  -7 71.7683 58.6740   3
   4  -7  -6-23.7889 51.3265   4
   4  -7  -6-53.2888 59.1466   3
   4  -7  -5-181.083 95.3287   4
   4  -7  -5-8.99265 49.6494   3
   4  -7  -4 959.158 180.322   3
   4  -7  -4 944.164 198.699   4
   4  -7  -3 139.617 93.9548   4
   4  -7  -2 113.076 74.5335   4
   4  -7  -1 228.598 93.2713   4
   4  -7   0 104.160 65.1389   4
   4  -7   1 877.905 176.672   4
   4  -7   2 217.343 94.4218   4
   4  -7   3 214.039 98.8312   4
   4  -7   4 39.7438 52.9278   4
   4  -7   5 157.918 74.9243   4
   4  -7   6 12.8938 70.5863   4
  -4   7  -6-165.223 71.3203   3
   4  -7   7 18.5649 62.4192   4
  -4   7  -7 20.3725 35.4676   3
   4  -7   8-54.3185 55.9517   4
  -4   7  -8-16.5118 34.9142   3
   4  -7   9 55.6188 60.5645   4
  -4   7  -9 41.9208 50.3256   3
   4  -7  10-77.3620 63.3005   4
  -4   7 -10 124.395 73.8678   3
  -4   7 -11 481.517 138.104   3
   4  -6 -12-83.7863 83.9041   3
   4  -6 -11 11.9110 77.6548   3
   4  -6 -10 326.285 136.223   4
   4  -6 -10 270.436 114.861   3
   4  -6  -9 614.000 156.003   4
   4  -6  -9 536.510 147.626   3
   4  -6  -8 1410.59 229.456   3
   4  -6  -8 1170.32 222.372   4
   4  -6  -7 422.965 125.373   4
   4  -6  -7 517.221 132.654   3
   4  -6  -6 433.996 133.458   4
   4  -6  -6 693.419 150.109   3
   4  -6  -5 287.068 116.231   4
   4  -6  -5 222.837 93.2399   3
   4  -6  -4 259.826 111.981   4
   4  -6  -4 244.691 95.2417   3
   4  -6  -3 107.981 79.7918   4
   4  -6  -2 1475.05 215.870   4
   4  -6  -1-15.8837 47.5933   4
   4  -6   0 72.0876 58.4220   4
   4  -6   1 2090.62 250.707   4
   4  -6   2 379.022 108.369   4
   4  -6   3 213.411 84.3317   4
   4  -6   4-5.49225 69.4467   4
   4  -6   5 34.7210 41.7595   4
   4  -6   6 8.49739 51.2204   4
  -4   6  -6 0.40740 22.5211   3
   4  -6   7 56.4731 51.5044   4
  -4   6  -7 99.7046 59.1517   3
   4  -6   8 526.656 128.856   4
  -4   6  -8 503.293 127.216   3
  -4   6  -9 158.447 77.8928   3
   4  -6   9-29.6461 53.0553   4
  -4   6 -10 610.061 143.647   3
   4  -6  10 332.752 112.808   4
  -4   6 -11-29.7690 45.0304   3
   4  -6  11 99.2827 67.8936   4
   4  -5 -12 261.508 117.688   3
   4  -5 -11 47.4698 55.2179   3
   4  -5 -10 429.950 122.337   4
   4  -5 -10 403.320 127.886   3
   4  -5  -9 663.354 159.280   4
   4  -5  -9 221.578 98.6282   3
   4  -5  -8 383.329 118.507   3
   4  -5  -8 236.654 95.5277   4
   4  -5  -8 59.3760 43.3339   2
   4  -5  -7-54.3971 59.1145   4
   4  -5  -7-94.8935 52.4183   2
   4  -5  -7 50.6718 51.4388   3
   4  -5  -6 456.157 115.156   4
   4  -5  -6 449.533 121.718   3
   4  -5  -5 401.395 118.947   4
   4  -5  -5 276.646 92.6587   3
   4  -5  -4 99.9676 76.1283   4
   4  -5  -4 285.312 90.4518   3
   4  -5  -3 1324.54 170.019   3
   4  -5  -3 1224.30 193.845   4
   4  -5  -2 858.304 156.723   4
   4  -5  -1 1382.38 197.376   4
   4  -5   0 257.785 91.0659   4
   4  -5   1 931.466 159.536   4
   4  -5   2 26.9264 50.8582   4
   4  -5   3 15.3826 45.5688   4
   4  -5   4 560.837 133.421   4
  -4   5  -5 293.694 87.2596   3
   4  -5   5 363.159 110.119   4
  -4   5  -6 631.544 124.753   3
   4  -5   6 705.253 144.334   4
  -4   5  -7 858.528 156.124   3
   4  -5   7 1122.15 190.589   4
  -4   5  -8-6.46914 28.9153   3
   4  -5   8 3.53154 45.2547   4
  -4   5  -9-33.1611 42.3336   3
   4  -5   9-111.705 71.8334   4
  -4   5 -10-143.357 75.2706   3
   4  -5  10 57.8151 59.4855   4
  -4   5 -11-85.7926 61.4049   3
   4  -5  11-5.10311 39.9466   4
   4  -5  12 150.562 78.4182   4
   4  -4 -13 83.0391 112.490   3
   4  -4 -12 23.0069 71.7007   3
   4  -4 -11 614.330 155.226   3
   4  -4 -10 273.608 97.2018   4
   4  -4 -10 256.243 101.150   3
   4  -4 -10 135.967 68.8104   2
   4  -4  -9 512.175 126.805   4
   4  -4  -9 364.324 99.8380   2
   4  -4  -9 618.364 138.967   3
   4  -4  -8 510.696 132.087   4
   4  -4  -8 555.639 137.747   3
   4  -4  -8 247.952 80.0150   2
   4  -4  -7 9.44885 48.2093   4
   4  -4  -7 62.4850 61.0006   2
   4  -4  -7 77.5127 62.1407   3
   4  -4  -6 143.793 81.0238   4
   4  -4  -6 118.902 53.4117   2
   4  -4  -6 139.134 62.7978   3
   4  -4  -5 550.723 118.965   4
   4  -4  -5 288.891 87.3835   2
   4  -4  -5 465.730 105.472   3
   4  -4  -4 547.248 121.134   4
   4  -4  -4 581.956 111.845   2
   4  -4  -4 543.882 104.849   3
   4  -4  -3 1928.25 185.342   3
   4  -4  -3 2078.78 227.623   4
   4  -4  -2 1344.11 149.575   3
   4  -4  -2 1329.26 187.371   4
   4  -4  -1 109.506 61.3585   4
   4  -4   0 25.4698 57.9855   4
   4  -4   1 1174.69 171.064   4
   4  -4   2 2796.42 262.706   4
   4  -4   3 150.841 66.1218   4
  -4   4  -4 148.933 49.0109   3
   4  -4   4 178.231 67.7730   4
  -4   4  -5 58.3170 38.5935   3
   4  -4   5 147.063 70.8641   4
  -4   4  -6 125.877 50.9079   3
   4  -4   6 67.3309 70.9326   4
  -4   4  -7 2072.47 220.326   3
   4  -4   7 2416.01 268.371   4
  -4   4  -8 150.222 62.0636   3
   4  -4   8 81.6323 59.9206   4
  -4   4  -9-10.1537 29.7206   3
   4  -4   9 23.1424 37.9278   4
  -4   4 -10-193.721 79.8114   3
   4  -4  10-109.042 70.1712   4
  -4   4 -11 130.530 90.1626   3
   4  -4  11-44.2241 49.3901   4
   4  -4  12 156.240 80.1930   4
   4  -4  13 32.8964 50.8420   4
   4  -3 -14 491.277 164.316   3
   4  -3 -13 140.551 89.4146   3
   4  -3 -12 92.3474 87.4919   3
   4  -3 -11 789.828 180.147   3
   4  -3 -11 481.901 134.084   2
   4  -3 -10 47.4276 48.7723   4
   4  -3 -10 70.0831 41.1372   3
   4  -3  -9-11.2256 38.7225   4
   4  -3  -9 99.1539 73.2904   3
   4  -3  -9 57.7982 62.3399   2
   4  -3  -8 2152.55 240.437   3
   4  -3  -8 1588.29 208.294   2
   4  -3  -8 1917.53 223.613   4
   4  -3  -7 2036.55 228.083   3
   4  -3  -7 1733.76 209.211   2
   4  -3  -7 1834.56 213.118   4
   4  -3  -6-38.1425 44.8403   4
   4  -3  -6 19.2399 30.6989   2
   4  -3  -6 1.72405 34.1739   3
   4  -3  -5 772.341 120.783   3
   4  -3  -5 477.960 110.905   2
   4  -3  -5 777.893 133.482   4
   4  -3  -4-50.7282 43.5028   3
   4  -3  -4 28.3454 31.9198   4
   4  -3  -4-0.70896 36.9820   2
   4  -3  -3 771.938 106.427   3
   4  -3  -3 525.782 110.751   2
   4  -3  -3 676.339 123.578   4
   4  -3  -2 1763.30 147.972   3
   4  -3  -2 1569.83 184.024   4
   4  -3  -1 116.732 58.2030   4
   4  -3   0 3656.77 275.655   4
   4  -3   1-1.71105 43.3308   4
   4  -3   2 484.490 108.546   4
  -4   3  -3 56.5661 33.9825   3
   4  -3   3 200.484 78.9566   4
  -4   3  -4 429.245 76.0732   3
   4  -3   4 646.203 130.231   4
  -4   3  -5 1038.90 125.916   3
   4  -3   5 1406.80 184.852   4
  -4   3  -6 1813.39 178.086   3
   4  -3   6 1826.30 210.060   4
  -4   3  -7 73.5936 50.5403   3
   4  -3   7 84.9495 51.1773   4
  -4   3  -8 177.164 67.2477   3
   4  -3   8 120.325 71.6471   4
  -4   3  -9 177.699 69.7202   3
   4  -3   9 79.2120 54.8024   4
   4  -3  10-18.3736 40.9506   4
  -4   3 -10-10.6733 37.3787   3
   4  -3  11 34.1388 48.5092   4
  -4   3 -11 112.972 66.0402   3
   4  -3  12 673.238 154.981   4
   4  -3  13 146.819 80.2372   4
   4  -3  14-7.07425 27.4762   4
   4  -2 -14 300.352 110.295   3
   4  -2 -13 887.042 191.834   3
   4  -2 -13 534.129 147.425   2
   4  -2 -12 475.580 140.656   3
   4  -2 -12 403.103 112.556   2
   4  -2 -11-2.17163 50.6615   3
   4  -2 -11-69.4014 64.5124   2
   4  -2 -10 2893.90 293.966   3
   4  -2 -10 2721.01 257.142   4
   4  -2  -9 263.858 86.8540   4
   4  -2  -9 156.059 82.6042   3
   4  -2  -9 135.331 72.8617   2
   4  -2  -8 125.292 67.7121   4
   4  -2  -8 265.429 91.9175   3
   4  -2  -8 45.9298 68.6867   2
   4  -2  -7 208.091 70.3484   4
   4  -2  -7 241.964 80.8763   3
   4  -2  -7 87.4196 62.1950   2
   4  -2  -6 1608.64 175.400   3
   4  -2  -6 1479.42 197.391   2
   4  -2  -6 1559.96 179.079   4
   4  -2  -5 3664.43 244.227   3
   4  -2  -5 3528.86 259.872   4
   4  -2  -4 3226.59 211.723   3
   4  -2  -4 2614.39 241.947   2
   4  -2  -4 3350.38 252.794   4
   4  -2  -3 296.108 84.8623   4
   4  -2  -3 202.221 67.9407   2
   4  -2  -3 290.950 60.6635   3
   4  -2  -2 17.8246 31.7591   4
   4  -2  -2-43.5468 39.7483   2
   4  -2  -2 84.1978 36.2238   3
   4  -2  -1 5620.44 340.637   2
   4  -2  -1 6176.86 340.386   4
  -4   2   0 1960.90 106.508   3
   4  -2   0 2704.87 232.500   4
  -4   2  -1 43.1699 19.6720   3
   4  -2   1 109.197 59.8913   4
  -4   2  -2 1498.38 95.6049   3
  -4   2  -2 1635.32 100.337   3
   4  -2   2 1810.68 190.858   4
  -4   2  -3 1160.11 94.7536   3
   4  -2   3 1231.75 159.826   4
  -4   2  -4 10.1767 15.8905   3
   4  -2   4 58.8820 54.9770   4
  -4   2  -5 54.8306 31.7920   3
   4  -2   5 96.1107 58.7401   4
  -4   2  -6 95.8944 39.5006   3
   4  -2   6 102.624 51.2422   4
   4  -2   7 2182.77 241.504   4
  -4   2  -7 1929.42 186.792   3
  -4   2  -8 564.239 112.530   3
   4  -2   8 722.362 141.875   4
   4  -2   9 13.1014 37.6505   4
  -4   2  -9 74.6307 45.6087   3
   4  -2  10 126.505 84.2415   4
  -4   2 -10 33.4603 39.2082   3
   4  -2  11 39.2970 51.3318   4
   4  -2  12 156.431 102.082   4
   4  -2  13 67.2480 46.2700   4
   4  -2  14-23.9610 74.7532   4
   4  -1 -14 48.8865 68.1603   3
   4  -1 -14 92.0256 74.8461   2
   4  -1 -13 174.161 91.1145   3
   4  -1 -13 116.909 76.5542   2
   4  -1 -12 49.5553 55.3423   3
   4  -1 -12-4.26310 54.4862   2
   4  -1 -11 394.505 122.810   3
   4  -1 -11 165.689 79.9009   2
   4  -1 -10 3041.95 297.617   3
   4  -1 -10 1791.23 249.208   2
   4  -1  -9 2167.84 238.628   3
   4  -1  -9 1959.19 252.021   2
   4  -1  -9 2202.64 205.125   4
   4  -1  -8 4790.66 334.763   3
   4  -1  -8 4455.65 360.024   2
   4  -1  -8 5107.37 304.938   4
   4  -1  -7 8546.45 412.875   3
   4  -1  -7 8374.84 477.007   2
   4  -1  -7 8712.87 386.113   4
   4  -1  -6 3622.44 248.581   3
   4  -1  -6 2836.94 272.877   2
   4  -1  -6 3488.63 242.717   4
   4  -1  -5 70.5066 32.0649   4
   4  -1  -5 7.69953 52.4971   2
   4  -1  -5 15.7577 28.5356   3
   4  -1  -4 22.9701 33.6780   4
   4  -1  -4 23.0730 32.0629   2
   4  -1  -4-4.73623 29.5049   3
   4  -1  -3 5418.76 225.521   3
   4  -1  -3 4916.84 321.819   2
   4  -1  -3 5153.72 289.853   4
   4  -1  -2 1873.84 112.746   3
   4  -1  -2 1361.12 172.124   2
   4  -1  -2 1663.73 168.312   4
  -4   1   1 114.987 22.4415   3
   4  -1  -1 110.367 59.1207   2
   4  -1  -1 235.871 77.1895   4
   4  -1   0 44516.9 948.768   2
   4  -1   0 46494.1 897.402   4
   4  -1   1 474.608 95.4185   4
   4  -1   2 226.019 68.9957   4
   4  -1   3 570.811 113.820   4
  -4   1  -3 355.551 38.9382   3
   4  -1   4 225.223 81.5404   4
  -4   1  -4 155.970 32.0984   3
   4  -1   5 41.5499 41.9515   4
  -4   1  -5-2.34002 21.0588   3
   4  -1   6 42.2294 45.2940   4
  -4   1  -6-44.0962 27.0454   3
   4  -1   7 245.475 91.5941   4
  -4   1  -7 206.686 57.0572   3
   4  -1   8 673.047 140.694   4
  -4   1  -8 455.789 93.6187   3
   4  -1   9 286.833 104.801   4
  -4   1  -9 156.576 62.0194   3
   4  -1  10 528.987 134.514   4
  -4   1 -10 335.351 92.9003   3
   4  -1  11 105.775 70.2257   4
   4  -1  12-52.3367 58.6248   4
   4  -1  13 62.5421 65.8176   4
   4  -1  14 170.422 87.3309   4
   4   0 -15 301.805 125.982   2
   4   0 -14-50.2423 65.5723   3
   4   0 -14 61.8757 68.4469   2
   4   0 -13 115.639 80.9233   3
   4   0 -13-74.8570 75.1569   2
   4   0 -12 631.439 155.477   3
   4   0 -12 431.689 137.471   2
   4   0 -11 6.57130 48.4230   3
   4   0 -11 8.29541 59.0505   2
   4   0 -10 96.2555 80.2441   3
   4   0 -10 7.21184 80.2732   2
   4   0  -9 5976.23 386.329   3
   4   0  -9 5500.41 424.678   2
   4   0  -8 954.710 147.151   3
   4   0  -8 1128.99 189.005   2
   4   0  -8 1404.80 147.097   4
   4   0  -7 2761.46 229.858   3
   4   0  -7 2533.88 269.165   2
   4   0  -7 2809.68 198.620   4
   4   0  -6 7645.11 350.487   3
   4   0  -6 7235.34 434.356   2
   4   0  -6 7995.01 332.024   4
   4   0  -5 1686.27 151.644   3
   4   0  -5 1429.12 187.337   2
   4   0  -5 1585.18 150.520   4
   4   0  -4 5346.49 239.136   3
   4   0  -4 4643.92 331.340   2
   4   0  -4 5309.06 274.344   4
   4   0  -3 187.721 75.3059   2
   4   0  -3 176.677 42.8305   3
   4   0  -3 119.174 48.9224   4
   4   0  -2-56.9174 19.9386   3
   4   0  -2 15.8451 35.9366   2
   4   0  -2-6.66035 25.3625   4
   4   0  -1 1236.28 163.689   2
   4   0  -1 1306.32 146.395   4
   4   0   0 5725.75 342.320   2
   4   0   0 5902.22 315.600   4
   4   0   1 365.601 95.5301   2
   4   0   1 247.693 68.3928   4
   4   0   2 2319.04 213.824   4
   4   0   3 15187.8 560.900   4
  -4   0  -4 1840.37 102.308   3
   4   0   4 2314.04 222.941   4
  -4   0  -5 616.215 73.9066   3
   4   0   5 804.706 136.259   4
  -4   0  -6 1011.48 111.137   3
   4   0   6 1422.08 196.939   4
  -4   0  -7 30.9916 26.0122   3
   4   0   7 60.2281 41.2651   4
  -4   0  -8-49.5600 34.9974   3
   4   0   8 23.2760 46.4216   4
  -4   0  -9 25.2294 36.6289   3
   4   0   9 25.7027 45.7375   4
   4   0  10 888.175 178.140   4
   4   0  11-50.0972 56.5947   4
   4   0  12 156.549 94.5630   4
   4   0  13 120.407 84.0470   4
   4   0  14 211.653 116.911   4
   4   1 -14 954.522 205.847   3
   4   1 -13-221.307 102.245   3
   4   1 -12 532.940 143.128   3
   4   1 -11 1049.45 188.076   3
   4   1 -10 2415.71 261.649   3
   4   1 -10 2108.19 278.810   2
   4   1  -9 9367.77 477.975   3
   4   1  -9 8720.22 536.113   2
   4   1  -8 9564.52 453.137   3
   4   1  -8 8460.83 515.468   2
   4   1  -7 1638.36 176.852   3
   4   1  -7 1660.00 226.463   2
   4   1  -7 1718.56 136.638   4
   4   1  -6 53.1605 32.5342   4
   4   1  -6 11.3591 52.8335   2
   4   1  -6 15.6894 40.9221   3
   4   1  -5 166.017 43.4641   4
   4   1  -5 134.394 73.5776   2
   4   1  -5 152.689 51.9325   3
   4   1  -4 63.2334 40.4943   4
   4   1  -4 100.592 62.6398   2
   4   1  -4 77.8196 33.3001   3
   4   1  -3 8757.17 271.669   3
   4   1  -3 9044.26 459.978   2
   4   1  -3 9378.80 365.620   4
   4   1  -2 7306.93 397.882   2
   4   1  -2 7446.30 206.813   3
   4   1  -2 7154.91 316.162   4
   4   1  -1 735.788 124.997   2
   4   1  -1 791.537 47.8498   3
   4   1  -1 908.620 117.638   4
   4   1   0 1089.57 149.683   2
   4   1   0 844.313 121.582   4
   4   1   1 238.086 83.7991   2
   4   1   1 239.864 63.8831   4
   4   1   2 3201.39 246.360   4
   4   1   3 420.760 94.5888   4
  -4  -1  -4 846.018 76.6607   3
   4   1   4 1102.06 160.823   4
  -4  -1  -5 1095.29 102.229   3
   4   1   5 1608.61 205.456   4
  -4  -1  -6 2920.50 188.857   3
   4   1   6 3140.58 295.138   4
  -4  -1  -7 136.237 55.4860   3
   4   1   7 220.258 89.2237   4
  -4  -1  -8 447.732 92.5028   3
   4   1   8 621.195 145.521   4
   4   1   9-7.19246 59.8776   4
   4   1  10 65.9894 71.3404   4
   4   1  11 364.695 132.945   4
   4   1  12 17.7604 67.2301   4
   4   1  13 139.648 89.9818   4
   4   2 -14-91.4239 78.6326   3
   4   2 -13 272.968 120.782   3
   4   2 -12 167.166 87.1990   3
   4   2 -11 378.464 122.677   3
   4   2 -10 795.926 155.287   3
   4   2  -9 3469.62 296.431   3
   4   2  -8 444.003 102.570   3
   4   2  -7 1492.04 172.215   3
   4   2  -7 1179.99 193.211   2
   4   2  -6 27768.9 680.988   3
   4   2  -6 28659.5 898.459   2
   4   2  -5 2448.18 186.625   3
   4   2  -5 1966.21 230.910   2
   4   2  -5 2246.85 155.084   4
   4   2  -4 1842.66 148.071   3
   4   2  -4 1627.73 203.220   2
   4   2  -3 1729.75 203.495   2
   4   2  -3 1896.72 135.699   3
   4   2  -3 1795.22 150.648   4
   4   2  -2 3138.66 266.101   2
   4   2  -2 3103.21 154.529   3
   4   2  -2 3357.21 216.446   4
   4   2  -1 8377.39 223.351   3
   4   2  -1 8195.91 412.548   2
   4   2  -1 8554.53 223.325   3
   4   2  -1 8275.79 356.523   4
   4   2   0 160.303 27.3222   3
   4   2   0 135.186 60.6842   2
   4   2   0 136.356 26.8394   3
   4   2   0 186.580 56.3147   4
   4   2   1 1889.83 194.113   2
   4   2   1 1574.07 173.213   4
   4   2   2 550.663 106.786   2
   4   2   2 586.959 110.597   4
   4   2   3 654.872 128.471   4
  -4  -2  -4 1548.36 119.157   3
   4   2   4 1462.01 193.752   4
  -4  -2  -5 11.6780 26.7590   3
   4   2   5 102.120 66.0303   4
  -4  -2  -6 33.1113 24.9496   3
   4   2   6 147.594 83.0802   4
  -4  -2  -7 369.699 86.0009   3
   4   2   7 479.857 128.666   4
  -4  -2  -8 2024.83 200.800   3
   4   2   8 2198.30 274.271   4
   4   2   9 4.10111 43.5718   4
   4   2  10 3.78099 59.3223   4
   4   2  11 301.001 127.739   4
   4   2  12-88.2902 74.7411   4
   4   2  13 93.9737 78.6130   4
   4   3 -14 991.516 212.375   3
   4   3 -13 58.3519 66.3957   3
   4   3 -12 49.2729 46.5693   3
   4   3 -11-29.5442 44.4451   3
   4   3 -10 870.863 159.305   3
   4   3  -9 288.347 91.0346   3
   4   3  -8 1019.99 155.057   3
   4   3  -7 2392.58 223.406   3
   4   3  -6 8240.21 390.179   3
   4   3  -6 7981.91 483.775   2
   4   3  -5 2877.90 211.287   3
   4   3  -5 2848.46 279.565   2
   4   3  -4 1649.32 205.536   2
   4   3  -4 1544.11 147.111   3
   4   3  -4 1499.55 129.138   4
   4   3  -3 111.967 46.6088   3
  -4  -3   3 58.7008 38.6802   1
   4   3  -3 98.8953 58.8378   2
   4   3  -3 134.614 50.1736   4
   4   3  -2 52.7873 29.9777   3
  -4  -3   2 51.0185 60.1779   1
   4   3  -2 10.8001 46.5308   2
   4   3  -2 93.9500 42.8455   4
   4   3  -1 391.107 62.8219   3
  -4  -3   1 304.722 96.9689   1
   4   3  -1 368.324 90.0311   2
   4   3  -1 385.419 85.3740   4
   4   3   0 600.407 114.360   2
   4   3   0 624.241 111.790   4
  -4  -3   0 541.195 125.206   1
  -4  -3  -1 5007.55 356.333   1
   4   3   1 5604.75 331.508   2
   4   3   1 5718.77 334.998   4
   4   3   2 68.6178 53.4050   2
  -4  -3  -2 32.1783 32.8669   1
   4   3   2 86.6855 51.2258   4
  -4  -3  -3 14283.9 593.436   1
   4   3   3 15176.0 610.444   4
  -4  -3  -4 22201.9 732.995   1
   4   3   4 22746.8 777.399   4
  -4  -3  -5 501.087 115.371   1
  -4  -3  -5 368.942 73.5165   3
   4   3   5 452.092 135.648   4
  -4  -3  -6 3128.02 223.160   3
   4   3   6 3948.49 351.047   4
  -4  -3  -7 140.437 64.9505   3
   4   3   7 71.0724 69.9499   4
   4   3   8 1746.12 253.090   4
   4   3   9 20.4632 53.5847   4
   4   3  10 209.033 111.133   4
   4   3  11-84.4520 75.1234   4
   4   3  12 211.425 106.872   4
   4   4 -14 572.220 163.519   3
   4   4 -13 393.992 134.481   3
   4   4 -12 173.032 72.9126   3
   4   4 -11 669.625 152.143   3
   4   4 -10 1228.46 198.235   3
   4   4  -9 103.394 61.3987   3
   4   4  -8 341.615 91.5389   3
   4   4  -7 51.1315 54.4206   3
  -4  -4   6 1344.16 201.795   1
   4   4  -6 1726.46 189.179   3
   4   4  -5 596.396 106.643   3
  -4  -4   5 473.316 125.005   1
   4   4  -5 559.933 129.815   2
  -4  -4   4 821.933 160.778   1
   4   4  -4 847.690 155.107   2
   4   4  -4 995.527 131.006   3
  -4  -4   3 1404.75 203.485   1
   4   4  -3 1399.37 190.006   2
   4   4  -3 1365.89 142.199   3
   4   4  -3 1415.87 139.058   4
  -4  -4   2 459.722 116.507   1
   4   4  -2 403.088 100.870   2
   4   4  -2 447.019 84.5370   4
  -4  -4   1 9992.17 524.382   1
   4   4  -1 10075.0 472.544   2
   4   4  -1 9484.34 404.506   4
  -4  -4   0 3584.80 320.579   1
   4   4   0 3894.47 285.854   2
   4   4   0 4024.47 278.690   4
   4   4   1 434.852 97.7528   2
   4   4   1 532.534 112.506   4
  -4  -4  -1 323.438 107.773   1
  -4  -4  -2 19697.2 732.770   1
   4   4   2 20558.6 626.783   2
   4   4   2 19867.8 688.407   4
  -4  -4  -3 7679.31 465.154   1
   4   4   3 8107.39 457.027   4
  -4  -4  -4 4630.23 358.361   1
   4   4   4 4562.48 359.216   4
  -4  -4  -5 58.8261 40.0881   3
   4   4   5-9.00454 74.8714   4
  -4  -4  -5 65.1770 43.6908   1
  -4  -4  -6 81.9853 52.2414   1
   4   4   6-23.2966 48.4300   4
  -4  -4  -7 288.112 91.0864   1
   4   4   7 177.701 83.8630   4
   4   4   8 2061.38 287.400   4
   4   4   9 850.621 199.095   4
   4   4  10 202.144 106.296   4
   4   4  11 334.285 131.241   4
   4   5 -13-2.78494 55.7265   3
   4   5 -12 115.467 79.8100   3
   4   5 -11 24.5290 52.0068   3
   4   5 -10 0.53150 43.7266   3
   4   5  -9 737.883 152.277   3
  -4  -5   8 1278.68 209.697   1
   4   5  -8 1257.38 188.986   3
  -4  -5   7 3695.82 351.115   1
   4   5  -7 3369.80 293.339   3
   4   5  -6 414.048 103.151   3
  -4  -5   6 293.776 102.115   1
   4   5  -5 491.920 130.372   2
   4   5  -5 296.320 85.7183   3
  -4  -5   5 348.638 121.700   1
   4   5  -4 94.0819 48.5258   3
  -4  -5   4-13.2265 41.7149   1
   4   5  -4 51.3598 51.5636   2
   4   5  -3 8.87887 35.2809   3
   4   5  -3 37.2749 30.5139   4
  -4  -5   3 48.0278 81.7807   1
   4   5  -3 49.5707 47.3446   2
   4   5  -2 76.6538 46.7267   4
   4   5  -2 39.4891 43.7136   2
  -4  -5   2 135.155 76.7874   1
  -4  -5   1 2416.73 276.653   1
   4   5  -1 3161.50 277.086   2
   4   5  -1 3240.81 250.531   4
  -4  -5   0 12522.7 624.753   1
   4   5   0 13655.2 538.908   2
   4   5   0 13068.0 527.756   4
   4   5   1 211.898 75.8627   2
   4   5   1 323.968 93.4092   4
  -4  -5  -1 229.950 96.0356   1
   4   5   2 126.647 54.7711   2
   4   5   2 170.019 67.7095   4
  -4  -5  -2 58.3134 53.4495   1
   4   5   3 439.936 126.243   4
  -4  -5  -3 293.559 99.7820   1
  -4  -5  -4 907.315 169.930   1
   4   5   4 1111.81 186.617   4
   4   5   5 411.567 130.527   4
  -4  -5  -5 300.452 103.343   1
  -4  -5  -6 1219.55 194.925   1
   4   5   6 1466.36 232.261   4
   4   5   7-62.1641 65.5521   4
  -4  -5  -7 36.9847 44.0187   1
   4   5   8-4.76104 45.9388   4
   4   5   9 675.391 176.409   4
   4   5  10-220.005 112.593   4
   4   6 -12 165.040 91.7626   3
   4   6 -11-141.760 82.2359   3
   4   6 -10 438.185 128.228   3
   4   6  -9 99.2907 66.6344   3
  -4  -6   9 151.712 80.4292   1
   4   6  -8 0.49820 52.2429   3
  -4  -6   8 12.4122 53.8638   1
   4   6  -7-25.4839 51.1001   3
  -4  -6   7 50.7146 62.1245   1
  -4  -6   6 6767.27 486.943   1
   4   6  -6 7616.51 447.571   3
   4   6  -5 1030.84 188.113   2
   4   6  -5 755.974 141.422   3
  -4  -6   5 892.090 183.635   1
   4   6  -4 801.212 137.389   3
  -4  -6   4 607.166 151.209   1
   4   6  -4 800.421 159.137   2
   4   6  -3 375.980 115.309   2
  -4  -6   3 214.033 94.8500   1
  -4  -6   2 1449.18 228.568   1
   4   6  -2 1287.97 183.404   2
  -4  -6   1 2951.29 321.396   1
   4   6  -1 3001.17 272.625   2
   4   6  -1 2737.29 242.665   4
  -4  -6   0 145.684 80.8270   1
   4   6   0 130.673 57.5058   2
   4   6   0 120.619 65.4391   4
  -4  -6  -1 1963.03 264.600   1
   4   6   1 2387.48 216.316   2
   4   6   1 1988.10 228.020   4
  -4  -6  -2 161.760 82.0275   1
   4   6   2 189.138 74.7914   4
  -4  -6  -3 3084.42 329.933   1
   4   6   3 3579.12 336.882   4
   4   6   4 901.465 182.504   4
  -4  -6  -4 647.311 158.423   1
   4   6   5 316.948 126.230   4
  -4  -6  -5 211.420 94.1035   1
   4   6   6 358.039 126.457   4
  -4  -6  -6 150.543 78.7246   1
   4   6   7 639.164 173.072   4
   4   6   8 5.31126 60.3101   4
   4   6   9 166.657 105.895   4
   4   7 -11 238.486 89.4906   3
   4   7 -10 790.163 176.412   3
  -4  -7  10 442.849 144.066   1
   4   7  -9 305.464 110.264   3
  -4  -7   9 108.809 82.4136   1
   4   7  -8 71.0054 60.0208   3
  -4  -7   8-57.9289 64.6568   1
   4   7  -7-62.4554 51.8867   3
  -4  -7   7-43.5476 57.8624   1
   4   7  -6 311.458 100.288   3
  -4  -7   6 121.831 81.8533   1
   4   7  -5 52.9386 65.3368   2
   4   7  -5 148.346 71.4498   3
  -4  -7   5 152.295 87.9969   1
   4   7  -4-144.972 82.1287   2
  -4  -7   4-79.0837 69.9966   1
   4   7  -3 840.879 163.645   2
  -4  -7   3 830.222 181.704   1
  -4  -7   2 488.920 141.811   1
   4   7  -2 585.162 136.199   2
  -4  -7   1 522.791 142.303   1
   4   7  -1 436.268 109.697   2
  -4  -7   0 1526.52 253.156   1
   4   7   0 1601.50 208.281   4
  -4  -7  -1 12.4601 75.0498   1
   4   7   1-26.9163 54.0021   4
  -4  -7  -2 35.5268 66.0704   1
   4   7   2 87.0559 72.0693   4
  -4  -7  -3 86.1740 88.0220   1
   4   7   3-2.90591 43.8118   4
  -4  -7  -4 296.364 111.750   1
   4   7   4 495.763 150.781   4
  -4  -7  -5-65.3025 63.6769   1
   4   7   5 221.895 102.996   4
   4   7   6 21.0169 85.5425   4
  -4  -7  -6 32.7465 48.9829   1
   4   7   7 1094.83 236.058   4
   4   7   8 1232.45 271.230   4
   4   8 -10 430.328 142.052   3
  -4  -8  10 485.086 150.279   1
   4   8  -9-125.723 78.1806   3
  -4  -8   9 148.647 115.531   1
   4   8  -8 382.056 125.098   3
  -4  -8   8 176.725 101.316   1
   4   8  -7-35.2348 53.7108   3
  -4  -8   7 186.178 109.058   1
   4   8  -6 368.813 121.509   3
  -4  -8   6 342.996 128.088   1
   4   8  -5 420.377 127.494   2
   4   8  -5 177.294 83.6624   3
  -4  -8   5 157.090 115.802   1
  -4  -8   4-4.27546 44.0344   1
   4   8  -4 110.093 79.0693   2
  -4  -8   3 154.296 88.8710   1
  -4  -8   2 195.641 103.265   1
  -4  -8   1 773.397 188.357   1
  -4  -8   0 284.723 125.563   1
  -4  -8  -1 118.560 86.6674   1
   4   8   1 234.826 93.6320   4
  -4  -8  -2 940.108 211.624   1
  -4  -8  -3 61.5477 69.4127   1
  -4  -8  -4-0.74672 37.0658   1
  -4  -8  -5 360.902 123.374   1
  -4  -8  -6 32.7854 49.7267   1
   4   9  -8 42.9627 63.7532   3
   4   9  -7 530.450 147.339   3
   4   9  -6 204.142 90.7035   2
   4   9  -6 48.0934 53.4866   3
  -4  -9   6 123.187 99.8376   1
  -4  -9   5 140.955 96.1776   1
  -4  -9   4-1.59691 50.1455   1
  -4  -9   3 589.203 174.960   1
  -4  -9   2 481.699 160.021   1
  -4  -9   1 38.5060 61.2137   1
  -4  -9   0 27.0576 67.4128   1
  -4  -9  -1 32.2055 63.9409   1
  -4  -9  -2 551.183 170.273   1
  -4  -9  -3 720.127 193.416   1
  -4  -9  -4 119.046 92.3460   1
  -4  -9  -5 319.870 135.636   1
   5 -10   0 4.93061 63.3847   4
   5 -10   1 438.391 150.987   4
   5 -10   2-104.311 85.8230   4
   5 -10   3 139.491 130.333   4
   5 -10   4 223.276 136.365   4
   5  -9  -5-81.6913 84.6594   4
   5  -9  -4 27.0054 63.9995   4
   5  -9  -3 79.2555 81.2143   4
   5  -9  -2 151.537 101.612   4
   5  -9  -1 127.793 84.6437   4
   5  -9   0 50.8063 66.3928   4
   5  -9   1 156.152 96.7947   4
   5  -9   2 44.8432 63.5008   4
   5  -9   3 101.024 74.8301   4
   5  -9   4 44.2734 69.6347   4
   5  -9   5 17.7306 60.3370   4
   5  -9   6-42.3940 52.8776   4
   5  -9   7-75.8241 67.5307   4
   5  -9   8 77.3985 67.2572   4
   5  -8  -8 386.515 147.437   4
   5  -8  -8 175.044 101.358   3
   5  -8  -7 49.8599 78.3617   4
   5  -8  -7-89.7883 79.0556   3
   5  -8  -6-199.417 107.565   4
   5  -8  -6-96.0320 83.0726   3
   5  -8  -5 177.061 106.020   4
   5  -8  -4 214.857 134.674   4
   5  -8  -3 54.4316 61.9236   4
   5  -8  -2-19.1380 82.8496   4
   5  -8  -1 97.4906 79.8801   4
   5  -8   0 403.348 132.506   4
   5  -8   1 162.897 86.8421   4
   5  -8   2-50.6037 61.2446   4
   5  -8   3 132.967 79.3838   4
   5  -8   4-88.5881 69.3002   4
   5  -8   5-55.6260 63.7905   4
   5  -8   6 43.4330 57.7919   4
   5  -8   7-238.279 104.466   4
   5  -8   8-70.1747 65.5730   4
   5  -8   9-18.8141 79.7595   4
   5  -8  10-185.200 97.5566   4
   5  -7 -10-143.068 93.9372   4
   5  -7 -10 301.860 130.095   3
   5  -7  -9 39.4207 64.8525   4
   5  -7  -9 85.8308 66.0666   3
   5  -7  -8 140.634 99.1241   4
   5  -7  -8 184.424 93.4103   3
   5  -7  -7 136.454 108.257   4
   5  -7  -7 272.577 116.935   3
   5  -7  -6-19.4237 50.5669   4
   5  -7  -6-22.4467 84.4359   3
   5  -7  -5 80.9722 82.4372   4
   5  -7  -5 28.1883 57.8172   3
   5  -7  -4 104.500 90.8520   4
   5  -7  -3 137.789 80.3286   4
   5  -7  -2 10.5892 54.2488   4
   5  -7  -1-11.0153 62.9982   4
   5  -7   0 59.9481 74.8588   4
   5  -7   1 110.850 75.7105   4
   5  -7   2 164.420 85.9777   4
   5  -7   3-52.2891 58.6650   4
   5  -7   4 69.0609 65.4411   4
   5  -7   5-67.8796 62.7680   4
   5  -7   6 202.903 91.3694   4
   5  -7   7 53.5964 56.3013   4
   5  -7   8-106.648 74.4253   4
   5  -7   9 6.95738 60.1003   4
   5  -7  10 29.1423 52.2535   4
   5  -7  11 125.646 85.4907   4
   5  -6 -11 269.488 124.123   4
   5  -6 -11 437.076 151.758   3
   5  -6 -10-18.6036 55.7524   4
   5  -6 -10 35.1024 67.7436   3
   5  -6  -9 59.2838 82.5331   4
   5  -6  -9 6.43750 60.1360   3
   5  -6  -8-62.5277 65.2323   4
   5  -6  -8-41.8354 64.1189   3
   5  -6  -7 21.8289 50.9450   4
   5  -6  -7 123.177 81.2958   3
   5  -6  -6 97.1490 94.6861   4
   5  -6  -6 15.9257 42.4186   3
   5  -6  -5 59.4587 55.8171   4
   5  -6  -5 79.6766 54.3481   3
   5  -6  -4-46.0913 66.7452   4
   5  -6  -4 22.2064 55.6381   3
   5  -6  -3 306.697 101.495   4
   5  -6  -2 434.730 136.821   4
   5  -6  -1 49.4217 59.6342   4
   5  -6   0 0.54330 50.0217   4
   5  -6   1 2.68487 39.8984   4
   5  -6   2 144.489 77.1920   4
   5  -6   3 236.778 101.355   4
   5  -6   4 311.851 115.515   4
   5  -6   5-60.3484 60.6653   4
   5  -6   6 11.7349 46.7835   4
   5  -6   7 194.842 83.3836   4
   5  -6   8-70.8160 62.1660   4
   5  -6   9 91.1362 69.3637   4
   5  -6  10 48.5897 58.4900   4
   5  -6  11 100.901 86.3793   4
   5  -6  12 86.0520 72.5995   4
   5  -5 -12-67.2929 78.8878   3
   5  -5 -11 397.064 124.470   4
   5  -5 -11 453.244 144.114   3
   5  -5 -10 23.6948 50.0838   4
   5  -5 -10 122.562 87.0039   3
   5  -5  -9-28.2116 55.4098   4
   5  -5  -9-45.5778 61.2700   3
   5  -5  -8 364.832 122.285   4
   5  -5  -8 145.537 88.2591   2
   5  -5  -8 345.051 120.637   3
   5  -5  -7 105.658 75.8764   4
   5  -5  -7 57.3193 49.9213   2
   5  -5  -6-40.8426 49.9952   4
   5  -5  -6-107.395 64.6071   3
   5  -5  -5 51.1046 58.5236   4
   5  -5  -5 268.722 89.6811   3
   5  -5  -4 38.9917 59.0848   4
   5  -5  -4-57.3660 54.2439   3
   5  -5  -3 3.58256 45.8187   4
   5  -5  -2-47.1206 53.9561   4
   5  -5  -1 187.001 92.9091   4
   5  -5   0 1205.64 199.448   4
   5  -5   1 28.8054 53.2191   4
   5  -5   2-44.8628 52.2073   4
   5  -5   3 17.7996 57.1861   4
   5  -5   4 54.9920 41.6794   4
   5  -5   5 215.527 90.0654   4
   5  -5   6 90.1070 86.7501   4
   5  -5   7 26.6276 62.2150   4
   5  -5   8 161.099 94.0918   4
   5  -5   9 8.38137 43.0101   4
   5  -5  10-15.1082 54.3657   4
   5  -5  11 6.85568 43.8274   4
   5  -5  12 321.207 124.080   4
   5  -4 -12-47.4684 78.4820   3
   5  -4 -11 29.6037 81.0154   3
   5  -4 -10-103.710 68.5862   4
   5  -4 -10-20.3325 40.4666   2
   5  -4 -10 52.6706 69.9788   3
   5  -4  -9 12.4915 42.8030   4
   5  -4  -9-87.2411 59.5227   2
   5  -4  -9 11.1032 65.3692   3
   5  -4  -8 2090.29 248.513   3
   5  -4  -8 1502.88 219.090   2
   5  -4  -8 2362.51 277.913   4
   5  -4  -7 86.6557 66.5366   4
   5  -4  -7 38.0021 45.6305   2
   5  -4  -7 12.3534 47.9767   3
   5  -4  -6 701.326 151.466   4
   5  -4  -6 907.535 157.053   3
   5  -4  -6 539.570 133.712   2
   5  -4  -5 1228.46 166.178   3
   5  -4  -5 762.196 153.259   2
   5  -4  -5 977.438 184.195   4
   5  -4  -4 16.3285 47.8434   4
   5  -4  -4 11.6094 36.5971   3
   5  -4  -3-56.1233 53.5763   4
   5  -4  -3-7.56846 44.5963   3
   5  -4  -2 255.105 98.3160   4
   5  -4  -1 95.4329 54.8726   4
   5  -4   0 62.2736 61.0982   4
   5  -4   1 1536.89 209.249   4
   5  -4   2 363.378 118.849   4
   5  -4   3 257.762 91.7375   4
   5  -4   4 51.9222 50.4700   4
   5  -4   5-7.50951 49.5592   4
   5  -4   6 14.9858 41.8965   4
   5  -4   7 320.161 115.531   4
   5  -4   8 133.173 78.7196   4
   5  -4   9-11.5164 36.0040   4
   5  -4  10 123.493 73.9120   4
   5  -4  11-102.681 74.5950   4
   5  -4  12 80.6881 70.6232   4
   5  -3 -13 168.715 100.653   3
   5  -3 -12 166.582 54.3208   3
   5  -3 -11 432.229 139.362   2
   5  -3 -11 215.779 100.458   3
   5  -3 -10 395.512 120.212   2
   5  -3 -10 442.461 133.745   3
   5  -3  -9 295.677 103.744   4
   5  -3  -9 282.978 101.552   2
   5  -3  -9 158.491 71.8700   3
   5  -3  -8 1707.96 217.192   3
   5  -3  -8 1289.88 209.697   2
   5  -3  -8 2083.28 245.968   4
   5  -3  -7 66.4615 43.0782   4
   5  -3  -7 53.6664 48.1563   2
   5  -3  -7 76.9787 48.9076   3
   5  -3  -6 4541.83 307.755   3
   5  -3  -6 4061.54 335.712   4
   5  -3  -5 5468.39 323.854   3
   5  -3  -5 4428.31 358.776   2
   5  -3  -5 5377.37 375.300   4
   5  -3  -4 753.375 144.988   4
   5  -3  -4 789.911 115.009   3
   5  -3  -4 682.253 146.653   2
   5  -3  -3 1461.96 142.954   3
   5  -3  -3 1365.89 195.389   2
   5  -3  -3 1389.61 192.947   4
   5  -3  -2 28.8376 42.8194   4
   5  -3  -1-70.1806 57.7148   4
   5  -3   0 5548.70 378.603   4
   5  -3   1 89.3815 78.4339   4
   5  -3   2 2518.81 268.047   4
   5  -3   3 170.590 93.8970   4
   5  -3   4-6.04084 35.9781   4
   5  -3   5 223.710 91.8640   4
   5  -3   6 112.887 66.9405   4
   5  -3   7 211.415 85.1733   4
   5  -3   8 98.7107 63.8485   4
   5  -3   9-54.8305 53.8112   4
   5  -3  10 105.128 70.3417   4
   5  -3  11 8.88677 42.9870   4
   5  -3  12 117.284 75.6138   4
   5  -2 -13 181.670 99.7965   3
   5  -2 -13 114.120 83.3092   2
   5  -2 -12 10.5184 56.3540   3
   5  -2 -12 181.202 95.8906   2
   5  -2 -11 162.989 78.9131   3
   5  -2 -11 30.1000 57.9955   2
   5  -2 -10 811.618 166.859   3
   5  -2 -10 501.439 152.931   2
   5  -2  -9 1116.57 180.274   3
   5  -2  -9 967.643 189.593   2
   5  -2  -8 2927.37 272.249   3
   5  -2  -8 2348.38 285.962   2
   5  -2  -8 2928.34 267.049   4
   5  -2  -7 2625.32 239.441   3
   5  -2  -7 1964.46 257.412   2
   5  -2  -7 2697.72 254.696   4
   5  -2  -6 230.336 81.7885   4
   5  -2  -6 203.735 92.4477   2
   5  -2  -6 217.856 70.1862   3
   5  -2  -5 1163.71 142.875   3
   5  -2  -5 1094.10 179.530   2
   5  -2  -5 1307.87 178.656   4
   5  -2  -4 524.248 109.803   4
   5  -2  -4 365.121 110.444   2
   5  -2  -4 483.894 82.3184   3
   5  -2  -3 4.80608 60.3603   4
   5  -2  -3 27.4690 42.1922   2
   5  -2  -3-5.36122 22.6592   3
   5  -2  -2 711.482 139.906   2
   5  -2  -2 709.246 132.489   4
   5  -2  -1 75.7048 58.4399   4
   5  -2   0 1975.93 229.392   4
   5  -2   1 941.372 161.187   4
   5  -2   2 122.637 63.9079   4
   5  -2   3 1797.96 218.588   4
   5  -2   4 924.325 157.143   4
   5  -2   5 582.634 139.378   4
   5  -2   6-72.9334 58.4520   4
   5  -2   7 111.078 65.1672   4
   5  -2   8 188.706 86.3418   4
   5  -2   9 290.886 104.527   4
   5  -2  10 49.1374 60.8271   4
   5  -2  11 68.8940 65.6363   4
   5  -2  12-89.6000 74.8066   4
   5  -1 -14 1622.13 266.168   3
   5  -1 -14 950.104 222.206   2
   5  -1 -13 70.8883 70.8344   3
   5  -1 -13 89.6343 74.5841   2
   5  -1 -12 7.15657 42.7205   3
   5  -1 -12 6.47136 63.9742   2
   5  -1 -11 516.005 134.416   3
   5  -1 -11 428.147 144.566   2
   5  -1 -10 252.355 101.063   3
   5  -1 -10 117.142 67.8316   2
   5  -1  -9 44.6021 45.6360   3
   5  -1  -9 30.5042 59.3261   2
   5  -1  -8 5538.76 357.878   3
   5  -1  -8 5064.82 420.843   2
   5  -1  -7 5338.12 327.280   3
   5  -1  -7 4576.70 385.329   2
   5  -1  -7 5416.59 332.139   4
   5  -1  -6 4177.87 267.697   3
   5  -1  -6 3812.26 283.914   4
   5  -1  -5 1189.10 133.122   3
   5  -1  -5 788.854 163.522   2
   5  -1  -5 1100.82 152.694   4
   5  -1  -4 267.663 81.0698   4
   5  -1  -4 308.382 100.425   2
   5  -1  -4 245.934 58.0091   3
   5  -1  -3 2556.44 264.519   2
   5  -1  -3 2755.46 239.747   4
   5  -1  -2 1819.53 227.417   2
   5  -1  -2 2116.66 215.139   4
   5  -1  -1 1329.58 192.155   2
   5  -1  -1 1518.21 190.740   4
   5  -1   0 3589.63 289.910   4
   5  -1   1 179.223 71.9531   4
   5  -1   2 854.292 146.481   4
   5  -1   3-36.1617 67.1113   4
   5  -1   4 916.604 164.947   4
   5  -1   5 801.085 160.740   4
   5  -1   6 2086.85 251.734   4
   5  -1   7 189.641 84.5263   4
   5  -1   8 18.2493 68.2648   4
   5  -1   9 27.7128 66.3298   4
   5  -1  10 15.0672 45.0718   4
   5  -1  11 225.310 101.810   4
   5  -1  12 135.990 86.5225   4
   5   0 -14 176.995 104.149   3
   5   0 -14 134.299 99.3660   2
   5   0 -13 1332.08 230.578   3
   5   0 -13 1134.23 246.545   2
   5   0 -12 274.139 103.020   3
   5   0 -12 285.153 135.997   2
   5   0 -11 80.2371 52.3030   3
   5   0 -11 136.239 93.7098   2
   5   0 -10-62.0887 57.4380   3
   5   0 -10-74.1926 64.6839   2
   5   0  -9 226.664 83.2271   3
   5   0  -9 276.544 121.585   2
   5   0  -8 60.0564 48.6790   3
   5   0  -8 52.9587 62.5456   2
   5   0  -7 320.571 117.789   2
   5   0  -7 403.161 93.7431   3
   5   0  -6 4440.76 271.162   3
   5   0  -6 3876.51 355.861   2
   5   0  -6 4325.24 281.268   4
   5   0  -5 288.169 80.6077   4
   5   0  -5 209.799 93.9671   2
   5   0  -5 168.843 59.0164   3
   5   0  -4 20271.7 763.501   2
   5   0  -4 20273.4 613.306   4
   5   0  -3 4723.61 361.230   2
   5   0  -3 5533.55 327.041   4
   5   0  -2 175.579 72.0015   2
   5   0  -2 260.250 76.8795   4
   5   0  -1 100.641 74.4346   2
   5   0  -1 15.7448 34.8124   4
   5   0   0 246.442 84.9514   2
   5   0   0 129.713 60.9962   4
   5   0   1 185.972 74.2617   4
   5   0   2 759.162 140.569   4
   5   0   3-28.5821 40.5696   4
   5   0   4 60.0170 70.7324   4
   5   0   5 2658.81 278.741   4
   5   0   6 949.488 176.553   4
   5   0   7 3.20264 54.0403   4
   5   0   8 466.685 134.807   4
   5   0   9-37.3875 53.2971   4
   5   0  10 273.161 110.303   4
   5   0  11 362.337 120.242   4
   5   0  12 131.124 84.0884   4
   5   1 -14 69.2580 76.0730   3
   5   1 -14 122.872 100.006   2
   5   1 -13-148.381 85.1169   3
   5   1 -13-44.0746 71.0840   2
   5   1 -12 605.939 148.198   3
   5   1 -12 217.445 107.013   2
   5   1 -11 207.467 89.0128   3
   5   1 -11 90.1173 92.7365   2
   5   1 -10 854.092 161.869   3
   5   1 -10 787.749 200.485   2
   5   1  -9 561.080 128.188   3
   5   1  -9 495.744 150.834   2
   5   1  -8 657.205 120.666   3
   5   1  -8 343.461 123.258   2
   5   1  -7 3947.29 278.866   3
   5   1  -7 3699.90 362.388   2
   5   1  -6 5297.46 297.045   3
   5   1  -6 4870.78 402.713   2
   5   1  -5 457.484 89.2198   4
   5   1  -5 373.980 136.583   2
   5   1  -4 899.178 171.994   2
   5   1  -4 1184.03 145.362   4
   5   1  -3 110.030 84.0585   2
   5   1  -3 9.71998 45.9648   4
   5   1  -2 646.708 138.319   2
   5   1  -2 553.964 108.256   4
   5   1  -1-14.4506 58.1303   2
   5   1  -1 8.89821 31.5408   4
   5   1   0 1950.62 225.352   2
   5   1   0 2029.26 209.879   4
   5   1   1 24.8806 43.6856   2
   5   1   1 2.18570 38.1185   4
   5   1   2 554.519 127.842   4
   5   1   3 17689.5 673.352   4
   5   1   4 772.939 153.619   4
   5   1   5 1584.33 218.492   4
   5   1   6 4132.44 358.584   4
   5   1   7 70.7334 84.2364   4
   5   1   8 1271.68 216.589   4
   5   1   9 339.641 114.700   4
   5   1  10 1677.31 269.756   4
   5   1  11 360.648 133.979   4
   5   2 -14 78.9621 76.0947   3
   5   2 -13 381.659 139.507   3
   5   2 -13 659.834 195.264   2
   5   2 -12-9.93296 41.4968   3
   5   2 -12 16.0946 65.1529   2
   5   2 -11-73.8741 61.3664   3
   5   2 -11-86.8850 81.1657   2
   5   2 -10 125.497 57.9789   3
   5   2 -10 104.867 80.2953   2
   5   2  -9 334.909 95.1082   3
   5   2  -9 353.367 128.217   2
   5   2  -8 1018.37 155.854   3
   5   2  -8 885.974 192.845   2
   5   2  -7 127.619 82.6174   2
   5   2  -7 94.1963 64.1889   3
   5   2  -6 2518.71 299.570   2
   5   2  -5 157.537 89.8103   2
   5   2  -4 813.456 120.314   4
   5   2  -4 603.510 138.975   2
   5   2  -3 1209.14 190.164   2
   5   2  -3 1253.17 149.161   4
   5   2  -2-14.5118 47.2971   2
   5   2  -2-3.60440 34.7543   4
   5   2  -1 220.940 86.3898   2
   5   2  -1 242.961 79.0993   4
   5   2   0 972.418 163.406   2
   5   2   0 911.705 143.996   4
   5   2   1 4799.27 349.918   2
   5   2   1 4771.20 332.380   4
   5   2   2 8311.84 447.425   4
   5   2   3 3145.53 290.624   4
   5   2   4 9799.93 528.499   4
   5   2   5 732.329 165.291   4
   5   2   6-95.8647 68.4745   4
   5   2   7 659.476 152.385   4
   5   2   8 808.979 179.421   4
   5   2   9 205.938 107.266   4
   5   2  10 360.446 135.497   4
   5   2  11 148.534 90.8284   4
   5   3 -13 681.062 185.612   3
   5   3 -12-10.5820 49.1684   3
   5   3 -12-5.03216 73.3279   2
   5   3 -11 124.600 75.0253   3
   5   3 -11-42.4947 68.3816   2
   5   3 -10-213.340 85.9065   3
   5   3 -10-114.775 88.1492   2
   5   3  -9 885.175 156.729   3
   5   3  -9 595.656 176.298   2
   5   3  -8 1319.97 178.796   3
   5   3  -8 1225.12 227.228   2
   5   3  -7 281.542 112.621   2
   5   3  -6 155.546 101.167   2
   5   3  -5 7854.67 515.425   2
   5   3  -4 920.424 176.552   2
   5   3  -3 47.4223 44.2539   2
   5   3  -3-4.99492 26.0022   4
   5   3  -2 1795.41 226.828   2
   5   3  -2 1995.41 193.950   4
   5   3  -1 1574.77 204.670   2
   5   3  -1 1659.65 183.415   4
   5   3   0 2269.81 238.512   2
   5   3   0 2440.68 228.601   4
   5   3   1 53.2201 60.4286   2
   5   3   1 189.542 72.1353   4
   5   3   2 1220.23 177.468   2
   5   3   2 1187.25 180.576   4
   5   3   3 137.251 77.1583   4
   5   3   4 233.203 96.5923   4
   5   3   5-42.7047 55.2313   4
   5   3   6 2761.73 316.722   4
   5   3   7 366.462 131.140   4
   5   3   8 195.939 90.7754   4
   5   3   9 300.839 118.743   4
   5   3  10 129.200 109.122   4
   5   4 -12 160.372 116.068   2
   5   4 -11 168.224 82.4012   2
   5   4 -10-43.5161 83.0168   2
   5   4  -9 367.638 156.065   2
   5   4  -8 2152.61 306.582   2
   5   4  -7 67.0144 66.4998   2
   5   4  -6 2516.33 309.978   2
   5   4  -5 349.098 123.379   2
   5   4  -4 3845.77 351.203   2
   5   4  -3-44.1418 65.5320   2
  -5  -4   2 616.461 147.840   1
   5   4  -2 862.761 167.633   2
   5   4  -2 881.536 136.006   4
  -5  -4   1-18.9956 44.1187   1
   5   4  -1-15.8181 47.6155   2
   5   4  -1-2.71051 35.3873   4
  -5  -4   0 1974.14 265.829   1
   5   4   0 2356.93 246.441   2
   5   4   0 2228.70 227.421   4
  -5  -4  -1 10072.8 585.985   1
   5   4   1 10533.4 516.973   2
   5   4   1 9805.72 497.096   4
  -5  -4  -2 361.472 125.227   1
   5   4   2 353.087 110.022   2
   5   4   2 447.699 122.195   4
  -5  -4  -3 60.8176 59.2966   1
   5   4   3 124.536 64.2021   4
   5   4   4 321.096 105.370   4
   5   4   5 796.499 169.439   4
   5   4   6-157.763 86.3990   4
   5   4   7 267.865 100.098   4
   5   4   8 202.171 103.472   4
   5   4   9 1443.38 267.829   4
   5   5 -11-255.078 133.957   2
   5   5 -10-0.81625 85.0865   2
   5   5  -9 166.512 132.772   2
   5   5  -8 349.188 133.443   2
   5   5  -7 614.343 178.042   2
   5   5  -6 251.069 117.186   2
  -5  -5   5 652.522 165.262   1
   5   5  -5 521.111 143.452   2
  -5  -5   4 24.8279 54.1565   1
   5   5  -4 86.8100 51.1151   2
  -5  -5   3 1075.32 206.072   1
   5   5  -3 1414.77 222.248   2
  -5  -5   2 373.858 126.437   1
   5   5  -2 217.891 85.7299   2
   5   5  -1 63.0017 63.8870   2
  -5  -5   1 3.05254 58.7981   1
   5   5  -1 109.009 57.0776   4
   5   5   0 15.9519 39.7102   2
  -5  -5   0-33.3487 52.4865   1
   5   5   0 6.87855 43.6655   4
   5   5   1 147.834 70.0726   2
  -5  -5  -1 109.535 81.6742   1
   5   5   1 133.108 67.1438   4
   5   5   2 342.422 99.7667   2
  -5  -5  -2 250.478 100.674   1
   5   5   2 344.038 105.032   4
  -5  -5  -3 211.611 110.680   1
   5   5   3 198.500 95.7958   4
  -5  -5  -4 957.066 186.256   1
   5   5   4 934.826 187.678   4
  -5  -5  -5 137.677 80.5954   1
   5   5   5 222.397 90.0419   4
  -5  -5  -6 304.662 117.562   1
   5   5   6 381.605 132.909   4
   5   5   7 566.294 159.564   4
   5   5   8 315.927 130.505   4
   5   6 -10 581.477 186.114   2
   5   6  -9-134.056 103.107   2
   5   6  -8-43.1556 72.4393   2
  -5  -6   7 20.0041 50.5802   1
   5   6  -7 43.3369 69.0180   2
  -5  -6   6 50.1325 83.8633   1
   5   6  -6 219.246 107.975   2
  -5  -6   5 84.4353 85.2790   1
   5   6  -5 3.09674 55.7981   2
  -5  -6   4 430.541 145.047   1
   5   6  -4 630.290 164.335   2
  -5  -6   3 1697.38 269.877   1
   5   6  -3 1728.90 250.950   2
   5   6  -2 477.494 131.230   2
  -5  -6   2 520.187 155.310   1
   5   6  -1 474.856 120.728   2
  -5  -6   1 173.181 100.759   1
   5   6   0 361.269 112.200   2
  -5  -6   0 330.270 123.398   1
   5   6   0 359.087 105.653   4
  -5  -6  -1-34.4939 64.2881   1
   5   6   1 23.9469 42.0253   4
  -5  -6  -2 262.429 110.228   1
   5   6   2 351.532 115.902   4
  -5  -6  -3 3.31050 71.2464   1
   5   6   3-71.6813 62.4144   4
  -5  -6  -4 500.980 148.059   1
   5   6   4 789.564 177.456   4
  -5  -6  -5-26.1585 46.0138   1
   5   6   5 67.7067 59.6424   4
   5   6   6 186.464 107.160   4
   5   6   7 1270.87 257.844   4
  -5  -7   8 719.076 188.034   1
   5   7  -8 572.197 170.926   2
  -5  -7   7 899.916 215.205   1
   5   7  -7 983.296 223.358   2
  -5  -7   6 56.0942 72.8450   1
   5   7  -6-37.0081 58.6253   2
  -5  -7   5 59.4906 71.8347   1
   5   7  -5 165.327 83.4185   2
  -5  -7   4 126.825 83.4545   1
   5   7  -4-71.4333 71.4322   2
   5   7  -3 111.751 73.4543   2
  -5  -7   3 116.344 68.7061   1
   5   7  -2-29.6171 39.0493   2
  -5  -7   2 48.5649 66.1292   1
  -5  -7   1 569.003 168.357   1
  -5  -7   0 872.712 209.995   1
   5   7   1 287.702 104.073   4
  -5  -7  -1 150.301 89.7080   1
   5   7   2 690.520 166.131   4
  -5  -7  -2 786.473 196.978   1
   5   7   3 972.408 198.737   4
  -5  -7  -3 863.164 196.370   1
   5   7   4 145.276 90.0363   4
  -5  -7  -4 124.603 84.3799   1
   5   7   5-25.9361 52.4273   4
  -5  -7  -5-75.0787 69.7727   1
   5   7   6-47.0924 69.3856   4
   5   8  -7 138.665 105.861   2
  -5  -8   6 282.122 127.022   1
   5   8  -6 91.3954 88.9150   2
  -5  -8   5 426.133 153.229   1
   5   8  -5 625.381 176.360   2
  -5  -8   4 345.293 128.778   1
  -5  -8   3 104.935 87.4060   1
  -5  -8   2-28.6287 62.3539   1
  -5  -8   1 63.2108 75.8710   1
  -5  -8   0 516.309 185.485   1
  -5  -8  -1-165.758 103.729   1
  -5  -8  -2 531.743 167.558   1
   5   8   3 1121.47 215.613   4
  -5  -8  -3 850.195 211.014   1
   5   8   4 383.750 136.253   4
  -5  -8  -4 309.974 131.774   1
   5   8   5 48.5796 67.2948   4
  -5  -8  -5 21.2350 49.3138   1
   6  -8  -5 101.422 88.1811   4
   6  -8  -4 137.113 95.8418   4
   6  -8  -3 83.0948 79.0136   4
   6  -8  -2-78.5617 79.5421   4
   6  -8  -1 85.4495 79.8150   4
   6  -8   0 95.7969 81.3610   4
   6  -8   1 77.1508 75.6441   4
   6  -8   2 40.7445 61.4018   4
   6  -8   3 24.3208 60.7310   4
   6  -8   4 105.395 83.8638   4
   6  -8   5 9.61742 46.4332   4
   6  -7  -8-11.5069 58.3876   4
   6  -7  -7 22.8727 69.5078   4
   6  -7  -6 216.838 111.205   4
   6  -7  -5 119.408 91.1147   4
   6  -7  -4-249.797 114.117   4
   6  -7  -3 52.2685 64.4316   4
   6  -7  -2-136.533 91.4850   4
   6  -7  -1 11.1518 79.4969   4
   6  -7   0 128.273 92.7640   4
   6  -7   1 115.695 75.0635   4
   6  -7   2 70.6125 70.4292   4
   6  -7   3 31.1651 58.4185   4
   6  -7   4-108.555 77.6757   4
   6  -7   5 25.3711 62.5546   4
   6  -7   6 47.3371 58.5092   4
   6  -7   7 14.0269 51.8046   4
   6  -6 -10-56.0762 70.3928   4
   6  -6  -9 91.4007 84.9253   4
   6  -6  -8 157.824 97.2286   4
   6  -6  -7-12.0205 59.0520   4
   6  -6  -6 8.91137 80.8633   4
   6  -6  -5 399.778 140.913   4
   6  -6  -4 173.220 100.680   4
   6  -6  -3-24.0129 49.5231   4
   6  -6  -2 89.3306 92.7586   4
   6  -6  -1 2.52462 52.5673   4
   6  -6   0 36.9386 55.7872   4
   6  -6   1 232.966 101.237   4
   6  -6   2 122.518 77.2643   4
   6  -6   3 181.697 91.4226   4
   6  -6   4-49.6364 62.9703   4
   6  -6   5-201.855 97.5211   4
   6  -6   6 31.4585 56.6743   4
   6  -6   7 12.1078 50.7580   4
   6  -6   8 30.4880 59.8704   4
   6  -5  -9 149.333 92.1074   4
   6  -5  -8 304.142 129.929   4
   6  -5  -8 92.8735 60.2215   2
   6  -5  -7 186.531 86.1615   4
   6  -5  -6 840.057 179.444   4
   6  -5  -5 1185.19 221.616   4
   6  -5  -4 1248.93 222.102   4
   6  -5  -3 489.458 143.850   4
   6  -5  -2 47.7011 54.6231   4
   6  -5  -1 204.725 109.958   4
   6  -5   0 257.627 88.4645   4
   6  -5   1 165.266 99.1882   4
   6  -5   2 880.694 191.908   4
   6  -5   3 218.923 107.645   4
   6  -5   4 92.4212 99.2386   4
   6  -5   5 48.7907 58.3145   4
   6  -5   6-13.3506 66.2262   4
   6  -5   7 9.94093 43.9113   4
   6  -5   8 239.994 108.384   4
   6  -5   9-32.1123 62.0668   4
   6  -4 -10 206.288 90.3312   2
   6  -4  -9 48.2285 60.2447   4
   6  -4  -9 9.09730 39.5780   2
   6  -4  -8 14.0539 73.7326   4
   6  -4  -8 15.7317 36.3986   2
   6  -4  -7 468.092 132.514   4
   6  -4  -7 372.172 121.512   2
   6  -4  -6 886.908 178.015   4
   6  -4  -6 624.984 148.195   2
   6  -4  -5 617.997 154.949   2
   6  -4  -5 1061.68 195.234   4
   6  -4  -4 318.849 121.660   4
   6  -4  -3-111.461 70.7888   4
   6  -4  -2-14.3296 57.1826   4
   6  -4  -1 356.494 106.100   4
   6  -4   0 68.7956 68.8554   4
   6  -4   1 50.1247 56.4119   4
   6  -4   2 309.768 111.587   4
   6  -4   3-7.22873 57.1190   4
   6  -4   4-17.0341 58.2472   4
   6  -4   5 84.5957 94.8529   4
   6  -4   6 193.206 97.7167   4
   6  -4   7 86.0509 76.1372   4
   6  -4   8-34.7023 60.1373   4
   6  -4   9 80.4784 67.1341   4
   6  -4  10 160.353 94.1791   4
   6  -3 -11-133.393 92.1679   2
   6  -3 -10 219.773 101.243   2
   6  -3  -9 99.7334 66.2302   2
   6  -3  -8 530.537 136.311   4
   6  -3  -8 300.586 98.6038   2
   6  -3  -7 293.061 96.7666   4
   6  -3  -7 167.466 77.4721   2
   6  -3  -6 1452.39 237.459   2
   6  -3  -6 1977.50 254.154   4
   6  -3  -5-28.6015 75.2013   4
   6  -3  -5-19.0690 55.2204   2
   6  -3  -4 1354.61 220.355   2
   6  -3  -4 1827.86 241.585   4
   6  -3  -3 177.835 101.248   4
   6  -3  -2 148.168 74.7738   4
   6  -3  -1 2082.23 257.404   4
   6  -3   0 974.702 180.754   4
   6  -3   1 104.186 64.3393   4
   6  -3   2 378.409 126.571   4
   6  -3   3 57.8535 61.8585   4
   6  -3   4 86.2825 78.8456   4
   6  -3   5 331.952 114.518   4
   6  -3   6 492.621 136.508   4
   6  -3   7 46.8735 57.0283   4
   6  -3   8 172.058 96.1274   4
   6  -3   9 61.3086 74.8330   4
   6  -3  10-72.1806 64.6228   4
   6  -2 -12 168.952 101.892   2
   6  -2 -11 126.831 86.4838   2
   6  -2 -10 86.2080 69.0939   2
   6  -2  -9 133.768 82.9756   2
   6  -2  -8 120.893 79.6608   2
   6  -2  -7 201.583 88.7685   4
   6  -2  -7 106.047 66.6639   2
   6  -2  -6 161.017 78.2538   4
   6  -2  -6-94.6924 69.5522   2
   6  -2  -5 281.857 100.780   4
   6  -2  -5-6.37676 47.7376   2
   6  -2  -4 5001.03 421.863   2
   6  -2  -4 4952.30 370.532   4
   6  -2  -3 644.714 147.382   4
   6  -2  -3 598.374 149.245   2
   6  -2  -2 1735.90 249.396   2
   6  -2  -2 2010.36 241.396   4
   6  -2  -1 1273.76 200.318   4
   6  -2   0-23.5114 78.8688   4
   6  -2   1-16.3475 70.0632   4
   6  -2   2 2.56826 49.7045   4
   6  -2   3 14.9608 56.8314   4
   6  -2   4 926.053 176.715   4
   6  -2   5 463.295 135.973   4
   6  -2   6 146.244 76.7394   4
   6  -2   7 379.078 122.459   4
   6  -2   8 24.2613 55.8560   4
   6  -2   9-73.6146 68.2945   4
   6  -2  10 216.380 106.014   4
   6  -1 -12 413.089 152.825   2
   6  -1 -11-42.7484 101.796   2
   6  -1 -10 266.600 119.188   2
   6  -1  -9-21.9614 59.5403   2
   6  -1  -8 303.003 117.763   2
   6  -1  -7 77.2004 85.8737   2
   6  -1  -6 1034.16 202.539   2
   6  -1  -6 1297.61 186.169   4
   6  -1  -5 1611.35 239.446   2
   6  -1  -5 2028.59 229.799   4
   6  -1  -4 1266.45 209.505   2
   6  -1  -4 1506.23 199.228   4
   6  -1  -3-7.51839 50.2268   4
   6  -1  -3-27.4728 49.5632   2
   6  -1  -2-39.6595 39.8935   4
   6  -1  -2-89.8913 66.0427   2
   6  -1  -1 804.810 170.714   2
   6  -1  -1 837.414 158.794   4
   6  -1   0 787.585 153.478   4
   6  -1   1 109.804 67.0231   4
   6  -1   2 481.126 131.094   4
   6  -1   3 2628.67 281.109   4
   6  -1   4 195.466 100.369   4
   6  -1   5 4758.36 403.039   4
   6  -1   6 274.742 104.377   4
   6  -1   7 99.7936 72.7199   4
   6  -1   8 185.114 96.7036   4
   6  -1   9 63.3792 73.9527   4
   6  -1  10 491.578 153.854   4
   6   0 -12 258.606 132.518   2
   6   0 -11 288.318 139.499   2
   6   0 -10 368.545 144.914   2
   6   0  -9 254.520 109.639   2
   6   0  -8 31.5356 59.4687   2
   6   0  -7 166.102 99.2400   2
   6   0  -6 132.335 72.1153   2
   6   0  -5 286.156 88.6179   4
   6   0  -5 225.747 95.8437   2
   6   0  -4 67.5217 42.0836   4
   6   0  -4 155.582 83.2673   2
   6   0  -3 191.718 75.3004   4
   6   0  -3 158.749 85.0848   2
   6   0  -2 1219.36 203.940   2
   6   0  -2 929.634 159.150   4
   6   0  -1 1069.46 192.891   2
   6   0  -1 1155.43 176.173   4
   6   0   0 121.916 72.4335   2
   6   0   0 125.785 68.8408   4
   6   0   1 532.791 123.001   4
   6   0   2 641.700 143.285   4
   6   0   3 59.2251 57.1088   4
   6   0   4 5785.96 437.078   4
   6   0   5 736.079 169.822   4
   6   0   6 325.690 117.796   4
   6   0   7 162.690 78.5441   4
   6   0   8-49.9802 64.4015   4
   6   0   9 165.814 112.528   4
   6   0  10 428.381 153.012   4
   6   1 -12 73.4229 78.1534   2
   6   1 -11 143.314 98.1921   2
   6   1 -10 24.4520 58.1257   2
   6   1  -9 42.2209 66.5640   2
   6   1  -8 377.514 145.104   2
   6   1  -7 1799.23 279.827   2
   6   1  -6 1340.18 234.834   2
   6   1  -5 4458.30 412.167   2
   6   1  -4 847.273 189.116   2
   6   1  -4 873.051 141.121   4
   6   1  -3 2272.84 279.380   2
   6   1  -3 2593.95 251.676   4
   6   1  -2-24.9805 68.0288   2
   6   1  -2 6.92930 56.8628   4
   6   1  -1 730.865 152.919   2
   6   1  -1 452.970 108.074   4
   6   1   0-73.2601 58.4838   2
   6   1   0 10.8356 45.0584   4
   6   1   1 216.149 94.7194   4
   6   1   2 1525.75 212.959   4
   6   1   3 131.187 79.1293   4
   6   1   4 195.566 90.7167   4
   6   1   5 175.217 99.7566   4
   6   1   6-27.8024 49.1571   4
   6   1   7 129.948 80.8208   4
   6   1   8 419.043 137.334   4
   6   1   9 128.938 93.1735   4
   6   2 -11 210.809 120.397   2
   6   2 -10-39.0607 66.4082   2
   6   2  -9 177.490 109.950   2
   6   2  -8 228.932 129.252   2
   6   2  -7 66.3725 58.6088   2
   6   2  -6 122.666 97.3551   2
   6   2  -5 11.1799 80.1967   2
   6   2  -4 3453.49 355.389   2
   6   2  -3 80.4491 64.4095   2
   6   2  -3 136.379 58.7208   4
   6   2  -2 54.6819 52.1068   2
   6   2  -2 124.398 67.4281   4
   6   2  -1 729.811 163.141   2
   6   2  -1 774.447 138.856   4
   6   2   0 2691.78 291.556   2
   6   2   0 2018.86 233.504   4
   6   2   1 2552.33 293.448   2
   6   2   1 2506.96 265.406   4
   6   2   2 202.946 86.7038   4
   6   2   3 2114.12 263.045   4
   6   2   4 20.9590 46.4701   4
   6   2   5 384.948 125.439   4
   6   2   6 207.205 98.1076   4
   6   2   7-60.2174 67.9070   4
   6   2   8 134.220 88.5682   4
   6   2   9 1459.61 260.168   4
   6   3 -10-39.6494 71.3651   2
   6   3  -9 656.753 193.154   2
   6   3  -8 759.943 204.744   2
   6   3  -7 27.2348 66.6562   2
   6   3  -6 311.336 119.786   2
   6   3  -5-40.0774 83.3745   2
   6   3  -4-41.8031 73.8747   2
   6   3  -3 95.9444 68.2548   2
   6   3  -2-65.8569 59.0893   2
   6   3  -2 96.8486 55.8217   4
   6   3  -1 1023.99 189.751   2
   6   3  -1 1238.40 179.017   4
   6   3   0 486.877 133.073   2
   6   3   0 522.703 118.087   4
   6   3   1 284.163 97.7708   2
   6   3   1 293.841 100.812   4
   6   3   2 6.00536 41.6175   4
   6   3   3 394.341 118.663   4
   6   3   4 472.777 131.537   4
   6   3   5 71.8920 64.2724   4
   6   3   6 192.945 86.1051   4
   6   3   7 178.760 98.3259   4
   6   3   8 462.295 152.541   4
   6   4  -9 188.214 121.760   2
   6   4  -8 626.059 184.524   2
   6   4  -7 173.996 119.556   2
   6   4  -6 984.384 219.307   2
   6   4  -5 237.643 104.270   2
   6   4  -4 530.974 151.263   2
   6   4  -3 807.073 174.650   2
   6   4  -2 107.707 67.0151   2
   6   4  -1-2.11202 49.4736   2
   6   4  -1 51.3681 49.0200   4
   6   4   0 22.3495 42.0867   2
   6   4   0-22.0374 56.0375   4
   6   4   1 305.602 108.338   2
   6   4   1 500.823 132.100   4
   6   4   2 115.699 60.6477   4
   6   4   3 189.082 82.6508   4
   6   4   4 1316.01 224.010   4
   6   4   5 2.61188 52.1431   4
   6   4   6-31.5940 59.4213   4
   6   4   7 656.424 193.134   4
   6   5  -8 1312.25 269.083   2
   6   5  -7 298.410 142.908   2
   6   5  -6 238.452 118.638   2
   6   5  -5 392.208 130.187   2
   6   5  -4 129.477 88.3839   2
   6   5  -3 464.532 136.312   2
   6   5  -2 320.036 110.901   2
   6   5  -1 1320.77 212.404   2
   6   5   0 417.431 121.037   2
   6   5   0 604.131 129.865   4
   6   5   1 261.078 95.8391   2
   6   5   1 38.8487 63.0261   4
   6   5   2 409.390 120.520   4
   6   5   3 101.295 75.2216   4
   6   5   4 1055.06 210.714   4
   6   5   5 344.382 129.857   4
   6   5   6 110.074 63.2503   4
   6   6  -7 178.485 113.888   2
   6   6  -6-22.3632 90.0043   2
   6   6  -5 172.373 102.390   2
   6   6  -4-181.688 100.287   2
   6   6  -3 218.307 102.979   2
  -6  -6   2 316.541 126.761   1
   6   6  -2 272.181 100.212   2
  -6  -6   1-164.551 101.273   1
   6   6  -1 49.1525 48.0410   2
  -6  -6   0 59.5937 66.9371   1
  -6  -6  -1 111.821 83.4197   1
  -6  -6  -2 2025.04 320.683   1
   6   6   2 2122.51 280.043   4
  -6  -6  -3 318.732 148.800   1
   6   6   3 491.868 144.646   4
   6   6   4 14.4916 53.7038   4
   6   6   5 263.761 130.258   4
   6   7  -6 67.0022 92.7618   2
   6   7  -5-189.232 113.221   2
   6   7  -4 152.280 99.8049   2
  -6  -7   3 679.642 192.850   1
   6   7  -3 1074.88 217.182   2
  -6  -7   2-89.7088 82.0940   1
  -6  -7   1-147.349 100.520   1
  -6  -7   0-266.225 130.576   1
  -6  -7  -1 320.906 136.375   1
  -6  -7  -2 498.570 162.573   1
  -6  -7  -3-250.410 121.903   1
   6   7   3 235.922 106.980   4
  -6  -7  -4-112.525 90.2438   1
   6   7   4 101.132 82.3236   4
   7  -7  -2 176.218 110.784   4
   7  -7  -1 133.042 112.148   4
   7  -7   0 32.0496 61.2769   4
   7  -7   1 97.1917 84.7082   4
   7  -6  -7 106.837 89.8651   4
   7  -6  -6 63.8059 79.8834   4
   7  -6  -5 411.908 145.106   4
   7  -6  -4 75.0147 75.5111   4
   7  -6  -3 330.338 140.282   4
   7  -6  -2 53.5686 89.5509   4
   7  -6  -1 77.5124 101.972   4
   7  -6   0 54.1792 71.0429   4
   7  -6   1 115.247 86.8118   4
   7  -6   2 65.9104 81.3788   4
   7  -6   3-226.783 111.613   4
   7  -6   4-94.1555 81.6624   4
   7  -5  -8-42.5832 65.8004   4
   7  -5  -7 15.7769 51.1273   4
   7  -5  -6 275.070 103.576   4
   7  -5  -5-31.3651 56.8363   4
   7  -5  -4 378.325 136.887   4
   7  -5  -3 145.487 119.913   4
   7  -5  -2 565.113 159.104   4
   7  -5  -1 130.434 100.925   4
   7  -5   0-16.7550 55.8455   4
   7  -5   1 389.225 135.074   4
   7  -5   2 61.0386 70.9552   4
   7  -5   3 33.5147 73.1360   4
   7  -5   4 112.268 81.5446   4
   7  -5   5 184.704 103.045   4
   7  -4  -9 93.0615 77.7584   2
   7  -4  -8-21.8510 42.4857   2
   7  -4  -7-25.1671 60.9931   4
   7  -4  -7-59.2798 61.1858   2
   7  -4  -6-32.9938 59.4338   4
   7  -4  -5 46.7651 59.4398   4
   7  -4  -4-68.8893 67.9419   4
   7  -4  -3 30.1089 82.4854   4
   7  -4  -2 771.337 184.911   4
   7  -4  -1 256.810 106.710   4
   7  -4   0 339.899 125.095   4
   7  -4   1 62.1945 60.0831   4
   7  -4   2 207.075 101.193   4
   7  -4   3-67.9166 83.2439   4
   7  -4   4 4.75339 46.6265   4
   7  -4   5 2.14063 77.5815   4
   7  -4   6 41.1187 78.4882   4
   7  -3 -10-113.232 80.7562   2
   7  -3  -9-151.536 91.5616   2
   7  -3  -8 324.683 125.077   2
   7  -3  -7-188.543 99.2414   2
   7  -3  -6 146.060 98.2460   4
   7  -3  -6 129.477 81.4879   2
   7  -3  -5 1.75626 56.5593   4
   7  -3  -5 16.1562 72.5704   2
   7  -3  -4 777.521 170.236   4
   7  -3  -3 94.5423 89.9485   4
   7  -3  -2-17.3586 51.4624   4
   7  -3  -1 141.907 78.7381   4
   7  -3   0-24.6881 78.0621   4
   7  -3   1 277.816 108.278   4
   7  -3   2 633.469 175.137   4
   7  -3   3 250.574 122.929   4
   7  -3   4 131.807 112.523   4
   7  -3   5 1930.85 300.297   4
   7  -3   6 80.4140 74.6387   4
   7  -3   7 381.408 153.884   4
   7  -2 -10-147.297 89.7886   2
   7  -2  -9-144.722 90.5900   2
   7  -2  -8 200.402 97.4047   2
   7  -2  -7-99.5239 81.5701   2
   7  -2  -6-21.1897 49.0580   4
   7  -2  -6-47.9340 57.9103   2
   7  -2  -5-0.53974 37.1314   4
   7  -2  -5 63.9749 69.4448   2
   7  -2  -4 533.253 137.473   4
   7  -2  -4 510.564 159.483   2
   7  -2  -3 334.472 115.355   4
   7  -2  -3 131.338 95.2931   2
   7  -2  -2 72.7082 65.7658   4
   7  -2  -1 500.963 142.064   4
   7  -2   0 85.1989 71.3579   4
   7  -2   1 102.413 73.5569   4
   7  -2   2 13.5840 75.8879   4
   7  -2   3-34.7380 61.0361   4
   7  -2   4 789.631 183.601   4
   7  -2   5 202.109 98.4539   4
   7  -2   6 791.806 181.623   4
   7  -2   7 82.6245 74.0643   4
   7  -1 -10 164.715 97.9795   2
   7  -1  -9 188.330 103.984   2
   7  -1  -8 86.4399 74.2275   2
   7  -1  -7 720.671 175.721   2
   7  -1  -6 840.533 194.105   2
   7  -1  -5 157.100 85.7841   4
   7  -1  -5 60.7442 60.9193   2
   7  -1  -4-206.230 89.6459   4
   7  -1  -4-6.85960 49.6749   2
   7  -1  -3 2634.53 333.647   2
   7  -1  -3 3222.08 315.987   4
   7  -1  -2 129.071 75.7681   4
   7  -1  -2 7.80562 43.9914   2
   7  -1  -1 1250.96 206.488   4
   7  -1   0 3.40931 68.7022   4
   7  -1   1 596.592 155.387   4
   7  -1   2 660.665 161.188   4
   7  -1   3 46.1558 58.8843   4
   7  -1   4 52.1738 70.1455   4
   7  -1   5 22.0238 49.0855   4
   7  -1   6-54.8894 63.1380   4
   7  -1   7 126.675 83.2781   4
   7   0  -9 537.450 166.164   2
   7   0  -8-92.0367 81.7149   2
   7   0  -7 355.663 135.393   2
   7   0  -6 106.217 73.6651   2
   7   0  -5 260.162 126.701   2
   7   0  -4 253.437 89.8823   4
   7   0  -4 201.362 103.374   2
   7   0  -3 102.706 73.1140   4
   7   0  -3 193.725 105.502   2
   7   0  -2 228.450 109.157   2
   7   0  -2 43.7172 70.0848   4
   7   0  -1 165.207 103.836   2
   7   0  -1 283.499 104.496   4
   7   0   0 33.9783 64.0213   4
   7   0   1 124.163 88.7379   4
   7   0   2 687.871 160.627   4
   7   0   3 1241.47 211.332   4
   7   0   4-22.2321 52.0025   4
   7   0   5-50.6270 60.7043   4
   7   0   6 213.732 103.872   4
   7   0   7 139.411 87.6852   4
   7   1  -9 22.7270 78.9304   2
   7   1  -8 518.292 163.939   2
   7   1  -7 313.876 130.008   2
   7   1  -6 39.0613 83.9684   2
   7   1  -5 139.513 90.7048   2
   7   1  -4 167.454 74.4633   2
   7   1  -3-81.6854 73.3308   2
   7   1  -3 89.7282 58.0881   4
   7   1  -2-5.85455 49.4554   2
   7   1  -2 105.849 69.9559   4
   7   1  -1 231.646 103.138   2
   7   1  -1 307.783 103.796   4
   7   1   0 52.3176 55.8395   4
   7   1   1-61.5558 58.1997   4
   7   1   2 68.6122 57.8611   4
   7   1   3 78.3393 63.6751   4
   7   1   4 281.699 111.126   4
   7   1   5 378.089 130.987   4
   7   1   6 283.812 126.928   4
   7   1   7 47.1159 69.7070   4
   7   2  -8 371.101 153.785   2
   7   2  -7 358.775 144.067   2
   7   2  -6 110.376 86.9701   2
   7   2  -5 70.4684 71.5774   2
   7   2  -4 147.623 85.7332   2
   7   2  -3 13.2689 45.3194   2
   7   2  -2 463.624 153.608   2
   7   2  -2 301.662 94.9968   4
   7   2  -1 361.659 122.685   2
   7   2  -1 213.911 82.9932   4
   7   2   0 177.159 95.5842   2
   7   2   0 18.3859 63.6680   4
   7   2   1 42.4718 59.5673   4
   7   2   2 204.335 89.0583   4
   7   2   3 178.563 91.6703   4
   7   2   4 256.672 106.006   4
   7   2   5 53.3181 61.5343   4
   7   2   6 147.531 90.6656   4
   7   3  -7 31.7624 78.9409   2
   7   3  -6 1277.12 253.325   2
   7   3  -5 956.252 210.902   2
   7   3  -4 65.6205 67.7154   2
   7   3  -3 41.7469 54.6836   2
   7   3  -2-55.9783 60.3726   2
   7   3  -1 3.85027 46.4407   2
   7   3   0 91.1002 71.8157   2
   7   3   0 43.4077 51.0864   4
   7   3   1 401.409 133.423   4
   7   3   2 233.577 97.1359   4
   7   3   3 323.908 112.644   4
   7   3   4 224.868 105.895   4
   7   3   5 190.620 109.216   4
   7   4  -6 347.766 149.366   2
   7   4  -5 237.848 112.903   2
   7   4  -4 64.4093 56.4334   2
   7   4  -3 580.825 164.108   2
   7   4  -2 331.296 134.521   2
   7   4  -1-176.963 91.6727   2
   7   4   0-1.88370 41.2562   2
   7   4   1 388.989 114.565   4
   7   4   2 650.685 157.530   4
   7   4   3 31.7876 59.2728   4
   7   4   4 422.759 149.309   4
   7   4   5 251.223 112.784   4
   7   5  -5 260.886 132.631   2
   7   5  -4 210.342 102.556   2
   7   5  -3 307.904 118.682   2
   7   5  -2 157.801 89.2731   2
   7   5  -1 995.684 199.908   2
   7   5   0-7.61173 41.9873   2
   7   5   2 177.239 103.384   4
   7   5   3 161.362 89.6238   4
   7   5   4 152.233 95.6743   4
   7   6  -3-126.778 90.0703   2
   8  -4  -5 37.6612 63.9533   4
   8  -4  -4 42.3874 100.051   4
   8  -4  -3 26.9020 54.7422   4
   8  -4  -2 68.8328 75.5122   4
   8  -4  -1 112.114 87.4508   4
   8  -4   0-159.377 99.3993   4
   8  -4   1 80.6578 75.9984   4
   8  -3  -5 290.320 116.051   4
   8  -3  -4 157.779 89.4635   4
   8  -3  -3-35.3305 61.6327   4
   8  -3  -2-271.866 113.718   4
   8  -3  -1 579.397 168.466   4
   8  -3   0-24.9081 56.2275   4
   8  -3   1 312.292 121.931   4
   8  -3   2 64.0400 71.3306   4
   8  -2  -5 16.7159 45.6623   2
   8  -2  -4 162.596 87.4641   4
   8  -2  -3-208.923 100.635   4
   8  -2  -2 87.9619 51.5646   4
   8  -2  -1 91.7495 57.1757   4
   8  -2   0 48.5175 86.8760   4
   8  -2   1 229.518 96.8925   4
   8  -2   2 90.3603 92.5070   4
   8  -2   3 64.3597 73.8037   4
   8  -1  -4 0.81876 45.7671   2
   8  -1  -3 60.4246 61.1622   4
   8  -1  -2-37.9723 52.6698   4
   8  -1  -1 40.8322 60.8496   4
   8  -1   0 85.4554 76.4883   4
   8  -1   1-120.187 85.6470   4
   8  -1   2-16.0777 55.9144   4
   8  -1   3-80.2166 81.5058   4
   8   0  -4-146.358 96.5567   2
   8   0  -3 114.123 95.2189   2
   8   0  -2 98.3793 70.9707   4
   8   0  -1 103.479 72.8871   4
   8   0   0 50.1362 76.7736   4
   8   0   1-2.73984 76.7523   4
   8   0   2 13.8083 57.1144   4
   8   0   3 19.4303 78.1320   4
   8   1  -3 107.585 90.1664   2
   8   1  -2-94.9874 87.1060   2
   8   1  -1 46.3050 55.1353   4
   8   1   0-3.21657 47.2604   4
   8   1   1-7.80341 66.1160   4
   8   1   2-30.2688 60.7251   4
   8   1   3 86.6585 50.7592   4
   8   2  -1 14.3994 54.1386   2
   8   2   0 122.584 81.4018   4
   8   2   1 237.699 103.659   4
   8   2   2-21.4127 45.8598   4
   8   3   2-15.0978 45.6340   4
   0   0   0    0.00    0.00   0
TITL G30k in P-1
REM P-1 (#2 in standard setting)
CELL 0.71073   6.544959   9.352590  12.781989  94.0472  93.1432  95.7354
ZERR    2.00   0.000403   0.000598   0.000771   0.0051   0.0050   0.0051
LATT  1
SFAC C H N O S
UNIT 32.00 32.00 4.00 6.00 2.00
TREF
HKLF 4
END
;
_shelx_hkl_checksum              18446
_shelx_res_file
;
TITL G30k in P-1
    shelx.res
    created by SHELXL-2016/6 at 11:40:24 on 09-Dec-2016
CELL  0.71073   6.5450   9.3526  12.7820   94.047   93.143   95.735
ZERR     2.00   0.0004   0.0006   0.0008    0.005    0.005    0.005
LATT   1
SFAC  C    H    N    O    S
UNIT  32 32 4 6 2
MERG   2
OMIT    -2.00  52.00
EQIV $1  1-x, 1-y, -z
EQIV $2  2+x, 1+y, z
HTAB N2 O1
HTAB N1 S1_$1
HTAB C22 S1
HTAB C14 O2_$2
FMAP   2
PLAN    2
ACTA
BOND   $H
L.S.  50
WGHT    0.106900    0.020800
FVAR       5.18444
S1    5    0.328918    0.328563    0.053224    11.00000    0.08037    0.08114 =
         0.05426   -0.01125    0.01845   -0.02763
C1    1    0.413057    0.407608    0.170428    11.00000    0.04749    0.05287 =
         0.05595    0.00309    0.00978   -0.00364
N1    3    0.596406    0.499366    0.176809    11.00000    0.04993    0.06557 =
         0.05318   -0.00250    0.01247   -0.00925
AFIX  43
H1    2    0.657793    0.504603    0.119202    11.00000   -1.20000
AFIX   0
C10   1    0.692403    0.582193    0.261695    11.00000    0.04811    0.05858 =
         0.05107    0.00016    0.00306   -0.00054
O1    4    0.625409    0.582118    0.349276    11.00000    0.06578    0.09019 =
         0.05079   -0.00490    0.00908   -0.02089
C11   1    0.884334    0.672988    0.241405    11.00000    0.04468    0.05866 =
         0.05591    0.00266    0.00130   -0.00455
C12   1    0.934774    0.798526    0.305757    11.00000    0.06277    0.07116 =
         0.06087   -0.00021    0.00378   -0.00833
AFIX  43
H12   2    0.847406    0.823665    0.357432    11.00000   -1.20000
AFIX   0
C13   1    1.112643    0.886668    0.294248    11.00000    0.07343    0.07300 =
         0.08136    0.00888   -0.00969   -0.01819
AFIX  43
H13   2    1.145054    0.970734    0.337792    11.00000   -1.20000
AFIX   0
C14   1    1.242549    0.849050    0.217389    11.00000    0.05131    0.09055 =
         0.09337    0.02616   -0.00198   -0.02149
AFIX  43
H14   2    1.363019    0.907938    0.209513    11.00000   -1.20000
AFIX   0
C15   1    1.194730    0.725322    0.152666    11.00000    0.05038    0.09100 =
         0.08275    0.02061    0.01568    0.00123
AFIX  43
H15   2    1.282663    0.701004    0.101048    11.00000   -1.20000
AFIX   0
C16   1    1.015107    0.636120    0.164011    11.00000    0.05155    0.06741 =
         0.07149    0.00792    0.00694    0.00247
AFIX  43
H16   2    0.982791    0.552392    0.120094    11.00000   -1.20000
AFIX   0
N2    3    0.325072    0.396849    0.261280    11.00000    0.05352    0.06495 =
         0.04530   -0.00152    0.00677   -0.01311
AFIX  43
H2    2    0.397118    0.442046    0.313960    11.00000   -1.20000
AFIX   0
C21   1    0.135669    0.325507    0.288593    11.00000    0.05005    0.05282 =
         0.04620    0.00293    0.00938   -0.00441
C22   1    0.006642    0.229814    0.220535    11.00000    0.05344    0.06271 =
         0.04428   -0.00065    0.00988   -0.00725
AFIX  43
H22   2    0.043178    0.207574    0.152455    11.00000   -1.20000
AFIX   0
C23   1   -0.176891    0.167565    0.254505    11.00000    0.05067    0.05264 =
         0.05615    0.00114    0.00728   -0.00522
C24   1   -0.232181    0.200201    0.355965    11.00000    0.04981    0.05353 =
         0.05871    0.00572    0.01859    0.00035
C25   1   -0.102117    0.294861    0.423197    11.00000    0.07084    0.06123 =
         0.05505    0.00085    0.02278    0.00260
AFIX  43
H25   2   -0.138185    0.317599    0.491289    11.00000   -1.20000
AFIX   0
C26   1    0.081979    0.355985    0.389355    11.00000    0.06183    0.06325 =
         0.05103   -0.00263    0.00818   -0.00607
AFIX  43
H26   2    0.169978    0.418272    0.435404    11.00000   -1.20000
AFIX   0
C2    1   -0.249205    0.027252    0.092572    11.00000    0.07451    0.09729 =
         0.05908   -0.01623    0.00726   -0.02179
AFIX 137
H2A   2   -0.235014    0.109237    0.051399    11.00000   -1.50000
H2B   2   -0.351384   -0.044283    0.058549    11.00000   -1.50000
H2C   2   -0.119844   -0.012469    0.099279    11.00000   -1.50000
AFIX   0
O2    4   -0.310137    0.070364    0.193439    11.00000    0.05772    0.08268 =
         0.06390   -0.01082    0.01336   -0.02232
C3    1   -0.492731    0.183672    0.478791    11.00000    0.06558    0.10811 =
         0.07380    0.00535    0.03006    0.00113
AFIX 137
H3A   2   -0.402770    0.159968    0.535411    11.00000   -1.50000
H3B   2   -0.628717    0.137493    0.485211    11.00000   -1.50000
H3C   2   -0.496586    0.286205    0.481580    11.00000   -1.50000
AFIX   0
O3    4   -0.418663    0.135189    0.381038    11.00000    0.06318    0.08126 =
         0.06827   -0.00197    0.02777   -0.00923
HKLF    4
REM  G30k in P-1
REM R1 =  0.0709 for    1883 Fo > 4sig(Fo)  and  0.1090 for all    3039 data
REM    201 parameters refined using      0 restraints
END
WGHT      0.1064      0.0249
REM Highest difference peak  0.587,  deepest hole -0.246,  1-sigma level  0.084
Q1    1   1.1824  0.8474  0.2614  11.00000  0.05    0.32
Q2    1   0.2863  0.3314  0.1320  11.00000  0.05    0.29
;
_shelx_res_checksum              15626
loop_
_symmetry_equiv_pos_as_xyz
'x, y, z'
'-x, -y, -z'
loop_
_atom_site_type_symbol
_atom_site_label
_atom_site_fract_x
_atom_site_fract_y
_atom_site_fract_z
_atom_site_U_iso_or_equiv
_atom_site_adp_type
_atom_site_calc_flag
_atom_site_occupancy
S S1 0.32892(14) 0.32856(10) 0.05322(7) 0.0746(4) Uani d 1
C C1 0.4131(5) 0.4076(3) 0.1704(2) 0.0525(8) Uani d 1
N N1 0.5964(4) 0.4994(3) 0.1768(2) 0.0573(7) Uani d 1
H H1 0.657793 0.504603 0.119202 0.069 Uiso calc 1
C C10 0.6924(5) 0.5822(3) 0.2617(3) 0.0532(8) Uani d 1
O O1 0.6254(3) 0.5821(3) 0.34928(18) 0.0712(7) Uani d 1
C C11 0.8843(4) 0.6730(3) 0.2414(2) 0.0539(8) Uani d 1
C C12 0.9348(5) 0.7985(4) 0.3058(3) 0.0662(10) Uani d 1
H H12 0.847406 0.823665 0.357432 0.079 Uiso calc 1
C C13 1.1126(6) 0.8867(4) 0.2942(3) 0.0781(11) Uani d 1
H H13 1.145054 0.970734 0.337792 0.094 Uiso calc 1
C C14 1.2425(5) 0.8490(5) 0.2174(3) 0.0797(12) Uani d 1
H H14 1.363019 0.907938 0.209513 0.096 Uiso calc 1
C C15 1.1947(5) 0.7253(4) 0.1527(3) 0.0740(11) Uani d 1
H H15 1.282663 0.701004 0.101048 0.089 Uiso calc 1
C C16 1.0151(5) 0.6361(4) 0.1640(3) 0.0635(9) Uani d 1
H H16 0.982791 0.552392 0.120094 0.076 Uiso calc 1
N N2 0.3251(4) 0.3968(3) 0.26128(19) 0.0560(7) Uani d 1
H H2 0.397118 0.442046 0.313960 0.067 Uiso calc 1
C C21 0.1357(4) 0.3255(3) 0.2886(2) 0.0502(8) Uani d 1
C C22 0.0066(5) 0.2298(3) 0.2205(2) 0.0544(8) Uani d 1
H H22 0.043178 0.207574 0.152455 0.065 Uiso calc 1
C C23 -0.1769(5) 0.1676(3) 0.2545(2) 0.0539(8) Uani d 1
C C24 -0.2322(5) 0.2002(3) 0.3560(3) 0.0537(8) Uani d 1
C C25 -0.1021(5) 0.2949(4) 0.4232(3) 0.0621(9) Uani d 1
H H25 -0.138185 0.317599 0.491289 0.075 Uiso calc 1
C C26 0.0820(5) 0.3560(4) 0.3894(3) 0.0597(9) Uani d 1
H H26 0.169978 0.418272 0.435404 0.072 Uiso calc 1
C C2 -0.2492(6) 0.0273(4) 0.0926(3) 0.0800(12) Uani d 1
H H2A -0.235014 0.109237 0.051399 0.120 Uiso calc 1
H H2B -0.351384 -0.044283 0.058549 0.120 Uiso calc 1
H H2C -0.119844 -0.012469 0.099279 0.120 Uiso calc 1
O O2 -0.3101(3) 0.0704(3) 0.19344(18) 0.0705(7) Uani d 1
C C3 -0.4927(6) 0.1837(5) 0.4788(3) 0.0822(12) Uani d 1
H H3A -0.402770 0.159968 0.535411 0.123 Uiso calc 1
H H3B -0.628717 0.137493 0.485211 0.123 Uiso calc 1
H H3C -0.496586 0.286205 0.481580 0.123 Uiso calc 1
O O3 -0.4187(3) 0.1352(3) 0.38104(18) 0.0715(7) Uani d 1
loop_
_atom_site_aniso_label
_atom_site_aniso_U_11
_atom_site_aniso_U_22
_atom_site_aniso_U_33
_atom_site_aniso_U_12
_atom_site_aniso_U_13
_atom_site_aniso_U_23
S1 0.0804(7) 0.0811(7) 0.0543(6) -0.0276(5) 0.0185(5) -0.0112(5)
C1 0.0475(18) 0.0529(19) 0.056(2) -0.0036(14) 0.0098(14) 0.0031(15)
N1 0.0499(15) 0.0656(18) 0.0532(16) -0.0093(13) 0.0125(12) -0.0025(13)
C10 0.0481(18) 0.059(2) 0.0511(19) -0.0005(15) 0.0031(14) 0.0002(15)
O1 0.0658(15) 0.0902(18) 0.0508(14) -0.0209(12) 0.0091(11) -0.0049(12)
C11 0.0447(18) 0.059(2) 0.056(2) -0.0046(14) 0.0013(14) 0.0027(15)
C12 0.063(2) 0.071(2) 0.061(2) -0.0083(18) 0.0038(16) -0.0002(17)
C13 0.073(3) 0.073(3) 0.081(3) -0.018(2) -0.010(2) 0.009(2)
C14 0.051(2) 0.091(3) 0.093(3) -0.021(2) -0.002(2) 0.026(2)
C15 0.050(2) 0.091(3) 0.083(3) 0.0012(19) 0.0157(18) 0.021(2)
C16 0.052(2) 0.067(2) 0.071(2) 0.0025(16) 0.0069(16) 0.0079(18)
N2 0.0535(15) 0.0650(18) 0.0453(15) -0.0131(13) 0.0068(12) -0.0015(12)
C21 0.0500(18) 0.0528(19) 0.0462(18) -0.0044(14) 0.0094(13) 0.0029(13)
C22 0.0534(18) 0.063(2) 0.0443(17) -0.0072(15) 0.0099(14) -0.0006(14)
C23 0.0507(19) 0.0526(19) 0.056(2) -0.0052(14) 0.0073(14) 0.0011(15)
C24 0.0498(18) 0.0535(19) 0.059(2) 0.0003(15) 0.0186(15) 0.0057(15)
C25 0.071(2) 0.061(2) 0.055(2) 0.0026(17) 0.0228(16) 0.0009(16)
C26 0.062(2) 0.063(2) 0.0510(19) -0.0061(16) 0.0082(15) -0.0026(15)
C2 0.075(2) 0.097(3) 0.059(2) -0.022(2) 0.0073(18) -0.016(2)
O2 0.0577(14) 0.0827(17) 0.0639(15) -0.0223(12) 0.0134(11) -0.0108(12)
C3 0.066(2) 0.108(3) 0.074(3) 0.001(2) 0.0301(19) 0.005(2)
O3 0.0632(15) 0.0813(17) 0.0683(16) -0.0092(12) 0.0278(12) -0.0020(12)
loop_
_exptl_crystal_face_index_h
_exptl_crystal_face_index_k
_exptl_crystal_face_index_l
_exptl_crystal_face_perp_dist
-7 7 8 0.1545
2 12 2 0.1957
0 -2 18 0.1943
-6 -7 9 0.3229
8 6 -1 0.3262
0 1 -18 0.0702
0 -13 -3 0.2347
5 -5 14 0.1157
4 -10 -8 0.1472
loop_
_geom_angle_atom_site_label_1
_geom_angle_atom_site_label_2
_geom_angle_atom_site_label_3
_geom_angle
N2 C1 N1 114.3(3)
N2 C1 S1 127.9(2)
N1 C1 S1 117.8(2)
C10 N1 C1 129.3(3)
C10 N1 H1 115.3
C1 N1 H1 115.3
O1 C10 N1 122.4(3)
O1 C10 C11 121.6(3)
N1 C10 C11 116.1(3)
C12 C11 C16 119.3(3)
C12 C11 C10 117.2(3)
C16 C11 C10 123.5(3)
C13 C12 C11 120.9(3)
C13 C12 H12 119.5
C11 C12 H12 119.5
C12 C13 C14 119.5(4)
C12 C13 H13 120.3
C14 C13 H13 120.3
C15 C14 C13 120.4(3)
C15 C14 H14 119.8
C13 C14 H14 119.8
C14 C15 C16 120.3(3)
C14 C15 H15 119.9
C16 C15 H15 119.9
C11 C16 C15 119.6(3)
C11 C16 H16 120.2
C15 C16 H16 120.2
C1 N2 C21 132.8(3)
C1 N2 H2 113.6
C21 N2 H2 113.6
C26 C21 C22 119.7(3)
C26 C21 N2 116.0(3)
C22 C21 N2 124.3(3)
C23 C22 C21 119.7(3)
C23 C22 H22 120.1
C21 C22 H22 120.1
O2 C23 C22 123.4(3)
O2 C23 C24 116.1(3)
C22 C23 C24 120.4(3)
O3 C24 C25 124.8(3)
O3 C24 C23 115.8(3)
C25 C24 C23 119.4(3)
C24 C25 C26 120.1(3)
C24 C25 H25 119.9
C26 C25 H25 119.9
C21 C26 C25 120.6(3)
C21 C26 H26 119.7
C25 C26 H26 119.7
O2 C2 H2A 109.5
O2 C2 H2B 109.5
H2A C2 H2B 109.5
O2 C2 H2C 109.5
H2A C2 H2C 109.5
H2B C2 H2C 109.5
C23 O2 C2 117.0(2)
O3 C3 H3A 109.5
O3 C3 H3B 109.5
H3A C3 H3B 109.5
O3 C3 H3C 109.5
H3A C3 H3C 109.5
H3B C3 H3C 109.5
C24 O3 C3 116.7(3)
loop_
_geom_bond_atom_site_label_1
_geom_bond_atom_site_label_2
_geom_bond_distance
S1 C1 1.663(3)
C1 N2 1.330(4)
C1 N1 1.399(4)
N1 C10 1.372(4)
N1 H1 0.8600
C10 O1 1.224(4)
C10 C11 1.490(4)
C11 C12 1.386(4)
C11 C16 1.391(4)
C12 C13 1.379(5)
C12 H12 0.9300
C13 C14 1.384(6)
C13 H13 0.9300
C14 C15 1.373(5)
C14 H14 0.9300
C15 C16 1.392(4)
C15 H15 0.9300
C16 H16 0.9300
N2 C21 1.421(3)
N2 H2 0.8600
C21 C26 1.372(4)
C21 C22 1.389(4)
C22 C23 1.387(4)
C22 H22 0.9300
C23 O2 1.365(4)
C23 C24 1.387(4)
C24 O3 1.373(3)
C24 C25 1.382(5)
C25 C26 1.386(4)
C25 H25 0.9300
C26 H26 0.9300
C2 O2 1.414(4)
C2 H2A 0.9600
C2 H2B 0.9600
C2 H2C 0.9600
C3 O3 1.426(4)
C3 H3A 0.9600
C3 H3B 0.9600
C3 H3C 0.9600
loop_
_geom_hbond_atom_site_label_D
_geom_hbond_atom_site_label_H
_geom_hbond_atom_site_label_A
_geom_hbond_site_symmetry_A
_geom_hbond_distance_DH
_geom_hbond_distance_HA
_geom_hbond_distance_DA
_geom_hbond_angle_DHA
N2 H2 O1 . 0.86 1.90 2.633(3) 142.5
N1 H1 S1 2_665 0.86 2.79 3.485(3) 139.1
C22 H22 S1 . 0.93 2.54 3.203(3) 129.0
C14 H14 O2 1_765 0.93 2.52 3.453(4) 178.4
