#------------------------------------------------------------------------------
#$Date: 2019-10-28 09:23:29 +0200 (Mon, 28 Oct 2019) $
#$Revision: 219800 $
#$URL: file:///home/coder/svn-repositories/cod/cif/2/02/06/2020659.cif $
#------------------------------------------------------------------------------
#
# This file is available in the Crystallography Open Database (COD),
# http://www.crystallography.net/. The original data for this entry
# were provided by IUCr Journals, http://journals.iucr.org/.
#
# The file may be used within the scientific community so long as
# proper attribution is given to the journal article from which the
# data were obtained.
#
data_2020659
loop_
_publ_author_name
'Ren, Yi'
'Lee, Semin'
'Bertke, Jeffery'
'Gray, Danielle L.'
'Moore, Jeffrey S.'
_publ_section_title
;
 Synthesis and structures of
 11,11,12,12-tetracyano-2,6-diiodo-9,10-anthraquinodimethane and its 2:1
 cocrystals with anthracene, pyrene and tetrathiafulvalene
;
_journal_issue                   12
_journal_name_full               'Acta Crystallographica Section C'
_journal_page_first              923
_journal_page_last               931
_journal_paper_doi               10.1107/S2053229616016387
_journal_volume                  72
_journal_year                    2016
_chemical_formula_iupac          '2C20 H6 I2 N4, C6 H4 S4'
_chemical_formula_moiety         '2(C20 H6 I2 N4), C6 H4 S4'
_chemical_formula_sum            'C46 H16 I4 N8 S4'
_chemical_formula_weight         1326.50
_chemical_name_systematic
;
11,11,12,12-Tetracyano-2,6-diiodo-9,10-anthraquinodimethane--tetrathiafulvalene
(2/1)
;
_space_group_crystal_system      triclinic
_space_group_IT_number           2
_space_group_name_Hall           '-P 1'
_space_group_name_H-M_alt        'P -1'
_symmetry_space_group_name_Hall  '-P 1'
_symmetry_space_group_name_H-M   'P -1'
_atom_sites_solution_hydrogens   geom
_audit_creation_method           SHELXL-2014/6
_cell_angle_alpha                80.247(9)
_cell_angle_beta                 74.695(9)
_cell_angle_gamma                70.392(8)
_cell_formula_units_Z            1
_cell_length_a                   8.615(2)
_cell_length_b                   11.631(3)
_cell_length_c                   12.450(3)
_cell_measurement_reflns_used    9509
_cell_measurement_temperature    273(2)
_cell_measurement_theta_max      27.16
_cell_measurement_theta_min      2.64
_cell_volume                     1129.0(5)
_computing_cell_refinement
;
SAINT (Bruker, 2014)
;
_computing_data_collection
;
APEX2 (Bruker, 2014)
;
_computing_data_reduction
;
<i>XPREP</i> (Bruker, 2014) and SADABS (Bruker, 2014)
;
_computing_molecular_graphics
;
SHELXTL (Bruker, 2014) and OLEX2 (Dolomanov <i>et al.</i>,
2009)
;
_computing_publication_material
;
<i>XCIF</i> (Bruker, 2014)
;
_computing_structure_refinement
;
SHELXL2014 (Sheldrick, 2015b)
;
_computing_structure_solution
;
SHELXT2014 (Sheldrick, 2015a)
;
_diffrn_ambient_temperature      273(2)
_diffrn_measured_fraction_theta_full 0.999
_diffrn_measured_fraction_theta_max 0.993
_diffrn_measurement_device       'Bruker D8 Venture/Photon 100'
_diffrn_measurement_method       'profile data from \f and \w scans'
_diffrn_radiation_monochromator  'multilayer mirrors'
_diffrn_radiation_source         'microfocus sealed tube'
_diffrn_radiation_type           MoK\a
_diffrn_radiation_wavelength     0.71073
_diffrn_reflns_av_R_equivalents  0.0273
_diffrn_reflns_limit_h_max       11
_diffrn_reflns_limit_h_min       -11
_diffrn_reflns_limit_k_max       14
_diffrn_reflns_limit_k_min       -14
_diffrn_reflns_limit_l_max       15
_diffrn_reflns_limit_l_min       -15
_diffrn_reflns_number            29346
_diffrn_reflns_theta_full        25.242
_diffrn_reflns_theta_max         27.201
_diffrn_reflns_theta_min         2.412
_exptl_absorpt_coefficient_mu    2.989
_exptl_absorpt_correction_T_max  0.97809
_exptl_absorpt_correction_T_min  0.92580
_exptl_absorpt_correction_type   integration
_exptl_absorpt_process_details
;
(SADABS; Bruker, 2014)
;
_exptl_crystal_colour            black
_exptl_crystal_density_diffrn    1.936
_exptl_crystal_density_method    'not measured'
_exptl_crystal_description       prism
_exptl_crystal_F_000             624
_exptl_crystal_size_max          0.455
_exptl_crystal_size_mid          0.272
_exptl_crystal_size_min          0.116
_refine_diff_density_max         1.714
_refine_diff_density_min         -1.199
_refine_ls_extinction_coef       0.0373(11)
_refine_ls_extinction_expression Fc^*^=kFc[1+0.001xFc^2^\l^3^/sin(2\q)]^-1/4^
_refine_ls_extinction_method     SHELXL
_refine_ls_goodness_of_fit_ref   1.036
_refine_ls_hydrogen_treatment    constr
_refine_ls_matrix_type           full
_refine_ls_number_parameters     281
_refine_ls_number_reflns         4993
_refine_ls_number_restraints     0
_refine_ls_restrained_S_all      1.036
_refine_ls_R_factor_all          0.0442
_refine_ls_R_factor_gt           0.0406
_refine_ls_shift/su_max          0.002
_refine_ls_shift/su_mean         0.000
_refine_ls_structure_factor_coef Fsqd
_refine_ls_weighting_details
'w=1/[\s^2^(Fo^2^)+(0.0457P)^2^+2.8841P] where P=(Fo^2^+2Fc^2^)/3'
_refine_ls_weighting_scheme      calc
_refine_ls_wR_factor_gt          0.1012
_refine_ls_wR_factor_ref         0.1036
_reflns_number_gt                4572
_reflns_number_total             4993
_reflns_threshold_expression     'I > 2\s(I)'
_cod_data_source_file            yo3023sup1.cif
_cod_data_source_block           III
_cod_depositor_comments
;
Adding full bibliography for 2020656--2020659.cif.

2019-10-16
Z value and formula fixed to values more according to usual
chemical conventions.                 miguel
;
_cod_original_formula_sum            'C23 H8 I2 N4 S2'
_cod_original_formula_weight         658.25
_cod_original_formula_moiety         'C20 H6 I2 N4, 0.5(C6 H4 S4)'
_cod_original_formula_iupac          'C20 H6 I2 N4, 0.5C6 H4 S4'
_cod_original_formula_units_Z            2
_cod_database_code               2020659
_cod_database_fobs_code          2020659
_shelx_space_group_comment
;
The symmetry employed for this shelxl refinement is uniquely defined
by the following loop, which should always be used as a source of
symmetry information in preference to the above space-group names.
They are only intended as comments.
;
_shelx_estimated_absorpt_t_min   0.343
_shelx_estimated_absorpt_t_max   0.723
_shelx_hkl_file
;
  -1   0   0  242.85    6.70
   1   0   0  222.03    6.70
  -2   0   0  629.65   17.35
  -2   0   0  602.57   17.34
   2   0   0  576.80   17.34
  -3   0   0  404.40   11.31
  -3   0   0  398.95   11.42
  -3   0   0  369.58   11.30
   3   0   0  397.50   11.31
   3   0   0  380.15   11.30
  -4   0   0  121.78    3.70
  -4   0   0  127.45    3.71
   4   0   0  125.72    3.71
   4   0   0  114.53    3.68
  -5   0   0   55.45    1.76
  -5   0   0   52.55    1.88
  -5   0   0   52.70    1.76
   5   0   0   53.44    1.77
   5   0   0   56.08    1.92
   5   0   0   51.25    1.75
  -6   0   0   16.77    0.69
  -6   0   0   17.39    0.70
  -6   0   0   15.70    0.79
   6   0   0   16.72    0.69
   6   0   0   15.79    0.78
   6   0   0   15.66    0.66
  -7   0   0   28.16    1.08
  -7   0   0   27.26    1.25
  -7   0   0   29.98    1.08
   7   0   0   27.46    1.05
   7   0   0   29.25    1.10
  -8   0   0    1.88    0.27
  -8   0   0    2.27    0.26
  -8   0   0    2.49    0.31
   8   0   0    1.98    0.36
   8   0   0    1.97    0.31
   8   0   0    1.88    0.36
  -9   0   0    0.15    0.17
  -9   0   0   -0.21    0.22
   9   0   0    0.24    0.24
   9   0   0    0.28    0.34
   9   0   0    0.25    0.25
 -10   0   0    1.54    0.32
 -10   0   0    1.53    0.33
  10   0   0    1.98    0.33
  10   0   0    1.83    0.34
  10   0   0    0.81    0.49
   9  -1   0    9.55    0.72
   9  -1   0   11.21    0.62
   9  -1   0   11.89    0.58
  -9   1   0   10.50    0.57
  -9   1   0   10.00    0.60
  -9   1   0   10.79    0.72
   8  -1   0    7.18    0.55
   8  -1   0    7.08    0.46
   8  -1   0    7.45    0.42
  -8   1   0    7.35    0.42
  -8   1   0    6.97    0.44
  -8   1   0    7.10    0.53
   7  -1   0   24.22    0.93
   7  -1   0   24.52    0.98
   7  -1   0   24.05    1.10
  -7   1   0   25.23    0.94
  -7   1   0   23.34    0.97
  -7   1   0   23.16    1.12
   6  -1   0   56.62    1.94
   6  -1   0   59.10    2.16
   6  -1   0   60.48    2.03
  -6   1   0   61.43    1.96
  -6   1   0   59.45    2.01
  -6   1   0   58.09    2.14
   5  -1   0    5.12    0.28
   5  -1   0    4.61    0.30
   5  -1   0    4.36    0.35
  -5   1   0    5.18    0.28
  -5   1   0    4.44    0.34
  -5   1   0    4.32    0.28
   4  -1   0   77.92    2.54
   4  -1   0   76.73    2.43
   4  -1   0   73.43    2.38
  -4   1   0   76.13    2.50
  -4   1   0   79.76    2.40
  -4   1   0   73.97    2.41
   3  -1   0    9.37    0.42
   3  -1   0    9.04    0.40
   3  -1   0    9.82    0.47
  -3   1   0   10.09    0.41
  -3   1   0    9.05    0.45
  -3   1   0    9.23    0.41
   2  -1   0   87.10    2.63
   2  -1   0   87.83    2.68
   2  -1   0   82.89    2.61
  -2   1   0   83.51    2.62
  -2   1   0   91.95    2.62
  -2   1   0   87.22    2.65
   1  -1   0    0.76    0.07
   1  -1   0    0.92    0.07
   1  -1   0    0.67    0.06
   1  -1   0    0.80    0.05
  -1   1   0    0.62    0.06
  -1   1   0    0.72    0.04
  -1   1   0    0.62    0.06
  -1   1   0    0.81    0.06
  -1  -1   0   19.02    0.62
  -1  -1   0   18.60    0.62
  -1  -1   0   20.73    0.64
   1   1   0   20.94    0.64
   1   1   0   18.69    0.62
  -2  -1   0  189.43    5.91
  -2  -1   0  216.43    5.94
  -2  -1   0  217.41    6.00
  -2  -1   0  194.16    5.91
   2   1   0  211.61    5.92
   2   1   0  198.38    5.93
   2   1   0  200.36    5.92
  -3  -1   0   16.32    0.54
  -3  -1   0   15.56    0.56
  -3  -1   0   17.13    0.65
  -3  -1   0   15.91    0.59
   3   1   0   16.42    0.57
   3   1   0   16.62    0.55
   3   1   0   14.79    0.58
  -4  -1   0   78.60    2.30
  -4  -1   0   70.62    2.25
  -4  -1   0   71.81    2.36
   4   1   0   75.57    2.26
   4   1   0   68.61    2.27
  -5  -1   0    1.88    0.22
  -5  -1   0    2.33    0.17
  -5  -1   0    1.89    0.18
   5   1   0    1.96    0.18
   5   1   0    2.48    0.17
  -6  -1   0   65.66    2.38
  -6  -1   0   69.31    2.21
  -6  -1   0   74.44    2.27
   6   1   0   65.73    2.23
   6   1   0   69.03    2.21
  -7  -1   0   10.19    0.50
  -7  -1   0    9.75    0.60
  -7  -1   0    9.55    0.47
   7   1   0    8.40    0.56
   7   1   0   10.09    0.51
   7   1   0   10.03    0.47
  -8  -1   0   18.52    0.77
  -8  -1   0   19.17    0.98
   8   1   0   18.27    0.78
   8   1   0   18.65    0.78
   8   1   0   17.87    0.89
  -9  -1   0    3.17    0.35
  -9  -1   0    3.89    0.40
   9   1   0    4.42    0.42
   9   1   0    4.24    0.47
   9   1   0    3.50    0.36
 -10  -1   0    6.71    0.53
 -10  -1   0    8.09    0.59
  10   1   0    8.25    0.54
  10   1   0    8.08    0.59
  10   1   0    6.33    0.64
   9  -2   0    0.24    0.28
   9  -2   0    0.35    0.41
   9  -2   0    0.37    0.33
  -9   2   0    0.09    0.28
  -9   2   0    0.30    0.26
  -9   2   0    0.20    0.21
  -9   2   0    0.30    0.30
   8  -2   0    0.20    0.25
   8  -2   0    0.30    0.32
  -8   2   0    0.36    0.24
  -8   2   0    0.20    0.18
   7  -2   0    4.73    0.31
   7  -2   0    4.34    0.45
   7  -2   0    4.50    0.35
  -7   2   0    4.06    0.38
  -7   2   0    4.60    0.35
  -7   2   0    3.77    0.38
   6  -2   0    0.47    0.19
   6  -2   0    0.23    0.15
  -6   2   0    0.49    0.14
   5  -2   0   27.05    1.19
   5  -2   0   26.17    1.01
   5  -2   0   28.03    1.09
  -5   2   0   29.82    1.03
  -5   2   0   27.01    1.14
  -5   2   0   28.01    1.08
   4  -2   0   64.87    2.24
   4  -2   0   62.74    2.06
   4  -2   0   64.96    2.14
  -4   2   0   64.39    2.12
  -4   2   0   64.06    2.17
   3  -2   0  208.66    6.47
   3  -2   0  217.97    6.24
   3  -2   0  210.39    6.34
   3  -2   0  214.45    6.40
  -3   2   0  216.91    6.41
  -3   2   0  214.96    6.39
  -3   2   0  217.26    6.34
   2  -2   0  174.01    5.30
   2  -2   0  175.69    5.34
   2  -2   0  179.91    5.25
   2  -2   0  178.60    5.38
  -2   2   0  175.86    5.32
  -2   2   0  177.93    5.30
  -2   2   0  180.12    5.34
  -2   2   0  180.82    5.32
  -2   2   0  189.64    5.20
   1  -2   0  263.67    8.16
   1  -2   0  265.96    8.14
   1  -2   0  284.11    8.18
   1  -2   0  280.05    8.20
  -1   2   0  270.91    8.17
  -1   2   0  279.81    8.16
  -1   2   0  278.22    8.16
  -1   2   0  279.79    8.13
  -1   2   0  316.69    8.16
  -1   2   0  282.87    8.18
   0  -2   0  305.13    8.68
   0  -2   0  300.40    8.68
   0  -2   0  311.46    8.70
   0  -2   0  289.02    8.66
   0  -2   0  306.16    8.69
   0   2   0  293.82    8.67
   0   2   0  292.90    8.67
   0   2   0  296.59    8.68
   0   2   0  288.61    8.67
   0   2   0  303.93    8.67
  -1  -2   0  428.38   12.52
  -1  -2   0  445.02   12.56
  -1  -2   0  433.88   12.53
   1   2   0  442.33   12.53
   1   2   0  419.85   12.51
  -2  -2   0  642.70   17.74
  -2  -2   0  644.27   17.76
  -2  -2   0  570.34   17.76
  -2  -2   0  633.52   17.75
   2   2   0  638.32   17.76
   2   2   0  627.90   17.74
   2   2   0  554.77   17.76
  -3  -2   0   30.68    1.02
  -3  -2   0   29.27    0.98
  -3  -2   0   29.67    1.00
   3   2   0   30.08    0.99
   3   2   0   30.04    1.01
   3   2   0   30.39    1.01
  -4  -2   0  267.95    8.04
  -4  -2   0  270.51    8.04
  -4  -2   0  276.27    8.17
  -4  -2   0  290.78    8.13
   4   2   0  273.10    8.04
   4   2   0  267.98    8.10
   4   2   0  283.56    8.05
  -5  -2   0   20.05    0.88
  -5  -2   0   21.38    0.73
  -5  -2   0   20.97    0.77
  -5  -2   0   22.01    0.83
   5   2   0   19.64    0.81
   5   2   0   23.42    0.75
   5   2   0   21.00    0.77
  -6  -2   0   28.76    1.06
  -6  -2   0   27.06    0.99
  -6  -2   0   30.05    1.18
   6   2   0   26.65    0.99
   6   2   0   24.73    1.02
  -7  -2   0    1.58    0.24
  -7  -2   0    1.30    0.18
  -7  -2   0    1.29    0.23
   7   2   0    1.34    0.20
  -8  -2   0    0.47    0.15
  -8  -2   0    0.19    0.14
  -8  -2   0    0.21    0.23
   8   2   0    0.49    0.15
   8   2   0    0.46    0.20
  -9  -2   0    1.10    0.23
  -9  -2   0    1.39    0.20
   9   2   0    1.77    0.31
   9   2   0    1.14    0.22
   9   2   0    1.66    0.27
 -10  -2   0    0.06    0.25
 -10  -2   0    0.26    0.31
  10   2   0    0.48    0.29
  10   2   0    0.36    0.42
   9  -3   0    6.10    0.63
   9  -3   0    5.54    0.76
  -9   3   0    5.05    0.48
  -9   3   0    6.35    0.52
  -9   3   0    5.51    0.58
  -9   3   0    6.49    0.66
   8  -3   0    0.64    0.22
   8  -3   0    0.12    0.37
   8  -3   0    0.26    0.29
  -8   3   0    0.47    0.19
  -8   3   0    0.70    0.21
  -8   3   0    0.44    0.28
  -8   3   0    0.50    0.25
   7  -3   0   29.27    1.38
   7  -3   0   29.37    1.13
   7  -3   0   31.50    1.25
  -7   3   0   31.04    1.19
  -7   3   0   29.58    1.37
  -7   3   0   30.22    1.13
  -7   3   0   30.47    1.23
   6  -3   0    3.86    0.28
   6  -3   0    3.82    0.34
  -6   3   0    3.67    0.35
  -6   3   0    3.70    0.32
   5  -3   0  140.97    4.37
   5  -3   0  141.05    4.49
   5  -3   0  140.84    4.64
  -5   3   0  145.19    4.47
  -5   3   0  138.51    4.53
  -5   3   0  143.97    4.37
   4  -3   0    1.77    0.20
   4  -3   0    1.86    0.17
   4  -3   0    2.46    0.29
  -4   3   0    1.92    0.20
  -4   3   0    2.12    0.17
  -4   3   0    1.70    0.21
   3  -3   0  251.80    7.47
   3  -3   0  248.61    7.22
   3  -3   0  251.07    7.39
   3  -3   0  241.32    7.31
  -3   3   0  249.18    7.30
  -3   3   0  233.04    7.32
  -3   3   0  252.30    7.37
  -3   3   0  251.18    7.38
  -3   3   0  238.87    7.34
   2  -3   0    3.01    0.22
   2  -3   0    3.24    0.24
   2  -3   0    3.56    0.22
   2  -3   0    3.52    0.23
  -2   3   0    3.31    0.23
  -2   3   0    3.47    0.22
  -2   3   0    3.56    0.22
  -2   3   0    3.31    0.14
  -2   3   0    3.13    0.20
  -2   3   0    3.68    0.22
   1  -3   0  169.65    5.03
   1  -3   0  167.14    5.01
   1  -3   0  166.92    5.05
   1  -3   0  167.20    5.00
  -1   3   0  164.54    5.00
  -1   3   0  165.65    5.02
  -1   3   0  171.86    5.02
  -1   3   0  171.26    4.98
  -1   3   0  164.99    5.18
  -1   3   0  167.30    5.00
   0  -3   0   23.28    0.87
   0  -3   0   23.71    0.84
   0  -3   0   23.97    0.86
   0  -3   0   25.24    0.88
   0  -3   0   23.03    0.85
   0   3   0   23.69    0.84
   0   3   0   23.32    0.85
   0   3   0   24.14    0.85
   0   3   0   22.35    0.85
   0   3   0   25.37    0.86
  -1  -3   0    3.58    0.22
  -1  -3   0    3.22    0.19
  -1  -3   0    3.42    0.20
  -1  -3   0    3.23    0.20
   1   3   0    3.19    0.20
   1   3   0    3.14    0.21
   1   3   0    3.09    0.20
   1   3   0    3.16    0.19
  -2  -3   0    2.78    0.18
  -2  -3   0    2.45    0.18
  -2  -3   0    2.41    0.17
  -2  -3   0    2.63    0.18
   2   3   0    2.72    0.18
   2   3   0    2.77    0.19
   2   3   0    3.23    0.18
   2   3   0    2.72    0.17
  -3  -3   0    0.75    0.09
  -3  -3   0    0.74    0.08
  -3  -3   0    0.79    0.10
  -3  -3   0    0.61    0.11
   3   3   0    0.63    0.10
   3   3   0    0.76    0.09
   3   3   0    0.66    0.10
  -4  -3   0   42.06    1.48
  -4  -3   0   44.61    1.46
  -4  -3   0   46.51    1.52
   4   3   0   46.67    1.47
   4   3   0   45.46    1.50
   4   3   0   44.25    1.51
  -5  -3   0   65.36    2.08
  -5  -3   0   62.11    2.12
  -5  -3   0   62.50    1.99
  -5  -3   0   60.70    1.98
   5   3   0   61.03    2.06
   5   3   0   63.87    2.01
   5   3   0   61.18    1.97
  -6  -3   0   20.93    0.75
  -6  -3   0   21.40    0.85
  -6  -3   0   20.25    0.77
  -6  -3   0   19.30    0.91
   6   3   0   19.30    0.84
   6   3   0   21.27    0.78
  -7  -3   0   39.99    1.27
  -7  -3   0   38.68    1.35
  -7  -3   0   40.17    1.45
  -7  -3   0   38.39    1.57
   7   3   0   37.83    1.44
   7   3   0   39.99    1.37
  -8  -3   0   15.13    0.66
  -8  -3   0   16.46    0.88
  -8  -3   0   15.82    0.86
   8   3   0   15.68    0.74
  -9  -3   0    3.35    0.47
  -9  -3   0    3.70    0.38
  -9  -3   0    3.64    0.30
   9   3   0    3.39    0.31
   9   3   0    3.69    0.43
 -10  -3   0    7.18    0.47
 -10  -3   0    7.40    0.74
 -10  -3   0    7.45    0.52
 -10  -3   0    7.01    0.56
  10   3   0    7.07    0.48
  10   3   0    6.77    0.66
   8  -4   0    0.65    0.46
   8  -4   0   -0.14    0.25
   8  -4   0    0.31    0.36
  -8   4   0   -0.21    0.22
  -8   4   0   -0.08    0.23
  -8   4   0    0.59    0.29
  -8   4   0    0.09    0.31
   7  -4   0    3.07    0.50
   7  -4   0    3.89    0.44
   7  -4   0    4.20    0.33
  -7   4   0    3.17    0.37
  -7   4   0    3.05    0.41
  -7   4   0    3.48    0.35
   6  -4   0    4.96    0.33
  -6   4   0    5.07    0.43
  -6   4   0    4.90    0.40
  -6   4   0    4.22    0.32
  -6   4   0    4.18    0.35
   5  -4   0    7.29    0.45
   5  -4   0    5.15    0.48
   5  -4   0    5.92    0.35
  -5   4   0    6.24    0.41
  -5   4   0    5.34    0.42
  -5   4   0    6.74    0.37
   4  -4   0   24.34    1.12
   4  -4   0   24.19    1.04
   4  -4   0   24.45    0.88
   4  -4   0   24.63    0.97
  -4   4   0   25.32    1.04
  -4   4   0   23.89    0.99
  -4   4   0   24.05    1.02
  -4   4   0   25.25    0.96
  -4   4   0   25.09    1.06
   3  -4   0  294.79    8.62
   3  -4   0  294.41    8.70
   3  -4   0  289.22    8.87
   3  -4   0  289.10    8.78
  -3   4   0  284.68    8.71
  -3   4   0  293.04    8.68
  -3   4   0  293.71    8.73
  -3   4   0  295.39    8.73
  -3   4   0  299.83    8.78
   2  -4   0   43.25    1.57
   2  -4   0   43.20    1.53
   2  -4   0   41.35    1.48
   2  -4   0   41.40    1.45
  -2   4   0   41.78    1.48
  -2   4   0   43.22    1.52
  -2   4   0   42.08    1.47
  -2   4   0   41.94    1.49
  -2   4   0   43.29    1.28
  -2   4   0   43.53    1.47
   1  -4   0  628.32   17.83
   1  -4   0  621.80   17.82
   1  -4   0  628.63   17.85
   1  -4   0  623.77   17.88
  -1   4   0  615.30   17.81
  -1   4   0  609.18   17.80
  -1   4   0  541.39   17.75
  -1   4   0  608.68   17.84
  -1   4   0  641.56   17.84
   0  -4   0  143.44    4.40
   0  -4   0  140.04    4.33
   0  -4   0  141.35    4.36
   0  -4   0  142.97    4.38
   0  -4   0  144.41    4.37
   0   4   0  146.85    4.37
   0   4   0  145.75    4.37
   0   4   0  140.28    4.34
   0   4   0  145.96    4.36
  -1  -4   0  827.59   24.05
  -1  -4   0  839.92   24.03
  -1  -4   0  839.68   24.07
  -1  -4   0  869.14   24.03
  -1  -4   0  840.06   24.01
   1   4   0  821.75   23.99
   1   4   0  842.37   24.06
   1   4   0  736.51   24.02
   1   4   0  864.56   24.04
  -2  -4   0  251.97    7.31
  -2  -4   0  244.86    7.30
  -2  -4   0  251.36    7.33
  -2  -4   0  241.27    7.35
   2   4   0  254.07    7.36
   2   4   0  246.10    7.30
   2   4   0  242.16    7.28
   2   4   0  245.01    7.32
  -3  -4   0  338.95    9.76
  -3  -4   0  328.55    9.78
  -3  -4   0  328.14    9.80
  -3  -4   0  326.02    9.82
   3   4   0  340.88    9.83
   3   4   0  334.45    9.76
   3   4   0  334.66    9.80
  -4  -4   0  374.10   11.03
  -4  -4   0  373.68   11.00
  -4  -4   0  370.90   11.02
  -4  -4   0  374.24   10.95
   4   4   0  384.79   11.03
   4   4   0  372.30   10.95
   4   4   0  373.61   11.03
  -5  -4   0   60.37    1.95
  -5  -4   0   56.20    1.91
  -5  -4   0   53.84    1.84
  -5  -4   0   57.02    1.90
   5   4   0   58.30    1.91
   5   4   0   56.59    1.93
   5   4   0   55.70    1.85
  -6  -4   0  129.73    4.06
  -6  -4   0  133.45    4.10
  -6  -4   0  132.47    3.99
  -6  -4   0  127.21    3.95
  -6  -4   0  126.90    4.13
   6   4   0  128.05    3.95
   6   4   0  125.18    4.07
   6   4   0  133.80    3.99
  -7  -4   0    7.97    0.39
  -7  -4   0    8.28    0.47
  -7  -4   0    7.72    0.48
  -7  -4   0    7.21    0.50
  -7  -4   0    7.82    0.39
   7   4   0    7.02    0.46
   7   4   0    7.64    0.39
  -8  -4   0    4.10    0.38
  -8  -4   0    3.77    0.22
  -8  -4   0    3.28    0.26
   8   4   0    3.49    0.37
   8   4   0    3.13    0.26
  -9  -4   0   13.41    0.66
  -9  -4   0   13.10    0.79
  -9  -4   0   13.39    0.61
   9   4   0   13.73    0.71
   9   4   0   13.97    0.62
 -10  -4   0    0.33    0.23
 -10  -4   0    0.19    0.34
 -10  -4   0   -0.03    0.19
 -10  -4   0    0.11    0.31
  10   4   0    0.10    0.36
  10   4   0    0.11    0.24
   8  -5   0    4.89    0.64
   8  -5   0    2.99    0.55
   8  -5   0    4.00    0.49
  -8   5   0    4.72    0.50
  -8   5   0    2.85    0.57
  -8   5   0    4.29    0.51
  -8   5   0    2.89    0.42
   7  -5   0    7.13    0.58
   7  -5   0    5.58    0.67
   7  -5   0    6.96    0.46
  -7   5   0    6.81    0.49
  -7   5   0    5.90    0.41
  -7   5   0    6.54    0.57
  -7   5   0    6.94    0.53
   6  -5   0   19.40    0.96
   6  -5   0   20.58    0.87
   6  -5   0   20.18    1.10
  -6   5   0   20.24    1.00
  -6   5   0   20.99    0.96
  -6   5   0   20.63    1.04
   5  -5   0  109.51    3.30
   5  -5   0  109.72    3.64
   5  -5   0  108.55    3.49
  -5   5   0   94.79    3.80
  -5   5   0  113.80    3.62
  -5   5   0  111.64    3.68
   4  -5   0   19.15    0.76
   4  -5   0   17.77    0.96
   4  -5   0   18.75    0.82
   4  -5   0   17.73    0.87
  -4   5   0   19.47    0.86
  -4   5   0   20.47    0.83
  -4   5   0   19.50    0.90
  -4   5   0   19.57    0.89
  -4   5   0   19.06    0.85
   3  -5   0   78.80    2.52
   3  -5   0   77.88    2.74
   3  -5   0   76.79    2.66
   3  -5   0   77.87    2.58
  -3   5   0   77.31    2.60
  -3   5   0   76.75    2.60
  -3   5   0   77.86    2.56
  -3   5   0   76.42    2.58
  -3   5   0   80.03    2.65
   2  -5   0    3.72    0.32
   2  -5   0    4.32    0.31
   2  -5   0    3.61    0.29
  -2   5   0    4.30    0.31
  -2   5   0    4.15    0.28
  -2   5   0    4.04    0.28
  -2   5   0    4.29    0.28
  -2   5   0    4.36    0.18
  -2   5   0    3.54    0.29
   1  -5   0    9.97    0.51
   1  -5   0    8.91    0.49
   1  -5   0   10.05    0.54
   1  -5   0    9.45    0.49
  -1   5   0    9.69    0.49
  -1   5   0   10.06    0.51
  -1   5   0   10.42    0.49
  -1   5   0    9.84    0.49
   0  -5   0   11.27    0.54
   0  -5   0   12.15    0.57
   0  -5   0   11.31    0.58
   0  -5   0   11.51    0.59
   0  -5   0   11.66    0.56
   0   5   0   11.39    0.56
   0   5   0   11.57    0.54
   0   5   0   12.18    0.57
   0   5   0   13.01    0.59
   0   5   0   12.29    0.57
  -1  -5   0    1.18    0.15
  -1  -5   0    1.17    0.13
  -1  -5   0    1.11    0.14
  -1  -5   0    1.35    0.15
  -1  -5   0    1.36    0.16
   1   5   0    1.20    0.14
   1   5   0    1.38    0.13
   1   5   0    1.01    0.15
   1   5   0    1.03    0.14
   1   5   0    1.32    0.15
  -2  -5   0    0.96    0.14
  -2  -5   0    0.99    0.13
  -2  -5   0    1.19    0.15
   2   5   0    1.06    0.16
   2   5   0    1.20    0.15
   2   5   0    0.90    0.13
   2   5   0    1.22    0.12
   2   5   0    1.20    0.15
  -3  -5   0  132.07    4.18
  -3  -5   0  136.45    4.11
  -3  -5   0  132.49    4.11
  -3  -5   0  131.19    4.14
   3   5   0  137.27    4.18
   3   5   0  128.69    4.07
   3   5   0  133.53    4.14
   3   5   0  134.92    4.10
  -4  -5   0    8.10    0.44
  -4  -5   0    8.68    0.43
  -4  -5   0    8.15    0.43
  -4  -5   0    7.37    0.46
   4   5   0    8.65    0.43
   4   5   0    8.23    0.46
   4   5   0    7.94    0.45
  -5  -5   0   58.05    2.04
  -5  -5   0   59.08    1.95
  -5  -5   0   58.72    2.02
  -5  -5   0   58.53    2.02
   5   5   0   60.71    2.04
   5   5   0   58.82    2.04
   5   5   0   60.04    1.96
  -6  -5   0   22.22    0.85
  -6  -5   0   20.51    0.87
  -6  -5   0   20.22    0.94
  -6  -5   0   21.46    0.93
  -6  -5   0   20.87    0.90
   6   5   0   21.51    0.94
   6   5   0   22.30    0.89
   6   5   0   22.60    0.86
  -7  -5   0   70.87    2.30
  -7  -5   0   71.47    2.52
  -7  -5   0   73.53    2.33
  -7  -5   0   73.91    2.47
  -7  -5   0   63.39    2.55
   7   5   0   72.64    2.30
   7   5   0   67.70    2.43
  -8  -5   0   15.81    0.65
  -8  -5   0   16.86    0.67
  -8  -5   0   14.80    0.75
  -8  -5   0   15.27    0.85
   8   5   0   14.44    0.83
   8   5   0   14.33    0.76
  -9  -5   0   10.95    0.69
  -9  -5   0    9.94    0.58
  -9  -5   0   11.21    0.47
  -9  -5   0   10.34    0.52
   9   5   0   10.99    0.66
   9   5   0   10.49    0.52
 -10  -5   0   14.35    0.96
 -10  -5   0   15.68    0.76
 -10  -5   0   14.74    0.66
 -10  -5   0   13.56    0.78
  10   5   0   14.20    0.84
   7  -6   0    3.42    0.61
   7  -6   0    4.43    0.45
   7  -6   0    3.64    0.58
  -7   6   0    3.40    0.54
  -7   6   0    3.24    0.39
  -7   6   0    2.75    0.49
   6  -6   0    1.40    0.45
   6  -6   0    1.39    0.31
  -6   6   0    1.62    0.35
  -6   6   0    1.48    0.29
   5  -6   0    0.31    0.31
   5  -6   0    0.47    0.16
   5  -6   0    0.46    0.18
   5  -6   0    0.78    0.26
  -5   6   0    0.66    0.22
  -5   6   0    0.72    0.20
   4  -6   0    1.53    0.24
   4  -6   0    1.13    0.21
   4  -6   0    1.50    0.30
   4  -6   0    1.16    0.25
  -4   6   0    1.33    0.28
  -4   6   0    1.34    0.26
  -4   6   0    1.40    0.26
   3  -6   0   49.31    1.97
   3  -6   0   49.18    1.88
   3  -6   0   51.54    1.77
   3  -6   0   49.82    1.81
  -3   6   0   51.95    1.89
  -3   6   0   51.03    1.80
  -3   6   0   48.90    1.81
  -3   6   0   47.45    1.80
  -3   6   0   51.34    1.84
   2  -6   0  128.71    4.13
   2  -6   0  128.03    4.21
   2  -6   0  127.91    4.26
   2  -6   0  129.86    4.12
  -2   6   0  129.16    4.19
  -2   6   0  130.50    4.13
  -2   6   0  129.03    4.12
  -2   6   0  137.76    3.83
  -2   6   0  131.34    4.15
   1  -6   0  183.40    5.72
   1  -6   0  180.78    5.74
   1  -6   0  186.05    5.79
   1  -6   0  188.16    5.72
  -1   6   0  185.24    5.69
  -1   6   0  187.48    5.71
  -1   6   0  185.40    5.74
  -1   6   0  186.73    5.71
  -1   6   0  185.09    5.65
   0  -6   0  130.69    3.99
   0  -6   0  125.64    3.99
   0  -6   0  126.87    3.95
   0  -6   0  128.10    4.05
   0  -6   0  117.90    3.99
   0   6   0  125.91    3.94
   0   6   0  127.12    3.96
   0   6   0  123.60    3.98
   0   6   0  126.37    3.97
   0   6   0  120.99    3.96
  -1  -6   0  441.52   13.13
  -1  -6   0  441.11   13.09
  -1  -6   0  454.34   13.14
  -1  -6   0  425.20   13.17
  -1  -6   0  442.90   13.18
   1   6   0  446.79   13.12
   1   6   0  453.18   13.13
   1   6   0  436.51   13.14
   1   6   0  465.33   13.17
   1   6   0  446.63   13.09
  -2  -6   0    0.24    0.10
  -2  -6   0    0.48    0.11
   2   6   0    0.26    0.12
   2   6   0    0.50    0.11
   2   6   0    0.36    0.09
   2   6   0    0.39    0.10
  -3  -6   0  140.24    4.55
  -3  -6   0  147.12    4.48
  -3  -6   0  140.85    4.51
  -3  -6   0  144.10    4.48
   3   6   0  145.03    4.51
   3   6   0  143.46    4.46
   3   6   0  144.19    4.45
   3   6   0  143.77    4.54
   3   6   0  148.59    4.59
  -4  -6   0    0.93    0.17
  -4  -6   0    0.77    0.17
  -4  -6   0    0.96    0.18
   4   6   0    0.80    0.18
   4   6   0    1.16    0.19
   4   6   0    0.69    0.12
  -5  -6   0   25.49    1.09
  -5  -6   0   26.69    1.02
  -5  -6   0   25.53    1.06
  -5  -6   0   26.57    1.10
   5   6   0   26.74    1.10
   5   6   0   26.64    1.09
   5   6   0   25.71    1.02
  -6  -6   0    2.29    0.28
  -6  -6   0    1.97    0.23
  -6  -6   0    2.55    0.29
   6   6   0    2.49    0.24
   6   6   0    2.70    0.27
   6   6   0    2.22    0.29
  -7  -6   0   60.38    2.17
  -7  -6   0   57.53    1.99
  -7  -6   0   59.38    2.18
  -7  -6   0   60.50    2.07
   7   6   0   62.10    2.02
   7   6   0   57.70    2.14
  -8  -6   0   21.28    0.99
  -8  -6   0   24.04    0.92
  -8  -6   0   21.87    0.86
  -8  -6   0   21.36    1.06
   8   6   0   21.37    0.86
   8   6   0   20.34    0.99
  -9  -6   0    3.15    0.44
  -9  -6   0    3.32    0.48
  -9  -6   0    3.93    0.38
  -9  -6   0    2.78    0.30
  -9  -6   0    3.55    0.31
   9   6   0    2.98    0.31
   9   6   0    3.37    0.51
 -10  -6   0    2.11    0.27
 -10  -6   0    2.85    0.37
 -10  -6   0    2.73    0.46
 -10  -6   0    2.09    0.38
  10   6   0    2.79    0.64
  10   6   0    1.81    0.37
   7  -7   0    0.23    0.37
   7  -7   0    0.23    0.72
   7  -7   0    0.98    0.46
  -7   7   0    0.53    0.30
  -7   7   0   -0.01    0.30
  -7   7   0   -0.15    0.40
  -7   7   0    0.39    0.42
   6  -7   0    7.72    0.64
   6  -7   0    6.88    0.77
   6  -7   0    9.20    0.55
  -6   7   0    8.13    0.63
  -6   7   0    8.49    0.61
  -6   7   0    8.56    0.52
  -6   7   0    7.65    0.57
   5  -7   0    0.25    0.41
   5  -7   0    0.13    0.22
   5  -7   0    0.09    0.29
   5  -7   0    0.52    0.18
  -5   7   0   -0.03    0.22
  -5   7   0    0.41    0.26
  -5   7   0    0.48    0.27
  -5   7   0    0.29    0.19
   4  -7   0   46.66    1.94
   4  -7   0   51.51    1.78
   4  -7   0   53.49    1.89
   4  -7   0   48.28    2.07
  -4   7   0   50.91    1.95
  -4   7   0   51.36    1.90
  -4   7   0   49.62    1.84
  -4   7   0   49.55    1.94
   3  -7   0    6.98    0.49
   3  -7   0    7.70    0.46
   3  -7   0    7.30    0.55
   3  -7   0    7.89    0.47
  -3   7   0    7.50    0.46
  -3   7   0    7.63    0.47
  -3   7   0    7.60    0.48
  -3   7   0    7.42    0.49
   2  -7   0  118.24    4.01
   2  -7   0  119.74    3.86
   2  -7   0  119.21    3.87
   2  -7   0  116.61    3.94
  -2   7   0  120.48    3.85
  -2   7   0  119.86    3.89
  -2   7   0  117.13    3.84
  -2   7   0  119.84    3.93
   1  -7   0    1.30    0.25
   1  -7   0    1.11    0.20
   1  -7   0    1.27    0.20
  -1   7   0    1.17    0.19
  -1   7   0    1.14    0.17
  -1   7   0    1.14    0.21
  -1   7   0    1.28    0.20
   0  -7   0   62.39    2.18
   0  -7   0   61.48    2.22
   0  -7   0   65.22    2.30
   0  -7   0   63.14    2.22
   0  -7   0   60.12    2.24
   0   7   0   61.35    2.20
   0   7   0   65.03    2.19
   0   7   0   61.09    2.19
   0   7   0   62.09    2.21
   0   7   0   64.45    2.20
  -1  -7   0    0.92    0.19
  -1  -7   0    1.00    0.19
  -1  -7   0    1.21    0.23
  -1  -7   0    0.93    0.17
   1   7   0    0.81    0.20
   1   7   0    0.74    0.16
   1   7   0    1.15    0.19
   1   7   0    1.01    0.16
  -2  -7   0    4.86    0.35
  -2  -7   0    4.39    0.32
  -2  -7   0    4.60    0.34
  -2  -7   0    4.70    0.39
   2   7   0    4.64    0.36
   2   7   0    4.94    0.35
   2   7   0    4.96    0.33
   2   7   0    4.53    0.35
   2   7   0    4.51    0.33
  -3  -7   0    0.51    0.14
  -3  -7   0    0.67    0.15
  -3  -7   0    0.89    0.16
  -3  -7   0    0.88    0.19
   3   7   0    0.71    0.17
   3   7   0    0.75    0.15
   3   7   0    0.85    0.16
   3   7   0    0.93    0.18
  -4  -7   0    1.33    0.20
  -4  -7   0    1.34    0.19
  -4  -7   0    1.22    0.22
  -4  -7   0    1.21    0.27
   4   7   0    1.41    0.22
   4   7   0    1.17    0.18
   4   7   0    1.24    0.20
  -5  -7   0    2.38    0.26
  -5  -7   0    2.39    0.23
  -5  -7   0    2.31    0.24
  -5  -7   0    2.20    0.28
   5   7   0    2.37    0.28
   5   7   0    2.87    0.24
   5   7   0    2.42    0.24
  -6  -7   0    1.24    0.21
  -6  -7   0    1.35    0.27
   6   7   0    1.19    0.22
   6   7   0    1.66    0.30
   6   7   0    1.10    0.26
  -7  -7   0   24.56    0.95
  -7  -7   0   23.44    1.06
  -7  -7   0   22.63    1.06
  -7  -7   0   23.30    1.02
   7   7   0   24.00    1.02
   7   7   0   22.60    1.05
  -8  -7   0    2.87    0.28
  -8  -7   0    2.69    0.31
  -8  -7   0    2.77    0.31
   8   7   0    2.99    0.29
   8   7   0    2.93    0.45
  -9  -7   0    9.36    0.53
  -9  -7   0    9.10    0.67
  -9  -7   0    9.84    0.64
  -9  -7   0    8.26    0.49
  -9  -7   0    9.74    0.66
   9   7   0    9.01    0.50
   9   7   0    8.75    0.69
 -10  -7   0    0.27    0.38
 -10  -7   0    0.23    0.24
 -10  -7   0    0.28    0.24
 -10  -7   0    0.26    0.42
  10   7   0    0.17    0.26
  10   7   0    0.18    0.42
   6  -8   0    0.60    0.35
   6  -8   0    1.15    0.43
   6  -8   0    0.70    0.62
  -6   8   0    0.12    0.38
  -6   8   0    0.58    0.40
  -6   8   0    0.11    0.28
   5  -8   0    0.12    0.27
   5  -8   0    0.59    0.46
   5  -8   0    0.22    0.23
   5  -8   0    0.59    0.35
  -5   8   0    0.48    0.28
  -5   8   0    0.20    0.24
  -5   8   0    0.16    0.32
  -5   8   0    0.50    0.31
   4  -8   0    3.25    0.44
   4  -8   0    3.91    0.35
   4  -8   0    3.51    0.39
   4  -8   0    3.19    0.53
  -4   8   0    3.46    0.43
  -4   8   0    2.63    0.35
  -4   8   0    2.78    0.40
   3  -8   0    3.97    0.42
   3  -8   0    5.36    0.41
   3  -8   0    4.21    0.49
   3  -8   0    5.28    0.41
  -3   8   0    4.73    0.45
  -3   8   0    5.15    0.42
  -3   8   0    5.27    0.42
   2  -8   0  110.48    3.77
   2  -8   0  106.72    3.81
   2  -8   0  113.43    3.69
   2  -8   0  112.95    3.68
  -2   8   0  114.69    3.78
  -2   8   0  108.87    3.80
  -2   8   0  102.35    4.11
  -2   8   0  113.56    3.70
   1  -8   0    0.29    0.16
   1  -8   0   -0.09    0.16
   1  -8   0    0.21    0.17
   1  -8   0    0.24    0.20
  -1   8   0    0.39    0.18
  -1   8   0    0.18    0.13
  -1   8   0    0.48    0.17
   0  -8   0  455.67   13.47
   0  -8   0  441.36   13.56
   0  -8   0  448.53   13.54
   0  -8   0  473.82   13.66
   0  -8   0  457.06   13.53
   0   8   0  449.31   13.46
   0   8   0  451.53   13.50
   0   8   0  440.93   13.48
   0   8   0  457.05   13.53
   0   8   0  456.33   13.48
  -1  -8   0   78.49    2.73
  -1  -8   0   78.42    2.79
  -1  -8   0   77.29    2.72
  -1  -8   0   79.88    2.70
  -1  -8   0   77.43    2.78
   1   8   0   83.12    2.74
   1   8   0   77.78    2.67
   1   8   0   75.42    2.70
   1   8   0   77.47    2.71
   1   8   0   76.93    2.70
  -2  -8   0  299.79    9.01
  -2  -8   0  297.88    9.04
  -2  -8   0  296.11    9.05
  -2  -8   0  292.76    9.13
   2   8   0  298.32    9.02
   2   8   0  295.47    8.97
   2   8   0  298.84    9.04
   2   8   0  295.35    9.07
   2   8   0  304.76    9.08
  -3  -8   0  234.79    7.40
  -3  -8   0  233.94    7.47
  -3  -8   0  237.28    7.36
  -3  -8   0  244.74    7.37
   3   8   0  241.35    7.43
   3   8   0  242.54    7.36
   3   8   0  241.72    7.48
   3   8   0  250.59    7.42
   3   8   0  235.60    7.31
  -4  -8   0   52.89    1.92
  -4  -8   0   53.12    1.96
  -4  -8   0   51.43    1.98
  -4  -8   0   53.90    2.04
   4   8   0   53.70    1.98
   4   8   0   52.79    2.04
   4   8   0   52.12    1.91
   4   8   0   55.39    2.02
  -5  -8   0  161.58    5.26
  -5  -8   0  162.54    5.31
  -5  -8   0  167.49    5.20
  -5  -8   0  164.48    5.32
   5   8   0  172.21    5.33
   5   8   0  166.24    5.31
   5   8   0  168.25    5.20
  -6  -8   0    0.36    0.22
  -6  -8   0    0.62    0.20
  -6  -8   0    0.20    0.19
   6   8   0    0.29    0.21
   6   8   0    0.47    0.17
   6   8   0    0.48    0.16
  -7  -8   0   39.33    1.62
  -7  -8   0   39.91    1.48
  -7  -8   0   40.24    1.58
   7   8   0   40.23    1.49
   7   8   0   39.95    1.69
   7   8   0   39.47    1.56
  -8  -8   0    0.02    0.15
  -8  -8   0    0.18    0.21
  -8  -8   0    0.19    0.31
  -8  -8   0    0.41    0.19
   8   8   0    0.22    0.21
   8   8   0   -0.11    0.32
  -9  -8   0    1.12    0.26
  -9  -8   0    1.47    0.24
  -9  -8   0    1.75    0.38
  -9  -8   0    1.34    0.35
  -9  -8   0    1.32    0.25
   9   8   0    1.35    0.24
   9   8   0    1.07    0.41
 -10  -8   0    3.17    0.44
 -10  -8   0    3.52    0.42
 -10  -8   0    3.72    0.71
 -10  -8   0    3.57    0.44
 -10  -8   0    4.13    0.63
  10   8   0    2.39    0.47
  10   8   0    4.36    0.75
   6  -9   0    9.18    1.20
   6  -9   0    9.66    0.93
   6  -9   0   13.26    0.76
  -6   9   0   12.90    0.87
  -6   9   0   11.32    0.87
   5  -9   0    1.94    0.66
   5  -9   0    1.01    0.48
   5  -9   0    1.16    0.29
   5  -9   0    0.85    0.33
  -5   9   0    1.36    0.43
  -5   9   0    1.24    0.31
  -5   9   0    1.00    0.39
  -5   9   0    0.92    0.33
   4  -9   0   45.65    1.75
   4  -9   0   41.13    1.80
   4  -9   0   46.53    1.67
   4  -9   0   41.75    1.93
  -4   9   0   46.19    1.83
  -4   9   0   41.42    1.67
  -4   9   0   45.40    1.75
  -4   9   0   41.36    1.69
   3  -9   0    1.66    0.37
   3  -9   0    1.66    0.26
   3  -9   0    2.03    0.33
   3  -9   0    1.86    0.38
  -3   9   0    1.72    0.29
  -3   9   0    1.50    0.27
  -3   9   0    1.50    0.36
   2  -9   0   26.16    1.15
   2  -9   0   24.43    1.17
   2  -9   0   26.61    1.15
   2  -9   0   24.68    1.23
  -2   9   0   26.13    1.19
  -2   9   0   25.42    1.12
  -2   9   0   25.54    1.14
   1  -9   0    8.46    0.59
   1  -9   0    8.18    0.59
   1  -9   0    7.61    0.60
   1  -9   0    9.70    0.56
  -1   9   0    9.02    0.56
  -1   9   0    8.14    0.62
  -1   9   0    8.19    0.55
  -1   9   0    8.46    0.53
   0  -9   0    4.33    0.44
   0  -9   0    4.03    0.37
   0  -9   0    4.43    0.39
   0  -9   0    4.57    0.39
   0   9   0    4.57    0.39
   0   9   0    4.87    0.40
   0   9   0    5.05    0.39
   0   9   0    4.84    0.37
   0   9   0    4.70    0.36
  -1  -9   0    0.07    0.17
  -1  -9   0    0.26    0.19
  -1  -9   0    0.25    0.17
  -1  -9   0    0.23    0.21
  -1  -9   0    0.09    0.17
   1   9   0   -0.06    0.16
   1   9   0    0.00    0.16
   1   9   0    0.31    0.14
   1   9   0   -0.15    0.17
   1   9   0    0.32    0.19
  -2  -9   0    0.15    0.17
  -2  -9   0    0.02    0.17
  -2  -9   0    0.05    0.19
  -2  -9   0    0.05    0.16
   2   9   0    0.29    0.16
   2   9   0    0.19    0.20
   2   9   0    0.23    0.18
   2   9   0    0.33    0.16
   2   9   0    0.12    0.15
  -3  -9   0    0.44    0.20
  -3  -9   0    0.10    0.15
  -3  -9   0    0.30    0.17
  -3  -9   0    0.16    0.17
   3   9   0    0.30    0.19
   3   9   0    0.15    0.15
   3   9   0    0.22    0.21
   3   9   0    0.20    0.16
   3   9   0    0.10    0.16
  -4  -9   0    6.37    0.47
  -4  -9   0    7.38    0.53
  -4  -9   0    7.01    0.49
  -4  -9   0    6.98    0.46
   4   9   0    6.34    0.43
   4   9   0    6.36    0.47
   4   9   0    7.80    0.53
   4   9   0    7.02    0.50
   4   9   0    6.22    0.42
  -5  -9   0    0.16    0.26
  -5  -9   0    0.42    0.18
  -5  -9   0    0.12    0.20
  -5  -9   0    0.06    0.26
   5   9   0    0.48    0.23
   5   9   0    0.16    0.21
   5   9   0    0.51    0.20
  -6  -9   0    6.72    0.46
  -6  -9   0    6.52    0.51
  -6  -9   0    7.29    0.54
   6   9   0    7.79    0.52
   6   9   0    7.94    0.55
   6   9   0    7.39    0.46
  -7  -9   0    5.48    0.44
  -7  -9   0    4.27    0.38
   7   9   0    4.97    0.49
   7   9   0    4.87    0.39
   7   9   0    5.15    0.44
  -8  -9   0   12.19    0.72
  -8  -9   0   10.87    0.61
  -8  -9   0   12.08    0.76
  -8  -9   0   12.57    0.72
  -8  -9   0   11.56    0.67
   8   9   0   11.13    0.77
   8   9   0   12.25    0.63
  -9  -9   0    6.89    0.52
  -9  -9   0    6.48    0.64
  -9  -9   0    6.20    0.53
  -9  -9   0    5.64    0.46
  -9  -9   0    6.87    0.70
   9   9   0    6.77    0.50
   9   9   0    6.17    0.71
 -10  -9   0    0.01    0.20
 -10  -9   0    0.09    0.34
 -10  -9   0    0.17    0.32
 -10  -9   0    0.53    0.53
  10   9   0    0.74    0.55
  10   9   0   -0.30    0.33
   5 -10   0    0.46    0.77
   5 -10   0    0.34    0.42
   5 -10   0    0.74    0.37
   5 -10   0    0.19    0.58
  -5  10   0    0.06    0.37
  -5  10   0    0.25    0.48
  -5  10   0   -0.46    0.56
  -5  10   0    0.09    0.49
   4 -10   0    1.34    0.62
   4 -10   0    1.81    0.57
   4 -10   0    1.06    0.45
   4 -10   0    2.58    0.57
  -4  10   0    1.85    0.31
  -4  10   0    1.29    0.39
  -4  10   0    1.48    0.36
  -4  10   0    1.54    0.40
   3 -10   0    3.07    0.49
   3 -10   0    2.93    0.57
  -3  10   0    3.11    0.49
  -3  10   0    2.71    0.40
  -3  10   0    2.62    0.45
  -3  10   0    2.29    0.37
   2 -10   0   28.97    1.43
   2 -10   0   31.29    1.34
   2 -10   0   28.19    1.37
  -2  10   0   30.45    1.29
  -2  10   0   30.05    1.36
  -2  10   0   31.61    1.34
   1 -10   0   12.57    0.74
   1 -10   0   12.57    0.80
   1 -10   0   14.55    0.76
  -1  10   0   13.31    0.77
  -1  10   0   13.05    0.71
  -1  10   0   13.53    0.73
  -1  10   0   12.34    0.72
   0 -10   0   43.22    2.43
   0 -10   0   47.36    1.94
   0 -10   0   46.94    1.88
   0 -10   0   45.03    1.82
   0  10   0   46.90    1.84
   0  10   0   44.60    1.80
   0  10   0   46.18    1.78
   0  10   0   43.62    1.79
  -1 -10   0    4.33    0.38
  -1 -10   0    4.19    0.41
  -1 -10   0    2.96    0.48
  -1 -10   0    3.55    0.38
  -1 -10   0    3.69    0.55
   1  10   0    4.17    0.51
   1  10   0    3.58    0.35
   1  10   0    3.98    0.37
   1  10   0    4.82    0.43
   1  10   0    4.14    0.42
  -2 -10   0  165.62    5.30
  -2 -10   0  166.14    5.38
  -2 -10   0  157.83    5.46
  -2 -10   0  166.33    5.49
   2  10   0  169.74    5.32
   2  10   0  163.82    5.44
   2  10   0  161.64    5.32
   2  10   0  161.81    5.26
  -3 -10   0    1.11    0.25
  -3 -10   0    1.27    0.26
  -3 -10   0    1.61    0.32
   3  10   0    1.81    0.28
   3  10   0    1.59    0.47
   3  10   0    1.02    0.24
  -4 -10   0  123.22    4.12
  -4 -10   0  118.81    4.19
  -4 -10   0  123.04    4.41
  -4 -10   0  126.25    4.06
   4  10   0  121.79    4.01
   4  10   0  121.81    4.04
   4  10   0  121.77    4.19
   4  10   0  114.29    4.34
   4  10   0  126.35    4.14
  -5 -10   0   16.70    0.86
  -5 -10   0   15.89    0.79
  -5 -10   0   15.74    0.88
   5  10   0   16.15    0.85
   5  10   0   15.75    0.89
   5  10   0   15.51    0.85
   5  10   0   15.33    0.78
  -6 -10   0    8.98    0.89
  -6 -10   0    7.69    0.51
   6  10   0    8.02    0.61
   6  10   0    7.77    0.55
   6  10   0    8.47    0.52
   6  10   0    8.49    0.74
  -7 -10   0    9.26    0.56
  -7 -10   0    9.77    0.65
  -7 -10   0    9.35    0.66
   7  10   0    9.85    0.72
   7  10   0    9.45    0.56
  -8 -10   0    0.29    0.38
  -8 -10   0    0.10    0.26
  -8 -10   0    0.25    0.18
  -8 -10   0    0.18    0.36
   8  10   0    0.31    0.39
   8  10   0    0.32    0.28
  -9 -10   0    4.55    0.40
  -9 -10   0    4.32    0.65
  -9 -10   0    3.81    0.74
   9  10   0    4.08    0.53
   9  10   0    3.32    0.77
   4 -11   0    1.87    0.69
   4 -11   0    2.03    0.55
   4 -11   0    2.97    0.46
   4 -11   0    1.90    0.41
  -4  11   0    1.69    0.52
  -4  11   0    2.75    0.52
  -4  11   0    2.10    0.48
  -4  11   0    2.53    0.40
   3 -11   0   12.87    0.91
   3 -11   0   15.32    0.84
   3 -11   0   15.20    1.04
   3 -11   0   16.39    0.90
  -3  11   0   13.55    0.86
  -3  11   0   14.48    0.84
  -3  11   0   14.16    0.80
  -3  11   0   13.23    0.90
   2 -11   0    4.88    0.57
   2 -11   0    4.64    0.60
   2 -11   0    4.45    0.66
   2 -11   0    4.84    0.55
  -2  11   0    4.41    0.50
  -2  11   0    3.97    0.59
  -2  11   0    4.71    0.56
   1 -11   0   13.30    0.88
   1 -11   0   14.64    0.83
   1 -11   0   12.27    0.83
   1 -11   0   12.66    0.79
  -1  11   0   12.69    0.75
  -1  11   0   14.21    0.80
  -1  11   0   12.74    0.74
  -1  11   0   13.90    0.85
   0 -11   0    1.10    0.33
   0 -11   0    0.73    0.31
   0 -11   0    1.07    0.32
   0 -11   0    1.38    0.28
   0  11   0    1.93    0.39
   0  11   0    1.47    0.30
   0  11   0    1.03    0.31
   0  11   0    1.42    0.30
  -1 -11   0   20.52    1.04
  -1 -11   0   21.70    1.01
  -1 -11   0   20.99    1.10
  -1 -11   0   19.50    1.07
  -1 -11   0   20.52    1.04
   1  11   0   21.32    1.05
   1  11   0   20.27    1.01
   1  11   0   20.96    1.01
   1  11   0   21.40    1.04
  -2 -11   0   25.77    1.29
  -2 -11   0   27.23    1.26
  -2 -11   0   24.75    1.28
  -2 -11   0   27.10    1.22
   2  11   0   26.99    1.21
   2  11   0   25.99    1.23
   2  11   0   25.24    1.16
   2  11   0   27.14    1.24
   2  11   0   26.68    1.23
  -3 -11   0   10.70    0.69
  -3 -11   0   11.21    0.67
  -3 -11   0   10.60    0.80
   3  11   0   11.57    0.75
   3  11   0   10.50    0.65
   3  11   0   11.81    0.69
   3  11   0   11.48    0.65
  -4 -11   0    2.20    0.40
  -4 -11   0    2.53    0.41
  -4 -11   0    2.43    0.55
   4  11   0    2.70    0.37
   4  11   0    2.34    0.45
   4  11   0    2.64    0.37
   4  11   0    2.35    0.36
  -5 -11   0    2.92    0.41
   5  11   0    3.30    0.48
   5  11   0    2.51    0.39
   5  11   0    1.86    0.39
   5  11   0    1.91    0.46
  -6 -11   0    0.52    0.27
  -6 -11   0    0.29    0.25
  -6 -11   0    0.69    0.38
  -6 -11   0    0.47    0.32
   6  11   0    0.12    0.27
   6  11   0    0.44    0.25
   6  11   0    0.70    0.37
   6  11   0    0.51    0.37
  -7 -11   0    1.06    0.41
  -7 -11   0    0.98    0.29
  -7 -11   0    1.17    0.32
  -7 -11   0    1.17    0.36
   7  11   0    1.19    0.41
   7  11   0    0.50    0.28
   7  11   0    0.34    0.47
  -8 -11   0    0.96    0.46
  -8 -11   0    0.65    0.31
  -8 -11   0    1.00    0.43
   8  11   0    0.97    0.35
   8  11   0    1.61    0.58
   8  11   0    1.56    0.52
  -9 -11   0    2.38    0.37
  -9 -11   0    2.83    0.57
  -9 -11   0    2.95    0.60
   9  11   0    3.11    0.61
   9  11   0    2.73    0.40
   3 -12   0    5.23    0.72
   3 -12   0    5.22    0.77
  -3  12   0    3.84    0.88
  -3  12   0    4.40    0.83
   2 -12   0   -0.26    0.43
   2 -12   0    0.62    0.42
   2 -12   0    0.80    0.58
   2 -12   0    0.06    0.47
  -2  12   0    0.08    0.45
  -2  12   0    1.09    0.48
  -2  12   0    0.14    0.41
  -2  12   0    0.15    0.39
   1 -12   0   26.96    1.42
   1 -12   0   26.17    1.34
   1 -12   0   30.16    1.40
   1 -12   0   31.16    1.37
  -1  12   0   27.00    1.28
  -1  12   0   27.38    1.27
  -1  12   0   29.43    1.29
  -1  12   0   27.55    1.34
   0 -12   0   13.24    0.90
   0 -12   0   15.38    0.92
   0 -12   0   15.60    0.95
   0 -12   0   12.92    0.88
   0  12   0   14.41    0.85
   0  12   0   15.80    0.87
   0  12   0   14.86    0.90
   0  12   0   14.71    0.86
  -1 -12   0   26.36    1.39
  -1 -12   0   30.09    1.40
  -1 -12   0   28.05    1.33
  -1 -12   0   29.60    1.41
   1  12   0   30.29    1.33
   1  12   0   30.39    1.36
   1  12   0   28.22    1.30
   1  12   0   28.69    1.28
  -2 -12   0   17.46    0.97
  -2 -12   0   16.19    0.93
  -2 -12   0   16.79    0.95
  -2 -12   0   16.79    1.01
   2  12   0   18.81    1.00
   2  12   0   16.94    1.07
   2  12   0   15.40    0.87
   2  12   0   18.19    0.94
  -3 -12   0   20.10    1.00
  -3 -12   0   17.73    0.97
  -3 -12   0   18.63    0.95
   3  12   0   17.33    0.93
   3  12   0   18.21    0.97
   3  12   0   17.61    0.90
   3  12   0   18.34    1.02
  -4 -12   0   51.21    2.45
  -4 -12   0   60.69    2.37
  -4 -12   0   54.00    2.20
  -4 -12   0   58.30    2.16
   4  12   0   56.43    2.14
   4  12   0   54.45    2.23
   4  12   0   54.60    2.09
   4  12   0   56.82    2.22
  -5 -12   0    6.16    0.60
  -5 -12   0    5.90    0.57
  -5 -12   0    5.76    0.68
  -5 -12   0    5.82    0.61
   5  12   0    5.75    0.55
   5  12   0    6.45    0.66
   5  12   0    6.22    0.67
  -6 -12   0   34.56    1.61
  -6 -12   0   32.95    1.57
  -6 -12   0   35.24    1.54
  -6 -12   0   34.67    1.56
   6  12   0   36.44    1.60
   6  12   0   35.18    1.42
   6  12   0   33.06    1.57
  -7 -12   0    3.06    0.45
  -7 -12   0    2.33    0.51
  -7 -12   0    2.67    0.40
   7  12   0    3.95    0.79
   7  12   0    2.13    0.50
   7  12   0    1.87    0.35
  -8 -12   0    5.89    0.62
  -8 -12   0    5.79    0.78
  -8 -12   0    5.07    0.67
  -8 -12   0    7.19    0.86
   8  12   0    6.01    0.65
   1 -13   0    4.30    0.89
   1 -13   0    4.56    0.86
  -1  13   0    4.46    0.84
  -1  13   0    5.38    0.68
  -1  13   0    4.73    0.66
   0 -13   0    3.61    0.69
   0 -13   0    3.24    0.52
   0 -13   0    3.21    0.56
   0 -13   0    4.67    0.70
   0  13   0    3.30    0.51
   0  13   0    4.40    0.60
   0  13   0    3.35    0.62
   0  13   0    3.65    0.46
  -1 -13   0    0.15    0.42
  -1 -13   0    0.22    0.42
  -1 -13   0    0.51    0.37
   1  13   0    0.62    0.39
   1  13   0    0.11    0.35
   1  13   0   -0.10    0.44
  -2 -13   0    0.53    0.45
  -2 -13   0    0.20    0.40
  -2 -13   0   -0.39    0.44
   2  13   0    0.54    0.36
   2  13   0    0.56    0.40
   2  13   0    0.24    0.37
   2  13   0    1.26    0.43
  -3 -13   0    0.53    0.41
  -3 -13   0    0.39    0.37
  -3 -13   0   -0.25    0.39
  -3 -13   0    0.35    0.37
   3  13   0    0.31    0.37
   3  13   0    0.92    0.43
   3  13   0    0.28    0.40
   3  13   0   -0.14    0.38
  -4 -13   0    0.20    0.46
  -4 -13   0    0.36    0.45
  -4 -13   0   -0.17    0.39
  -4 -13   0    0.42    0.41
   4  13   0    0.27    0.35
   4  13   0   -0.28    0.52
   4  13   0   -0.24    0.42
   4  13   0   -0.22    0.37
  -5 -13   0    1.97    0.41
  -5 -13   0    1.80    0.42
  -5 -13   0    2.44    0.53
  -5 -13   0    1.59    0.39
   5  13   0    1.80    0.39
   5  13   0    2.31    0.46
   5  13   0    2.16    0.51
  -6 -13   0    0.26    0.49
  -6 -13   0    0.99    0.53
  -6 -13   0    0.08    0.47
  -6 -13   0   -0.24    0.37
   6  13   0    0.00    0.38
   6  13   0   -0.59    0.61
   6  13   0   -0.32    0.62
  -7 -13   0    3.81    0.72
  -7 -13   0    2.43    0.53
  -7 -13   0    3.78    0.78
  -7 -13   0    2.86    0.46
   7  13   0    2.31    0.66
   7  13   0    2.12    0.43
   0 -14   0    0.42    0.58
   0 -14   0   -0.04    0.74
   0  14   0    0.67    0.60
  -1 -14   0   16.71    1.12
  -1 -14   0   16.88    1.04
  -1 -14   0   15.48    1.09
   1  14   0   18.15    1.02
   1  14   0   17.87    1.00
   1  14   0   14.92    1.05
   1  14   0   15.64    0.98
  -2 -14   0    2.17    0.59
  -2 -14   0    2.29    0.55
  -2 -14   0    2.25    0.49
   2  14   0    2.35    0.55
   2  14   0    2.22    0.49
   2  14   0    2.20    0.47
  -3 -14   0   11.46    0.94
  -3 -14   0   11.83    0.87
  -3 -14   0   12.17    0.86
  -3 -14   0   11.72    0.97
   3  14   0    9.88    0.85
   3  14   0   12.86    0.98
   3  14   0    9.86    0.79
   3  14   0   11.51    0.85
  -4 -14   0    4.02    0.91
  -4 -14   0    4.73    0.76
  -4 -14   0    4.39    0.77
  -4 -14   0    5.52    0.74
   4  14   0    4.37    0.83
   4  14   0    3.40    0.73
   4  14   0    3.37    0.66
   4  14   0    4.18    0.78
  -5 -14   0    4.74    0.78
  -5 -14   0    4.48    0.82
  -5 -14   0    5.20    0.80
   5  14   0    4.42    0.93
   5  14   0    3.91    0.76
  -6 -14   0    3.82    0.59
  -6 -14   0    3.52    0.81
   6  14   0    4.96    1.00
   6  14   0    4.54    0.92
   6  14   0    5.19    0.79
   5  14  -1    0.65    0.50
   5  14  -1    0.22    0.70
   5  14  -1    0.79    0.56
  -5 -14   1    0.64    0.49
  -5 -14   1    0.69    0.92
   4  14  -1    1.24    0.56
   4  14  -1    0.41    0.47
   4  14  -1    0.70    0.47
   4  14  -1    0.25    0.60
  -4 -14   1    0.64    0.56
  -4 -14   1    1.35    0.50
  -4 -14   1    0.68    0.57
  -4 -14   1    0.62    0.50
   3  14  -1    4.70    0.72
   3  14  -1    3.40    0.71
   3  14  -1    4.52    0.77
  -3 -14   1    4.61    0.92
  -3 -14   1    3.91    0.83
  -3 -14   1    3.81    0.59
   2  14  -1    4.20    0.74
   2  14  -1    3.54    0.80
   2  14  -1    2.84    0.52
  -2 -14   1    2.31    0.54
  -2 -14   1    2.56    0.54
  -2 -14   1    4.16    0.96
   1  14  -1    3.13    0.72
   1  14  -1    1.75    0.57
   1  14  -1    2.70    0.53
   1  14  -1    3.45    0.76
  -1 -14   1    4.55    0.86
  -1 -14   1    2.64    0.57
  -1 -14   1    3.22    0.62
   7  13  -1    5.09    0.95
   7  13  -1    3.85    0.69
  -7 -13   1    4.67    0.78
  -7 -13   1    5.14    0.70
   6  13  -1    0.44    0.42
   6  13  -1    0.16    0.50
   6  13  -1    0.89    0.64
   6  13  -1   -0.20    0.39
  -6 -13   1   -0.45    0.55
  -6 -13   1   -0.27    0.49
  -6 -13   1    0.08    0.50
  -6 -13   1   -0.03    0.41
   5  13  -1    7.59    0.68
   5  13  -1    8.59    1.21
   5  13  -1    7.69    0.83
   5  13  -1    7.97    0.66
  -5 -13   1    8.07    0.72
  -5 -13   1    8.09    0.81
  -5 -13   1    6.90    0.76
  -5 -13   1    8.87    0.75
   4  13  -1    2.17    0.42
   4  13  -1    2.26    0.40
   4  13  -1    1.57    0.33
   4  13  -1    1.98    0.40
   4  13  -1    3.00    0.53
  -4 -13   1    3.15    0.67
  -4 -13   1    2.24    0.41
  -4 -13   1    3.15    0.49
  -4 -13   1    2.23    0.43
   3  13  -1   29.61    1.39
   3  13  -1   31.35    1.45
   3  13  -1   28.72    1.37
   3  13  -1   29.40    1.36
   3  13  -1   29.40    1.32
  -3 -13   1   30.96    1.48
  -3 -13   1   28.19    1.40
  -3 -13   1   31.26    1.41
  -3 -13   1   32.58    1.40
   2  13  -1    5.07    0.70
   2  13  -1    5.39    0.60
   2  13  -1    3.99    0.57
   2  13  -1    5.34    0.64
  -2 -13   1    4.44    0.67
  -2 -13   1    3.36    0.66
   1  13  -1   17.98    0.95
   1  13  -1   17.02    0.95
   1  13  -1   16.61    1.00
   1  13  -1   16.46    0.97
  -1 -13   1   17.13    0.96
  -1 -13   1   18.27    1.04
  -1 -13   1   14.22    0.98
   0  13  -1   11.42    0.83
   0  13  -1   11.91    0.81
   0  13  -1   12.23    0.93
   0  13  -1   11.90    0.79
   0 -13   1   11.60    0.97
   0 -13   1   14.19    0.93
   0 -13   1   10.72    0.94
   0 -13   1   12.59    0.89
  -1  13  -1    4.22    0.84
  -1  13  -1    3.97    0.55
  -1  13  -1    3.71    0.71
  -1  13  -1    4.08    0.78
   1 -13   1    4.25    0.83
   1 -13   1    3.40    0.63
   1 -13   1    3.55    0.64
   8  12  -1    0.64    0.41
   8  12  -1    1.23    0.77
  -8 -12   1    1.13    0.22
  -8 -12   1    0.30    0.43
  -8 -12   1    1.86    0.55
  -8 -12   1    0.68    0.39
   7  12  -1    1.73    0.39
   7  12  -1    1.34    0.35
   7  12  -1    2.27    0.54
  -7 -12   1    1.98    0.37
  -7 -12   1    1.97    0.39
  -7 -12   1    2.64    0.50
   6  12  -1    5.51    0.70
   6  12  -1    4.60    0.55
   6  12  -1    4.62    0.57
  -6 -12   1    5.06    0.57
  -6 -12   1    6.03    0.60
  -6 -12   1    6.32    0.62
  -6 -12   1    5.72    0.82
   5  12  -1    3.80    0.62
   5  12  -1    3.07    0.51
   5  12  -1    3.54    0.48
   5  12  -1    2.83    0.64
  -5 -12   1    3.02    0.64
  -5 -12   1    4.33    0.55
  -5 -12   1    3.77    0.65
  -5 -12   1    4.06    0.61
   4  12  -1    4.26    0.61
   4  12  -1    3.03    0.44
   4  12  -1    3.08    0.50
   4  12  -1    3.33    0.49
  -4 -12   1    3.45    0.53
  -4 -12   1    3.53    0.53
  -4 -12   1    3.21    0.52
  -4 -12   1    3.06    0.53
   3  12  -1    7.08    0.61
   3  12  -1    7.04    0.66
   3  12  -1    6.99    0.55
   3  12  -1    7.53    0.57
  -3 -12   1    7.25    0.61
  -3 -12   1    7.25    0.61
  -3 -12   1    6.99    0.67
  -3 -12   1    7.24    0.61
   2  12  -1    2.78    0.46
   2  12  -1    3.54    0.54
   2  12  -1    3.15    0.57
   2  12  -1    3.31    0.42
  -2 -12   1    2.94    0.52
  -2 -12   1    3.14    0.53
  -2 -12   1    3.07    0.52
   1  12  -1   38.20    1.61
   1  12  -1   39.39    1.65
   1  12  -1   38.40    1.59
   1  12  -1   38.77    1.62
   1  12  -1   36.73    1.60
  -1 -12   1   36.52    1.68
  -1 -12   1   37.62    1.65
  -1 -12   1   36.66    1.62
   0  12  -1   15.85    0.89
   0  12  -1   16.71    0.90
   0  12  -1   16.46    0.96
   0  12  -1   16.66    0.93
   0 -12   1   17.61    0.99
   0 -12   1   16.19    0.98
   0 -12   1   18.56    0.95
   0 -12   1   15.85    1.01
  -1  12  -1    8.28    0.72
  -1  12  -1    8.53    0.63
  -1  12  -1   10.01    0.66
  -1  12  -1    7.10    0.75
   1 -12   1    8.14    0.74
   1 -12   1    8.15    0.81
   1 -12   1    9.05    0.71
  -2  12  -1   21.41    1.15
  -2  12  -1   21.38    1.07
  -2  12  -1   19.65    1.18
  -2  12  -1   23.28    1.09
   2 -12   1   20.30    1.25
   2 -12   1   19.62    1.16
   2 -12   1   24.63    1.16
   2 -12   1   22.33    1.13
  -3  12  -1    0.48    0.58
  -3  12  -1    0.09    0.54
  -3  12  -1    0.50    0.57
   3 -12   1    0.49    0.56
   3 -12   1    0.06    0.50
   3 -12   1    0.66    0.70
   3 -12   1    0.50    0.58
   8  11  -1    0.46    0.34
   8  11  -1    0.40    0.62
   8  11  -1    0.18    0.50
  -8 -11   1    0.51    0.33
  -8 -11   1    0.58    0.20
  -8 -11   1    0.86    0.44
  -8 -11   1    0.22    0.36
  -8 -11   1   -0.02    0.48
   7  11  -1    3.23    0.52
   7  11  -1    3.28    0.50
  -7 -11   1    4.33    0.59
  -7 -11   1    4.45    0.61
  -7 -11   1    3.83    0.51
  -7 -11   1    3.36    0.52
   6  11  -1    4.48    0.49
   6  11  -1    5.49    0.61
   6  11  -1    5.13    0.71
   6  11  -1    5.15    0.49
  -6 -11   1    4.88    0.48
  -6 -11   1    5.49    0.54
  -6 -11   1    5.32    0.52
  -6 -11   1    5.66    0.56
   5  11  -1   16.51    0.91
   5  11  -1   15.50    0.96
   5  11  -1   18.04    0.96
   5  11  -1   16.90    0.84
  -5 -11   1   17.28    0.91
  -5 -11   1   17.52    0.86
   4  11  -1    0.73    0.26
   4  11  -1    0.77    0.29
   4  11  -1    0.79    0.25
   4  11  -1    0.71    0.37
   4  11  -1    0.85    0.25
  -4 -11   1    0.14    0.31
  -4 -11   1    0.99    0.27
  -4 -11   1    0.84    0.26
   3  11  -1   30.10    1.57
   3  11  -1   31.19    1.34
   3  11  -1   32.04    1.41
   3  11  -1   30.16    1.39
  -3 -11   1   31.85    1.39
  -3 -11   1   30.41    1.55
  -3 -11   1   31.03    1.34
   2  11  -1   -0.16    0.25
   2  11  -1   -0.07    0.27
   2  11  -1    0.32    0.22
   2  11  -1    0.06    0.27
   2  11  -1    0.17    0.30
  -2 -11   1    0.04    0.25
  -2 -11   1   -0.26    0.27
  -2 -11   1    0.16    0.26
   1  11  -1   40.19    1.64
   1  11  -1   37.58    1.62
   1  11  -1   37.85    1.61
   1  11  -1   38.61    1.62
   1  11  -1   38.51    1.58
  -1 -11   1   38.89    1.70
  -1 -11   1   39.02    1.64
  -1 -11   1   39.19    1.65
  -1 -11   1   36.73    1.71
   0  11  -1    1.19    0.30
   0  11  -1    0.95    0.27
   0  11  -1    1.52    0.33
   0  11  -1    1.17    0.23
   0  11  -1    2.04    0.44
   0 -11   1    1.12    0.31
   0 -11   1    1.07    0.35
   0 -11   1    1.07    0.29
   0 -11   1    1.11    0.29
  -1  11  -1   20.79    1.05
  -1  11  -1   21.84    1.04
  -1  11  -1   19.76    1.09
  -1  11  -1   21.43    1.03
   1 -11   1   23.35    1.14
   1 -11   1   21.33    1.11
   1 -11   1   19.79    1.15
   1 -11   1   25.10    1.11
  -2  11  -1   -0.09    0.38
  -2  11  -1    0.10    0.29
  -2  11  -1    0.38    0.39
  -2  11  -1    0.74    0.33
   2 -11   1    0.49    0.42
   2 -11   1    0.66    0.34
   2 -11   1    0.28    0.38
   2 -11   1   -0.01    0.38
  -3  11  -1   11.49    0.74
  -3  11  -1   11.31    0.74
  -3  11  -1   10.76    0.83
  -3  11  -1   11.69    0.82
   3 -11   1   13.40    0.98
   3 -11   1   11.79    0.76
   3 -11   1   12.13    0.86
   3 -11   1    9.84    0.93
  -4  11  -1    0.04    0.51
  -4  11  -1    0.22    0.39
  -4  11  -1   -0.13    0.45
  -4  11  -1   -0.11    0.52
   4 -11   1    0.38    0.44
   4 -11   1    0.59    0.46
   4 -11   1   -0.12    0.62
   4 -11   1    0.05    0.70
   9  10  -1    1.05    0.34
   9  10  -1    2.27    0.54
  -9 -10   1    1.53    0.44
  -9 -10   1    1.51    0.33
  -9 -10   1    1.26    0.49
  -9 -10   1    1.39    0.31
  -9 -10   1    1.36    0.37
   8  10  -1    4.81    0.68
   8  10  -1    5.75    0.49
   8  10  -1    5.78    0.52
  -8 -10   1    5.31    0.64
  -8 -10   1    4.96    0.55
  -8 -10   1    6.05    0.46
  -8 -10   1    5.37    0.47
  -8 -10   1    4.39    0.59
   7  10  -1   17.45    0.94
   7  10  -1   15.66    0.78
   7  10  -1   16.92    0.87
  -7 -10   1   16.29    0.89
  -7 -10   1   16.21    0.78
  -7 -10   1   16.03    0.86
   6  10  -1    2.95    0.40
   6  10  -1    2.47    0.37
   6  10  -1    2.91    0.48
  -6 -10   1    2.75    0.41
  -6 -10   1    3.05    0.38
  -6 -10   1    2.64    0.45
   5  10  -1    8.19    0.57
   5  10  -1    7.15    0.53
   5  10  -1    6.49    0.47
   5  10  -1    7.07    0.58
  -5 -10   1    7.20    0.48
  -5 -10   1    7.42    0.54
   4  10  -1    2.37    0.40
   4  10  -1    2.75    0.41
   4  10  -1    3.23    0.37
   4  10  -1    2.81    0.34
   4  10  -1    2.64    0.35
  -4 -10   1    2.61    0.39
  -4 -10   1    2.60    0.37
  -4 -10   1    2.53    0.37
   3  10  -1    5.47    0.76
   3  10  -1    4.80    0.44
   3  10  -1    4.53    0.39
   3  10  -1    4.99    0.44
   3  10  -1    5.44    0.42
  -3 -10   1    4.46    0.43
  -3 -10   1    5.06    0.44
  -3 -10   1    4.05    0.43
   2  10  -1    1.68    0.46
   2  10  -1    2.50    0.37
   2  10  -1    2.93    0.34
   2  10  -1    2.86    0.34
  -2 -10   1    2.48    0.35
  -2 -10   1    2.65    0.38
  -2 -10   1    2.26    0.37
  -2 -10   1    3.06    0.36
   1  10  -1    0.91    0.22
   1  10  -1    0.72    0.25
   1  10  -1    0.70    0.22
   1  10  -1    0.38    0.22
  -1 -10   1    0.59    0.21
  -1 -10   1    0.94    0.31
  -1 -10   1    0.96    0.23
  -1 -10   1    0.35    0.36
   0  10  -1    4.49    0.41
   0  10  -1    3.43    0.41
   0  10  -1    3.32    0.40
   0  10  -1    3.61    0.37
   0 -10   1    4.38    0.45
   0 -10   1    3.11    0.42
   0 -10   1    3.06    0.42
  -1  10  -1   77.90    2.71
  -1  10  -1   71.56    2.66
  -1  10  -1   76.00    2.76
  -1  10  -1   67.28    2.85
  -1  10  -1   74.34    2.65
   1 -10   1   75.76    2.79
   1 -10   1   72.87    2.73
   1 -10   1   76.18    2.83
  -2  10  -1    4.10    0.49
  -2  10  -1    3.74    0.42
  -2  10  -1    4.63    0.45
  -2  10  -1    3.44    0.48
   2 -10   1    3.85    0.51
   2 -10   1    3.25    0.56
   2 -10   1    4.26    0.52
   2 -10   1    4.72    0.47
  -3  10  -1   30.76    1.34
  -3  10  -1   32.65    1.40
  -3  10  -1   30.93    1.32
  -3  10  -1   30.89    1.79
   3 -10   1   29.57    1.49
   3 -10   1   29.51    1.41
   3 -10   1   29.66    1.36
   3 -10   1   31.91    1.36
  -4  10  -1    3.85    0.52
  -4  10  -1    4.32    0.62
  -4  10  -1    4.16    0.48
  -4  10  -1    4.52    0.54
   4 -10   1    2.90    0.59
   4 -10   1    4.13    0.81
  -5  10  -1    4.41    0.64
  -5  10  -1    3.76    0.56
  -5  10  -1    3.91    0.80
  -5  10  -1    5.71    0.77
   5 -10   1    3.22    0.72
   5 -10   1    4.01    0.68
   5 -10   1    4.53    0.87
   9   9  -1    0.91    0.44
   9   9  -1    0.49    0.29
  -9  -9   1    0.38    0.26
  -9  -9   1    0.49    0.43
  -9  -9   1    0.79    0.38
  -9  -9   1    0.40    0.19
   8   9  -1   17.19    0.77
   8   9  -1   17.64    0.85
   8   9  -1   15.92    0.91
  -8  -9   1   16.96    0.88
  -8  -9   1   16.15    0.88
  -8  -9   1   15.70    0.74
  -8  -9   1   15.96    0.85
  -8  -9   1   16.82    0.86
   7   9  -1    0.84    0.22
   7   9  -1    0.64    0.30
   7   9  -1    0.64    0.28
  -7  -9   1    0.61    0.17
  -7  -9   1    0.68    0.24
  -7  -9   1    0.84    0.33
  -7  -9   1    0.52    0.21
   6   9  -1   49.35    1.87
   6   9  -1   46.11    2.05
   6   9  -1   46.30    1.72
  -6  -9   1   47.60    1.72
  -6  -9   1   47.45    2.28
  -6  -9   1   47.99    1.88
  -6  -9   1   42.85    2.00
   5   9  -1    4.44    0.40
   5   9  -1    4.00    0.41
   5   9  -1    3.19    0.39
  -5  -9   1    4.05    0.38
  -5  -9   1    3.83    0.39
  -5  -9   1    3.91    0.34
   4   9  -1   72.00    2.50
   4   9  -1   72.42    2.53
   4   9  -1   74.10    2.65
   4   9  -1   73.97    2.61
   4   9  -1   70.85    2.64
  -4  -9   1   71.26    2.56
  -4  -9   1   69.08    2.65
  -4  -9   1   73.49    2.54
   3   9  -1   43.43    1.71
   3   9  -1   43.54    1.75
   3   9  -1   42.61    1.66
   3   9  -1   41.82    1.62
  -3  -9   1   45.99    1.70
  -3  -9   1   42.10    1.67
  -3  -9   1   42.85    1.72
  -3  -9   1   41.96    1.77
   2   9  -1   77.10    2.81
   2   9  -1   82.68    2.89
   2   9  -1   79.65    2.83
   2   9  -1   82.39    2.82
   2   9  -1   79.72    2.78
  -2  -9   1   79.25    2.80
  -2  -9   1   79.50    2.85
  -2  -9   1   82.20    2.99
   1   9  -1  143.96    4.57
   1   9  -1  146.60    4.65
   1   9  -1  137.70    4.59
   1   9  -1  145.64    4.63
   1   9  -1  140.23    4.60
  -1  -9   1  144.44    4.70
  -1  -9   1  132.29    4.67
  -1  -9   1  139.62    4.57
  -1  -9   1  139.63    4.63
  -1  -9   1  141.38    4.63
   0   9  -1    8.76    0.56
   0   9  -1    9.03    0.55
   0   9  -1    8.53    0.54
   0   9  -1    8.48    0.53
   0   9  -1    8.58    0.56
   0  -9   1    8.53    0.60
   0  -9   1    8.82    0.55
   0  -9   1    8.43    0.58
   0  -9   1    8.91    0.58
  -1   9  -1   51.90    1.95
  -1   9  -1   49.07    1.89
  -1   9  -1   51.31    2.00
  -1   9  -1   49.47    1.95
   1  -9   1   50.96    2.05
   1  -9   1   52.29    1.97
   1  -9   1   50.04    1.97
   1  -9   1   50.98    2.04
  -2   9  -1   16.72    0.84
  -2   9  -1   17.01    0.89
  -2   9  -1   17.46    0.92
   2  -9   1   17.31    0.88
   2  -9   1   17.13    0.93
   2  -9   1   16.43    0.94
   2  -9   1   16.86    0.87
  -3   9  -1   26.92    1.20
  -3   9  -1   25.15    1.16
  -3   9  -1   25.90    1.23
   3  -9   1   28.18    1.16
   3  -9   1   25.56    1.27
   3  -9   1   26.99    1.17
   3  -9   1   24.32    1.22
  -4   9  -1    0.86    0.34
  -4   9  -1    1.05    0.24
  -4   9  -1    1.52    0.30
  -4   9  -1    1.75    0.35
   4  -9   1    1.25    0.36
   4  -9   1    1.52    0.31
   4  -9   1    0.99    0.44
   4  -9   1    1.57    0.29
  -5   9  -1    3.12    0.46
  -5   9  -1    3.78    0.52
  -5   9  -1    2.80    0.62
  -5   9  -1    3.34    0.61
   5  -9   1    3.68    0.55
   5  -9   1    3.63    0.66
   5  -9   1    3.62    0.62
  -6   9  -1    3.82    0.78
  -6   9  -1    5.50    0.63
   6  -9   1    5.14    0.67
   6  -9   1    5.06    0.50
   6  -9   1    3.82    0.83
   6  -9   1    5.11    1.12
  10   8  -1    5.74    0.49
  10   8  -1    5.50    0.76
 -10  -8   1    5.20    0.67
 -10  -8   1    6.90    0.73
   9   8  -1    0.86    0.39
   9   8  -1    0.96    0.24
  -9  -8   1    0.55    0.34
  -9  -8   1    0.85    0.36
  -9  -8   1    0.86    0.23
   8   8  -1   14.48    0.65
   8   8  -1   14.06    0.79
   8   8  -1   13.82    0.72
  -8  -8   1   14.01    0.64
  -8  -8   1   14.81    0.75
  -8  -8   1   13.71    0.79
  -8  -8   1   13.28    0.76
  -8  -8   1   14.41    0.80
   7   8  -1    8.46    0.48
   7   8  -1    8.07    0.58
   7   8  -1    8.93    0.54
  -7  -8   1    8.45    0.53
  -7  -8   1    8.25    0.68
  -7  -8   1    8.24    0.54
  -7  -8   1    7.78    0.46
   6   8  -1    4.11    0.35
   6   8  -1    2.49    0.48
   6   8  -1    3.32    0.37
  -6  -8   1    3.44    0.35
  -6  -8   1    4.03    0.33
   5   8  -1   18.62    0.92
   5   8  -1   19.24    0.91
   5   8  -1   18.47    0.82
  -5  -8   1   18.68    0.94
  -5  -8   1   18.33    0.82
  -5  -8   1   18.23    0.90
  -5  -8   1   18.28    0.87
   4   8  -1    3.49    0.34
   4   8  -1    2.91    0.28
   4   8  -1    2.99    0.33
   4   8  -1    2.45    0.30
  -4  -8   1    3.30    0.32
  -4  -8   1    3.61    0.34
  -4  -8   1    3.18    0.34
   3   8  -1    5.74    0.43
   3   8  -1    5.90    0.40
   3   8  -1    5.48    0.37
   3   8  -1    6.01    0.42
   3   8  -1    5.14    0.44
  -3  -8   1    6.35    0.42
  -3  -8   1    5.46    0.46
  -3  -8   1    6.22    0.41
  -3  -8   1    6.31    0.41
   2   8  -1   41.99    1.63
   2   8  -1   40.35    1.59
   2   8  -1   40.12    1.59
   2   8  -1   40.23    1.57
   2   8  -1   39.23    1.54
  -2  -8   1   40.80    1.65
  -2  -8   1   39.79    1.59
  -2  -8   1   39.70    1.58
  -2  -8   1   40.04    1.57
   1   8  -1   37.49    1.49
   1   8  -1   37.55    1.47
   1   8  -1   39.34    1.54
   1   8  -1   37.88    1.51
   1   8  -1   36.95    1.49
  -1  -8   1   36.51    1.55
  -1  -8   1   38.22    1.52
  -1  -8   1   38.73    1.56
  -1  -8   1   37.52    1.48
  -1  -8   1   37.44    1.51
   0   8  -1   35.61    1.43
   0   8  -1   35.54    1.43
   0   8  -1   36.11    1.44
   0   8  -1   34.77    1.46
   0   8  -1   35.32    1.42
   0  -8   1   34.57    1.47
   0  -8   1   36.21    1.47
   0  -8   1   36.01    1.46
   0  -8   1   36.35    1.50
  -1   8  -1  127.17    4.03
  -1   8  -1  122.96    4.05
  -1   8  -1  127.16    4.08
  -1   8  -1  124.38    4.13
  -1   8  -1  123.01    4.03
   1  -8   1  124.55    4.15
   1  -8   1  124.80    4.08
   1  -8   1  118.20    4.07
   1  -8   1  121.37    4.16
  -2   8  -1   14.10    0.72
  -2   8  -1   13.43    0.73
  -2   8  -1   12.65    0.65
  -2   8  -1   13.39    0.70
   2  -8   1   13.98    0.76
   2  -8   1   13.07    0.76
   2  -8   1   13.49    0.72
   2  -8   1   13.42    0.71
  -3   8  -1   74.79    2.63
  -3   8  -1   76.78    2.70
  -3   8  -1   75.22    2.75
   3  -8   1   70.97    2.79
   3  -8   1   77.76    2.62
   3  -8   1   77.39    2.68
   3  -8   1   73.66    2.78
  -4   8  -1    1.71    0.27
  -4   8  -1    1.49    0.28
  -4   8  -1    1.88    0.35
   4  -8   1    1.72    0.30
   4  -8   1    1.13    0.35
   4  -8   1    1.37    0.24
   4  -8   1    1.75    0.31
  -5   8  -1   36.66    1.51
  -5   8  -1   35.23    1.43
  -5   8  -1   36.55    1.56
  -5   8  -1   35.62    1.47
   5  -8   1   33.09    1.55
   5  -8   1   35.87    1.71
   5  -8   1   38.00    1.49
   5  -8   1   38.33    1.35
  -6   8  -1    0.79    0.40
  -6   8  -1    0.35    0.41
  -6   8  -1   -0.06    0.28
   6  -8   1    0.16    0.45
   6  -8   1    0.16    0.61
   6  -8   1   -0.05    0.24
   6  -8   1    0.00    0.35
  10   7  -1    6.30    0.68
  10   7  -1    4.38    0.44
 -10  -7   1    4.60    0.65
 -10  -7   1    5.30    0.42
 -10  -7   1    6.05    0.48
 -10  -7   1    6.20    0.56
   9   7  -1   -0.20    0.36
   9   7  -1    0.09    0.22
  -9  -7   1    0.24    0.33
  -9  -7   1   -0.01    0.20
  -9  -7   1    0.01    0.32
  -9  -7   1   -0.14    0.22
   8   7  -1    1.97    0.33
   8   7  -1    2.32    0.43
  -8  -7   1    2.63    0.30
  -8  -7   1    2.17    0.26
  -8  -7   1    2.70    0.37
   7   7  -1    8.39    0.50
   7   7  -1    8.50    0.54
  -7  -7   1    7.80    0.51
  -7  -7   1    8.22    0.53
  -7  -7   1    8.62    0.51
  -7  -7   1    7.40    0.43
   6   7  -1   24.55    0.96
   6   7  -1   23.35    1.04
   6   7  -1   23.30    1.05
  -6  -7   1   22.86    0.93
  -6  -7   1   22.72    1.04
  -6  -7   1   22.19    1.01
  -6  -7   1   23.61    1.04
   5   7  -1    0.21    0.16
   5   7  -1    0.22    0.13
   5   7  -1    0.22    0.15
  -5  -7   1    0.24    0.15
  -5  -7   1    0.29    0.14
  -5  -7   1    0.22    0.16
   4   7  -1   60.10    2.14
   4   7  -1   60.05    2.18
   4   7  -1   58.26    2.04
   4   7  -1   61.06    2.08
  -4  -7   1   61.55    2.08
  -4  -7   1   58.35    2.17
  -4  -7   1   60.69    2.15
  -4  -7   1   59.10    2.10
   3   7  -1   25.21    1.02
   3   7  -1   25.49    1.08
   3   7  -1   25.31    1.05
   3   7  -1   26.23    1.12
   3   7  -1   25.17    1.11
  -3  -7   1   25.65    1.05
  -3  -7   1   25.55    1.09
  -3  -7   1   24.90    1.05
   2   7  -1  127.14    3.99
   2   7  -1  126.70    4.05
   2   7  -1  124.48    4.03
   2   7  -1  123.16    3.96
   2   7  -1  123.19    4.00
  -2  -7   1  119.64    4.06
  -2  -7   1  123.81    4.01
  -2  -7   1  124.49    3.99
  -2  -7   1  126.27    3.98
   1   7  -1    4.43    0.33
   1   7  -1    4.72    0.33
   1   7  -1    4.46    0.34
   1   7  -1    4.70    0.37
   1   7  -1    4.74    0.36
  -1  -7   1    4.33    0.34
  -1  -7   1    4.25    0.36
  -1  -7   1    4.57    0.38
  -1  -7   1    4.79    0.36
  -1  -7   1    4.81    0.34
   0   7  -1  212.59    6.60
   0   7  -1  217.36    6.60
   0   7  -1  213.49    6.64
   0   7  -1  218.36    6.59
   0   7  -1  210.08    6.59
   0  -7   1  210.49    6.63
   0  -7   1  223.79    6.71
   0  -7   1  217.66    6.63
   0  -7   1  206.69    6.64
  -1   7  -1   13.64    0.68
  -1   7  -1   13.04    0.66
  -1   7  -1   12.83    0.69
  -1   7  -1   12.88    0.67
  -1   7  -1   13.39    0.67
   1  -7   1   13.22    0.72
   1  -7   1   13.64    0.70
   1  -7   1   13.22    0.68
   1  -7   1   12.41    0.70
  -2   7  -1   35.10    1.38
  -2   7  -1   35.50    1.42
  -2   7  -1   34.62    1.38
  -2   7  -1   35.23    1.45
  -2   7  -1   35.27    1.33
   2  -7   1   35.17    1.39
   2  -7   1   35.25    1.40
   2  -7   1   35.74    1.48
   2  -7   1   34.20    1.47
  -3   7  -1    4.74    0.34
  -3   7  -1    4.21    0.36
  -3   7  -1    4.19    0.34
  -3   7  -1    3.63    0.37
   3  -7   1    4.48    0.34
   3  -7   1    3.55    0.37
   3  -7   1    3.98    0.41
  -4   7  -1   23.73    1.05
  -4   7  -1   23.14    1.06
  -4   7  -1   24.71    1.08
  -4   7  -1   25.37    1.13
   4  -7   1   23.51    0.97
   4  -7   1   21.95    1.18
   4  -7   1   24.34    1.06
   4  -7   1   23.60    1.13
  -5   7  -1    0.07    0.26
  -5   7  -1    0.15    0.23
  -5   7  -1    0.05    0.22
  -5   7  -1    0.58    0.21
  -5   7  -1   -0.05    0.29
   5  -7   1    0.23    0.37
   5  -7   1    0.45    0.18
   5  -7   1    0.31    0.30
   5  -7   1    0.29    0.24
  -6   7  -1    2.93    0.37
  -6   7  -1    3.25    0.48
  -6   7  -1    3.87    0.50
  -6   7  -1    3.34    0.45
   6  -7   1    2.76    0.47
   6  -7   1    3.91    0.58
   6  -7   1    3.63    0.44
  -7   7  -1    0.36    0.30
  -7   7  -1    0.28    0.41
  -7   7  -1    0.54    0.30
  -7   7  -1    0.41    0.44
   7  -7   1    0.88    0.39
   7  -7   1    0.88    0.48
   7  -7   1   -0.13    0.73
  10   6  -1    0.68    0.38
  10   6  -1    0.66    0.25
 -10  -6   1    0.65    0.33
 -10  -6   1    0.36    0.37
 -10  -6   1    0.69    0.20
   9   6  -1   10.76    0.49
   9   6  -1    9.94    0.63
  -9  -6   1    9.92    0.65
  -9  -6   1   10.48    0.51
  -9  -6   1   10.25    0.60
  -9  -6   1    9.65    0.49
   8   6  -1    2.03    0.38
   8   6  -1    1.88    0.26
   8   6  -1    2.53    0.29
  -8  -6   1    2.62    0.31
  -8  -6   1    1.88    0.34
  -8  -6   1    2.11    0.41
  -8  -6   1    1.99    0.24
  -8  -6   1    2.34    0.28
   7   6  -1    2.66    0.33
   7   6  -1    4.04    0.26
   7   6  -1    3.67    0.29
  -7  -6   1    2.88    0.30
  -7  -6   1    3.12    0.24
  -7  -6   1    3.23    0.31
  -7  -6   1    2.93    0.33
  -7  -6   1    3.82    0.29
   6   6  -1   87.09    2.89
   6   6  -1   88.65    2.78
   6   6  -1   85.32    2.90
  -6  -6   1   85.87    2.88
  -6  -6   1   87.75    2.78
  -6  -6   1   88.13    2.91
  -6  -6   1   85.26    2.86
  -6  -6   1   81.76    2.88
   5   6  -1    0.25    0.13
   5   6  -1    0.05    0.14
  -5  -6   1    0.04    0.14
  -5  -6   1    0.20    0.13
  -5  -6   1   -0.03    0.11
  -5  -6   1   -0.14    0.12
   4   6  -1   14.14    0.70
   4   6  -1   14.46    0.67
   4   6  -1   13.24    0.61
  -4  -6   1   13.00    0.68
  -4  -6   1   13.42    0.66
  -4  -6   1   13.84    0.62
  -4  -6   1   13.33    0.64
   3   6  -1   20.70    0.87
   3   6  -1   19.82    0.82
   3   6  -1   19.38    0.83
   3   6  -1   19.87    0.90
   3   6  -1   20.74    0.92
  -3  -6   1   20.05    0.84
  -3  -6   1   20.28    0.86
  -3  -6   1   18.82    0.90
  -3  -6   1   19.32    0.84
   2   6  -1   32.40    1.22
   2   6  -1   33.38    1.26
   2   6  -1   33.75    1.25
   2   6  -1   32.88    1.30
   2   6  -1   33.13    1.29
  -2  -6   1   33.05    1.25
  -2  -6   1   31.79    1.23
  -2  -6   1   31.22    1.30
  -2  -6   1   32.88    1.27
   1   6  -1    0.26    0.09
   1   6  -1    0.33    0.10
   1   6  -1    0.32    0.12
   1   6  -1    0.16    0.10
  -1  -6   1    0.20    0.11
  -1  -6   1    0.27    0.11
  -1  -6   1    0.14    0.09
  -1  -6   1    0.22    0.11
   0   6  -1  103.25    3.25
   0   6  -1   99.07    3.21
   0   6  -1   98.10    3.25
   0   6  -1   98.62    3.22
   0   6  -1  100.05    3.23
   0  -6   1  100.72    3.29
   0  -6   1  100.53    3.26
   0  -6   1   98.81    3.24
   0  -6   1   95.60    3.26
  -1   6  -1    5.45    0.35
  -1   6  -1    5.78    0.38
  -1   6  -1    5.67    0.36
  -1   6  -1    5.10    0.37
  -1   6  -1    5.77    0.37
   1  -6   1    5.41    0.37
   1  -6   1    5.69    0.37
   1  -6   1    5.07    0.37
   1  -6   1    5.04    0.39
  -2   6  -1  146.50    4.69
  -2   6  -1  151.09    4.74
  -2   6  -1  150.72    4.69
  -2   6  -1  145.70    4.62
  -2   6  -1  151.94    4.79
   2  -6   1  149.08    4.69
   2  -6   1  154.73    4.74
   2  -6   1  148.94    4.82
   2  -6   1  150.03    4.81
  -3   6  -1   49.02    1.84
  -3   6  -1   51.27    1.82
  -3   6  -1   49.39    1.77
  -3   6  -1   50.10    1.90
  -3   6  -1   49.51    1.80
   3  -6   1   50.06    1.92
   3  -6   1   50.52    1.82
   3  -6   1   48.86    1.94
   3  -6   1   50.68    1.77
  -4   6  -1   40.74    1.57
  -4   6  -1   38.34    1.68
  -4   6  -1   42.34    1.65
  -4   6  -1   42.34    1.60
  -4   6  -1   37.01    1.66
   4  -6   1   42.50    1.57
   4  -6   1   41.17    1.45
   4  -6   1   40.46    1.65
   4  -6   1   41.25    1.74
  -5   6  -1   32.36    1.34
  -5   6  -1   30.31    1.27
  -5   6  -1   29.01    1.26
  -5   6  -1   28.74    1.24
  -5   6  -1   30.37    1.31
   5  -6   1   29.95    1.33
   5  -6   1   31.18    1.10
   5  -6   1   29.94    1.23
   5  -6   1   29.56    1.44
  -6   6  -1   10.09    0.63
  -6   6  -1   10.42    0.65
  -6   6  -1    8.73    0.59
   6  -6   1    8.70    0.77
   6  -6   1    9.81    0.56
   6  -6   1    9.49    0.66
  -7   6  -1    7.84    0.61
  -7   6  -1    6.13    0.61
  -7   6  -1    6.45    0.48
   7  -6   1    5.88    0.83
   7  -6   1    7.52    0.67
   7  -6   1    7.93    0.55
  -8   6  -1    1.68    0.33
   8  -6   1    2.18    0.73
   8  -6   1    1.66    0.52
   8  -6   1    2.23    0.40
  10   5  -1    0.45    0.37
 -10  -5   1   -0.01    0.25
 -10  -5   1    0.03    0.30
 -10  -5   1   -0.25    0.22
 -10  -5   1   -0.32    0.52
   9   5  -1    6.13    0.37
   9   5  -1    6.21    0.52
  -9  -5   1    6.64    0.51
  -9  -5   1    5.32    0.36
  -9  -5   1    6.11    0.45
   8   5  -1    0.34    0.22
   8   5  -1   -0.03    0.24
  -8  -5   1    0.18    0.14
  -8  -5   1    0.37    0.13
  -8  -5   1    0.26    0.22
   7   5  -1    3.70    0.26
   7   5  -1    3.66    0.35
   7   5  -1    4.12    0.28
  -7  -5   1    4.04    0.29
  -7  -5   1    3.46    0.31
  -7  -5   1    3.57    0.25
  -7  -5   1    3.51    0.33
  -7  -5   1    4.00    0.36
   6   5  -1    0.32    0.15
  -6  -5   1    0.27    0.13
  -6  -5   1    0.17    0.11
  -6  -5   1    0.43    0.15
   5   5  -1   79.10    2.63
   5   5  -1   80.05    2.54
   5   5  -1   83.49    2.68
  -5  -5   1   78.17    2.59
  -5  -5   1   78.54    2.63
  -5  -5   1   79.37    2.53
  -5  -5   1   78.86    2.63
  -5  -5   1   78.97    2.63
   4   5  -1  205.48    6.11
   4   5  -1  199.75    6.05
   4   5  -1  202.37    5.98
  -4  -5   1  195.96    6.01
  -4  -5   1  200.42    6.05
  -4  -5   1  194.24    5.97
  -4  -5   1  195.98    6.08
   3   5  -1  248.20    7.46
   3   5  -1  255.81    7.43
   3   5  -1  246.49    7.39
   3   5  -1  252.12    7.52
  -3  -5   1  245.54    7.43
  -3  -5   1  254.80    7.42
  -3  -5   1  239.10    7.50
  -3  -5   1  250.61    7.48
   2   5  -1  576.12   16.47
   2   5  -1  575.87   16.51
   2   5  -1  552.12   16.40
   2   5  -1  546.34   16.50
   2   5  -1  559.05   16.44
  -2  -5   1  558.49   16.43
  -2  -5   1  579.87   16.45
  -2  -5   1  557.57   16.52
  -2  -5   1  569.85   16.47
   1   5  -1   33.04    1.22
   1   5  -1   32.91    1.20
   1   5  -1   33.91    1.23
   1   5  -1   34.12    1.26
   1   5  -1   31.75    1.22
  -1  -5   1   33.10    1.21
  -1  -5   1   32.54    1.24
  -1  -5   1   33.60    1.24
  -1  -5   1   32.83    1.23
  -1  -5   1   33.17    1.27
   0   5  -1  370.76   11.05
   0   5  -1  378.87   11.07
   0   5  -1  365.19   11.04
   0   5  -1  372.12   11.04
   0   5  -1  389.30   11.08
   0  -5   1  382.50   11.11
   0  -5   1  370.23   11.07
   0  -5   1  371.07   11.03
   0  -5   1  384.10   11.09
   0  -5   1  361.35   11.08
  -1   5  -1   70.58    2.36
  -1   5  -1   72.02    2.41
  -1   5  -1   70.26    2.36
  -1   5  -1   74.73    2.36
  -1   5  -1   70.63    2.37
   1  -5   1   69.65    2.41
   1  -5   1   71.19    2.38
   1  -5   1   71.91    2.38
   1  -5   1   70.71    2.41
  -2   5  -1  355.02   10.27
  -2   5  -1  344.40   10.33
  -2   5  -1  348.95   10.32
  -2   5  -1  348.89   10.36
  -2   5  -1  352.51   10.42
  -2   5  -1  354.54   10.26
   2  -5   1  350.75   10.43
   2  -5   1  338.91   10.34
   2  -5   1  337.12   10.42
   2  -5   1  352.20   10.31
  -3   5  -1   16.71    0.76
  -3   5  -1   18.42    0.84
  -3   5  -1   17.73    0.80
  -3   5  -1   16.98    0.77
  -3   5  -1   16.73    0.74
   3  -5   1   16.74    0.73
   3  -5   1   17.24    0.86
   3  -5   1   17.75    0.84
   3  -5   1   17.87    0.78
  -4   5  -1  126.53    4.04
  -4   5  -1  128.75    4.08
  -4   5  -1  125.50    3.99
  -4   5  -1  119.84    4.01
  -4   5  -1  130.85    4.14
   4  -5   1  123.69    4.23
   4  -5   1  126.36    4.02
   4  -5   1  122.87    4.13
   4  -5   1  128.52    3.88
  -5   5  -1    7.60    0.51
  -5   5  -1    7.30    0.50
  -5   5  -1    6.63    0.48
  -5   5  -1    6.80    0.45
   5  -5   1    6.31    0.35
   5  -5   1    6.80    0.47
   5  -5   1    7.28    0.42
  -6   5  -1    1.42    0.31
  -6   5  -1    1.97    0.32
  -6   5  -1    1.55    0.26
   6  -5   1    1.05    0.34
   6  -5   1    1.76    0.39
   6  -5   1    1.65    0.30
  -7   5  -1    4.98    0.39
  -7   5  -1    4.65    0.49
  -7   5  -1    4.84    0.45
   7  -5   1    5.36    0.54
   7  -5   1    5.32    0.43
  -8   5  -1    0.44    0.28
  -8   5  -1    0.54    0.38
  -8   5  -1    0.72    0.35
  -8   5  -1    0.39    0.26
   8  -5   1    0.63    0.43
   8  -5   1    0.80    0.59
   8  -5   1    0.39    0.32
  10   4  -1    0.59    0.35
  10   4  -1    0.62    0.24
 -10  -4   1    0.56    0.29
 -10  -4   1    0.47    0.32
 -10  -4   1    0.52    0.20
   9   4  -1   10.09    0.60
  -9  -4   1    9.42    0.47
  -9  -4   1    9.07    0.57
  -9  -4   1   11.19    0.54
  -9  -4   1    9.87    0.68
   8   4  -1    2.12    0.35
   8   4  -1    2.86    0.23
  -8  -4   1    1.87    0.22
  -8  -4   1    3.00    0.33
  -8  -4   1    2.43    0.32
   7   4  -1   22.76    0.99
   7   4  -1   24.90    0.90
   7   4  -1   25.38    0.94
  -7  -4   1   25.34    0.92
  -7  -4   1   24.97    1.00
  -7  -4   1   23.65    1.11
  -7  -4   1   24.10    0.89
   6   4  -1   17.33    0.67
   6   4  -1   17.25    0.76
   6   4  -1   18.81    0.75
  -6  -4   1   16.51    0.67
  -6  -4   1   17.72    0.74
  -6  -4   1   18.07    0.74
  -6  -4   1   16.38    0.82
  -6  -4   1   17.76    0.76
   5   4  -1   11.75    0.56
   5   4  -1   12.88    0.52
   5   4  -1   11.74    0.56
  -5  -4   1   11.04    0.54
  -5  -4   1   10.74    0.57
  -5  -4   1   12.34    0.50
  -5  -4   1   11.64    0.54
  -5  -4   1   11.74    0.55
   4   4  -1   94.07    2.88
   4   4  -1   92.90    2.93
   4   4  -1   93.90    2.97
  -4  -4   1   90.77    2.90
  -4  -4   1   93.72    2.94
  -4  -4   1   91.26    2.95
  -4  -4   1   92.21    2.87
   3   4  -1    0.69    0.13
   3   4  -1    0.71    0.12
  -3  -4   1    0.74    0.12
  -3  -4   1    0.54    0.10
  -3  -4   1    0.72    0.12
   2   4  -1   73.18    2.27
   2   4  -1   71.60    2.24
   2   4  -1   68.91    2.27
   2   4  -1   72.23    2.33
  -2  -4   1   71.07    2.33
  -2  -4   1   69.67    2.28
  -2  -4   1   69.51    2.25
  -2  -4   1   70.90    2.26
   1   4  -1   90.81    2.85
   1   4  -1   91.23    2.85
   1   4  -1   89.75    2.86
   1   4  -1   92.19    2.89
   1   4  -1   90.28    2.83
  -1  -4   1   92.09    2.85
  -1  -4   1   90.03    2.89
  -1  -4   1   90.87    2.86
  -1  -4   1   90.58    2.84
   0   4  -1  199.81    6.08
   0   4  -1  203.17    6.12
   0   4  -1  201.11    6.10
   0   4  -1  204.06    6.10
   0   4  -1  208.59    6.12
   0  -4   1  205.89    6.13
   0  -4   1  202.62    6.13
   0  -4   1  207.26    6.13
   0  -4   1  204.93    6.09
   0  -4   1  201.99    6.12
  -1   4  -1  101.43    3.12
  -1   4  -1   96.72    3.12
  -1   4  -1  100.70    3.11
  -1   4  -1   99.80    3.16
  -1   4  -1  101.67    3.13
   1  -4   1   99.31    3.16
   1  -4   1   98.87    3.14
   1  -4   1  101.36    3.17
   1  -4   1   96.29    3.12
  -2   4  -1  522.46   15.70
  -2   4  -1  552.86   15.79
  -2   4  -1  550.99   15.63
  -2   4  -1  519.25   15.68
  -2   4  -1  550.82   15.74
  -2   4  -1  499.95   15.61
   2  -4   1  542.95   15.72
   2  -4   1  532.21   15.78
   2  -4   1  549.37   15.67
   2  -4   1  560.72   15.80
  -3   4  -1    0.25    0.11
  -3   4  -1    0.53    0.10
  -3   4  -1    0.44    0.11
  -3   4  -1    0.47    0.10
   3  -4   1    0.34    0.09
   3  -4   1    0.72    0.14
  -4   4  -1  210.13    6.39
  -4   4  -1  205.35    6.31
  -4   4  -1  216.01    6.46
  -4   4  -1  204.36    6.37
   4  -4   1  209.07    6.55
   4  -4   1  209.11    6.35
   4  -4   1  207.02    6.47
   4  -4   1  208.54    6.18
  -5   4  -1   17.71    0.85
  -5   4  -1   17.71    0.84
   5  -4   1   17.81    0.77
   5  -4   1   18.26    0.85
   5  -4   1   16.32    0.90
  -6   4  -1   46.66    1.68
  -6   4  -1   46.24    1.83
  -6   4  -1   50.96    1.81
   6  -4   1   46.68    1.69
   6  -4   1   44.82    1.92
   6  -4   1   45.61    1.86
  -7   4  -1    0.54    0.26
  -7   4  -1    0.48    0.20
   7  -4   1    0.12    0.38
   7  -4   1    0.94    0.21
   7  -4   1    0.54    0.34
  -8   4  -1    9.64    0.64
  -8   4  -1    8.72    0.57
  -8   4  -1    8.58    0.62
  -8   4  -1    8.37    0.51
   8  -4   1    8.67    0.64
   8  -4   1    7.46    0.76
   8  -4   1    8.35    0.54
   9  -4   1    1.36    0.47
  10   3  -1    0.26    0.26
  10   3  -1    0.76    0.33
  10   3  -1   -0.04    0.42
 -10  -3   1    0.71    0.31
 -10  -3   1    0.13    0.22
 -10  -3   1    0.22    0.19
 -10  -3   1    0.74    0.27
   9   3  -1    7.44    0.51
   9   3  -1    8.09    0.43
  -9  -3   1    9.36    0.62
  -9  -3   1    7.96    0.46
  -9  -3   1    8.13    0.50
  -8  -3   1    0.05    0.13
  -8  -3   1    0.11    0.14
  -8  -3   1    0.03    0.19
   7   3  -1   22.73    0.80
   7   3  -1   19.75    0.87
   7   3  -1   21.86    0.91
  -7  -3   1   22.42    0.89
  -7  -3   1   22.20    1.03
  -7  -3   1   21.28    0.81
  -7  -3   1   22.51    0.88
   6   3  -1    8.18    0.46
   6   3  -1    9.59    0.44
   6   3  -1    8.90    0.41
  -6  -3   1    8.96    0.46
  -6  -3   1    9.99    0.46
  -6  -3   1   10.31    0.43
  -6  -3   1    8.93    0.55
  -6  -3   1    8.63    0.39
   5   3  -1   76.08    2.40
   5   3  -1   80.23    2.49
   5   3  -1   75.13    2.48
  -5  -3   1   74.57    2.39
  -5  -3   1   81.50    2.50
  -5  -3   1   79.04    2.46
  -5  -3   1   78.76    2.47
  -5  -3   1   77.27    2.58
   4   3  -1   31.69    1.07
   4   3  -1   33.67    1.16
   4   3  -1   31.02    1.12
  -4  -3   1   32.13    1.17
  -4  -3   1   29.25    1.06
  -4  -3   1   33.92    1.15
  -4  -3   1   33.48    1.13
  -4  -3   1   30.61    1.10
   3   3  -1   48.44    1.65
   3   3  -1   50.96    1.58
   3   3  -1   48.70    1.60
  -3  -3   1   47.30    1.63
  -3  -3   1   51.14    1.58
  -3  -3   1   49.48    1.61
  -3  -3   1   48.92    1.59
   2   3  -1  107.63    3.25
   2   3  -1  107.65    3.23
   2   3  -1  105.03    3.21
   2   3  -1  108.66    3.31
  -2  -3   1  108.17    3.30
  -2  -3   1  104.73    3.23
  -2  -3   1  108.61    3.26
  -2  -3   1  104.77    3.23
   1   3  -1  290.39    8.46
   1   3  -1  290.24    8.44
   1   3  -1  288.51    8.46
   1   3  -1  293.84    8.48
   1   3  -1  281.15    8.50
  -1  -3   1  279.98    8.50
  -1  -3   1  283.92    8.44
  -1  -3   1  292.83    8.47
  -1  -3   1  299.92    8.46
   0   3  -1  231.26    6.89
   0   3  -1  237.69    6.90
   0   3  -1  231.29    6.88
   0   3  -1  236.70    6.87
   0   3  -1  232.64    6.87
   0  -3   1  230.66    6.89
   0  -3   1  229.48    6.90
   0  -3   1  241.76    6.90
   0  -3   1  232.38    6.89
   0  -3   1  228.88    6.86
  -1   3  -1  423.14   12.41
  -1   3  -1  436.94   12.39
  -1   3  -1  401.62   12.34
  -1   3  -1  417.74   12.37
  -1   3  -1  468.67   12.29
  -1   3  -1  417.51   12.36
   1  -3   1  441.36   12.42
   1  -3   1  411.71   12.39
   1  -3   1  406.98   12.37
   1  -3   1  420.95   12.36
  -2   3  -1   22.54    0.84
  -2   3  -1   23.45    0.89
  -2   3  -1   21.90    0.79
  -2   3  -1   21.93    0.84
  -2   3  -1   22.38    0.80
   2  -3   1   21.32    0.84
   2  -3   1   22.52    0.89
   2  -3   1   21.59    0.89
   2  -3   1   22.49    0.81
  -3   3  -1  118.36    3.61
  -3   3  -1  114.87    3.48
  -3   3  -1  109.94    3.60
  -3   3  -1  118.78    3.61
  -3   3  -1  118.63    3.68
   3  -3   1  114.18    3.71
   3  -3   1  118.90    3.51
   3  -3   1  117.15    3.62
   3  -3   1  116.62    3.69
  -4   3  -1  111.32    3.56
  -4   3  -1  112.97    3.46
  -4   3  -1  109.45    3.51
   4  -3   1  111.31    3.65
   4  -3   1  109.29    3.57
   4  -3   1  109.39    3.47
  -5   3  -1   14.48    0.64
  -5   3  -1   13.57    0.69
  -5   3  -1   14.18    0.69
   5  -3   1   14.10    0.64
   5  -3   1   15.34    0.72
   5  -3   1   12.84    0.77
  -6   3  -1   42.07    1.64
  -6   3  -1   42.46    1.59
  -6   3  -1   42.41    1.50
   6  -3   1   37.90    1.82
   6  -3   1   41.35    1.50
   6  -3   1   42.09    1.60
  -7   3  -1    4.29    0.33
  -7   3  -1    4.05    0.38
  -7   3  -1    4.52    0.40
   7  -3   1    3.18    0.47
   7  -3   1    3.86    0.39
   7  -3   1    4.05    0.34
  -8   3  -1    2.57    0.43
  -8   3  -1    3.37    0.38
  -8   3  -1    3.60    0.36
   8  -3   1    3.38    0.37
   8  -3   1    2.66    0.46
   8  -3   1    3.26    0.55
  -9   3  -1    0.30    0.37
  -9   3  -1   -0.25    0.22
  -9   3  -1   -0.12    0.34
  -9   3  -1    0.07    0.28
   9  -3   1   -0.07    0.39
   9  -3   1    0.52    0.31
   9  -3   1    0.15    0.51
  10   2  -1    2.11    0.43
  10   2  -1    2.45    0.36
  10   2  -1    2.54    0.61
 -10  -2   1    2.51    0.39
 -10  -2   1    2.71    0.34
   9   2  -1    3.80    0.42
   9   2  -1    3.74    0.34
   9   2  -1    3.56    0.47
  -9  -2   1    3.75    0.35
  -9  -2   1    4.38    0.40
  -9  -2   1    4.71    0.42
   8   2  -1   20.45    0.86
   8   2  -1   21.45    0.82
  -8  -2   1   19.90    1.05
  -8  -2   1   22.77    0.87
   7   2  -1   36.46    1.38
  -7  -2   1   38.77    1.60
  -7  -2   1   42.06    1.41
  -7  -2   1   39.99    1.37
   6   2  -1   17.59    0.63
   6   2  -1   17.53    0.66
   6   2  -1   14.98    0.68
  -6  -2   1   16.33    0.64
  -6  -2   1   16.02    0.81
  -6  -2   1   18.08    0.70
   5   2  -1  137.79    4.13
   5   2  -1  140.17    4.16
   5   2  -1  133.52    4.19
  -5  -2   1  140.54    4.12
  -5  -2   1  150.00    4.21
  -5  -2   1  128.34    4.11
  -5  -2   1  138.43    4.34
   4   2  -1    7.14    0.30
   4   2  -1    6.41    0.33
   4   2  -1    6.82    0.32
  -4  -2   1    7.15    0.32
  -4  -2   1    6.64    0.29
  -4  -2   1    6.16    0.31
  -4  -2   1    6.27    0.37
   3   2  -1  120.09    3.49
   3   2  -1  119.59    3.57
   3   2  -1  116.86    3.52
  -3  -2   1  118.99    3.51
  -3  -2   1  108.04    3.68
  -3  -2   1  120.50    3.56
  -3  -2   1  123.54    3.53
  -3  -2   1  115.56    3.49
   2   2  -1    6.91    0.29
   2   2  -1    7.09    0.30
   2   2  -1    7.20    0.34
   2   2  -1    7.15    0.31
  -2  -2   1    7.90    0.35
  -2  -2   1    7.01    0.30
  -2  -2   1    7.85    0.37
  -2  -2   1    7.49    0.31
  -2  -2   1    6.93    0.29
   1   2  -1   12.88    0.49
   1   2  -1   13.33    0.52
   1   2  -1   13.39    0.49
   1   2  -1   13.33    0.48
  -1  -2   1   12.92    0.48
  -1  -2   1   13.58    0.49
  -1  -2   1   13.25    0.49
   0   2  -1  199.46    5.71
   0   2  -1  193.75    5.69
   0   2  -1  193.30    5.71
   0   2  -1  189.58    5.70
   0   2  -1  199.31    5.72
   0  -2   1  195.31    5.71
   0  -2   1  194.22    5.70
   0  -2   1  194.23    5.71
   0  -2   1  190.96    5.72
  -1   2  -1   42.09    1.34
  -1   2  -1   42.87    1.34
  -1   2  -1   42.64    1.38
  -1   2  -1   41.55    1.36
  -1   2  -1   42.11    1.29
   1  -2   1   42.13    1.38
   1  -2   1   39.28    1.33
   1  -2   1   41.39    1.36
   1  -2   1   42.49    1.36
  -2   2  -1   59.69    1.86
  -2   2  -1   59.42    1.82
  -2   2  -1   58.98    1.89
  -2   2  -1   59.77    1.89
  -2   2  -1   59.84    1.93
   2  -2   1   59.31    1.83
   2  -2   1   58.50    1.90
   2  -2   1   59.52    1.93
  -3   2  -1  126.93    3.81
  -3   2  -1  133.45    3.96
  -3   2  -1  131.69    4.01
   3  -2   1  129.51    3.82
   3  -2   1  130.88    4.02
   3  -2   1  126.96    3.95
   3  -2   1  129.77    4.05
  -4   2  -1   65.77    2.19
  -4   2  -1   65.75    2.18
   4  -2   1   64.34    2.19
   4  -2   1   66.93    2.28
   4  -2   1   63.92    2.13
  -5   2  -1   30.70    1.11
  -5   2  -1   28.32    1.16
  -5   2  -1   30.01    1.16
   5  -2   1   28.90    1.24
   5  -2   1   29.88    1.17
   5  -2   1   28.40    1.09
  -6   2  -1   55.00    1.93
  -6   2  -1   54.98    1.85
  -6   2  -1   52.02    1.98
   6  -2   1   53.89    1.94
   6  -2   1   54.99    2.06
   6  -2   1   53.42    1.84
  -7   2  -1    0.66    0.18
  -7   2  -1    0.36    0.17
   7  -2   1    0.62    0.26
   7  -2   1    0.68    0.16
  -8   2  -1   11.24    0.62
  -8   2  -1   10.63    0.68
   8  -2   1   11.00    0.71
   8  -2   1   10.93    0.63
   8  -2   1   11.06    0.55
  -9   2  -1    0.70    0.26
  -9   2  -1    0.74    0.33
  -9   2  -1    0.74    0.22
   9  -2   1    0.47    0.40
  10   1  -1    0.15    0.31
  10   1  -1   -0.15    0.47
 -10  -1   1    0.23    0.20
   9   1  -1    0.94    0.30
   9   1  -1    0.69    0.25
   9   1  -1    0.96    0.23
  -9  -1   1    0.72    0.23
   8   1  -1   17.48    0.77
   8   1  -1   18.63    0.76
   8   1  -1   18.31    0.90
  -8  -1   1   18.01    0.99
  -8  -1   1   19.86    0.78
   7   1  -1    4.10    0.26
   7   1  -1    3.42    0.28
   7   1  -1    4.03    0.37
  -7  -1   1    3.45    0.28
  -7  -1   1    4.08    0.35
  -7  -1   1    3.68    0.25
   6   1  -1   22.86    0.91
   6   1  -1   25.84    0.91
  -6  -1   1   24.55    0.89
  -6  -1   1   25.91    0.93
  -6  -1   1   24.85    1.09
   5   1  -1   22.04    0.85
  -5  -1   1   25.44    0.88
  -5  -1   1   24.37    0.84
  -5  -1   1   23.83    1.01
   4   1  -1  158.51    4.58
   4   1  -1  156.12    4.57
   4   1  -1  142.67    4.58
  -4  -1   1  163.32    4.61
  -4  -1   1  153.51    4.74
   3   1  -1  612.34   17.78
   3   1  -1  585.73   17.82
   3   1  -1  631.39   17.81
  -3  -1   1  682.01   17.82
  -3  -1   1  581.59   17.80
   2   1  -1  208.01    5.88
   2   1  -1  212.10    5.94
   2   1  -1  188.55    5.89
  -2  -1   1  186.38    5.92
  -2  -1   1  201.96    5.88
  -2  -1   1  215.91    5.98
  -2  -1   1  209.39    5.89
   1   1  -1  443.47   13.08
   1   1  -1  462.24   13.09
   1   1  -1  435.90   13.08
   1   1  -1  453.30   13.14
  -1  -1   1  528.50   13.12
  -1  -1   1  448.90   13.13
  -1  -1   1  426.13   13.08
  -1  -1   1  445.22   13.09
   0   1  -1   24.76    0.76
   0   1  -1   23.05    0.74
   0  -1   1   21.61    0.75
   0  -1   1   24.29    0.73
   0  -1   1   22.66    0.72
   0  -1   1   22.66    0.74
   0  -1   1   22.53    0.74
  -1   1  -1  409.96   11.76
  -1   1  -1  414.73   11.75
  -1   1  -1  412.12   11.73
  -1   1  -1  380.50   11.71
   1  -1   1  401.44   11.74
   1  -1   1  420.82   11.77
  -2   1  -1  102.90    3.03
  -2   1  -1   99.96    2.91
  -2   1  -1  101.22    3.00
  -2   1  -1  100.27    2.99
   2  -1   1  101.50    3.03
   2  -1   1   94.26    2.90
   2  -1   1   98.61    3.03
   2  -1   1   96.29    3.00
  -3   1  -1  271.24    8.01
  -3   1  -1  273.26    8.00
  -3   1  -1  281.08    7.99
   3  -1   1  264.02    7.97
   3  -1   1  267.63    8.01
   3  -1   1  272.35    8.06
  -4   1  -1   36.80    1.29
  -4   1  -1   34.93    1.29
  -4   1  -1   37.35    1.26
   4  -1   1   36.44    1.35
   4  -1   1   35.67    1.28
   4  -1   1   34.55    1.24
  -5   1  -1   55.33    1.86
  -5   1  -1   52.93    1.89
  -5   1  -1   54.19    1.81
   5  -1   1   54.24    1.96
   5  -1   1   54.22    1.87
   5  -1   1   54.75    1.81
  -6   1  -1   14.61    0.77
  -6   1  -1   15.75    0.71
  -6   1  -1   17.18    0.69
   6  -1   1   16.68    0.73
   6  -1   1   15.46    0.67
   6  -1   1   16.57    0.81
  -7   1  -1    2.79    0.26
  -7   1  -1    2.81    0.24
  -7   1  -1    2.09    0.28
   7  -1   1    2.37    0.35
   7  -1   1    2.84    0.28
   7  -1   1    2.25    0.24
  -8   1  -1    9.18    0.53
  -8   1  -1    9.72    0.62
   8  -1   1    9.82    0.50
   8  -1   1    8.82    0.60
   8  -1   1   10.14    0.54
  -9   1  -1    3.84    0.39
  -9   1  -1    4.36    0.41
  -9   1  -1    4.17    0.43
   9  -1   1    4.99    0.44
   9  -1   1    3.50    0.55
   9  -1   1    3.81    0.46
 -10   1  -1    0.60    0.34
 -10   1  -1    0.06    0.37
 -10   1  -1    0.28    0.21
  10  -1   1    1.22    0.37
  10  -1   1    0.78    0.40
  10  -1   1    0.84    0.49
  10   0  -1    3.38    0.53
 -10   0   1    3.04    0.39
   9   0  -1    0.26    0.36
   9   0  -1    0.83    0.33
   9   0  -1    1.00    0.24
  -9   0   1    0.74    0.20
   8   0  -1   39.98    1.40
   8   0  -1   39.46    1.37
   8   0  -1   38.10    1.57
  -8   0   1   37.32    1.64
  -8   0   1   37.43    1.59
   7   0  -1   34.16    1.25
   7   0  -1   38.07    1.30
   7   0  -1   33.41    1.53
  -7   0   1   34.53    1.50
  -7   0   1   37.54    1.27
  -7   0   1   35.64    1.27
   6   0  -1   56.15    1.84
   6   0  -1   54.75    2.03
   6   0  -1   55.87    1.86
  -6   0   1   54.51    2.06
  -6   0   1   61.30    1.87
  -6   0   1   55.60    1.85
   5   0  -1  118.20    3.52
   5   0  -1  115.88    3.70
   5   0  -1  107.80    3.48
  -5   0   1  112.22    3.50
  -5   0   1  124.58    3.52
  -5   0   1  111.94    3.70
   4   0  -1   93.85    2.84
   4   0  -1   89.10    2.82
  -4   0   1   91.30    2.98
  -4   0   1   98.41    2.83
   3   0  -1  265.03    8.23
   3   0  -1  277.16    8.21
   3   0  -1  293.40    8.25
  -3   0   1  288.13    8.39
  -3   0   1  296.86    8.25
   2   0  -1   36.11    1.11
   2   0  -1   34.46    1.12
  -2   0   1   38.54    1.20
  -2   0   1   37.45    1.10
  -2   0   1   35.12    1.20
  -1   0   1    2.73    0.14
  -1   0   1    3.02    0.15
  -1   0  -1   66.15    1.99
  -1   0  -1   67.61    1.99
   1   0   1   63.24    1.98
   1   0   1   68.71    1.99
  -2   0  -1    1.16    0.09
  -2   0  -1    1.27    0.09
  -3   0  -1  242.36    7.09
  -3   0  -1  255.52    7.08
  -3   0  -1  233.04    7.07
   3   0   1  232.30    7.06
  -4   0  -1   37.33    1.24
  -4   0  -1   34.98    1.23
  -4   0  -1   34.64    1.27
   4   0   1   35.03    1.22
   4   0   1   36.27    1.23
  -5   0  -1  271.40    8.23
  -5   0  -1  293.13    8.17
  -5   0  -1  276.25    8.16
   5   0   1  281.24    8.15
   5   0   1  249.60    8.26
   5   0   1  278.50    8.16
  -6   0  -1   59.66    2.04
  -6   0  -1   64.46    2.04
  -6   0  -1   57.15    2.13
   6   0   1   60.12    2.16
   6   0   1   60.34    2.05
   6   0   1   63.57    2.05
  -7   0  -1   54.76    1.84
  -7   0  -1   50.75    1.96
  -7   0  -1   53.57    1.85
   7   0   1   51.36    2.08
   7   0   1   53.88    1.85
   7   0   1   51.55    1.81
  -8   0  -1   10.89    0.55
  -8   0  -1   10.63    0.67
  -8   0  -1   10.37    0.55
   8   0   1   11.04    0.63
   8   0   1   11.31    0.56
   8   0   1   11.62    0.57
  -9   0  -1    3.23    0.34
  -9   0  -1    1.96    0.37
  -9   0  -1    2.33    0.36
   9   0   1    2.66    0.39
   9   0   1    3.32    0.43
   9   0   1    2.43    0.47
 -10   0  -1    3.99    0.51
 -10   0  -1    5.86    0.52
 -10   0  -1    3.73    0.49
  10   0   1    5.57    0.63
  10   0   1    5.63    0.58
  10   0   1    4.36    0.53
   9  -1  -1    0.17    0.26
   9  -1  -1    0.00    0.40
   9  -1  -1    0.18    0.29
  -9   1   1   -0.06    0.23
  -9   1   1    0.12    0.20
   8  -1  -1    0.21    0.32
   8  -1  -1    0.54    0.18
   8  -1  -1    0.56    0.22
  -8   1   1    0.55    0.17
  -8   1   1    0.27    0.18
  -8   1   1    0.38    0.20
   7  -1  -1    6.41    0.48
   7  -1  -1    7.33    0.37
   7  -1  -1    7.20    0.40
  -7   1   1    6.26    0.49
  -7   1   1    6.24    0.38
  -7   1   1    6.77    0.37
   6  -1  -1   20.52    0.79
   6  -1  -1   20.80    0.97
   6  -1  -1   22.28    0.85
  -6   1   1   18.65    0.96
  -6   1   1   21.09    0.83
  -6   1   1   22.11    0.80
   5  -1  -1   52.25    1.67
   5  -1  -1   46.51    1.58
   5  -1  -1   48.79    1.80
  -5   1   1   48.45    1.63
  -5   1   1   51.80    1.60
  -5   1   1   45.64    1.77
   4  -1  -1   68.96    2.33
   4  -1  -1   64.87    2.13
   4  -1  -1   70.63    2.19
  -4   1   1   67.65    2.31
  -4   1   1   67.56    2.17
  -4   1   1   73.87    2.15
   3  -1  -1  226.37    6.67
   3  -1  -1  214.70    6.62
   3  -1  -1  227.34    6.79
  -3   1   1  239.27    6.70
  -3   1   1  241.60    6.64
  -3   1   1  216.24    6.65
  -3   1   1  223.61    6.77
   2  -1  -1  306.79    9.16
   2  -1  -1  292.30    9.04
   2  -1  -1  300.02    9.06
  -2   1   1  335.11    9.16
  -2   1   1  333.17    9.10
  -2   1   1  310.03    9.04
   1  -1  -1   96.02    2.91
   1  -1  -1   99.47    2.86
   1  -1  -1   94.83    2.85
  -1   1   1   97.67    2.85
  -1   1   1   94.65    2.89
  -1   1   1  103.39    2.88
  -1   1   1   91.81    2.84
  -1   1   1  100.31    2.91
   0  -1  -1   40.20    1.26
   0  -1  -1   41.06    1.21
   0   1   1   38.26    1.21
   0   1   1   38.83    1.21
   0   1   1   41.76    1.23
  -1  -1  -1   81.21    2.37
   1   1   1   77.79    2.37
   1   1   1   80.81    2.36
  -2  -1  -1  194.74    5.41
  -2  -1  -1  173.71    5.38
   2   1   1  182.41    5.43
   2   1   1  187.26    5.39
  -3  -1  -1  160.98    4.70
  -3  -1  -1  159.58    4.59
  -3  -1  -1  155.03    4.65
   3   1   1  159.60    4.66
   3   1   1  152.78    4.68
  -4  -1  -1   47.87    1.58
  -4  -1  -1   48.73    1.62
  -4  -1  -1   46.50    1.54
   4   1   1   48.46    1.55
   4   1   1   45.94    1.56
  -5  -1  -1  127.54    3.88
  -5  -1  -1  130.72    3.93
  -5  -1  -1  125.02    3.97
   5   1   1  128.58    3.89
   5   1   1  122.95    3.89
  -6  -1  -1   -0.10    0.11
  -6  -1  -1   -0.01    0.10
  -6  -1  -1    0.01    0.09
   6   1   1   -0.03    0.10
  -7  -1  -1    0.67    0.13
  -7  -1  -1    0.44    0.12
  -7  -1  -1    0.39    0.14
   7   1   1    0.59    0.15
  -8  -1  -1    0.47    0.15
  -8  -1  -1    0.20    0.18
  -8  -1  -1    0.35    0.16
   8   1   1    0.19    0.25
   8   1   1    0.22    0.20
  -9  -1  -1    2.32    0.31
   9   1   1    2.31    0.40
   9   1   1    2.74    0.44
   9   1   1    2.36    0.34
 -10  -1  -1    3.77    0.58
 -10  -1  -1    3.31    0.44
 -10  -1  -1    3.25    0.48
  10   1   1    2.90    0.47
  10   1   1    3.55    0.53
  10   1   1    2.91    0.58
   9  -2  -1    2.96    0.51
   9  -2  -1    1.93    0.50
   9  -2  -1    2.93    0.41
  -9   2   1    2.05    0.43
  -9   2   1    2.58    0.40
  -9   2   1    2.60    0.39
   8  -2  -1    4.71    0.54
   8  -2  -1    4.18    0.42
   8  -2  -1    4.64    0.34
  -8   2   1    4.03    0.35
  -8   2   1    4.24    0.39
  -8   2   1    4.06    0.35
  -8   2   1    4.32    0.44
   7  -2  -1    4.11    0.46
   7  -2  -1    4.55    0.35
   7  -2  -1    4.33    0.30
  -7   2   1    3.43    0.39
  -7   2   1    4.12    0.33
  -7   2   1    4.04    0.30
  -7   2   1    4.46    0.29
   6  -2  -1  125.44    4.14
   6  -2  -1  117.23    3.78
   6  -2  -1  126.77    3.92
  -6   2   1  120.07    4.09
  -6   2   1  128.33    3.80
  -6   2   1  124.56    3.89
   5  -2  -1    2.22    0.23
   5  -2  -1    2.62    0.19
   5  -2  -1    1.85    0.28
  -5   2   1    2.15    0.21
  -5   2   1    2.15    0.26
   4  -2  -1  177.96    5.34
   4  -2  -1  171.18    5.26
   4  -2  -1  183.18    5.51
  -4   2   1  178.07    5.32
  -4   2   1  177.99    5.27
  -4   2   1  171.19    5.44
   3  -2  -1    6.62    0.38
   3  -2  -1    5.89    0.29
   3  -2  -1    6.54    0.27
   3  -2  -1    6.08    0.32
  -3   2   1    5.53    0.36
  -3   2   1    6.08    0.36
  -3   2   1    5.86    0.30
  -3   2   1    6.76    0.30
  -3   2   1    6.51    0.32
   2  -2  -1   32.51    1.07
   2  -2  -1   31.99    1.13
   2  -2  -1   30.35    1.04
  -2   2   1   31.47    1.10
  -2   2   1   31.98    1.04
  -2   2   1   30.34    1.04
  -2   2   1   31.20    1.09
  -2   2   1   31.93    1.02
  -2   2   1   31.16    1.06
   1  -2  -1   10.69    0.43
   1  -2  -1   11.98    0.48
   1  -2  -1   11.14    0.44
  -1   2   1   11.04    0.43
  -1   2   1   11.94    0.46
  -1   2   1   11.55    0.40
  -1   2   1   11.00    0.44
   0  -2  -1    0.38    0.05
   0  -2  -1    0.32    0.04
   0  -2  -1    0.34    0.05
   0   2   1    0.25    0.04
   0   2   1    0.35    0.05
   0   2   1    0.38    0.05
  -1  -2  -1    8.77    0.36
  -1  -2  -1    8.73    0.34
  -1  -2  -1    8.54    0.34
  -1  -2  -1    8.46    0.35
   1   2   1    8.48    0.35
  -2  -2  -1   85.50    2.59
  -2  -2  -1   85.73    2.58
  -2  -2  -1   86.50    2.60
   2   2   1   84.86    2.60
   2   2   1   85.69    2.58
  -3  -2  -1   57.55    1.86
  -3  -2  -1   61.39    1.91
  -3  -2  -1   62.49    1.87
   3   2   1   59.70    1.90
   3   2   1   59.76    1.87
  -4  -2  -1   35.38    1.20
  -4  -2  -1   36.34    1.26
  -4  -2  -1   36.27    1.17
   4   2   1   36.91    1.21
   4   2   1   35.43    1.25
  -5  -2  -1  153.76    4.46
  -5  -2  -1  148.80    4.55
  -5  -2  -1  159.22    4.65
  -5  -2  -1  148.75    4.66
   5   2   1  151.08    4.55
   5   2   1  145.66    4.61
  -6  -2  -1    1.32    0.19
  -6  -2  -1    0.97    0.18
  -6  -2  -1    1.11    0.15
   6   2   1    0.99    0.20
   6   2   1    1.21    0.14
  -7  -2  -1   30.77    1.17
  -7  -2  -1   30.15    1.11
  -7  -2  -1   29.11    1.27
   7   2   1   28.33    1.14
  -8  -2  -1    3.80    0.37
  -8  -2  -1    4.67    0.31
  -8  -2  -1    4.28    0.37
   8   2   1    3.52    0.37
   8   2   1    3.99    0.33
  -9  -2  -1    5.94    0.48
  -9  -2  -1    5.48    0.39
   9   2   1    5.88    0.51
   9   2   1    5.77    0.49
   9   2   1    6.01    0.39
 -10  -2  -1   -0.23    0.26
 -10  -2  -1    0.09    0.17
 -10  -2  -1    0.50    0.31
  10   2   1   -0.20    0.41
  10   2   1   -0.42    0.27
   9  -3  -1    0.17    0.39
   9  -3  -1   -0.10    0.56
   9  -3  -1    0.46    0.29
  -9   3   1    0.04    0.28
  -9   3   1   -0.09    0.34
  -9   3   1    0.01    0.23
  -9   3   1    0.16    0.31
   8  -3  -1    0.54    0.30
   8  -3  -1    0.46    0.21
   8  -3  -1    0.01    0.43
  -8   3   1    0.62    0.19
  -8   3   1    0.66    0.25
  -8   3   1    0.48    0.23
  -8   3   1    0.48    0.24
   7  -3  -1    0.67    0.16
   7  -3  -1    0.45    0.30
   7  -3  -1    0.81    0.23
  -7   3   1    0.56    0.15
  -7   3   1    0.53    0.20
  -7   3   1    0.46    0.18
  -7   3   1    0.49    0.21
   6  -3  -1    4.94    0.52
   6  -3  -1    5.85    0.33
   6  -3  -1    6.20    0.40
  -6   3   1    6.93    0.35
  -6   3   1    6.25    0.39
  -6   3   1    6.38    0.37
  -6   3   1    5.37    0.45
   5  -3  -1    2.81    0.36
   5  -3  -1    2.81    0.27
   5  -3  -1    3.31    0.23
  -5   3   1    2.85    0.26
  -5   3   1    3.12    0.31
  -5   3   1    3.24    0.24
  -5   3   1    3.64    0.23
   4  -3  -1  138.18    4.37
   4  -3  -1  134.15    4.27
   4  -3  -1  142.05    4.54
   4  -3  -1  140.02    4.18
  -4   3   1  145.15    4.37
  -4   3   1  143.43    4.27
  -4   3   1  139.48    4.46
  -4   3   1  143.09    4.32
   3  -3  -1    0.50    0.10
   3  -3  -1    0.59    0.10
  -3   3   1    0.50    0.07
  -3   3   1    0.52    0.12
  -3   3   1    0.46    0.11
  -3   3   1    0.76    0.15
  -3   3   1    0.43    0.10
   2  -3  -1  663.83   19.82
   2  -3  -1  626.74   19.79
   2  -3  -1  725.59   19.97
   2  -3  -1  705.12   19.88
  -2   3   1  614.79   19.84
  -2   3   1  668.31   19.85
  -2   3   1  743.94   19.91
  -2   3   1  765.22   19.75
  -2   3   1  658.78   19.81
   1  -3  -1    2.57    0.18
   1  -3  -1    2.80    0.19
   1  -3  -1    2.59    0.18
   1  -3  -1    3.13    0.20
  -1   3   1    3.11    0.19
  -1   3   1    2.78    0.18
  -1   3   1    2.76    0.18
  -1   3   1    3.23    0.20
  -1   3   1    3.11    0.20
   0  -3  -1  607.98   17.21
   0  -3  -1  633.54   17.26
   0  -3  -1  548.45   17.20
   0  -3  -1  570.17   17.18
   0  -3  -1  565.10   17.19
   0   3   1  615.14   17.21
   0   3   1  603.28   17.20
   0   3   1  634.93   17.24
   0   3   1  575.49   17.18
  -1  -3  -1   72.58    2.24
  -1  -3  -1   71.51    2.24
  -1  -3  -1   70.89    2.26
  -1  -3  -1   71.18    2.22
  -1  -3  -1   73.08    2.27
   1   3   1   74.60    2.25
   1   3   1   72.22    2.23
   1   3   1   70.02    2.21
  -2  -3  -1  776.69   20.94
  -2  -3  -1  719.57   20.91
  -2  -3  -1  647.88   20.92
  -2  -3  -1  737.98   20.91
   2   3   1  741.79   20.94
  -3  -3  -1  143.90    4.21
  -3  -3  -1  135.22    4.16
  -3  -3  -1  135.93    4.18
   3   3   1  138.50    4.16
   3   3   1  140.96    4.20
  -4  -3  -1  368.80   11.32
  -4  -3  -1  385.02   11.34
  -4  -3  -1  412.85   11.41
   4   3   1  386.50   11.33
   4   3   1  391.91   11.40
  -5  -3  -1   61.42    2.00
  -5  -3  -1   56.87    1.89
  -5  -3  -1   60.76    1.88
   5   3   1   56.82    1.97
   5   3   1   57.30    1.89
  -6  -3  -1   34.48    1.09
  -6  -3  -1   31.95    1.27
  -6  -3  -1   32.12    1.22
  -6  -3  -1   31.69    1.13
   6   3   1   31.12    1.13
   6   3   1   29.40    1.19
  -7  -3  -1   25.05    0.95
  -7  -3  -1   24.21    1.09
  -7  -3  -1   25.86    1.03
   7   3   1   24.53    0.94
   7   3   1   22.70    0.99
  -8  -3  -1    0.86    0.18
  -8  -3  -1    1.39    0.30
  -8  -3  -1    1.29    0.21
   8   3   1    1.75    0.34
   8   3   1    1.12    0.21
  -9  -3  -1    1.34    0.25
  -9  -3  -1    1.33    0.28
   9   3   1    1.20    0.28
   9   3   1    1.10    0.19
 -10  -3  -1    0.83    0.24
 -10  -3  -1    0.50    0.34
 -10  -3  -1    1.34    0.29
  10   3   1    1.12    0.26
  10   3   1    0.89    0.44
   8  -4  -1    7.01    0.44
   8  -4  -1    5.25    0.71
   8  -4  -1    6.51    0.58
  -8   4   1    5.05    0.51
  -8   4   1    6.42    0.54
  -8   4   1    6.32    0.43
  -8   4   1    6.26    0.48
   7  -4  -1   41.07    1.46
   7  -4  -1   41.82    1.60
   7  -4  -1   40.09    1.79
  -7   4   1   41.08    1.56
  -7   4   1   41.55    1.81
  -7   4   1   42.05    1.52
   6  -4  -1   58.20    2.32
   6  -4  -1   58.91    1.98
   6  -4  -1   60.05    2.13
  -6   4   1   51.40    2.10
  -6   4   1   62.23    2.05
  -6   4   1   57.76    2.27
  -6   4   1   61.28    2.09
   5  -4  -1    4.42    0.45
   5  -4  -1    3.72    0.28
   5  -4  -1    3.20    0.34
  -5   4   1    3.88    0.30
  -5   4   1    3.69    0.32
  -5   4   1    3.93    0.37
   4  -4  -1  148.16    4.61
   4  -4  -1  149.15    4.52
   4  -4  -1  149.86    4.89
   4  -4  -1  150.33    4.72
  -4   4   1  150.18    4.71
  -4   4   1  150.58    4.60
  -4   4   1  151.50    4.65
  -4   4   1  149.89    4.79
  -4   4   1  154.44    4.71
   3  -4  -1    0.18    0.09
   3  -4  -1    0.48    0.11
   3  -4  -1    0.29    0.15
  -3   4   1    0.27    0.08
  -3   4   1    0.42    0.10
  -3   4   1    0.17    0.11
   2  -4  -1   49.17    1.70
   2  -4  -1   52.12    1.83
   2  -4  -1   50.19    1.71
   2  -4  -1   51.04    1.75
  -2   4   1   52.89    1.58
  -2   4   1   52.57    1.75
  -2   4   1   50.35    1.70
  -2   4   1   50.17    1.74
  -2   4   1   51.67    1.75
  -2   4   1   50.22    1.71
   1  -4  -1   15.59    0.65
   1  -4  -1   14.68    0.64
   1  -4  -1   15.16    0.63
   1  -4  -1   15.19    0.65
   1  -4  -1   15.45    0.70
  -1   4   1   15.70    0.66
  -1   4   1   15.12    0.63
  -1   4   1   15.99    0.65
  -1   4   1   15.45    0.66
   0  -4  -1    1.78    0.16
   0  -4  -1    1.21    0.13
   0  -4  -1    1.46    0.14
   0  -4  -1    1.63    0.16
   0  -4  -1    1.67    0.15
   0   4   1    1.59    0.15
   0   4   1    1.51    0.14
   0   4   1    1.71    0.14
   0   4   1    1.34    0.13
  -1  -4  -1   44.47    1.50
  -1  -4  -1   44.64    1.54
  -1  -4  -1   44.70    1.49
  -1  -4  -1   44.78    1.50
  -1  -4  -1   44.56    1.54
   1   4   1   45.59    1.50
   1   4   1   42.92    1.47
   1   4   1   44.85    1.51
   1   4   1   45.65    1.52
   1   4   1   44.53    1.53
  -2  -4  -1  158.92    4.92
  -2  -4  -1  162.99    4.93
  -2  -4  -1  170.29    4.99
  -2  -4  -1  164.76    4.95
   2   4   1  163.80    4.96
   2   4   1  166.62    4.96
   2   4   1  162.05    4.92
  -3  -4  -1   29.66    1.07
  -3  -4  -1   31.45    1.13
  -3  -4  -1   29.36    1.09
  -3  -4  -1   29.91    1.11
   3   4   1   30.08    1.11
   3   4   1   31.83    1.12
   3   4   1   29.60    1.07
  -4  -4  -1  224.15    6.95
  -4  -4  -1  224.86    6.81
  -4  -4  -1  232.06    6.82
  -4  -4  -1  224.81    6.76
   4   4   1  225.71    6.76
   4   4   1  235.67    6.81
   4   4   1  229.02    6.84
  -5  -4  -1   25.58    0.94
  -5  -4  -1   25.03    1.00
  -5  -4  -1   24.47    0.95
   5   4   1   25.39    0.94
   5   4   1   25.27    1.00
  -6  -4  -1  160.33    5.19
  -6  -4  -1  173.81    5.21
  -6  -4  -1  166.35    5.06
  -6  -4  -1  169.62    5.05
   6   4   1  167.29    5.19
   6   4   1  164.72    5.05
  -7  -4  -1   81.29    2.63
  -7  -4  -1   74.22    2.66
  -7  -4  -1   74.21    2.46
  -7  -4  -1   78.11    2.43
   7   4   1   74.40    2.60
   7   4   1   76.77    2.48
  -8  -4  -1    6.00    0.29
  -8  -4  -1    5.85    0.35
  -8  -4  -1    5.93    0.44
  -8  -4  -1    5.38    0.45
   8   4   1    5.35    0.46
  -9  -4  -1    4.86    0.36
  -9  -4  -1    4.79    0.42
   9   4   1    5.22    0.50
   9   4   1    5.23    0.35
 -10  -4  -1    0.70    0.38
 -10  -4  -1    0.42    0.24
 -10  -4  -1    0.71    0.22
 -10  -4  -1    0.46    0.32
  10   4   1    0.54    0.24
  10   4   1    0.42    0.37
   8  -5  -1    0.15    0.28
   8  -5  -1   -0.18    0.41
   8  -5  -1    0.52    0.56
  -8   5   1    0.54    0.27
  -8   5   1   -0.03    0.26
  -8   5   1    0.37    0.37
  -8   5   1    0.65    0.35
   7  -5  -1    1.29    0.32
   7  -5  -1    1.56    0.23
   7  -5  -1    0.84    0.43
  -7   5   1    1.49    0.29
  -7   5   1    2.31    0.39
  -7   5   1    1.62    0.31
  -7   5   1    1.69    0.29
   6  -5  -1   21.00    1.18
   6  -5  -1   23.61    0.95
   6  -5  -1   22.57    1.02
  -6   5   1   23.05    0.94
  -6   5   1   23.37    1.02
  -6   5   1   23.75    1.18
  -6   5   1   23.37    0.98
   5  -5  -1   29.57    1.47
   5  -5  -1   31.72    1.21
   5  -5  -1   31.80    1.11
   5  -5  -1   31.63    1.31
  -5   5   1   33.22    1.24
  -5   5   1   33.57    1.30
  -5   5   1   32.76    1.26
  -5   5   1   32.22    1.41
   4  -5  -1   43.12    1.52
   4  -5  -1   43.41    1.45
   4  -5  -1   41.15    1.59
   4  -5  -1   40.67    1.73
  -4   5   1   42.36    1.50
  -4   5   1   43.92    1.59
  -4   5   1   39.26    1.55
  -4   5   1   40.74    1.64
   3  -5  -1    3.66    0.29
   3  -5  -1    4.46    0.30
   3  -5  -1    4.02    0.36
  -3   5   1    4.03    0.29
  -3   5   1    4.28    0.29
  -3   5   1    3.93    0.20
  -3   5   1    4.93    0.32
  -3   5   1    4.48    0.30
  -3   5   1    4.13    0.32
   2  -5  -1  190.19    5.75
   2  -5  -1  190.41    5.74
   2  -5  -1  186.74    5.80
   2  -5  -1  186.46    5.88
  -2   5   1  184.25    5.72
  -2   5   1  197.32    5.55
  -2   5   1  188.00    5.74
  -2   5   1  189.65    5.77
  -2   5   1  189.62    5.78
  -2   5   1  185.43    5.75
   1  -5  -1  165.82    5.12
   1  -5  -1  163.07    5.07
   1  -5  -1  167.00    5.19
   1  -5  -1  168.10    5.13
   1  -5  -1  171.87    5.12
  -1   5   1  169.82    5.13
  -1   5   1  166.49    5.09
  -1   5   1  168.20    5.12
  -1   5   1  161.85    5.08
   0  -5  -1  429.44   12.77
   0  -5  -1  427.04   12.74
   0  -5  -1  438.80   12.78
   0  -5  -1  431.30   12.81
   0  -5  -1  446.49   12.85
   0   5   1  426.79   12.78
   0   5   1  442.25   12.78
   0   5   1  444.30   12.75
   0   5   1  430.50   12.76
  -1  -5  -1   37.83    1.40
  -1  -5  -1   38.32    1.36
  -1  -5  -1   36.62    1.36
  -1  -5  -1   38.76    1.40
  -1  -5  -1   37.25    1.34
   1   5   1   37.21    1.32
   1   5   1   37.19    1.37
   1   5   1   39.05    1.37
   1   5   1   38.41    1.36
   1   5   1   38.05    1.35
  -2  -5  -1  188.35    5.57
  -2  -5  -1  184.72    5.56
  -2  -5  -1  181.47    5.63
  -2  -5  -1  182.76    5.58
   2   5   1  185.48    5.60
   2   5   1  185.08    5.59
   2   5   1  183.26    5.63
   2   5   1  185.58    5.57
   2   5   1  181.63    5.54
  -3  -5  -1   84.66    2.77
  -3  -5  -1   87.73    2.83
  -3  -5  -1   87.14    2.80
  -3  -5  -1   85.34    2.75
   3   5   1   86.72    2.80
   3   5   1   88.00    2.81
   3   5   1   85.86    2.75
  -4  -5  -1  310.06    9.28
  -4  -5  -1  310.19    9.27
  -4  -5  -1  311.27    9.20
  -4  -5  -1  300.66    9.24
   4   5   1  318.62    9.27
   4   5   1  317.87    9.28
   4   5   1  311.33    9.20
  -5  -5  -1    2.77    0.23
  -5  -5  -1    2.54    0.23
  -5  -5  -1    2.85    0.26
  -5  -5  -1    2.51    0.20
   5   5   1    2.45    0.25
   5   5   1    2.67    0.22
  -6  -5  -1  134.35    4.15
  -6  -5  -1  130.81    4.10
  -6  -5  -1  134.67    4.26
  -6  -5  -1  131.71    4.23
   6   5   1  130.82    4.24
   6   5   1  135.84    4.12
  -7  -5  -1   38.28    1.55
  -7  -5  -1   41.72    1.41
  -7  -5  -1   37.40    1.66
  -7  -5  -1   41.33    1.54
  -7  -5  -1   39.24    1.40
   7   5   1   36.36    1.49
   7   5   1   39.07    1.39
  -8  -5  -1    0.46    0.14
  -8  -5  -1    0.21    0.23
  -8  -5  -1    0.48    0.16
   8   5   1    0.46    0.15
   8   5   1    0.54    0.23
  -9  -5  -1    0.85    0.27
  -9  -5  -1    0.70    0.18
  -9  -5  -1    0.27    0.18
  -9  -5  -1    0.44    0.13
   9   5   1    0.53    0.30
   9   5   1    0.19    0.19
 -10  -5  -1    1.66    0.37
 -10  -5  -1    1.83    0.30
 -10  -5  -1    1.83    0.35
 -10  -5  -1    2.69    0.55
  10   5   1    1.62    0.36
  10   5   1    1.95    0.39
   7  -6  -1   14.02    0.82
   7  -6  -1   12.42    0.99
   7  -6  -1   15.01    0.72
  -7   6   1   13.17    0.77
  -7   6   1   15.63    0.92
  -7   6   1   14.55    0.75
  -7   6   1   13.94    0.68
   6  -6  -1    0.25    0.22
   6  -6  -1    0.01    0.30
   6  -6  -1    0.29    0.40
  -6   6   1    0.02    0.27
  -6   6   1    0.12    0.22
  -6   6   1    0.09    0.25
   5  -6  -1   56.91    2.34
   5  -6  -1   53.61    2.11
   5  -6  -1   58.30    2.03
   5  -6  -1   57.25    1.90
  -5   6   1   58.81    2.26
  -5   6   1   58.86    2.12
  -5   6   1   57.95    2.00
   4  -6  -1    0.46    0.20
   4  -6  -1    0.29    0.15
   4  -6  -1    0.35    0.13
  -4   6   1    0.37    0.16
  -4   6   1    0.36    0.14
  -4   6   1    0.42    0.18
  -4   6   1    0.65    0.18
   3  -6  -1  107.22    3.65
   3  -6  -1  111.05    3.53
   3  -6  -1  110.67    3.57
   3  -6  -1  110.84    3.80
  -3   6   1  110.64    3.59
  -3   6   1  109.71    3.28
  -3   6   1  111.22    3.63
  -3   6   1  113.24    3.56
  -3   6   1  110.36    3.64
  -3   6   1  110.80    3.59
   2  -6  -1    7.50    0.51
   2  -6  -1    7.94    0.46
   2  -6  -1    8.10    0.45
   2  -6  -1    6.85    0.45
  -2   6   1    7.85    0.47
  -2   6   1    8.25    0.48
  -2   6   1    8.17    0.44
  -2   6   1    8.07    0.45
  -2   6   1    8.38    0.35
   1  -6  -1   80.98    2.79
   1  -6  -1   79.87    2.66
   1  -6  -1   79.95    2.71
   1  -6  -1   79.32    2.71
   1  -6  -1   81.67    2.70
  -1   6   1   79.62    2.67
  -1   6   1   83.03    2.72
  -1   6   1   84.35    2.72
  -1   6   1   81.39    2.68
   0  -6  -1   10.20    0.57
   0  -6  -1   10.12    0.56
   0  -6  -1   12.35    0.62
   0  -6  -1   10.16    0.53
   0  -6  -1   10.17    0.55
   0   6   1   10.34    0.54
   0   6   1   10.16    0.53
   0   6   1   10.17    0.55
   0   6   1   10.83    0.56
  -1  -6  -1    0.25    0.09
  -1  -6  -1    0.30    0.08
  -1  -6  -1    0.46    0.10
  -1  -6  -1    0.35    0.10
  -1  -6  -1    0.48    0.10
   1   6   1    0.42    0.11
   1   6   1    0.52    0.14
   1   6   1    0.49    0.10
  -2  -6  -1   27.46    1.07
  -2  -6  -1   25.84    1.07
  -2  -6  -1   26.42    1.05
  -2  -6  -1   27.87    1.13
   2   6   1   25.56    1.06
   2   6   1   29.54    1.12
   2   6   1   26.24    1.11
   2   6   1   26.40    1.06
   2   6   1   26.62    1.03
  -3  -6  -1    4.80    0.36
  -3  -6  -1    5.21    0.33
  -3  -6  -1    4.98    0.33
  -3  -6  -1    4.89    0.32
   3   6   1    4.99    0.32
   3   6   1    4.94    0.35
   3   6   1    5.18    0.34
   3   6   1    5.54    0.38
  -4  -6  -1   54.49    1.87
  -4  -6  -1   54.30    1.90
  -4  -6  -1   53.70    1.94
  -4  -6  -1   53.41    1.92
   4   6   1   54.33    1.92
   4   6   1   54.05    1.92
   4   6   1   54.48    1.85
  -5  -6  -1   19.64    0.86
  -5  -6  -1   19.27    0.81
  -5  -6  -1   19.82    0.88
  -5  -6  -1   18.49    0.86
   5   6   1   20.12    0.87
   5   6   1   18.58    0.80
   5   6   1   19.26    0.87
  -6  -6  -1   27.45    1.11
  -6  -6  -1   27.83    1.17
  -6  -6  -1   27.40    1.07
  -6  -6  -1   26.67    1.13
   6   6   1   27.53    1.07
   6   6   1   28.46    1.17
  -7  -6  -1    1.15    0.19
  -7  -6  -1    0.84    0.20
   7   6   1    1.39    0.22
   7   6   1    1.49    0.32
  -8  -6  -1   22.12    1.09
  -8  -6  -1   23.54    0.92
  -8  -6  -1   21.90    0.96
  -8  -6  -1   22.85    1.04
   8   6   1   22.10    1.04
   8   6   1   22.50    0.91
  -9  -6  -1    0.65    0.16
  -9  -6  -1    0.81    0.19
  -9  -6  -1    0.48    0.17
  -9  -6  -1    1.11    0.29
  -9  -6  -1    0.22    0.30
   9   6   1    0.33    0.20
   9   6   1    1.06    0.32
 -10  -6  -1    0.74    0.36
 -10  -6  -1   -0.03    0.38
 -10  -6  -1    0.04    0.24
 -10  -6  -1    0.19    0.17
  10   6   1    0.35    0.25
  10   6   1    0.46    0.41
   7  -7  -1    0.29    0.63
   7  -7  -1    0.73    0.35
   7  -7  -1    0.16    0.45
  -7   7   1    0.62    0.29
  -7   7   1    0.48    0.42
  -7   7   1    0.44    0.29
  -7   7   1    0.32    0.38
   6  -7  -1   -0.23    0.35
   6  -7  -1    0.05    0.26
   6  -7  -1   -0.06    0.18
   6  -7  -1   -0.28    0.47
  -6   7   1   -0.07    0.30
  -6   7   1    0.33    0.33
  -6   7   1    0.01    0.23
  -6   7   1    0.24    0.26
   5  -7  -1   19.33    0.97
   5  -7  -1   20.81    0.82
   5  -7  -1   20.61    0.90
   5  -7  -1   18.41    1.10
  -5   7   1   18.33    1.04
  -5   7   1   20.88    1.05
  -5   7   1   20.59    0.97
   4  -7  -1   -0.07    0.17
   4  -7  -1    0.52    0.19
   4  -7  -1   -0.08    0.28
   4  -7  -1    0.07    0.23
  -4   7   1   -0.06    0.21
  -4   7   1    0.19    0.21
   3  -7  -1  107.44    3.73
   3  -7  -1  112.75    3.62
   3  -7  -1  108.04    3.87
   3  -7  -1  112.61    3.66
  -3   7   1  112.54    3.31
  -3   7   1  113.44    3.74
  -3   7   1  111.19    3.63
  -3   7   1  114.39    3.69
   2  -7  -1   15.08    0.83
   2  -7  -1   14.57    0.76
   2  -7  -1   16.35    0.76
   2  -7  -1   15.71    0.76
  -2   7   1   15.34    0.77
  -2   7   1   15.49    0.76
  -2   7   1   16.20    0.75
  -2   7   1   16.51    0.58
  -2   7   1   15.19    0.74
   1  -7  -1  140.25    4.40
   1  -7  -1  132.50    4.52
   1  -7  -1  138.76    4.47
   1  -7  -1  141.92    4.45
   1  -7  -1  137.69    4.46
  -1   7   1  139.29    4.44
  -1   7   1  136.60    4.41
  -1   7   1  142.23    4.47
  -1   7   1  143.68    4.43
   0  -7  -1   24.81    1.04
   0  -7  -1   23.06    1.03
   0  -7  -1   24.06    1.07
   0  -7  -1   23.70    1.00
   0  -7  -1   23.93    1.09
   0   7   1   24.09    1.02
   0   7   1   24.22    1.04
   0   7   1   24.01    1.04
   0   7   1   23.53    1.00
  -1  -7  -1  238.03    7.18
  -1  -7  -1  229.63    7.23
  -1  -7  -1  235.45    7.17
  -1  -7  -1  230.79    7.12
   1   7   1  234.18    7.16
   1   7   1  233.02    7.18
   1   7   1  238.07    7.16
   1   7   1  239.23    7.13
  -2  -7  -1  106.17    3.45
  -2  -7  -1  106.26    3.47
  -2  -7  -1  106.08    3.44
  -2  -7  -1  104.72    3.52
   2   7   1  105.59    3.41
   2   7   1  107.44    3.48
   2   7   1  105.48    3.44
   2   7   1  106.81    3.46
  -3  -7  -1  196.26    6.16
  -3  -7  -1  202.15    6.21
  -3  -7  -1  197.92    6.26
  -3  -7  -1  204.24    6.17
   3   7   1  199.11    6.27
   3   7   1  203.08    6.22
   3   7   1  196.27    6.12
   3   7   1  203.38    6.16
   3   7   1  207.04    6.22
  -4  -7  -1  135.03    4.36
  -4  -7  -1  142.48    4.36
  -4  -7  -1  134.09    4.43
  -4  -7  -1  136.36    4.41
   4   7   1  139.86    4.34
   4   7   1  141.65    4.42
   4   7   1  135.99    4.41
  -5  -7  -1   97.38    3.27
  -5  -7  -1   98.65    3.20
  -5  -7  -1   96.31    3.30
  -5  -7  -1   98.77    3.31
   5   7   1  105.71    3.31
   5   7   1  100.08    3.32
   5   7   1   95.81    3.20
  -6  -7  -1   43.26    1.58
  -6  -7  -1   43.93    1.70
  -6  -7  -1   42.99    1.67
  -6  -7  -1   44.39    1.67
   6   7   1   43.01    1.69
   6   7   1   44.45    1.59
  -7  -7  -1    0.44    0.15
  -7  -7  -1   -0.07    0.16
  -7  -7  -1    0.23    0.21
   7   7   1    0.14    0.22
   7   7   1   -0.05    0.26
  -8  -7  -1   30.95    1.18
  -8  -7  -1   31.49    1.23
  -8  -7  -1   30.85    1.36
   8   7   1   31.78    1.18
   8   7   1   29.50    1.33
  -9  -7  -1    1.30    0.22
  -9  -7  -1    0.88    0.19
  -9  -7  -1    0.58    0.32
  -9  -7  -1    1.54    0.31
   9   7   1    1.31    0.35
   9   7   1    1.12    0.22
 -10  -7  -1    1.02    0.23
 -10  -7  -1    1.86    0.40
 -10  -7  -1    1.53    0.34
 -10  -7  -1    1.43    0.41
 -10  -7  -1    1.29    0.25
  10   7   1    1.82    0.44
  10   7   1    1.22    0.27
   6  -8  -1   18.52    0.87
   6  -8  -1   20.03    0.76
   6  -8  -1   16.62    0.99
   6  -8  -1   15.75    1.21
  -6   8   1   19.00    0.85
  -6   8   1   16.86    0.94
  -6   8   1   16.82    1.08
   5  -8  -1   47.58    1.64
   5  -8  -1   44.15    2.04
   5  -8  -1   47.17    1.75
   5  -8  -1   44.51    1.84
  -5   8   1   44.99    1.76
  -5   8   1   45.93    1.71
  -5   8   1   46.85    1.83
  -5   8   1   44.25    1.86
   4  -8  -1    3.10    0.38
   4  -8  -1    3.63    0.36
   4  -8  -1    2.78    0.48
   4  -8  -1    1.98    0.45
  -4   8   1    2.59    0.43
  -4   8   1    2.47    0.38
  -4   8   1    3.30    0.43
   3  -8  -1   76.52    2.86
   3  -8  -1   81.38    2.80
   3  -8  -1   79.70    3.01
   3  -8  -1   82.63    2.77
  -3   8   1   82.33    2.87
  -3   8   1   79.91    2.77
  -3   8   1   81.31    2.81
   2  -8  -1    0.04    0.21
   2  -8  -1    0.53    0.27
   2  -8  -1    0.25    0.18
  -2   8   1    0.00    0.19
  -2   8   1    0.41    0.18
  -2   8   1    0.17    0.12
   1  -8  -1   33.19    1.38
   1  -8  -1   33.81    1.36
   1  -8  -1   33.36    1.45
   1  -8  -1   32.36    1.38
  -1   8   1   31.57    1.32
  -1   8   1   33.61    1.33
  -1   8   1   32.98    1.35
  -1   8   1   33.12    1.36
   0  -8  -1   26.58    1.13
   0  -8  -1   25.08    1.18
   0  -8  -1   26.15    1.16
   0  -8  -1   27.43    1.17
   0  -8  -1   28.09    1.24
   0   8   1   27.19    1.13
   0   8   1   26.39    1.14
   0   8   1   26.58    1.15
   0   8   1   27.03    1.16
  -1  -8  -1    7.12    0.48
  -1  -8  -1    7.53    0.46
  -1  -8  -1    7.24    0.47
  -1  -8  -1    7.33    0.51
  -1  -8  -1    7.46    0.46
   1   8   1    7.09    0.47
   1   8   1    7.69    0.48
   1   8   1    6.61    0.47
   1   8   1    6.89    0.44
  -2  -8  -1   18.60    0.87
  -2  -8  -1   18.49    0.87
  -2  -8  -1   17.82    0.93
  -2  -8  -1   18.26    0.87
   2   8   1   18.86    0.88
   2   8   1   18.84    0.87
   2   8   1   17.70    0.90
   2   8   1   19.11    0.90
   2   8   1   18.84    0.84
  -3  -8  -1   36.66    1.43
  -3  -8  -1   35.43    1.43
  -3  -8  -1   35.60    1.52
  -3  -8  -1   37.11    1.47
   3   8   1   35.91    1.40
   3   8   1   35.27    1.45
   3   8   1   36.84    1.47
   3   8   1   37.03    1.43
   3   8   1   37.61    1.52
  -4  -8  -1   15.59    0.74
  -4  -8  -1   15.37    0.83
  -4  -8  -1   14.89    0.76
  -4  -8  -1   15.03    0.75
   4   8   1   14.67    0.80
   4   8   1   15.66    0.78
   4   8   1   16.18    0.80
   4   8   1   15.06    0.73
  -5  -8  -1   78.81    2.82
  -5  -8  -1   80.91    2.71
  -5  -8  -1   80.84    2.78
  -5  -8  -1   81.04    2.81
   5   8   1   78.61    2.69
   5   8   1   79.41    2.80
  -6  -8  -1   29.49    1.26
  -6  -8  -1   25.89    1.43
  -6  -8  -1   30.11    1.18
   6   8   1   30.36    1.29
   6   8   1   30.78    1.18
  -7  -8  -1   21.36    1.00
  -7  -8  -1   22.37    0.93
  -7  -8  -1   21.42    1.05
  -7  -8  -1   22.16    1.02
   7   8   1   21.83    1.05
   7   8   1   22.03    0.92
  -8  -8  -1    7.97    0.67
  -8  -8  -1    8.40    0.52
  -8  -8  -1    8.37    0.48
   8   8   1    7.64    0.48
   8   8   1    7.92    0.61
  -9  -8  -1    2.28    0.33
  -9  -8  -1    2.01    0.38
  -9  -8  -1    1.68    0.35
  -9  -8  -1    2.23    0.37
  -9  -8  -1    1.66    0.25
   9   8   1    1.75    0.40
   9   8   1    1.76    0.25
 -10  -8  -1    5.28    0.45
 -10  -8  -1    5.13    0.47
 -10  -8  -1    5.44    0.74
 -10  -8  -1    5.27    0.66
  10   8   1    4.39    0.78
  10   8   1    4.30    0.47
   5  -9  -1   18.41    1.06
   5  -9  -1   20.85    0.99
   5  -9  -1   22.76    0.91
   5  -9  -1   18.02    1.27
  -5   9   1   20.23    0.94
  -5   9   1   20.07    1.04
  -5   9   1   19.34    1.00
  -5   9   1   20.36    1.00
   4  -9  -1    3.16    0.41
   4  -9  -1    3.24    0.55
   4  -9  -1    2.83    0.67
  -4   9   1    3.17    0.45
  -4   9   1    2.50    0.44
  -4   9   1    2.66    0.50
  -4   9   1    2.66    0.38
   3  -9  -1   36.00    1.59
   3  -9  -1   36.78    1.70
   3  -9  -1   39.06    1.53
   3  -9  -1   39.36    1.54
  -3   9   1   39.21    1.56
  -3   9   1   39.67    1.61
  -3   9   1   36.99    1.53
   2  -9  -1    0.01    0.47
   2  -9  -1    0.43    0.23
   2  -9  -1    0.28    0.24
  -2   9   1    0.24    0.14
  -2   9   1    0.44    0.23
   1  -9  -1   98.63    3.27
   1  -9  -1   88.42    3.49
   1  -9  -1   86.14    3.54
   1  -9  -1   95.09    3.29
  -1   9   1   97.64    3.29
  -1   9   1   98.92    3.24
  -1   9   1   92.46    3.26
  -1   9   1   96.78    3.61
   0  -9  -1    0.02    0.19
   0  -9  -1    0.39    0.19
   0  -9  -1   -0.03    0.17
   0  -9  -1    0.15    0.21
   0  -9  -1    0.34    0.16
   0   9   1    0.21    0.18
   0   9   1   -0.13    0.17
   0   9   1    0.13    0.18
   0   9   1    0.29    0.15
  -1  -9  -1  115.04    3.84
  -1  -9  -1  114.44    3.78
  -1  -9  -1  116.03    3.83
  -1  -9  -1  108.95    3.88
   1   9   1  116.53    3.78
   1   9   1  113.00    3.81
   1   9   1  111.42    3.80
   1   9   1  118.19    3.83
  -2  -9  -1    2.09    0.30
  -2  -9  -1    2.37    0.28
  -2  -9  -1    2.20    0.30
  -2  -9  -1    2.52    0.28
   2   9   1    2.05    0.32
   2   9   1    2.67    0.29
   2   9   1    2.42    0.28
   2   9   1    1.92    0.26
  -3  -9  -1   91.40    3.19
  -3  -9  -1   90.52    3.26
  -3  -9  -1   94.88    3.17
  -3  -9  -1   94.14    3.16
   3   9   1   92.93    3.25
   3   9   1   90.84    3.11
   3   9   1   94.02    3.15
   3   9   1   92.58    3.19
  -4  -9  -1    5.47    0.43
  -4  -9  -1    5.92    0.41
  -4  -9  -1    5.25    0.42
  -4  -9  -1    5.75    0.49
   4   9   1    5.78    0.44
   4   9   1    5.99    0.47
   4   9   1    6.12    0.44
   4   9   1    5.46    0.40
  -5  -9  -1   43.74    1.66
  -5  -9  -1   43.45    1.71
  -5  -9  -1   43.65    1.78
   5   9   1   44.01    1.74
   5   9   1   43.43    1.65
  -6  -9  -1    4.71    0.44
  -6  -9  -1    4.92    0.40
  -6  -9  -1    4.26    0.43
   6   9   1    4.33    0.37
   6   9   1    4.78    0.45
  -7  -9  -1    1.59    0.21
   7   9   1    1.43    0.32
   7   9   1    0.96    0.31
  -8  -9  -1    7.84    0.51
  -8  -9  -1    6.37    0.47
  -8  -9  -1    6.88    0.57
  -8  -9  -1    8.06    0.64
   8   9   1    6.68    0.66
   8   9   1    6.56    0.48
  -9  -9  -1    1.64    0.40
  -9  -9  -1    1.87    0.30
  -9  -9  -1    1.50    0.26
  -9  -9  -1    1.36    0.27
   9   9   1    1.38    0.28
   9   9   1    2.11    0.47
 -10  -9  -1    5.03    1.16
 -10  -9  -1    4.48    0.41
 -10  -9  -1    5.06    0.55
  10   9   1    4.04    0.87
   5 -10  -1    0.17    0.35
   5 -10  -1    0.84    0.43
   5 -10  -1   -0.38    0.56
   5 -10  -1    1.07    0.73
  -5  10   1    0.63    0.47
  -5  10   1   -0.32    0.47
  -5  10   1    0.10    0.36
   4 -10  -1   18.43    1.07
   4 -10  -1   23.72    1.40
   4 -10  -1   22.90    1.06
   4 -10  -1   22.61    1.28
  -4  10   1   20.13    1.02
  -4  10   1   21.28    0.98
  -4  10   1   18.64    1.02
  -4  10   1   20.33    1.07
   3 -10  -1    1.22    0.44
   3 -10  -1    1.36    0.33
  -3  10   1    1.42    0.32
  -3  10   1    1.41    0.36
  -3  10   1    1.36    0.34
   2 -10  -1   33.09    1.36
   2 -10  -1   29.29    1.36
   2 -10  -1   28.28    1.44
  -2  10   1   30.64    1.36
  -2  10   1   30.25    1.31
  -2  10   1   30.14    1.01
   1 -10  -1    9.65    0.62
   1 -10  -1    9.68    0.67
   1 -10  -1    9.44    0.60
  -1  10   1   10.50    0.59
  -1  10   1    9.60    0.62
   0 -10  -1   45.92    1.84
   0 -10  -1   45.05    1.92
   0 -10  -1   45.73    1.84
   0 -10  -1   47.14    1.81
   0  10   1   47.31    1.80
   0  10   1   45.93    1.84
   0  10   1   45.02    1.90
   0  10   1   44.29    1.80
  -1 -10  -1   35.53    1.50
  -1 -10  -1   34.58    1.47
  -1 -10  -1   36.56    1.46
   1  10   1   35.37    1.48
   1  10   1   36.15    1.48
   1  10   1   30.55    1.80
   1  10   1   35.98    1.45
  -2 -10  -1    3.70    0.38
  -2 -10  -1    4.15    0.39
  -2 -10  -1    3.47    0.63
  -2 -10  -1    3.37    0.38
   2  10   1    3.58    0.65
   2  10   1    3.77    0.38
   2  10   1    4.45    0.37
   2  10   1    4.15    0.37
  -3 -10  -1    0.29    0.21
  -3 -10  -1    0.01    0.20
  -3 -10  -1    0.08    0.21
   3  10   1    0.34    0.18
   3  10   1    0.42    0.19
   3  10   1    0.28    0.42
   3  10   1    0.36    0.23
  -4 -10  -1    2.33    0.39
  -4 -10  -1    2.85    0.36
  -4 -10  -1    2.43    0.34
  -4 -10  -1    3.44    0.37
   4  10   1    3.09    0.40
   4  10   1    3.27    0.38
  -5 -10  -1   43.27    1.82
  -5 -10  -1   42.11    1.78
  -5 -10  -1   45.84    1.72
   5  10   1   44.70    1.80
   5  10   1   45.40    1.72
  -6 -10  -1    0.52    0.25
  -6 -10  -1    0.52    0.26
   6  10   1    0.62    0.25
   6  10   1    0.28    0.20
   6  10   1    0.53    0.33
  -7 -10  -1    8.98    0.63
  -7 -10  -1   10.28    0.79
  -7 -10  -1    9.66    0.70
  -7 -10  -1    9.17    0.56
   7  10   1    9.56    0.69
   7  10   1    8.92    0.55
  -8 -10  -1    2.97    0.57
  -8 -10  -1    2.15    0.41
  -8 -10  -1    2.21    0.42
   8  10   1    2.64    0.43
  -9 -10  -1    4.32    0.49
  -9 -10  -1    3.72    0.80
  -9 -10  -1    4.82    0.66
  -9 -10  -1    4.42    0.42
   9  10   1    3.61    0.77
   9  10   1    4.87    0.52
   4 -11  -1    4.81    0.84
   4 -11  -1    5.64    0.74
   4 -11  -1    4.38    0.80
  -4  11   1    4.43    0.58
  -4  11   1    5.05    0.75
   3 -11  -1    6.56    0.66
   3 -11  -1    6.08    0.71
   3 -11  -1    7.42    0.64
  -3  11   1    7.29    0.67
  -3  11   1    6.94    0.57
  -3  11   1    7.22    0.63
  -3  11   1    6.22    0.83
   2 -11  -1    8.60    0.67
   2 -11  -1    8.86    0.64
  -2  11   1    7.92    0.64
  -2  11   1    8.23    0.56
  -2  11   1    7.49    0.65
  -2  11   1    8.32    0.59
  -2  11   1    7.09    0.37
   1 -11  -1   12.90    0.78
   1 -11  -1   10.04    0.76
   1 -11  -1   11.83    0.79
   1 -11  -1   11.02    0.81
  -1  11   1   11.64    0.71
  -1  11   1   11.94    0.75
  -1  11   1   12.15    0.73
  -1  11   1   11.78    0.76
   0 -11  -1   20.40    1.03
   0 -11  -1   18.85    1.04
   0 -11  -1   19.04    1.07
   0 -11  -1   20.53    1.07
   0  11   1   19.43    1.00
   0  11   1   20.29    1.02
   0  11   1   19.30    0.96
   0  11   1   20.53    1.01
  -1 -11  -1   20.69    1.02
  -1 -11  -1   21.34    1.12
  -1 -11  -1   20.88    1.10
  -1 -11  -1   20.61    1.05
  -1 -11  -1   21.23    1.03
   1  11   1   20.57    1.02
   1  11   1   20.36    0.99
   1  11   1   21.04    1.06
   1  11   1   20.38    1.32
  -2 -11  -1   42.62    1.83
  -2 -11  -1   40.07    1.67
  -2 -11  -1   41.30    1.68
  -2 -11  -1   41.35    1.71
   2  11   1   40.41    1.74
   2  11   1   40.31    1.69
   2  11   1   40.72    1.71
   2  11   1   41.09    1.64
  -3 -11  -1   31.69    1.43
  -3 -11  -1   32.40    1.50
  -3 -11  -1   33.22    1.41
   3  11   1   32.58    1.44
   3  11   1   31.39    1.37
   3  11   1   32.65    1.36
   3  11   1   32.22    1.45
  -4 -11  -1   12.31    0.83
  -4 -11  -1   12.37    0.74
  -4 -11  -1   13.02    0.73
   4  11   1   12.76    0.80
   4  11   1   13.05    0.71
   4  11   1   12.74    0.93
  -5 -11  -1   27.73    1.21
  -5 -11  -1   27.33    1.27
   5  11   1   28.34    1.30
   5  11   1   26.17    1.82
   5  11   1   27.73    1.19
  -6 -11  -1    7.30    0.69
  -6 -11  -1    8.07    0.60
  -6 -11  -1    8.78    0.58
   6  11   1    8.40    0.67
   6  11   1    7.94    0.67
   6  11   1    8.00    0.55
  -7 -11  -1   24.56    1.18
  -7 -11  -1   24.95    1.08
  -7 -11  -1   23.79    1.18
  -7 -11  -1   22.93    1.20
   7  11   1   24.44    1.25
   7  11   1   24.93    1.22
   7  11   1   23.89    1.06
  -8 -11  -1    1.21    0.43
  -8 -11  -1    0.75    0.32
  -8 -11  -1    0.94    0.41
   8  11   1    0.77    0.44
   8  11   1    0.90    0.32
   8  11   1    1.15    0.57
  -9 -11  -1    3.23    0.53
  -9 -11  -1    2.75    0.41
  -9 -11  -1    2.72    0.55
   9  11   1    2.84    0.60
   9  11   1    2.87    0.55
   3 -12  -1   -0.08    0.74
   3 -12  -1    0.72    0.47
   3 -12  -1    0.78    0.60
  -3  12   1    0.85    0.54
  -3  12   1    0.65    0.57
   2 -12  -1   22.50    1.30
   2 -12  -1   20.78    1.20
   2 -12  -1   24.44    1.24
   2 -12  -1   23.23    1.15
  -2  12   1   23.71    1.21
  -2  12   1   22.01    1.10
  -2  12   1   22.80    1.11
  -2  12   1   22.94    1.15
   1 -12  -1    2.76    0.62
   1 -12  -1    3.53    0.59
   1 -12  -1    3.86    0.64
  -1  12   1    2.63    0.53
  -1  12   1    2.46    0.49
  -1  12   1    2.86    0.63
  -1  12   1    2.73    0.58
   0 -12  -1    6.94    0.62
   0 -12  -1    7.22    0.68
   0 -12  -1    8.19    0.71
   0 -12  -1    6.29    0.63
   0  12   1    7.41    0.57
   0  12   1    8.13    0.61
   0  12   1    7.28    0.62
   0  12   1    7.97    0.66
  -1 -12  -1    4.16    0.58
  -1 -12  -1    2.44    0.54
  -1 -12  -1    4.01    0.49
  -1 -12  -1    2.70    0.59
  -1 -12  -1    3.47    0.54
   1  12   1    3.88    0.51
   1  12   1    3.02    0.48
   1  12   1    4.34    0.50
   1  12   1    3.91    0.46
  -2 -12  -1    2.14    0.46
  -2 -12  -1    2.20    0.37
  -2 -12  -1    3.57    0.79
   2  12   1    3.01    0.47
   2  12   1    2.01    0.43
   2  12   1    3.14    0.52
   2  12   1    2.78    0.48
  -3 -12  -1    5.84    0.54
  -3 -12  -1    6.03    0.57
  -3 -12  -1    6.40    0.54
   3  12   1    6.36    0.55
   3  12   1    5.50    0.58
   3  12   1    5.83    0.54
   3  12   1    5.94    0.51
  -4 -12  -1   12.38    0.72
  -4 -12  -1   12.13    0.75
  -4 -12  -1   10.85    0.71
   4  12   1   10.43    0.67
   4  12   1   11.33    0.79
   4  12   1   11.56    0.77
  -5 -12  -1    1.05    0.36
  -5 -12  -1    0.75    0.32
  -5 -12  -1    0.98    0.29
   5  12   1    1.33    0.39
   5  12   1    1.30    0.38
  -6 -12  -1   17.16    0.96
  -6 -12  -1   17.64    0.94
  -6 -12  -1   17.57    1.01
   6  12   1   17.18    1.02
   6  12   1   20.55    1.09
   6  12   1   18.34    0.89
  -7 -12  -1    7.14    0.73
  -7 -12  -1    7.27    0.67
  -7 -12  -1    5.93    0.63
  -7 -12  -1    6.51    0.95
   7  12   1    7.99    0.80
   7  12   1    7.02    0.59
   7  12   1    8.10    0.77
  -8 -12  -1    2.32    0.52
  -8 -12  -1    2.60    0.59
  -8 -12  -1    2.52    0.51
   8  12   1    2.74    0.61
   8  12   1    2.70    0.57
   8  12   1    2.20    0.37
   1 -13  -1    0.47    0.51
   1 -13  -1    0.59    0.56
   1 -13  -1    1.22    0.53
   1 -13  -1    1.11    0.66
  -1  13   1    0.68    0.37
  -1  13   1    0.70    0.54
  -1  13   1    0.81    0.45
  -1  13   1    0.45    0.50
   0 -13  -1   24.87    1.28
   0 -13  -1   24.49    1.23
   0 -13  -1   25.92    1.24
   0 -13  -1   22.32    1.31
   0  13   1   23.57    1.16
   0  13   1   23.53    1.17
   0  13   1   25.41    1.23
   0  13   1   22.74    1.16
  -1 -13  -1    1.70    0.47
  -1 -13  -1    2.55    0.47
  -1 -13  -1    1.55    0.42
  -1 -13  -1    3.27    0.46
   1  13   1    2.56    0.58
   1  13   1    2.17    0.38
   1  13   1    2.43    0.41
   1  13   1    2.42    0.36
  -2 -13  -1   23.82    1.16
  -2 -13  -1   23.03    1.18
  -2 -13  -1   23.15    1.27
  -2 -13  -1   23.10    1.15
   2  13   1   23.46    1.44
   2  13   1   21.65    1.14
   2  13   1   22.94    1.14
  -3 -13  -1    0.72    0.37
  -3 -13  -1    0.91    0.46
  -3 -13  -1    0.53    0.38
  -3 -13  -1    0.55    0.37
   3  13   1    0.76    0.36
   3  13   1    0.36    0.39
   3  13   1    1.12    0.41
   3  13   1    1.04    0.44
  -4 -13  -1   17.00    1.06
  -4 -13  -1   15.58    0.91
  -4 -13  -1   18.12    0.98
  -4 -13  -1   16.84    0.98
   4  13   1   17.43    0.99
   4  13   1   17.98    0.93
  -5 -13  -1   11.16    0.76
  -5 -13  -1   10.08    0.88
  -5 -13  -1   10.00    0.73
  -5 -13  -1    8.99    0.76
   5  13   1    9.23    0.72
   5  13   1   11.00    0.83
   5  13   1   10.95    0.85
  -6 -13  -1    3.38    0.66
  -6 -13  -1    4.14    0.66
  -6 -13  -1    2.69    0.41
   6  13   1    3.18    0.58
   6  13   1    3.90    0.79
  -7 -13  -1    4.03    0.54
  -7 -13  -1    3.88    0.67
  -7 -13  -1    3.36    0.68
  -7 -13  -1    4.55    0.82
   7  13   1    4.64    0.93
   7  13   1    4.02    0.64
   7  13   1    3.62    0.82
   0 -14  -1    4.98    0.96
   0 -14  -1    5.87    1.00
   0  14   1    5.12    0.88
   0  14   1    6.22    0.89
  -1 -14  -1    2.58    0.67
  -1 -14  -1    2.04    0.53
  -1 -14  -1    2.91    0.56
   1  14   1    1.43    0.52
   1  14   1    1.89    0.45
   1  14   1    1.90    0.53
  -2 -14  -1    2.93    0.57
  -2 -14  -1    2.58    0.51
  -2 -14  -1    1.73    0.62
  -2 -14  -1    2.66    0.51
   2  14   1    2.76    0.49
   2  14   1    2.86    0.46
   2  14   1    2.69    0.53
  -3 -14  -1    0.64    0.48
  -3 -14  -1    0.80    0.47
  -3 -14  -1    1.53    0.55
  -3 -14  -1    1.06    0.48
   3  14   1    1.28    0.60
   3  14   1    0.62    0.47
   3  14   1    1.01    0.50
   3  14   1    1.32    0.45
  -4 -14  -1    0.26    0.48
  -4 -14  -1    0.64    0.50
  -4 -14  -1    0.85    0.55
  -4 -14  -1    0.15    0.48
   4  14   1    0.34    0.51
   4  14   1    0.46    0.55
   4  14   1    0.79    0.42
  -5 -14  -1    0.28    0.45
  -5 -14  -1    0.54    0.47
  -5 -14  -1    0.27    0.60
  -5 -14  -1   -0.54    0.50
   5  14   1    0.04    0.47
   5  14   1    0.54    0.49
   5  14   1    0.07    0.64
  -6 -14  -1    1.12    0.48
  -6 -14  -1    1.27    0.56
   6  14   1    1.43    0.45
   6  14   1    1.93    0.57
   6  14   1    1.64    0.72
   4  14  -2    5.91    0.75
   4  14  -2    8.66    0.84
   4  14  -2    8.70    0.99
   4  14  -2    7.74    0.74
   4  14  -2    6.40    0.83
  -4 -14   2    8.19    0.89
   3  14  -2   11.58    0.84
   3  14  -2    9.35    0.77
   3  14  -2   12.21    0.91
   3  14  -2   12.41    0.89
   3  14  -2   12.85    1.03
  -3 -14   2    8.97    0.90
  -3 -14   2   11.34    1.07
  -3 -14   2   10.46    0.97
   2  14  -2    2.42    0.58
   2  14  -2    1.17    0.47
   2  14  -2    1.23    0.53
   2  14  -2    1.34    0.53
  -2 -14   2    1.72    0.58
  -2 -14   2    1.99    0.62
  -2 -14   2    2.55    0.56
   1  14  -2    1.73    0.59
   1  14  -2    1.32    0.60
   1  14  -2    0.41    0.58
   1  14  -2    0.93    0.47
  -1 -14   2    1.94    0.58
  -1 -14   2    0.82    0.59
   6  13  -2    0.51    0.43
   6  13  -2   -0.36    0.56
   6  13  -2    0.47    0.49
   6  13  -2    0.95    0.63
  -6 -13   2    1.13    0.59
  -6 -13   2    0.42    0.46
  -6 -13   2   -0.10    0.51
  -6 -13   2    0.19    0.52
   5  13  -2    1.77    0.57
   5  13  -2    1.57    0.41
   5  13  -2    1.13    0.41
   5  13  -2    1.84    0.48
   5  13  -2    0.56    0.43
  -5 -13   2    1.51    0.45
  -5 -13   2    1.32    0.48
  -5 -13   2    1.18    0.46
  -5 -13   2    0.44    0.52
   4  13  -2    3.17    0.60
   4  13  -2    3.28    0.64
   4  13  -2    3.94    0.76
   4  13  -2    2.97    0.56
  -4 -13   2    3.17    0.72
  -4 -13   2    3.81    0.68
  -4 -13   2    3.95    0.73
   3  13  -2   -0.16    0.50
   3  13  -2    0.57    0.40
   3  13  -2    0.05    0.40
   3  13  -2    0.77    0.43
  -3 -13   2    0.50    0.49
  -3 -13   2    0.72    0.48
  -3 -13   2    0.65    0.44
   2  13  -2    2.42    0.42
   2  13  -2    3.70    0.71
   2  13  -2    2.88    0.46
  -2 -13   2    3.38    0.69
  -2 -13   2    3.31    0.68
  -2 -13   2    2.28    0.50
   1  13  -2    0.26    0.44
   1  13  -2    0.81    0.33
   1  13  -2    0.94    0.44
   1  13  -2    0.86    0.44
   1  13  -2    0.87    0.38
  -1 -13   2    0.60    0.45
  -1 -13   2    0.79    0.49
  -1 -13   2    0.23    0.46
   0  13  -2    7.32    0.70
   0  13  -2    6.22    0.83
   0  13  -2    6.80    0.76
   0  13  -2    8.38    0.71
   0 -13   2    6.85    0.86
   0 -13   2    7.67    0.81
   0 -13   2    6.08    0.80
   0 -13   2    6.43    0.88
  -1  13  -2    0.47    0.60
  -1  13  -2    0.87    0.45
   1 -13   2    0.87    0.66
   1 -13   2    1.67    0.54
   1 -13   2    1.06    0.64
   1 -13   2    0.89    0.53
   7  12  -2    2.17    0.45
   7  12  -2    2.11    0.41
   7  12  -2    1.95    0.50
   7  12  -2    2.37    0.61
  -7 -12   2    2.34    0.48
  -7 -12   2    1.84    0.52
  -7 -12   2    2.44    0.48
  -7 -12   2    1.78    0.38
  -7 -12   2    2.34    0.36
   6  12  -2   18.54    0.96
   6  12  -2   18.40    1.08
   6  12  -2   19.46    1.01
   6  12  -2   21.74    1.12
  -6 -12   2   17.77    0.94
  -6 -12   2   20.11    1.13
  -6 -12   2   18.76    1.03
  -6 -12   2   18.37    1.07
   5  12  -2    1.17    0.48
   5  12  -2   -0.07    0.33
   5  12  -2    0.57    0.32
   5  12  -2    0.29    0.31
   5  12  -2    0.07    0.49
  -5 -12   2    0.37    0.37
  -5 -12   2    0.49    0.35
  -5 -12   2    0.89    0.36
  -5 -12   2    0.73    0.39
   4  12  -2   20.12    0.94
   4  12  -2   19.42    1.03
   4  12  -2   21.41    1.10
   4  12  -2   19.17    1.07
   4  12  -2   19.64    0.99
  -4 -12   2   19.74    1.12
  -4 -12   2   19.95    1.07
  -4 -12   2   19.86    1.13
  -4 -12   2   20.15    1.01
   3  12  -2    2.73    0.51
   3  12  -2    2.97    0.46
   3  12  -2    3.04    0.45
   3  12  -2    2.33    0.49
   3  12  -2    2.28    0.45
  -3 -12   2    2.34    0.38
  -3 -12   2    1.93    0.35
  -3 -12   2    2.82    0.46
   2  12  -2   13.85    0.81
   2  12  -2   15.81    0.87
   2  12  -2   12.27    0.80
   2  12  -2   13.21    1.12
   2  12  -2   13.45    0.75
  -2 -12   2   12.25    0.93
  -2 -12   2   12.23    0.82
  -2 -12   2   13.05    0.86
   1  12  -2    6.36    0.59
   1  12  -2    6.63    0.64
   1  12  -2    7.06    0.59
   1  12  -2    7.49    0.57
   1  12  -2    6.43    0.56
  -1 -12   2    5.39    0.66
  -1 -12   2    6.72    0.60
  -1 -12   2    6.00    0.65
   0  12  -2   -0.07    0.29
   0  12  -2    0.16    0.37
   0  12  -2    0.45    0.27
   0  12  -2   -0.10    0.40
   0 -12   2   -0.13    0.41
   0 -12   2    0.51    0.41
   0 -12   2    0.23    0.36
   0 -12   2   -0.12    0.46
  -1  12  -2    0.72    0.38
  -1  12  -2    0.52    0.39
  -1  12  -2    1.04    0.54
   1 -12   2    1.51    0.54
   1 -12   2    0.79    0.41
   1 -12   2    0.71    0.43
   1 -12   2    0.41    0.39
  -2  12  -2    1.17    0.53
  -2  12  -2    1.54    0.54
  -2  12  -2    1.26    0.43
  -2  12  -2    0.50    0.39
   2 -12   2    0.90    0.52
   2 -12   2    1.56    0.50
   2 -12   2    1.71    0.59
   2 -12   2    1.17    0.45
  -3  12  -2    0.85    0.60
   3 -12   2    0.21    0.61
   3 -12   2    0.48    0.67
   3 -12   2   -0.09    0.76
   8  11  -2   -0.05    0.71
   8  11  -2    1.45    0.53
   8  11  -2    0.83    0.37
   8  11  -2    0.64    0.40
  -8 -11   2    1.25    0.39
  -8 -11   2    1.35    0.50
  -8 -11   2    0.53    0.34
  -8 -11   2    0.22    0.21
  -8 -11   2    1.14    0.46
   7  11  -2    1.57    0.52
   7  11  -2    0.73    0.32
   7  11  -2    0.61    0.33
   7  11  -2    0.20    0.44
  -7 -11   2    0.39    0.32
  -7 -11   2    0.63    0.40
  -7 -11   2    1.16    0.45
  -7 -11   2    0.62    0.39
  -7 -11   2    0.49    0.20
   6  11  -2    1.43    0.29
   6  11  -2    1.22    0.38
   6  11  -2    0.92    0.43
  -6 -11   2    1.40    0.31
  -6 -11   2    1.15    0.34
  -6 -11   2    0.77    0.36
  -6 -11   2    1.40    0.35
   5  11  -2    4.48    0.48
   5  11  -2    3.87    0.54
   5  11  -2    4.40    0.47
   5  11  -2    4.65    0.43
  -5 -11   2    3.87    0.52
  -5 -11   2    4.05    0.51
  -5 -11   2    5.17    0.50
  -5 -11   2    4.50    0.50
   4  11  -2    1.54    0.28
   4  11  -2    1.54    0.26
   4  11  -2    1.85    0.38
  -4 -11   2    1.24    0.30
  -4 -11   2    2.00    0.44
  -4 -11   2    1.93    0.32
   3  11  -2    4.55    0.43
   3  11  -2    5.50    0.49
   3  11  -2    4.27    0.48
   3  11  -2    5.64    0.55
  -3 -11   2    4.37    0.66
  -3 -11   2    4.34    0.50
   2  11  -2    2.39    0.47
   2  11  -2    2.53    0.38
   2  11  -2    1.78    0.28
   2  11  -2    2.15    0.39
  -2 -11   2    2.37    0.51
  -2 -11   2    2.14    0.47
   1  11  -2    1.21    0.33
   1  11  -2    1.06    0.32
   1  11  -2    0.94    0.28
   1  11  -2    1.15    0.28
   1  11  -2    1.23    0.29
  -1 -11   2    0.58    0.29
  -1 -11   2    0.89    0.48
  -1 -11   2    1.35    0.41
   0  11  -2   30.14    1.32
   0  11  -2   29.91    1.32
   0  11  -2   30.25    1.35
   0  11  -2   27.23    1.45
   0  11  -2   28.34    1.45
   0 -11   2   29.89    1.37
   0 -11   2   26.76    1.71
   0 -11   2   28.96    1.39
   0 -11   2   31.06    1.69
  -1  11  -2   -0.01    0.35
  -1  11  -2    0.97    0.37
  -1  11  -2    0.48    0.29
  -1  11  -2    0.44    0.35
  -1  11  -2    0.54    0.25
   1 -11   2   -0.14    0.44
   1 -11   2    0.58    0.63
   1 -11   2    0.39    0.39
  -2  11  -2   20.81    1.06
  -2  11  -2   18.65    0.97
  -2  11  -2   19.62    1.09
  -2  11  -2   20.90    0.99
   2 -11   2   19.73    1.10
   2 -11   2   19.18    1.13
   2 -11   2   20.43    1.03
  -3  11  -2   -0.31    0.34
  -3  11  -2    0.06    0.43
  -3  11  -2    0.60    0.47
  -3  11  -2    0.21    0.38
   3 -11   2    0.25    0.48
   3 -11   2    0.67    0.56
   3 -11   2    0.13    0.46
  -4  11  -2   15.42    0.97
  -4  11  -2   13.27    1.19
  -4  11  -2   13.13    0.85
  -4  11  -2   11.81    0.99
   4 -11   2   11.99    1.06
   4 -11   2   12.52    1.16
   9  10  -2    1.76    0.40
   9  10  -2    1.09    0.36
  -9 -10   2    1.24    0.33
  -9 -10   2    1.31    0.50
   8  10  -2    2.98    0.49
   8  10  -2    3.15    0.68
   8  10  -2    4.45    0.55
  -8 -10   2    3.63    0.50
  -8 -10   2    3.48    0.64
  -8 -10   2    3.87    0.36
  -8 -10   2    4.30    0.57
  -8 -10   2    2.64    0.46
   7  10  -2   21.97    1.22
   7  10  -2   24.15    1.03
   7  10  -2   25.17    1.19
   7  10  -2   24.12    1.13
  -7 -10   2   23.03    1.14
  -7 -10   2   23.90    1.07
  -7 -10   2   24.27    1.15
  -7 -10   2   23.99    1.01
  -7 -10   2   23.67    1.17
   6  10  -2    1.53    0.34
   6  10  -2    1.74    0.29
   6  10  -2    1.47    0.26
  -6 -10   2    1.28    0.26
  -6 -10   2    1.22    0.29
  -6 -10   2    1.80    0.32
   5  10  -2   57.46    2.15
   5  10  -2   52.63    2.16
   5  10  -2   53.66    2.14
   5  10  -2   54.59    2.01
  -5 -10   2   55.89    2.02
   4  10  -2   35.05    1.49
   4  10  -2   32.71    1.35
   4  10  -2   33.21    1.38
   4  10  -2   34.25    1.44
   4  10  -2   34.70    1.49
  -4 -10   2   35.24    1.41
  -4 -10   2   29.44    1.96
  -4 -10   2   33.97    1.43
   3  10  -2   21.88    1.03
   3  10  -2   22.74    1.10
   3  10  -2   19.72    1.25
   3  10  -2   22.30    1.06
   3  10  -2   21.78    1.00
  -3 -10   2   21.14    1.04
  -3 -10   2   21.04    1.02
   2  10  -2   54.69    2.05
   2  10  -2   53.88    2.01
   2  10  -2   53.81    2.11
   2  10  -2   53.24    2.07
  -2 -10   2   55.42    2.07
  -2 -10   2   50.51    2.32
  -2 -10   2   54.22    2.09
   1  10  -2    5.55    0.47
   1  10  -2    5.36    0.51
   1  10  -2    4.65    0.47
   1  10  -2    5.37    0.45
   1  10  -2    5.37    0.45
  -1 -10   2    4.81    0.49
  -1 -10   2    5.17    0.47
  -1 -10   2    4.40    0.44
  -1 -10   2    5.04    0.56
   0  10  -2   36.84    1.52
   0  10  -2   38.01    1.54
   0  10  -2   33.22    1.70
   0  10  -2   37.89    1.56
   0  10  -2   37.24    1.58
   0 -10   2   36.30    1.55
   0 -10   2   35.44    1.64
   0 -10   2   38.51    1.67
   0 -10   2   38.23    1.63
  -1  10  -2    4.81    0.40
  -1  10  -2    3.69    0.48
  -1  10  -2    4.31    0.45
  -1  10  -2    4.23    0.42
  -1  10  -2    4.11    0.42
   1 -10   2    4.82    0.49
   1 -10   2    4.96    0.47
   1 -10   2    3.39    0.49
   1 -10   2    4.48    0.53
  -2  10  -2    9.40    0.57
  -2  10  -2    6.82    0.57
  -2  10  -2    7.82    0.62
  -2  10  -2    7.79    0.53
  -2  10  -2    8.31    0.60
   2 -10   2    7.57    0.65
   2 -10   2    6.86    0.63
   2 -10   2    7.93    0.57
   2 -10   2    8.21    0.57
  -3  10  -2    0.49    0.38
  -3  10  -2   -0.07    0.31
  -3  10  -2    0.00    0.28
  -3  10  -2    0.27    0.38
   3 -10   2   -0.10    0.31
   3 -10   2   -0.02    0.44
   3 -10   2    0.18    0.45
   3 -10   2    0.73    0.34
  -4  10  -2    0.74    0.40
  -4  10  -2    0.77    0.45
  -4  10  -2    1.07    0.36
  -4  10  -2    0.87    0.33
   4 -10   2    0.69    0.41
   4 -10   2    0.40    0.50
   4 -10   2    1.69    0.62
   4 -10   2    1.35    0.35
  -5  10  -2    0.01    0.43
  -5  10  -2    0.74    0.62
  -5  10  -2    0.41    0.54
  -5  10  -2    0.52    0.50
   5 -10   2    0.77    0.80
   5 -10   2   -0.32    0.48
   5 -10   2    0.24    0.54
   9   9  -2    2.52    0.51
   9   9  -2    1.32    0.30
   9   9  -2    1.37    0.35
  -9  -9   2    1.56    0.40
  -9  -9   2    1.58    0.43
  -9  -9   2    1.64    0.29
  -9  -9   2    1.46    0.27
   8   9  -2    2.55    0.59
   8   9  -2    3.24    0.46
   8   9  -2    2.15    0.42
  -8  -9   2    3.29    0.48
  -8  -9   2    2.13    0.38
  -8  -9   2    2.87    0.56
  -8  -9   2    2.88    0.34
   7   9  -2    2.01    0.38
   7   9  -2    1.34    0.32
   7   9  -2    1.61    0.35
  -7  -9   2    1.14    0.30
  -7  -9   2    1.48    0.35
  -7  -9   2    1.66    0.27
  -7  -9   2    1.67    0.26
   6   9  -2    3.95    0.43
   6   9  -2    5.07    0.47
   6   9  -2    4.08    0.37
  -6  -9   2    3.78    0.36
  -6  -9   2    4.16    0.43
  -6  -9   2    3.35    0.37
   5   9  -2    1.95    0.31
   5   9  -2    2.21    0.51
   5   9  -2    1.84    0.37
  -5  -9   2    2.05    0.33
  -5  -9   2    2.22    0.36
  -5  -9   2    2.07    0.32
  -5  -9   2    2.05    0.34
   4   9  -2    1.60    0.25
   4   9  -2    1.22    0.30
   4   9  -2    1.24    0.22
   4   9  -2    1.30    0.27
   4   9  -2    1.33    0.21
  -4  -9   2    1.24    0.28
  -4  -9   2    1.29    0.29
  -4  -9   2    1.70    0.35
  -4  -9   2    1.91    0.32
   3   9  -2    6.86    0.48
   3   9  -2    6.76    0.47
   3   9  -2    6.43    0.48
   3   9  -2    6.63    0.45
   3   9  -2    7.42    0.52
  -3  -9   2    7.09    0.47
  -3  -9   2    5.70    0.60
  -3  -9   2    6.61    0.69
  -3  -9   2    6.65    0.47
   2   9  -2    0.30    0.17
   2   9  -2   -0.05    0.19
   2   9  -2    0.35    0.17
   2   9  -2   -0.20    0.21
   2   9  -2    0.05    0.18
  -2  -9   2    0.05    0.16
  -2  -9   2   -0.12    0.17
  -2  -9   2    0.18    0.19
  -2  -9   2    0.03    0.18
   1   9  -2   69.33    2.48
   1   9  -2   68.69    2.52
   1   9  -2   69.72    2.50
   1   9  -2   70.27    2.54
   1   9  -2   70.80    2.56
  -1  -9   2   69.90    2.54
  -1  -9   2   67.00    2.59
  -1  -9   2   73.11    2.60
  -1  -9   2   69.24    2.55
   0   9  -2   17.50    0.89
   0   9  -2   18.64    0.92
   0   9  -2   17.24    0.87
   0   9  -2   17.19    0.87
   0   9  -2   17.83    0.89
   0  -9   2   18.86    0.96
   0  -9   2   17.78    0.93
   0  -9   2   17.28    0.88
   0  -9   2   18.02    0.90
  -1   9  -2   47.71    1.89
  -1   9  -2   50.31    1.92
  -1   9  -2   50.20    1.98
  -1   9  -2   47.99    1.86
   1  -9   2   50.29    1.92
   1  -9   2   47.97    1.92
   1  -9   2   49.00    1.98
   1  -9   2   48.43    2.04
  -2   9  -2   60.74    2.24
  -2   9  -2   57.90    2.20
  -2   9  -2   58.19    2.18
  -2   9  -2   59.21    2.14
  -2   9  -2   56.84    2.26
   2  -9   2   60.16    2.22
   2  -9   2   56.28    2.29
   2  -9   2   57.78    2.29
   2  -9   2   59.09    2.20
  -3   9  -2   23.89    1.19
  -3   9  -2   25.11    1.15
  -3   9  -2   24.95    1.20
   3  -9   2   23.49    1.20
   3  -9   2   24.91    1.09
   3  -9   2   24.79    1.20
   3  -9   2   22.85    1.17
  -4   9  -2   45.34    1.75
  -4   9  -2   45.86    1.91
  -4   9  -2   45.05    1.84
  -4   9  -2   43.82    1.75
   4  -9   2   43.67    1.95
   4  -9   2   42.60    1.90
   4  -9   2   45.70    1.89
   4  -9   2   49.08    1.72
  -5   9  -2    0.97    0.55
  -5   9  -2    0.25    0.32
  -5   9  -2    0.68    0.44
  -5   9  -2    0.68    0.38
   5  -9   2    0.43    0.31
   5  -9   2    0.30    0.66
   5  -9   2    0.54    0.48
  -6   9  -2   22.06    1.22
   6  -9   2   20.39    1.17
   6  -9   2   26.74    0.96
   6  -9   2   19.27    1.40
   6  -9   2   25.48    1.14
   9   8  -2    3.59    0.56
   9   8  -2    4.40    0.40
   9   8  -2    5.01    0.60
  -9  -8   2    3.70    0.58
  -9  -8   2    4.09    0.49
  -9  -8   2    3.50    0.38
  -9  -8   2    3.69    0.44
  -9  -8   2    3.71    0.40
   8   8  -2   15.80    0.72
   8   8  -2   16.76    0.95
   8   8  -2   16.94    0.86
  -8  -8   2   16.08    0.86
  -8  -8   2   15.49    0.80
  -8  -8   2   16.36    0.70
  -8  -8   2   17.27    0.83
  -8  -8   2   16.34    0.85
   7   8  -2   19.23    0.93
   7   8  -2   20.28    0.96
   7   8  -2   19.46    0.82
  -7  -8   2   18.96    0.81
  -7  -8   2   18.22    0.92
   6   8  -2    1.89    0.27
   6   8  -2    1.48    0.24
   6   8  -2    1.24    0.19
  -6  -8   2    1.40    0.23
  -6  -8   2    1.44    0.21
  -6  -8   2    1.98    0.32
  -6  -8   2    1.78    0.34
   5   8  -2   96.39    3.16
   5   8  -2   99.05    3.29
   5   8  -2  102.09    3.36
  -5  -8   2   90.61    3.25
  -5  -8   2   96.82    3.34
  -5  -8   2   97.50    3.17
  -5  -8   2   92.88    3.38
   4   8  -2    4.91    0.34
   4   8  -2    4.77    0.38
   4   8  -2    4.88    0.41
   4   8  -2    4.47    0.41
   4   8  -2    5.33    0.43
  -4  -8   2    3.92    0.37
  -4  -8   2    6.05    0.43
  -4  -8   2    4.89    0.38
  -4  -8   2    6.17    0.46
   3   8  -2  159.96    5.04
   3   8  -2  159.46    5.09
   3   8  -2  161.04    5.12
   3   8  -2  160.15    5.00
   3   8  -2  154.80    4.94
  -3  -8   2  152.56    5.11
  -3  -8   2  154.37    4.99
  -3  -8   2  154.24    5.04
  -3  -8   2  160.83    5.00
   2   8  -2   16.60    0.79
   2   8  -2   16.89    0.87
   2   8  -2   16.89    0.82
   2   8  -2   17.27    0.83
   2   8  -2   16.31    0.83
  -2  -8   2   16.03    0.87
  -2  -8   2   16.40    0.83
  -2  -8   2   16.91    0.82
  -2  -8   2   17.75    0.83
   1   8  -2   96.02    3.28
   1   8  -2   99.06    3.32
   1   8  -2   93.31    3.22
   1   8  -2   96.83    3.26
   1   8  -2   97.92    3.28
  -1  -8   2   98.18    3.30
  -1  -8   2   94.32    3.34
  -1  -8   2   95.06    3.29
  -1  -8   2  101.14    3.34
   0   8  -2   12.60    0.66
   0   8  -2   11.84    0.67
   0   8  -2   11.75    0.65
   0   8  -2   12.24    0.66
   0  -8   2   12.74    0.71
   0  -8   2   12.07    0.70
   0  -8   2   12.20    0.66
   0  -8   2   12.57    0.70
  -1   8  -2   19.78    0.93
  -1   8  -2   19.22    0.91
  -1   8  -2   19.73    0.90
  -1   8  -2   20.12    0.92
  -1   8  -2   19.47    0.97
   1  -8   2   19.21    0.94
   1  -8   2   20.11    0.92
   1  -8   2   19.59    0.98
   1  -8   2   18.93    0.96
  -2   8  -2   10.07    0.60
  -2   8  -2    9.01    0.59
  -2   8  -2    9.44    0.56
  -2   8  -2    9.32    0.54
   2  -8   2    9.28    0.61
   2  -8   2    9.91    0.58
   2  -8   2    9.15    0.62
   2  -8   2    9.60    0.57
  -3   8  -2    2.28    0.38
  -3   8  -2    1.72    0.33
  -3   8  -2    2.03    0.27
   3  -8   2    1.85    0.40
   3  -8   2    2.25    0.34
   3  -8   2    2.12    0.42
   3  -8   2    1.72    0.32
  -4   8  -2    0.10    0.28
  -4   8  -2    0.36    0.35
  -4   8  -2    0.19    0.28
   4  -8   2    0.44    0.21
   4  -8   2    0.18    0.40
   4  -8   2    0.42    0.23
   4  -8   2    0.12    0.31
  -5   8  -2    0.44    0.27
  -5   8  -2    0.53    0.34
  -5   8  -2    0.27    0.32
  -5   8  -2    0.02    0.38
   5  -8   2    0.23    0.28
   5  -8   2   -0.03    0.39
   5  -8   2    0.17    0.45
   5  -8   2    0.31    0.24
  -6   8  -2    5.21    0.63
  -6   8  -2    4.73    0.48
  -6   8  -2    3.51    0.68
   6  -8   2    5.64    0.41
   6  -8   2    4.91    0.69
   6  -8   2    3.88    0.71
   6  -8   2    4.88    0.95
 -10  -7   2    0.77    0.34
   9   7  -2    2.89    0.43
   9   7  -2    3.20    0.54
   9   7  -2    2.30    0.35
  -9  -7   2    3.03    0.50
  -9  -7   2    2.68    0.31
  -9  -7   2    2.90    0.38
   8   7  -2    2.36    0.29
   8   7  -2    2.09    0.43
  -8  -7   2    1.59    0.25
  -8  -7   2    1.70    0.31
  -8  -7   2    2.03    0.30
  -8  -7   2    2.24    0.36
   7   7  -2    9.10    0.56
   7   7  -2    8.82    0.54
   7   7  -2    8.64    0.49
  -7  -7   2    9.47    0.56
  -7  -7   2    9.28    0.56
  -7  -7   2    8.88    0.46
  -7  -7   2    8.26    0.53
   6   7  -2    4.74    0.36
   6   7  -2    5.76    0.42
   6   7  -2    4.54    0.40
  -6  -7   2    5.73    0.40
  -6  -7   2    5.72    0.44
  -6  -7   2    5.51    0.42
  -6  -7   2    4.90    0.35
   5   7  -2    8.30    0.55
   5   7  -2    8.51    0.52
   5   7  -2    8.68    0.49
  -5  -7   2    8.56    0.51
  -5  -7   2    8.00    0.49
  -5  -7   2    8.91    0.47
  -5  -7   2    8.26    0.49
  -5  -7   2    8.22    0.55
   4   7  -2    9.97    0.61
   4   7  -2   10.17    0.55
   4   7  -2    9.65    0.49
   4   7  -2    9.55    0.51
  -4  -7   2    9.89    0.53
  -4  -7   2    8.54    0.58
  -4  -7   2    9.37    0.54
  -4  -7   2    8.76    0.50
   3   7  -2    0.54    0.15
   3   7  -2    0.93    0.20
   3   7  -2    0.75    0.14
   3   7  -2    0.93    0.17
  -3  -7   2    0.95    0.22
  -3  -7   2    0.64    0.15
  -3  -7   2    0.79    0.14
  -3  -7   2    0.85    0.15
   2   7  -2   11.46    0.60
   2   7  -2   11.71    0.62
   2   7  -2   11.68    0.66
   2   7  -2   11.15    0.57
   2   7  -2   11.11    0.61
  -2  -7   2   11.60    0.60
  -2  -7   2   11.09    0.59
  -2  -7   2   10.62    0.60
   1   7  -2    4.72    0.36
   1   7  -2    5.05    0.37
   1   7  -2    5.25    0.37
   1   7  -2    5.31    0.45
   1   7  -2    5.11    0.35
  -1  -7   2    5.20    0.40
  -1  -7   2    5.48    0.37
  -1  -7   2    5.71    0.39
  -1  -7   2    5.07    0.36
   0   7  -2    4.01    0.32
   0   7  -2    3.91    0.35
   0   7  -2    4.63    0.33
   0   7  -2    4.21    0.34
   0   7  -2    3.96    0.33
   0  -7   2    3.86    0.33
   0  -7   2    3.63    0.35
   0  -7   2    4.07    0.35
   0  -7   2    4.16    0.32
  -1   7  -2   73.11    2.52
  -1   7  -2   74.05    2.60
  -1   7  -2   73.83    2.56
  -1   7  -2   74.88    2.51
  -1   7  -2   71.01    2.51
   1  -7   2   72.48    2.61
   1  -7   2   73.58    2.60
   1  -7   2   71.72    2.55
   1  -7   2   72.05    2.54
  -2   7  -2    4.56    0.40
  -2   7  -2    4.41    0.38
  -2   7  -2    4.19    0.34
  -2   7  -2    4.84    0.36
  -2   7  -2    5.06    0.37
   2  -7   2    5.22    0.42
   2  -7   2    4.70    0.40
   2  -7   2    3.75    0.36
   2  -7   2    4.63    0.37
  -3   7  -2   58.51    2.21
  -3   7  -2   57.13    2.07
  -3   7  -2   57.46    2.01
  -3   7  -2   58.63    2.15
   3  -7   2   58.05    2.06
   3  -7   2   56.87    2.23
   3  -7   2   58.82    2.13
   3  -7   2   57.83    2.23
  -4   7  -2   36.42    1.51
  -4   7  -2   34.47    1.45
  -4   7  -2   33.88    1.37
   4  -7   2   32.85    1.48
   4  -7   2   35.05    1.41
   4  -7   2   34.50    1.31
   4  -7   2   33.72    1.53
  -5   7  -2   19.88    0.93
  -5   7  -2   20.95    0.96
  -5   7  -2   20.52    0.98
  -5   7  -2   20.68    1.03
  -5   7  -2   21.13    1.20
   5  -7   2   17.31    1.07
   5  -7   2   20.62    0.95
   5  -7   2   20.68    0.82
   5  -7   2   19.24    1.01
  -6   7  -2   10.80    0.74
  -6   7  -2   12.10    0.72
  -6   7  -2   12.08    0.64
  -6   7  -2   13.52    0.75
   6  -7   2   12.30    0.91
   6  -7   2   10.07    0.84
   6  -7   2   13.28    0.71
   6  -7   2   12.23    0.54
  -7   7  -2    2.06    0.46
  -7   7  -2    2.34    0.48
  -7   7  -2    1.87    0.43
  -7   7  -2    2.96    0.51
   7  -7   2    1.23    0.62
   7  -7   2    2.97    0.50
  10   6  -2    0.21    0.24
  10   6  -2    0.24    0.38
 -10  -6   2    0.19    0.20
 -10  -6   2   -0.17    0.29
   9   6  -2   11.29    0.66
   9   6  -2   12.30    0.53
  -9  -6   2   11.67    0.73
  -9  -6   2   12.65    0.58
  -9  -6   2   11.62    0.59
  -9  -6   2    9.66    0.50
   8   6  -2   30.30    1.28
   8   6  -2   32.64    1.16
   8   6  -2   34.04    1.27
  -8  -6   2   30.18    1.13
  -8  -6   2   32.71    1.31
  -8  -6   2   33.01    1.43
  -8  -6   2   33.36    1.25
  -8  -6   2   33.09    1.25
   7   6  -2    5.49    0.32
   7   6  -2    5.17    0.39
   7   6  -2    4.87    0.37
  -7  -6   2    4.42    0.36
  -7  -6   2    4.91    0.29
  -7  -6   2    4.99    0.37
  -7  -6   2    4.78    0.41
  -7  -6   2    4.90    0.38
   6   6  -2  257.66    7.60
   6   6  -2  256.07    7.42
   6   6  -2  246.39    7.55
  -6  -6   2  252.69    7.56
  -6  -6   2  233.88    7.54
  -6  -6   2  256.10    7.57
  -6  -6   2  233.25    7.62
  -6  -6   2  245.62    7.39
   5   6  -2  161.29    4.79
   5   6  -2  153.74    4.89
   5   6  -2  161.36    4.97
  -5  -6   2  155.32    4.78
  -5  -6   2  156.89    4.94
  -5  -6   2  152.77    4.85
  -5  -6   2  151.93    4.85
  -5  -6   2  156.76    4.90
   4   6  -2  126.31    3.93
   4   6  -2  131.38    4.12
   4   6  -2  127.29    3.95
   4   6  -2  126.92    4.02
  -4  -6   2  123.20    3.98
  -4  -6   2  126.32    4.08
  -4  -6   2  124.97    3.94
  -4  -6   2  125.07    4.02
   3   6  -2  300.60    8.99
   3   6  -2  302.01    9.15
   3   6  -2  310.81    9.08
   3   6  -2  305.95    9.14
   3   6  -2  311.05    9.04
  -3  -6   2  299.84    9.03
  -3  -6   2  303.56    9.03
  -3  -6   2  292.99    9.14
  -3  -6   2  297.97    9.07
   2   6  -2   70.09    2.36
   2   6  -2   69.99    2.37
   2   6  -2   70.23    2.40
   2   6  -2   69.97    2.33
   2   6  -2   70.63    2.44
  -2  -6   2   69.95    2.35
  -2  -6   2   72.49    2.37
  -2  -6   2   68.39    2.43
  -2  -6   2   68.27    2.37
   1   6  -2  266.49    8.06
   1   6  -2  262.81    8.03
   1   6  -2  278.03    8.13
   1   6  -2  263.37    8.04
   1   6  -2  265.35    8.02
  -1  -6   2  274.57    8.09
  -1  -6   2  260.50    8.11
  -1  -6   2  264.94    8.02
  -1  -6   2  270.46    8.06
  -1  -6   2  266.04    8.07
   0   6  -2   10.10    0.55
   0   6  -2   10.05    0.54
   0   6  -2   11.04    0.59
   0   6  -2   10.81    0.55
   0   6  -2   10.51    0.57
   0  -6   2   11.10    0.58
   0  -6   2   10.36    0.57
   0  -6   2    9.78    0.57
   0  -6   2   10.69    0.56
  -1   6  -2  241.53    7.15
  -1   6  -2  235.98    7.18
  -1   6  -2  242.94    7.18
  -1   6  -2  231.81    7.22
  -1   6  -2  232.32    7.15
   1  -6   2  231.40    7.18
   1  -6   2  236.82    7.23
   1  -6   2  235.76    7.25
   1  -6   2  231.83    7.18
  -2   6  -2    0.88    0.16
  -2   6  -2    1.12    0.20
  -2   6  -2    1.11    0.17
  -2   6  -2    0.80    0.16
  -2   6  -2    0.90    0.16
   2  -6   2    0.74    0.18
   2  -6   2    0.94    0.18
   2  -6   2    1.04    0.19
   2  -6   2    0.73    0.17
  -3   6  -2   23.22    1.00
  -3   6  -2   22.33    0.96
  -3   6  -2   23.40    0.93
  -3   6  -2   23.73    1.07
  -3   6  -2   23.30    1.03
  -3   6  -2   22.18    0.91
   3  -6   2   23.49    1.01
   3  -6   2   23.01    1.08
   3  -6   2   23.92    0.96
   3  -6   2   21.15    1.05
  -4   6  -2    4.49    0.39
  -4   6  -2    4.04    0.34
  -4   6  -2    5.04    0.40
  -4   6  -2    4.32    0.36
   4  -6   2    4.35    0.42
   4  -6   2    4.03    0.32
   4  -6   2    5.08    0.36
   4  -6   2    4.20    0.39
  -5   6  -2   16.79    0.81
  -5   6  -2   15.91    0.80
  -5   6  -2   16.64    0.86
  -5   6  -2   14.66    0.78
   5  -6   2   14.66    0.89
   5  -6   2   15.91    0.76
   5  -6   2   14.91    0.83
   5  -6   2   16.91    0.67
  -6   6  -2    0.16    0.27
  -6   6  -2    0.05    0.31
  -6   6  -2   -0.06    0.24
   6  -6   2    0.16    0.44
   6  -6   2    0.57    0.24
   6  -6   2    0.08    0.33
  -7   6  -2    2.00    0.40
  -7   6  -2    2.67    0.57
  -7   6  -2    3.00    0.45
  -7   6  -2    2.62    0.49
   7  -6   2    2.41    0.52
   7  -6   2    2.75    0.60
  -8   6  -2    0.28    0.45
  -8   6  -2    1.39    0.32
  -8   6  -2    1.12    0.34
  -8   6  -2    0.82    0.48
   8  -6   2    1.52    0.42
   8  -6   2    0.21    0.69
 -10  -5   2    1.89    0.37
 -10  -5   2    1.57    0.33
   9   5  -2    3.49    0.30
   9   5  -2    3.36    0.44
  -9  -5   2    3.20    0.40
  -9  -5   2    3.64    0.38
   8   5  -2   14.73    0.64
   8   5  -2   13.35    0.67
   8   5  -2   14.64    0.59
  -8  -5   2   13.69    0.61
  -8  -5   2   12.24    0.55
  -8  -5   2   13.77    0.80
   7   5  -2    7.94    0.45
   7   5  -2    7.55    0.46
   7   5  -2    7.78    0.37
  -7  -5   2    7.64    0.42
  -7  -5   2    7.27    0.36
  -7  -5   2    7.24    0.44
  -7  -5   2    7.52    0.43
  -7  -5   2    6.15    0.48
   6   5  -2   16.81    0.76
   6   5  -2   18.22    0.70
   6   5  -2   17.37    0.78
  -6  -5   2   17.38    0.76
  -6  -5   2   15.82    0.82
  -6  -5   2   17.33    0.67
  -6  -5   2   17.06    0.77
  -6  -5   2   17.39    0.74
   5   5  -2   13.93    0.59
   5   5  -2   13.51    0.64
   5   5  -2   14.21    0.69
  -5  -5   2   13.37    0.62
  -5  -5   2   14.64    0.69
  -5  -5   2   13.69    0.67
  -5  -5   2   13.55    0.64
  -5  -5   2   13.17    0.57
   4   5  -2    0.94    0.16
   4   5  -2    0.97    0.16
   4   5  -2    0.81    0.15
  -4  -5   2    0.75    0.12
  -4  -5   2    0.84    0.16
  -4  -5   2    1.08    0.16
  -4  -5   2    1.10    0.15
  -4  -5   2    0.69    0.14
   3   5  -2   14.81    0.65
   3   5  -2   15.22    0.73
   3   5  -2   14.91    0.63
   3   5  -2   15.46    0.68
  -3  -5   2   14.33    0.65
  -3  -5   2   15.21    0.73
  -3  -5   2   15.11    0.67
  -3  -5   2   15.20    0.65
   2   5  -2    4.21    0.31
   2   5  -2    3.69    0.30
   2   5  -2    5.20    0.34
   2   5  -2    5.04    0.32
   2   5  -2    4.05    0.29
  -2  -5   2    4.15    0.31
  -2  -5   2    4.71    0.38
  -2  -5   2    4.57    0.32
  -2  -5   2    4.27    0.30
   1   5  -2    2.23    0.20
   1   5  -2    1.96    0.18
   1   5  -2    2.06    0.19
   1   5  -2    2.04    0.20
   1   5  -2    2.03    0.21
  -1  -5   2    2.53    0.23
  -1  -5   2    1.90    0.18
  -1  -5   2    2.19    0.19
  -1  -5   2    2.04    0.19
   0   5  -2   79.45    2.65
   0   5  -2   81.75    2.70
   0   5  -2   81.73    2.66
   0   5  -2   82.26    2.68
   0   5  -2   81.32    2.70
   0  -5   2   86.93    2.72
   0  -5   2   82.95    2.71
   0  -5   2   82.86    2.70
   0  -5   2   79.37    2.71
  -1   5  -2   98.41    3.22
  -1   5  -2  102.76    3.21
  -1   5  -2   99.84    3.28
  -1   5  -2   98.59    3.24
  -1   5  -2  103.18    3.23
   1  -5   2   98.60    3.23
   1  -5   2  101.58    3.29
   1  -5   2  103.79    3.27
   1  -5   2   99.20    3.24
  -2   5  -2   35.35    1.32
  -2   5  -2   37.31    1.40
  -2   5  -2   37.35    1.33
  -2   5  -2   36.57    1.36
   2  -5   2   35.45    1.42
   2  -5   2   34.61    1.40
   2  -5   2   35.27    1.33
   2  -5   2   36.61    1.38
  -3   5  -2  168.55    5.08
  -3   5  -2  156.21    4.92
  -3   5  -2  156.85    4.98
  -3   5  -2  157.95    4.89
  -3   5  -2  155.56    4.81
  -3   5  -2  156.53    4.83
   3  -5   2  161.21    4.86
   3  -5   2  156.70    5.06
   3  -5   2  158.18    4.95
   3  -5   2  153.52    5.05
  -4   5  -2   32.35    1.29
  -4   5  -2   35.08    1.37
  -4   5  -2   34.23    1.29
  -4   5  -2   33.41    1.40
  -4   5  -2   32.37    1.17
  -4   5  -2   33.22    1.29
   4  -5   2   31.50    1.39
   4  -5   2   34.67    1.21
   4  -5   2   33.57    1.44
   4  -5   2   34.75    1.33
  -5   5  -2  104.34    3.47
  -5   5  -2  101.40    3.36
  -5   5  -2  106.27    3.54
  -5   5  -2  103.44    3.44
   5  -5   2  103.47    3.40
   5  -5   2  101.38    3.70
   5  -5   2  101.98    3.17
  -6   5  -2    2.84    0.40
  -6   5  -2    3.24    0.36
  -6   5  -2    2.62    0.36
   6  -5   2    2.33    0.42
   6  -5   2    3.23    0.34
   6  -5   2    2.62    0.40
  -7   5  -2   47.29    1.80
  -7   5  -2   45.76    1.73
  -7   5  -2   42.74    1.64
  -7   5  -2   44.06    1.82
   7  -5   2   43.54    1.77
   7  -5   2   41.59    1.91
   7  -5   2   45.41    1.66
  -8   5  -2    4.03    0.45
  -8   5  -2    2.99    0.53
  -8   5  -2    3.72    0.63
  -8   5  -2    5.12    0.49
   8  -5   2    4.10    0.81
   8  -5   2    3.75    0.54
   8  -5   2    4.37    0.64
  10   4  -2    0.10    0.45
 -10  -4   2    0.17    0.20
 -10  -4   2    0.02    0.23
   9   4  -2    0.64    0.17
  -9  -4   2    0.92    0.20
   8   4  -2   13.11    0.55
   8   4  -2   14.31    0.59
   8   4  -2   12.81    0.64
  -8  -4   2   13.14    0.63
  -8  -4   2   12.89    0.78
   7   4  -2    3.87    0.29
   7   4  -2    3.71    0.32
   7   4  -2    4.04    0.24
  -7  -4   2    3.95    0.34
  -7  -4   2    3.86    0.27
  -7  -4   2    4.33    0.32
  -7  -4   2    4.04    0.36
   6   4  -2  102.08    3.30
   6   4  -2  105.49    3.33
   6   4  -2  104.84    3.19
  -6  -4   2  103.59    3.26
  -6  -4   2  109.32    3.31
  -6  -4   2  100.90    3.17
  -6  -4   2  105.95    3.29
  -6  -4   2  101.63    3.44
   5   4  -2   10.36    0.50
   5   4  -2   10.47    0.45
   5   4  -2   10.76    0.54
  -5  -4   2   10.59    0.49
  -5  -4   2   10.48    0.53
  -5  -4   2    9.51    0.43
  -5  -4   2   10.04    0.55
  -5  -4   2   10.52    0.48
   4   4  -2  394.26   11.65
   4   4  -2  390.58   11.56
   4   4  -2  404.23   11.50
  -4  -4   2  389.43   11.53
  -4  -4   2  400.55   11.58
  -4  -4   2  392.29   11.63
  -4  -4   2  394.29   11.61
  -4  -4   2  389.64   11.49
   3   4  -2  188.28    5.60
   3   4  -2  187.11    5.70
   3   4  -2  192.09    5.58
   3   4  -2  180.65    5.55
  -3  -4   2  184.58    5.56
  -3  -4   2  185.97    5.68
  -3  -4   2  184.21    5.60
  -3  -4   2  191.42    5.62
  -3  -4   2  185.13    5.58
   2   4  -2  463.44   14.01
   2   4  -2  468.97   13.89
   2   4  -2  478.08   13.93
   2   4  -2  498.83   13.93
  -2  -4   2  493.05   13.92
  -2  -4   2  477.22   13.91
  -2  -4   2  480.12   13.94
  -2  -4   2  461.87   14.00
   1   4  -2  420.76   12.48
   1   4  -2  431.00   12.43
   1   4  -2  426.96   12.40
   1   4  -2  426.16   12.42
   1   4  -2  433.97   12.43
  -1  -4   2  421.20   12.40
  -1  -4   2  421.58   12.44
  -1  -4   2  416.00   12.48
  -1  -4   2  424.85   12.42
   0   4  -2  119.98    3.70
   0   4  -2  119.00    3.74
   0   4  -2  116.95    3.70
   0   4  -2  118.93    3.68
   0   4  -2  120.53    3.73
   0  -4   2  117.05    3.71
   0  -4   2  125.96    3.74
   0  -4   2  121.86    3.72
   0  -4   2  117.93    3.74
  -1   4  -2  364.52   10.79
  -1   4  -2  367.41   10.73
  -1   4  -2  370.02   10.75
  -1   4  -2  363.63   10.73
  -1   4  -2  366.91   10.70
   1  -4   2  356.27   10.73
   1  -4   2  355.47   10.74
   1  -4   2  367.14   10.75
   1  -4   2  368.38   10.79
  -2   4  -2   95.53    2.95
  -2   4  -2   92.37    2.86
  -2   4  -2   98.04    3.07
  -2   4  -2   90.81    2.94
  -2   4  -2   92.15    2.98
   2  -4   2   95.24    2.96
   2  -4   2   91.97    2.99
   2  -4   2   93.63    3.07
   2  -4   2   90.30    3.02
  -3   4  -2   42.29    1.42
  -3   4  -2   41.22    1.48
  -3   4  -2   41.32    1.44
  -3   4  -2   43.66    1.60
  -3   4  -2   42.15    1.51
   3  -4   2   42.12    1.59
   3  -4   2   41.94    1.44
   3  -4   2   40.27    1.59
   3  -4   2   41.58    1.52
  -4   4  -2    1.50    0.20
  -4   4  -2    1.02    0.14
  -4   4  -2    1.32    0.22
  -4   4  -2    1.73    0.22
  -4   4  -2    1.45    0.18
   4  -4   2    1.01    0.15
   4  -4   2    1.55    0.19
   4  -4   2    1.38    0.23
   4  -4   2    1.13    0.25
  -5   4  -2    1.52    0.24
  -5   4  -2    1.64    0.23
   5  -4   2    1.88    0.33
   5  -4   2    1.46    0.28
  -6   4  -2    0.29    0.16
  -6   4  -2    0.48    0.15
  -6   4  -2    0.38    0.22
   6  -4   2    0.47    0.22
   6  -4   2   -0.12    0.31
  -7   4  -2    4.88    0.36
  -7   4  -2    4.31    0.41
  -7   4  -2    4.81    0.46
   7  -4   2    4.85    0.46
   7  -4   2    5.02    0.41
  -8   4  -2    2.18    0.38
  -8   4  -2    2.55    0.53
   8  -4   2    2.62    0.45
   8  -4   2    2.23    0.48
   8  -4   2    3.32    0.53
  -9   4  -2    0.41    0.45
  -9   4  -2    0.85    0.34
  -9   4  -2    1.08    0.47
   9  -4   2    0.57    0.37
   9  -4   2    0.80    0.62
   9  -4   2    0.44    0.47
  10   3  -2    1.45    0.44
 -10  -3   2    1.92    0.33
   9   3  -2    1.30    0.29
  -9  -3   2    1.35    0.29
  -9  -3   2    1.51    0.27
   8   3  -2   10.56    0.45
   8   3  -2   10.67    0.46
  -8  -3   2   10.49    0.68
  -8  -3   2   10.01    0.66
   7   3  -2    2.31    0.18
   7   3  -2    1.73    0.25
   7   3  -2    2.24    0.21
  -7  -3   2    2.36    0.22
  -7  -3   2    1.64    0.25
  -7  -3   2    2.01    0.24
   6   3  -2    9.09    0.38
   6   3  -2    8.34    0.43
   6   3  -2    8.85    0.45
  -6  -3   2    8.46    0.43
  -6  -3   2    9.24    0.42
  -6  -3   2    9.01    0.42
  -6  -3   2    8.33    0.53
   5   3  -2   11.23    0.52
   5   3  -2   12.28    0.47
   5   3  -2   12.71    0.56
  -5  -3   2   11.75    0.53
  -5  -3   2   12.23    0.52
  -5  -3   2   11.99    0.50
  -5  -3   2   11.73    0.61
   4   3  -2   16.57    0.67
   4   3  -2   18.09    0.64
   4   3  -2   16.93    0.73
  -4  -3   2   17.48    0.72
  -4  -3   2   17.83    0.67
  -4  -3   2   16.58    0.62
  -4  -3   2   16.58    0.65
  -4  -3   2   17.30    0.74
   3   3  -2    3.82    0.22
   3   3  -2    3.76    0.21
   3   3  -2    3.80    0.26
  -3  -3   2    4.27    0.27
  -3  -3   2    3.52    0.28
  -3  -3   2    3.80    0.22
  -3  -3   2    3.61    0.20
  -3  -3   2    3.84    0.22
   2   3  -2    9.22    0.41
   2   3  -2    9.45    0.40
   2   3  -2    9.45    0.46
   2   3  -2    9.10    0.39
  -2  -3   2    9.43    0.41
  -2  -3   2    9.25    0.40
  -2  -3   2    9.64    0.47
  -2  -3   2    9.29    0.39
  -2  -3   2    8.93    0.40
   1   3  -2    1.21    0.10
   1   3  -2    1.16    0.12
   1   3  -2    1.13    0.11
   1   3  -2    1.17    0.11
   1   3  -2    1.14    0.12
  -1  -3   2    1.06    0.12
  -1  -3   2    1.16    0.11
  -1  -3   2    1.27    0.11
  -1  -3   2    1.01    0.10
   0   3  -2   72.24    2.27
   0   3  -2   72.49    2.28
   0   3  -2   72.35    2.23
   0   3  -2   70.88    2.29
   0   3  -2   71.00    2.26
   0  -3   2   70.35    2.27
   0  -3   2   67.90    2.28
   0  -3   2   73.33    2.28
   0  -3   2   72.80    2.25
  -1   3  -2   12.44    0.56
  -1   3  -2   11.54    0.50
  -1   3  -2   12.82    0.54
  -1   3  -2   12.94    0.53
  -1   3  -2   11.62    0.42
   1  -3   2   11.81    0.53
   1  -3   2   12.06    0.55
   1  -3   2   11.94    0.53
   1  -3   2   11.60    0.52
  -2   3  -2   57.62    1.93
  -2   3  -2   61.08    2.04
  -2   3  -2   66.15    1.97
  -2   3  -2   60.81    1.95
  -2   3  -2   59.51    1.99
   2  -3   2   60.29    2.00
   2  -3   2   60.58    2.01
   2  -3   2   57.92    1.93
   2  -3   2   59.18    2.04
  -3   3  -2   73.87    2.38
  -3   3  -2   71.90    2.36
  -3   3  -2   73.28    2.27
  -3   3  -2   69.69    2.40
  -3   3  -2   74.63    2.46
   3  -3   2   70.71    2.45
   3  -3   2   74.70    2.46
   3  -3   2   73.40    2.28
   3  -3   2   73.59    2.39
  -4   3  -2   59.69    1.86
  -4   3  -2   60.05    2.02
  -4   3  -2   60.03    2.10
  -4   3  -2   61.49    2.02
   4  -3   2   60.32    2.15
   4  -3   2   59.10    2.02
   4  -3   2   57.95    2.11
   4  -3   2   58.96    1.85
  -5   3  -2   48.30    1.69
  -5   3  -2   47.51    1.72
  -5   3  -2   48.04    1.77
   5  -3   2   45.94    1.77
   5  -3   2   47.17    1.69
   5  -3   2   46.36    1.83
  -6   3  -2   43.15    1.61
  -6   3  -2   42.23    1.61
  -6   3  -2   34.55    1.76
   6  -3   2   42.25    1.61
   6  -3   2   42.19    1.51
   6  -3   2   40.05    1.69
  -7   3  -2   23.35    1.05
  -7   3  -2   23.71    1.10
   7  -3   2   24.94    1.00
   7  -3   2   24.41    1.07
   7  -3   2   22.97    1.17
  -8   3  -2    1.33    0.22
  -8   3  -2    1.13    0.29
  -8   3  -2    1.12    0.21
   8  -3   2    0.82    0.30
   8  -3   2    0.57    0.37
  -9   3  -2    6.06    0.49
  -9   3  -2    6.42    0.49
  -9   3  -2    4.65    0.59
   9  -3   2    5.16    0.53
   9  -3   2    4.62    0.62
   9  -3   2    4.20    0.74
  10   2  -2    4.80    0.65
 -10  -2   2    5.55    0.49
   9   2  -2    1.75    0.33
  -9  -2   2    2.45    0.33
   8   2  -2    0.17    0.15
   8   2  -2   -0.08    0.19
   8   2  -2    0.50    0.29
  -8  -2   2    0.24    0.15
  -8  -2   2    0.07    0.15
   7   2  -2   21.70    0.76
  -7  -2   2   21.26    0.78
  -7  -2   2   20.39    1.02
   6   2  -2   25.15    0.91
  -6  -2   2   25.56    0.89
  -6  -2   2   24.66    1.10
  -6  -2   2   23.42    0.86
  -6  -2   2   26.77    0.92
   5   2  -2  103.78    3.14
   5   2  -2  105.32    3.03
  -5  -2   2  104.12    3.06
  -5  -2   2   86.34    3.07
  -5  -2   2  105.06    3.31
   4   2  -2  351.89   10.24
   4   2  -2  344.05   10.11
  -4  -2   2  337.49   10.19
  -4  -2   2  347.04   10.32
  -4  -2   2  352.65   10.13
  -4  -2   2  362.14   10.16
   3   2  -2   61.21    1.84
   3   2  -2   61.34    1.96
   3   2  -2   58.53    1.87
  -3  -2   2   60.18    1.97
  -3  -2   2   62.02    1.86
  -3  -2   2   59.67    1.84
  -3  -2   2   59.56    1.93
   2   2  -2  693.09   19.08
   2   2  -2  621.22   19.17
   2   2  -2  650.34   19.06
   2   2  -2  659.51   19.08
  -2  -2   2  582.36   19.06
  -2  -2   2  739.88   19.15
  -2  -2   2  646.14   19.09
  -2  -2   2  669.78   19.17
  -2  -2   2  728.17   19.25
  -2  -2   2  638.52   19.07
   1   2  -2   26.87    0.92
   1   2  -2   29.09    1.00
   1   2  -2   27.14    0.92
   1   2  -2   28.24    0.93
  -1  -2   2   28.38    0.94
  -1  -2   2   27.27    0.98
  -1  -2   2   28.16    0.93
  -1  -2   2   27.71    0.88
  -1  -2   2   29.02    0.99
   0   2  -2  521.74   17.01
   0   2  -2  565.44   16.99
   0   2  -2  604.20   17.02
   0   2  -2  603.61   16.97
   0  -2   2  600.71   17.03
   0  -2   2  586.55   17.01
   0  -2   2  638.99   16.98
  -1   2  -2  310.30    9.25
  -1   2  -2  303.44    9.28
  -1   2  -2  318.11    9.30
  -1   2  -2  300.50    9.32
  -1   2  -2  339.25    9.17
   1  -2   2  309.04    9.31
   1  -2   2  347.35    9.20
   1  -2   2  318.92    9.29
   1  -2   2  313.84    9.27
   1  -2   2  322.99    9.33
  -2   2  -2  268.33    7.99
  -2   2  -2  261.53    7.88
  -2   2  -2  277.53    7.86
  -2   2  -2  271.80    7.91
  -2   2  -2  269.96    7.95
   2  -2   2  276.92    8.01
   2  -2   2  270.76    7.96
   2  -2   2  271.23    7.96
   2  -2   2  260.56    7.87
  -3   2  -2   67.01    2.25
  -3   2  -2   71.63    2.21
  -3   2  -2   66.71    2.09
  -3   2  -2   69.36    2.17
   3  -2   2   68.06    2.26
   3  -2   2   69.41    2.27
   3  -2   2   66.05    2.08
   3  -2   2   66.72    2.20
  -4   2  -2   22.95    0.90
  -4   2  -2   21.91    0.90
  -4   2  -2   23.29    0.95
   4  -2   2   22.64    0.90
   4  -2   2   22.18    0.97
   4  -2   2   23.05    0.95
  -5   2  -2    4.50    0.32
  -5   2  -2    4.26    0.32
  -5   2  -2    4.58    0.29
   5  -2   2    4.17    0.29
   5  -2   2    4.83    0.34
   5  -2   2    3.79    0.35
  -6   2  -2    6.77    0.38
  -6   2  -2    7.20    0.43
  -6   2  -2    6.77    0.45
   6  -2   2    6.89    0.39
   6  -2   2    6.26    0.48
   6  -2   2    7.20    0.43
  -7   2  -2    1.32    0.28
  -7   2  -2    1.38    0.24
  -7   2  -2    1.22    0.24
   7  -2   2    1.59    0.26
   7  -2   2    1.14    0.25
   7  -2   2    1.72    0.30
  -8   2  -2    0.69    0.24
  -8   2  -2    1.00    0.20
   8  -2   2    1.17    0.31
   8  -2   2    0.98    0.26
   8  -2   2    1.54    0.33
  -9   2  -2    0.02    0.20
  -9   2  -2   -0.23    0.32
  -9   2  -2    0.24    0.27
   9  -2   2    0.41    0.34
   9  -2   2    0.16    0.29
   9  -2   2   -0.21    0.45
   9   1  -2    5.05    0.54
  -9  -1   2    5.28    0.32
  -9  -1   2    5.44    0.48
  -9  -1   2    4.76    0.29
   8   1  -2   17.48    0.88
  -8  -1   2   17.78    0.98
   7   1  -2   20.58    0.77
  -7  -1   2   19.81    1.01
   6   1  -2   45.90    1.46
  -6  -1   2   42.80    1.71
   5   1  -2   35.27    1.18
  -5  -1   2   35.12    1.38
   4   1  -2   10.80    0.40
   4   1  -2   10.29    0.44
  -4  -1   2   10.32    0.54
   3   1  -2   28.59    1.00
  -3  -1   2   30.58    0.91
  -3  -1   2   27.61    1.05
  -3  -1   2   29.70    1.09
   2   1  -2   11.75    0.48
  -2  -1   2   11.51    0.38
  -2  -1   2   12.38    0.52
  -2  -1   2   11.08    0.47
  -2  -1   2   11.51    0.46
   1   1  -2   66.90    2.06
   1   1  -2   66.75    1.97
   1   1  -2   62.60    1.97
   1   1  -2   65.48    1.96
  -1  -1   2   67.09    2.00
  -1  -1   2   66.00    1.97
  -1  -1   2   71.15    2.11
  -1  -1   2   64.89    2.04
   0   1  -2    0.32    0.05
   0   1  -2    0.38    0.03
   0   1  -2    0.29    0.05
   0  -1   2    0.47    0.05
   0  -1   2    0.43    0.05
   0  -1   2    0.48    0.04
  -1   1  -2  343.72   10.50
  -1   1  -2  358.62   10.47
  -1   1  -2  395.89   10.54
   1  -1   2  358.06   10.48
   1  -1   2  366.84   10.54
   1  -1   2  345.03   10.50
   1  -1   2  372.38   10.55
  -2   1  -2  685.45   18.46
  -2   1  -2  603.26   18.54
  -2   1  -2  654.15   18.53
   2  -1   2  649.46   18.56
   2  -1   2  645.96   18.52
   2  -1   2  647.17   18.53
   2  -1   2  600.85   18.43
  -3   1  -2   19.69    0.65
  -3   1  -2   19.71    0.78
  -3   1  -2   19.83    0.76
  -3   1  -2   19.35    0.72
   3  -1   2   19.67    0.78
   3  -1   2   19.00    0.78
   3  -1   2   18.98    0.75
  -4   1  -2  566.24   16.71
  -4   1  -2  556.06   16.74
  -4   1  -2  589.60   16.72
   4  -1   2  579.00   16.77
   4  -1   2  571.54   16.71
   4  -1   2  583.79   16.81
  -5   1  -2   20.62    0.91
  -5   1  -2   24.24    0.91
  -5   1  -2   22.06    0.92
   5  -1   2   21.87    0.92
   5  -1   2   23.19    0.89
   5  -1   2   22.55    0.98
  -6   1  -2  187.10    5.59
  -6   1  -2  180.07    5.66
  -6   1  -2  179.91    5.64
   6  -1   2  183.92    5.66
   6  -1   2  184.29    5.76
   6  -1   2  180.85    5.57
  -7   1  -2    3.09    0.29
  -7   1  -2    2.44    0.29
   7  -1   2    3.63    0.40
   7  -1   2    3.14    0.30
   7  -1   2    2.99    0.29
  -8   1  -2   63.84    2.44
  -8   1  -2   68.63    2.34
   8  -1   2   66.88    2.35
   8  -1   2   65.36    2.45
   8  -1   2   66.71    2.26
  -9   1  -2    9.90    0.65
  -9   1  -2    9.42    0.55
  -9   1  -2    9.20    0.59
   9  -1   2   10.33    0.61
   9  -1   2    9.57    0.67
   9  -1   2   10.89    0.59
 -10   1  -2    0.82    0.25
 -10   1  -2    0.27    0.33
 -10   1  -2    0.38    0.37
  10  -1   2    0.95    0.52
  10  -1   2    0.52    0.37
  10  -1   2    0.23    0.39
   9   0  -2    0.42    0.36
  -9   0   2    0.58    0.19
  -9   0   2    0.81    0.16
   8   0  -2    3.53    0.45
  -8   0   2    4.25    0.26
  -8   0   2    3.59    0.40
   7   0  -2   23.61    0.85
   7   0  -2   22.01    1.01
   7   0  -2   20.09    0.81
  -7   0   2   21.12    1.07
   6   0  -2    8.86    0.39
   6   0  -2    7.96    0.50
   6   0  -2    6.61    0.36
  -6   0   2    7.84    0.53
   5   0  -2  185.12    5.37
   5   0  -2  175.83    5.58
  -5   0   2  173.79    5.63
  -5   0   2  176.89    5.34
  -5   0   2  193.45    5.36
   4   0  -2  174.89    5.31
   4   0  -2  171.38    5.12
  -4   0   2  169.38    5.33
  -4   0   2  178.22    5.29
   3   0  -2  204.62    6.04
  -3   0   2  209.41    6.16
  -3   0   2  203.41    6.17
   2   0  -2  425.41   14.36
  -2   0   2  531.71   14.46
  -2   0   2  537.48   14.48
  -1   0   2  292.36    8.81
  -1   0   2  315.31    8.86
   0   0  -2  166.93    5.07
   0   0   2  182.45    5.06
  -1   0  -2   85.86    2.59
  -1   0  -2   85.35    2.58
   1   0   2   82.20    2.57
   1   0   2   91.13    2.60
   2   0   2  893.77   25.72
  -3   0  -2    8.58    0.38
  -3   0  -2    8.77    0.40
  -3   0  -2    8.05    0.30
  -3   0  -2    9.07    0.41
   3   0   2    8.67    0.39
  -4   0  -2  135.35    4.16
  -4   0  -2  142.85    4.17
  -4   0  -2  136.42    4.16
   4   0   2  132.94    4.16
   4   0   2  133.37    4.14
  -5   0  -2   23.49    0.92
  -5   0  -2   22.84    0.94
  -5   0  -2   24.58    0.93
   5   0   2   23.03    0.92
   5   0   2   23.32    0.91
  -6   0  -2    2.89    0.23
  -6   0  -2    2.90    0.26
  -6   0  -2    3.00    0.25
   6   0   2    2.83    0.23
   6   0   2    2.69    0.27
   6   0   2    3.10    0.24
  -7   0  -2    1.31    0.22
  -7   0  -2    1.00    0.22
  -7   0  -2    1.06    0.16
   7   0   2    1.66    0.23
   7   0   2    1.29    0.24
   7   0   2    1.48    0.23
  -8   0  -2    3.86    0.34
  -8   0  -2    2.90    0.32
  -8   0  -2    3.22    0.32
   8   0   2    3.20    0.35
   8   0   2    3.62    0.32
   8   0   2    3.22    0.38
  -9   0  -2    0.22    0.24
  -9   0  -2    0.14    0.16
  -9   0  -2   -0.05    0.23
   9   0   2    0.16    0.34
   9   0   2   -0.06    0.26
   9   0   2    0.46    0.26
 -10   0  -2    2.40    0.37
 -10   0  -2    2.15    0.44
 -10   0  -2    1.69    0.33
  10   0   2    2.59    0.54
  10   0   2    2.16    0.41
   9  -1  -2    5.51    0.65
  -9   1   2    4.79    0.33
   8  -1  -2    0.30    0.19
   8  -1  -2    0.46    0.30
  -8   1   2    0.18    0.18
  -8   1   2    0.38    0.16
  -8   1   2    0.24    0.18
   7  -1  -2    8.68    0.44
   7  -1  -2    7.88    0.57
  -7   1   2    8.36    0.39
  -7   1   2    8.01    0.59
  -7   1   2    7.85    0.41
   6  -1  -2    3.90    0.27
   6  -1  -2    3.50    0.35
   6  -1  -2    3.35    0.26
  -6   1   2    3.02    0.34
  -6   1   2    3.27    0.34
  -6   1   2    3.37    0.22
  -6   1   2    3.57    0.23
   5  -1  -2   42.73    1.60
   5  -1  -2   36.50    1.44
   5  -1  -2   42.39    1.41
  -5   1   2   40.50    1.36
  -5   1   2   41.58    1.61
  -5   1   2   45.91    1.36
   4  -1  -2    3.46    0.21
   4  -1  -2    3.83    0.20
   4  -1  -2    3.66    0.29
  -4   1   2    3.13    0.23
  -4   1   2    3.87    0.20
  -4   1   2    3.47    0.19
  -4   1   2    3.86    0.25
   3  -1  -2   25.25    0.81
   3  -1  -2   25.18    0.95
  -3   1   2   23.34    0.93
  -3   1   2   24.17    0.89
  -3   1   2   22.22    0.80
  -3   1   2   23.28    0.78
   2  -1  -2   16.05    0.64
  -2   1   2   16.83    0.62
  -2   1   2   15.39    0.63
  -2   1   2   15.35    0.51
   1  -1  -2    8.67    0.31
   1  -1  -2    9.29    0.37
  -1   1   2    9.72    0.44
  -1   1   2    9.10    0.36
  -1   1   2    8.83    0.37
   0  -1  -2   24.78    0.79
   0  -1  -2   25.27    0.78
   0  -1  -2   24.09    0.77
   0   1   2   25.07    0.78
   0   1   2   25.01    0.78
   0   1   2   23.95    0.77
  -1  -1  -2   76.22    2.26
  -1  -1  -2   74.40    2.25
   1   1   2   74.93    2.25
   1   1   2   75.33    2.26
  -2  -1  -2  121.81    3.60
  -2  -1  -2  118.21    3.57
   2   1   2  120.62    3.58
   2   1   2  119.91    3.59
  -3  -1  -2   48.41    1.55
  -3  -1  -2   47.45    1.57
   3   1   2   46.63    1.56
   3   1   2   50.24    1.56
  -4  -1  -2  242.97    7.14
  -4  -1  -2  234.02    7.09
   4   1   2  236.68    7.11
   4   1   2  246.37    7.11
  -5  -1  -2   51.03    1.74
  -5  -1  -2   52.07    1.72
  -5  -1  -2   51.09    1.76
   5   1   2   48.95    1.72
   5   1   2   50.93    1.72
  -6  -1  -2   89.31    2.78
  -6  -1  -2   79.32    2.79
  -6  -1  -2   83.04    2.73
   6   1   2   86.29    2.76
  -7  -1  -2   12.69    0.70
  -7  -1  -2   12.98    0.61
  -7  -1  -2   13.44    0.64
   7   1   2   13.15    0.62
   7   1   2   12.92    0.62
  -8  -1  -2   38.42    1.42
  -8  -1  -2   35.03    1.53
  -8  -1  -2   39.25    1.44
   8   1   2   36.76    1.40
   8   1   2   37.43    1.51
   8   1   2   38.49    1.43
  -9  -1  -2    0.08    0.22
  -9  -1  -2    0.05    0.24
  -9  -1  -2    0.25    0.16
   9   1   2    0.50    0.29
   9   1   2   -0.08    0.23
   9   1   2    0.53    0.27
 -10  -1  -2    3.52    0.38
 -10  -1  -2    2.94    0.50
 -10  -1  -2    3.48    0.45
  10   1   2    4.00    0.48
  10   1   2    3.62    0.56
  10   1   2    2.80    0.57
   9  -2  -2    4.94    0.71
  -9   2   2    5.87    0.51
  -9   2   2    6.08    0.43
   8  -2  -2    1.87    0.37
   8  -2  -2    2.24    0.32
   8  -2  -2    1.59    0.26
  -8   2   2    1.64    0.27
  -8   2   2    1.88    0.28
  -8   2   2    2.29    0.33
   7  -2  -2    1.31    0.21
   7  -2  -2    1.29    0.20
   7  -2  -2    0.56    0.28
  -7   2   2    1.00    0.21
  -7   2   2    1.21    0.30
  -7   2   2    1.00    0.15
   6  -2  -2   67.66    2.46
   6  -2  -2   62.49    2.11
   6  -2  -2   68.20    2.22
  -6   2   2   70.57    2.12
  -6   2   2   66.37    2.15
  -6   2   2   65.71    2.47
   5  -2  -2  153.03    4.84
   5  -2  -2  149.06    4.58
   5  -2  -2  141.65    4.48
  -5   2   2  150.80    4.52
  -5   2   2  158.07    4.50
  -5   2   2  146.94    4.80
   4  -2  -2   81.76    2.57
   4  -2  -2   79.71    2.76
   4  -2  -2   78.45    2.50
  -4   2   2   79.03    2.52
  -4   2   2   81.72    2.75
  -4   2   2   84.33    2.61
  -4   2   2   86.14    2.51
   3  -2  -2  388.63   11.06
   3  -2  -2  379.48   11.23
   3  -2  -2  361.27   11.01
  -3   2   2  402.45   11.10
  -3   2   2  360.74   11.01
  -3   2   2  384.93   11.22
  -3   2   2  380.36   11.00
   2  -2  -2    5.23    0.23
   2  -2  -2    4.61    0.23
   2  -2  -2    4.36    0.28
  -2   2   2    4.44    0.22
  -2   2   2    4.69    0.26
  -2   2   2    4.60    0.24
  -2   2   2    4.29    0.27
  -2   2   2    4.22    0.21
   1  -2  -2  764.57   20.79
   1  -2  -2  695.43   20.77
   1  -2  -2  680.94   20.75
   1  -2  -2  720.49   20.85
  -1   2   2  732.47   20.76
  -1   2   2  742.34   20.77
  -1   2   2  706.14   20.81
  -1   2   2  734.31   20.77
   0  -2  -2   52.14    1.68
   0  -2  -2   56.25    1.70
   0  -2  -2   53.38    1.69
   0  -2  -2   58.30    1.73
   0   2   2   54.64    1.69
   0   2   2   56.01    1.72
   0   2   2   54.55    1.69
  -1  -2  -2  504.41   15.03
  -1  -2  -2  524.79   15.03
   1   2   2  534.06   15.06
  -2  -2  -2   39.24    1.31
  -2  -2  -2   41.43    1.33
   2   2   2   42.20    1.33
   2   2   2   40.33    1.31
  -3  -2  -2  164.93    5.13
  -3  -2  -2  180.12    5.20
   3   2   2  175.15    5.14
   3   2   2  174.60    5.19
  -4  -2  -2   40.47    1.38
  -4  -2  -2   41.68    1.44
  -4  -2  -2   41.80    1.33
   4   2   2   41.63    1.38
   4   2   2   40.79    1.42
  -5  -2  -2   47.07    1.43
  -5  -2  -2   45.59    1.53
  -5  -2  -2   44.02    1.59
   5   2   2   45.43    1.53
   5   2   2   43.27    1.57
  -6  -2  -2   12.69    0.65
  -6  -2  -2   13.24    0.59
  -6  -2  -2   12.85    0.63
   6   2   2   12.82    0.62
   6   2   2   13.27    0.59
  -7  -2  -2    1.35    0.25
  -7  -2  -2    0.82    0.20
  -7  -2  -2    1.40    0.19
   7   2   2    0.85    0.20
  -8  -2  -2    3.84    0.36
  -8  -2  -2    4.68    0.41
  -8  -2  -2    4.03    0.32
   8   2   2    4.05    0.38
   8   2   2    4.06    0.35
  -9  -2  -2    0.04    0.15
  -9  -2  -2    0.21    0.20
  -9  -2  -2    0.14    0.27
   9   2   2    0.29    0.29
   9   2   2    0.29    0.26
   9   2   2    0.37    0.21
 -10  -2  -2    0.00    0.28
 -10  -2  -2    0.00    0.32
 -10  -2  -2    0.23    0.18
  10   2   2   -0.03    0.35
  10   2   2   -0.07    0.28
   8  -3  -2    7.67    0.73
   8  -3  -2    8.07    0.70
   8  -3  -2    9.01    0.44
  -8   3   2    8.14    0.64
  -8   3   2    7.79    0.45
   7  -3  -2   29.71    1.40
   7  -3  -2   30.09    1.07
   7  -3  -2   29.79    1.35
  -7   3   2   27.42    1.12
  -7   3   2   31.95    1.11
  -7   3   2   28.58    1.15
  -7   3   2   30.06    1.44
   6  -3  -2    9.03    0.43
   6  -3  -2    8.29    0.49
   6  -3  -2    8.50    0.63
  -6   3   2    8.67    0.61
  -6   3   2    9.27    0.45
  -6   3   2    9.64    0.43
  -6   3   2    8.86    0.47
   5  -3  -2   10.60    0.47
   5  -3  -2    9.88    0.65
   5  -3  -2   10.64    0.53
  -5   3   2   11.57    0.52
  -5   3   2   10.67    0.49
  -5   3   2   11.00    0.47
  -5   3   2   10.65    0.66
   4  -3  -2   28.99    1.07
   4  -3  -2   28.13    1.01
   4  -3  -2   28.24    1.22
   4  -3  -2   29.07    0.98
  -4   3   2   27.32    1.19
  -4   3   2   28.53    0.99
  -4   3   2   28.42    1.02
  -4   3   2   28.79    1.05
  -4   3   2   27.36    1.09
   3  -3  -2  137.66    4.30
   3  -3  -2  135.76    4.13
   3  -3  -2  130.41    4.07
  -3   3   2  135.90    4.25
  -3   3   2  141.99    4.09
  -3   3   2  132.28    4.08
  -3   3   2  135.15    4.11
  -3   3   2  129.82    4.16
  -3   3   2  136.76    4.07
   2  -3  -2   16.81    0.66
   2  -3  -2   15.88    0.63
   2  -3  -2   17.17    0.74
  -2   3   2   16.94    0.63
  -2   3   2   16.50    0.65
  -2   3   2   16.13    0.67
  -2   3   2   16.20    0.63
  -2   3   2   16.10    0.70
  -2   3   2   17.17    0.63
   1  -3  -2  144.14    4.28
   1  -3  -2  140.50    4.35
   1  -3  -2  136.87    4.26
  -1   3   2  143.76    4.27
  -1   3   2  140.03    4.27
  -1   3   2  141.60    4.31
  -1   3   2  146.74    4.34
  -1   3   2  149.29    4.34
   0  -3  -2    0.36    0.07
   0  -3  -2    0.42    0.08
   0  -3  -2    0.54    0.07
   0   3   2    0.69    0.13
   0   3   2    0.46    0.07
   0   3   2    0.46    0.07
   0   3   2    0.59    0.07
  -1  -3  -2    1.55    0.12
  -1  -3  -2    1.62    0.13
  -1  -3  -2    1.64    0.12
  -1  -3  -2    1.65    0.13
   1   3   2    1.70    0.13
   1   3   2    1.72    0.15
   1   3   2    1.40    0.11
  -2  -3  -2   18.66    0.70
  -2  -3  -2   18.71    0.70
   2   3   2   18.21    0.69
  -3  -3  -2  411.68   11.85
  -3  -3  -2  408.62   11.87
  -3  -3  -2  382.98   11.81
   3   3   2  398.93   11.82
   3   3   2  429.47   11.88
  -4  -3  -2    1.84    0.17
  -4  -3  -2    1.93    0.16
   4   3   2    2.18    0.19
   4   3   2    2.01    0.17
  -5  -3  -2  189.10    5.66
  -5  -3  -2  186.99    5.51
  -5  -3  -2  180.51    5.54
   5   3   2  186.97    5.64
   5   3   2  180.84    5.54
  -6  -3  -2   39.31    1.44
  -6  -3  -2   36.20    1.42
  -6  -3  -2   37.62    1.32
  -6  -3  -2   36.73    1.25
   6   3   2   35.98    1.39
   6   3   2   39.20    1.34
  -7  -3  -2   73.62    2.50
  -7  -3  -2   73.94    2.40
  -7  -3  -2   71.91    2.54
   7   3   2   71.68    2.47
   7   3   2   71.59    2.39
  -8  -3  -2   40.43    1.51
  -8  -3  -2   39.40    1.42
  -8  -3  -2   37.17    1.58
   8   3   2   38.00    1.48
  -9  -3  -2   13.47    0.64
  -9  -3  -2   13.48    0.80
   9   3   2   13.10    0.72
 -10  -3  -2   12.61    0.65
 -10  -3  -2   13.30    0.82
 -10  -3  -2   13.51    0.77
  10   3   2   11.91    0.63
  10   3   2   12.56    0.76
   8  -4  -2    2.79    0.56
   8  -4  -2    2.31    0.51
   8  -4  -2    2.91    0.36
  -8   4   2    2.83    0.40
  -8   4   2    1.82    0.31
  -8   4   2    2.10    0.38
  -8   4   2    2.34    0.40
   7  -4  -2    0.16    0.18
   7  -4  -2    0.34    0.28
   7  -4  -2   -0.06    0.37
  -7   4   2   -0.12    0.17
  -7   4   2    0.16    0.21
  -7   4   2    0.14    0.23
  -7   4   2    0.03    0.20
   6  -4  -2    8.18    0.49
   6  -4  -2    8.11    0.42
   6  -4  -2    7.15    0.62
  -6   4   2    8.77    0.42
  -6   4   2    8.14    0.58
  -6   4   2    8.62    0.45
  -6   4   2    8.13    0.47
   5  -4  -2    2.64    0.27
   5  -4  -2    2.25    0.36
   5  -4  -2    1.97    0.18
   5  -4  -2    2.21    0.20
  -5   4   2    2.25    0.23
  -5   4   2    1.91    0.29
  -5   4   2    2.16    0.25
   4  -4  -2  268.27    8.04
   4  -4  -2  248.31    7.67
   4  -4  -2  259.79    7.64
   4  -4  -2  257.63    7.78
  -4   4   2  261.51    7.76
  -4   4   2  248.05    7.81
  -4   4   2  256.64    7.71
  -4   4   2  259.13    7.94
  -4   4   2  259.11    7.66
  -4   4   2  265.91    7.64
   3  -4  -2  165.71    5.08
   3  -4  -2  168.20    5.32
   3  -4  -2  172.66    5.16
   3  -4  -2  167.65    5.07
  -3   4   2  166.05    5.10
  -3   4   2  165.99    5.25
  -3   4   2  164.84    5.16
  -3   4   2  175.65    5.03
  -3   4   2  168.70    5.13
  -3   4   2  167.22    5.07
   2  -4  -2  250.94    7.59
   2  -4  -2  256.21    7.75
   2  -4  -2  250.03    7.58
   2  -4  -2  257.52    7.63
  -2   4   2  267.94    7.52
  -2   4   2  252.60    7.68
  -2   4   2  254.82    7.58
  -2   4   2  262.88    7.62
  -2   4   2  250.67    7.63
   1  -4  -2  942.41   27.42
   1  -4  -2  939.67   27.44
   1  -4  -2  851.44   27.44
   1  -4  -2  968.64   27.46
   1  -4  -2 1000.00   27.56
  -1   4   2  991.65   27.49
  -1   4   2  967.30   27.44
  -1   4   2  987.59   27.46
  -1   4   2  906.26   27.41
   0  -4  -2   27.35    0.98
   0  -4  -2   27.55    1.00
   0  -4  -2   28.64    1.01
   0  -4  -2   28.64    1.06
   0   4   2   27.29    1.00
   0   4   2   26.88    0.98
   0   4   2   26.90    0.99
   0   4   2   27.25    1.03
  -1  -4  -2  614.95   17.86
  -1  -4  -2  610.32   17.92
  -1  -4  -2  593.25   17.87
  -1  -4  -2  604.17   17.87
  -1  -4  -2  661.29   17.95
   1   4   2  594.77   17.90
   1   4   2  652.50   17.90
   1   4   2  593.01   17.84
   1   4   2  624.32   17.87
  -2  -4  -2    1.20    0.15
  -2  -4  -2    1.14    0.13
   2   4   2    1.28    0.13
   2   4   2    1.06    0.13
   2   4   2    1.03    0.13
  -3  -4  -2  555.53   15.72
  -3  -4  -2  537.32   15.75
  -3  -4  -2  501.99   15.74
   3   4   2  577.71   15.77
   3   4   2  531.09   15.71
  -4  -4  -2   41.49    1.46
  -4  -4  -2   44.16    1.50
  -4  -4  -2   42.38    1.52
   4   4   2   44.02    1.53
   4   4   2   42.24    1.46
  -5  -4  -2    2.52    0.22
  -5  -4  -2    2.64    0.25
  -5  -4  -2    3.23    0.23
   5   4   2    2.69    0.22
   5   4   2    2.87    0.26
  -6  -4  -2   23.54    0.91
  -6  -4  -2   23.91    1.00
  -6  -4  -2   24.17    0.93
   6   4   2   24.42    0.93
   6   4   2   22.87    1.00
  -7  -4  -2    3.36    0.32
  -7  -4  -2    3.94    0.26
  -7  -4  -2    3.03    0.23
  -7  -4  -2    3.29    0.31
   7   4   2    3.35    0.34
   7   4   2    3.56    0.25
  -8  -4  -2    4.23    0.39
  -8  -4  -2    4.67    0.25
  -8  -4  -2    4.04    0.31
  -8  -4  -2    4.25    0.39
   8   4   2    3.62    0.42
  -9  -4  -2    4.20    0.42
  -9  -4  -2    3.60    0.34
   9   4   2    4.61    0.50
   9   4   2    4.09    0.33
 -10  -4  -2    0.48    0.17
 -10  -4  -2    0.59    0.35
 -10  -4  -2    0.07    0.25
  10   4   2    0.35    0.41
   8  -5  -2    4.96    0.63
   8  -5  -2    5.54    0.46
   8  -5  -2    5.48    0.88
  -8   5   2    5.70    0.49
  -8   5   2    6.23    0.44
   7  -5  -2   -0.03    0.49
   7  -5  -2    0.31    0.32
   7  -5  -2    0.18    0.22
  -7   5   2    0.31    0.19
  -7   5   2    0.17    0.29
  -7   5   2   -0.06    0.23
  -7   5   2    0.09    0.25
   6  -5  -2    8.32    0.44
   6  -5  -2    7.65    0.52
   6  -5  -2    7.71    0.67
  -6   5   2    7.95    0.62
  -6   5   2    8.21    0.44
  -6   5   2    7.95    0.48
  -6   5   2    7.92    0.51
   5  -5  -2    8.44    0.52
   5  -5  -2    8.86    0.46
   5  -5  -2    8.62    0.65
   5  -5  -2    8.92    0.42
  -5   5   2    8.97    0.51
  -5   5   2    9.03    0.62
  -5   5   2   10.13    0.47
  -5   5   2    8.96    0.49
   4  -5  -2   63.38    2.15
   4  -5  -2   64.25    2.24
   4  -5  -2   64.23    2.11
   4  -5  -2   65.24    2.45
  -4   5   2   61.16    2.22
  -4   5   2   65.65    2.23
  -4   5   2   64.47    2.19
  -4   5   2   64.70    2.03
  -4   5   2   66.44    2.14
  -4   5   2   62.24    2.35
   3  -5  -2    4.55    0.39
   3  -5  -2    5.12    0.31
   3  -5  -2    4.51    0.33
   3  -5  -2    4.83    0.31
  -3   5   2    3.92    0.40
  -3   5   2    4.54    0.25
  -3   5   2    4.68    0.33
  -3   5   2    3.93    0.32
  -3   5   2    4.43    0.35
  -3   5   2    5.02    0.30
   2  -5  -2  132.22    4.14
   2  -5  -2  132.01    4.11
   2  -5  -2  133.03    4.10
   2  -5  -2  129.65    4.25
  -2   5   2  131.69    4.12
  -2   5   2  134.05    4.09
  -2   5   2  128.25    4.12
  -2   5   2  134.32    3.97
   1  -5  -2    0.55    0.11
   1  -5  -2    0.57    0.10
   1  -5  -2    0.51    0.11
   1  -5  -2    0.42    0.12
   1  -5  -2    0.53    0.11
  -1   5   2    0.47    0.09
  -1   5   2    0.31    0.10
  -1   5   2    0.79    0.13
  -1   5   2    0.56    0.12
   0  -5  -2   13.64    0.61
   0  -5  -2   13.45    0.65
   0  -5  -2   14.39    0.68
   0  -5  -2   13.90    0.63
   0  -5  -2   14.21    0.63
   0   5   2   13.85    0.63
   0   5   2   14.18    0.61
   0   5   2   14.35    0.66
   0   5   2   14.37    0.63
  -1  -5  -2    1.06    0.13
  -1  -5  -2    0.58    0.11
  -1  -5  -2    0.81    0.12
  -1  -5  -2    0.67    0.12
  -1  -5  -2    0.66    0.13
   1   5   2    0.89    0.11
   1   5   2    0.91    0.12
   1   5   2    0.86    0.18
  -2  -5  -2    0.02    0.08
  -2  -5  -2    0.15    0.07
  -2  -5  -2    0.11    0.06
  -2  -5  -2    0.03    0.07
   2   5   2    0.05    0.07
   2   5   2    0.04    0.07
   2   5   2    0.04    0.09
  -3  -5  -2   37.60    1.37
  -3  -5  -2   35.71    1.34
  -3  -5  -2   36.31    1.33
  -3  -5  -2   38.61    1.33
   3   5   2   36.76    1.35
   3   5   2   36.56    1.31
  -4  -5  -2    0.41    0.10
  -4  -5  -2    0.47    0.12
  -4  -5  -2    0.45    0.11
  -4  -5  -2    0.53    0.11
   4   5   2    0.48    0.11
   4   5   2    0.42    0.09
  -5  -5  -2  100.73    3.26
  -5  -5  -2   98.29    3.20
  -5  -5  -2   98.78    3.16
   5   5   2  100.74    3.16
   5   5   2  101.02    3.26
  -6  -5  -2   15.37    0.71
  -6  -5  -2   16.67    0.77
  -6  -5  -2   15.73    0.69
   6   5   2   15.76    0.77
   6   5   2   16.00    0.69
  -7  -5  -2   10.44    0.51
  -7  -5  -2   10.87    0.61
  -7  -5  -2   11.16    0.53
   7   5   2   10.92    0.53
   7   5   2    9.58    0.60
  -8  -5  -2    1.04    0.24
  -8  -5  -2    1.13    0.22
  -8  -5  -2    1.38    0.23
  -8  -5  -2    1.06    0.20
   8   5   2    0.99    0.25
  -9  -5  -2   25.14    1.24
  -9  -5  -2   28.63    0.96
  -9  -5  -2   27.12    1.23
  -9  -5  -2   27.34    1.07
   9   5   2   25.41    1.09
   9   5   2   26.97    1.18
 -10  -5  -2    2.22    0.32
 -10  -5  -2    2.16    0.27
 -10  -5  -2    2.05    0.42
  10   5   2    1.89    0.39
  10   5   2    2.23    0.36
   7  -6  -2    2.29    0.41
   7  -6  -2    2.20    0.40
   7  -6  -2    2.34    0.60
  -7   6   2    1.52    0.25
  -7   6   2    1.78    0.31
  -7   6   2    1.26    0.30
  -7   6   2    1.55    0.33
   6  -6  -2    9.89    0.50
   6  -6  -2    7.84    0.57
   6  -6  -2    8.56    0.74
  -6   6   2    8.07    0.55
  -6   6   2    8.25    0.52
  -6   6   2    8.35    0.66
   5  -6  -2    2.28    0.48
   5  -6  -2    1.45    0.26
   5  -6  -2    1.39    0.24
   5  -6  -2    1.48    0.27
  -5   6   2    1.37    0.31
  -5   6   2    1.50    0.33
  -5   6   2    1.45    0.24
  -5   6   2    1.36    0.29
   4  -6  -2   53.30    1.84
   4  -6  -2   54.60    1.89
   4  -6  -2   52.02    1.96
  -4   6   2   55.49    1.97
  -4   6   2   55.44    1.88
  -4   6   2   53.33    1.70
  -4   6   2   52.46    1.95
  -4   6   2   53.29    1.91
  -4   6   2   51.67    2.07
   3  -6  -2    4.11    0.35
   3  -6  -2    4.47    0.32
   3  -6  -2    3.99    0.32
   3  -6  -2    4.19    0.42
  -3   6   2    4.69    0.31
  -3   6   2    4.17    0.38
  -3   6   2    4.87    0.35
  -3   6   2    5.05    0.35
  -3   6   2    4.99    0.25
   2  -6  -2  237.88    7.58
   2  -6  -2  249.17    7.42
   2  -6  -2  245.34    7.42
   2  -6  -2  240.91    7.46
  -2   6   2  254.17    7.23
  -2   6   2  241.59    7.40
  -2   6   2  246.13    7.40
  -2   6   2  245.41    7.45
  -2   6   2  245.78    7.44
   1  -6  -2   29.00    1.12
   1  -6  -2   28.57    1.16
   1  -6  -2   29.97    1.15
   1  -6  -2   29.12    1.23
   1  -6  -2   27.77    1.15
  -1   6   2   29.07    1.14
  -1   6   2   30.18    1.16
  -1   6   2   30.16    1.17
  -1   6   2   27.79    1.11
   0  -6  -2  536.60   16.44
   0  -6  -2  566.06   16.52
   0  -6  -2  566.60   16.41
   0  -6  -2  553.54   16.36
   0  -6  -2  555.48   16.42
   0   6   2  568.12   16.38
   0   6   2  566.44   16.40
   0   6   2  557.57   16.44
   0   6   2  570.37   16.41
  -1  -6  -2  259.72    7.68
  -1  -6  -2  250.71    7.74
  -1  -6  -2  257.13    7.69
  -1  -6  -2  257.13    7.65
   1   6   2  252.13    7.64
   1   6   2  255.93    7.68
   1   6   2  254.14    7.71
   1   6   2  256.03    7.67
  -2  -6  -2  292.51    8.70
  -2  -6  -2  294.52    8.66
  -2  -6  -2  287.64    8.75
  -2  -6  -2  289.02    8.68
   2   6   2  287.48    8.66
   2   6   2  291.75    8.75
   2   6   2  292.24    8.70
   2   6   2  290.26    8.64
  -3  -6  -2  204.78    6.21
  -3  -6  -2  206.33    6.17
  -3  -6  -2  200.50    6.17
  -3  -6  -2  200.59    6.24
   3   6   2  204.70    6.21
   3   6   2  202.96    6.27
   3   6   2  200.60    6.15
  -4  -6  -2   35.48    1.31
  -4  -6  -2   34.21    1.36
  -4  -6  -2   34.26    1.33
  -4  -6  -2   37.15    1.40
   4   6   2   35.60    1.32
   4   6   2   36.29    1.37
  -5  -6  -2   76.21    2.57
  -5  -6  -2   75.39    2.58
  -5  -6  -2   77.12    2.62
  -5  -6  -2   75.87    2.51
   5   6   2   75.95    2.60
   5   6   2   75.81    2.51
  -6  -6  -2    4.82    0.35
  -6  -6  -2    5.06    0.37
  -6  -6  -2    4.62    0.31
   6   6   2    4.73    0.31
   6   6   2    4.78    0.39
  -7  -6  -2    3.90    0.28
  -7  -6  -2    3.23    0.38
  -7  -6  -2    3.30    0.29
   7   6   2    3.72    0.27
   7   6   2    4.15    0.38
  -8  -6  -2    1.55    0.25
  -8  -6  -2    1.63    0.25
  -8  -6  -2    1.17    0.24
  -8  -6  -2    1.67    0.24
   8   6   2    1.42    0.25
   8   6   2    1.35    0.26
  -9  -6  -2    3.67    0.33
  -9  -6  -2    3.76    0.31
  -9  -6  -2    3.06    0.49
  -9  -6  -2    3.19    0.38
   9   6   2    3.83    0.52
   9   6   2    3.48    0.33
 -10  -6  -2    0.29    0.25
 -10  -6  -2    0.50    0.39
 -10  -6  -2   -0.10    0.17
 -10  -6  -2    0.07    0.18
 -10  -6  -2    0.23    0.37
  10   6   2    0.02    0.25
  10   6   2    0.21    0.41
   7  -7  -2    1.74    0.65
  -7   7   2    1.89    0.42
  -7   7   2    1.66    0.40
   6  -7  -2   28.54    1.13
   6  -7  -2   25.19    1.41
   6  -7  -2   27.53    1.22
  -6   7   2   27.85    1.15
  -6   7   2   27.99    1.21
  -6   7   2   29.89    1.45
   5  -7  -2    7.28    0.71
   5  -7  -2    8.68    0.46
   5  -7  -2    7.30    0.56
   5  -7  -2    7.92    0.50
  -5   7   2    7.73    0.55
  -5   7   2    8.65    0.64
  -5   7   2    8.16    0.53
  -5   7   2    8.73    0.58
   4  -7  -2   36.87    1.39
   4  -7  -2   34.31    1.60
   4  -7  -2   34.65    1.33
   4  -7  -2   34.71    1.44
  -4   7   2   34.61    1.15
  -4   7   2   36.95    1.44
  -4   7   2   35.42    1.35
   3  -7  -2    6.46    0.45
   3  -7  -2    5.59    0.40
   3  -7  -2    5.30    0.49
   3  -7  -2    5.83    0.41
  -3   7   2    6.06    0.29
  -3   7   2    5.42    0.38
  -3   7   2    5.90    0.43
  -3   7   2    5.59    0.41
   2  -7  -2   50.39    1.88
   2  -7  -2   51.35    1.84
   2  -7  -2   48.72    1.97
   2  -7  -2   49.19    1.85
  -2   7   2   52.16    1.65
  -2   7   2   50.14    1.86
  -2   7   2   51.75    1.83
  -2   7   2   50.97    1.86
  -2   7   2   49.40    1.81
   1  -7  -2    0.55    0.15
   1  -7  -2    0.51    0.13
   1  -7  -2    0.39    0.12
   1  -7  -2    0.25    0.16
  -1   7   2    0.38    0.11
  -1   7   2    0.14    0.16
  -1   7   2    0.39    0.13
   0  -7  -2   25.26    1.13
   0  -7  -2   26.56    1.11
   0  -7  -2   26.21    1.08
   0  -7  -2   26.10    1.10
   0  -7  -2   26.70    1.17
   0   7   2   26.14    1.08
   0   7   2   27.08    1.10
   0   7   2   26.27    1.11
   0   7   2   27.42    1.11
  -1  -7  -2    2.06    0.22
  -1  -7  -2    2.58    0.23
  -1  -7  -2    2.81    0.27
  -1  -7  -2    2.01    0.23
   1   7   2    2.19    0.22
   1   7   2    2.27    0.21
   1   7   2    2.51    0.25
   1   7   2    2.35    0.23
  -2  -7  -2    4.86    0.34
  -2  -7  -2    4.35    0.36
  -2  -7  -2    4.69    0.34
  -2  -7  -2    5.17    0.35
   2   7   2    5.41    0.33
   2   7   2    4.54    0.34
   2   7   2    5.15    0.37
   2   7   2    4.19    0.33
  -3  -7  -2    1.17    0.22
  -3  -7  -2    1.36    0.19
  -3  -7  -2    1.09    0.21
  -3  -7  -2    1.40    0.20
   3   7   2    1.09    0.22
   3   7   2    1.19    0.19
   3   7   2    1.63    0.21
  -4  -7  -2   98.00    3.26
  -4  -7  -2   94.53    3.22
  -4  -7  -2   96.46    3.19
  -4  -7  -2   95.51    3.16
   4   7   2   97.41    3.31
   4   7   2   99.07    3.15
   4   7   2   97.64    3.23
  -5  -7  -2    2.96    0.29
  -5  -7  -2    2.99    0.28
  -5  -7  -2    3.73    0.30
   5   7   2    3.81    0.28
   5   7   2    3.24    0.30
  -6  -7  -2   97.36    3.28
  -6  -7  -2   97.24    3.26
  -6  -7  -2   99.14    3.20
  -6  -7  -2   96.32    3.32
   6   7   2   96.17    3.17
   6   7   2   99.94    3.33
  -7  -7  -2    6.37    0.45
  -7  -7  -2    7.29    0.53
  -7  -7  -2    7.78    0.50
  -7  -7  -2    7.34    0.43
   7   7   2    7.21    0.53
  -8  -7  -2   40.44    1.52
  -8  -7  -2   40.25    1.50
   8   7   2   40.81    1.49
   8   7   2   41.65    1.67
  -9  -7  -2   21.97    0.93
  -9  -7  -2   22.65    0.94
  -9  -7  -2   23.23    1.10
  -9  -7  -2   22.72    1.12
  -9  -7  -2   22.03    1.06
   9   7   2   22.05    1.09
   9   7   2   22.06    0.93
 -10  -7  -2    1.36    0.42
 -10  -7  -2    1.17    0.26
 -10  -7  -2    1.84    0.36
 -10  -7  -2    1.81    0.31
  10   7   2    1.86    0.45
  10   7   2    0.96    0.27
   6  -8  -2   -0.15    0.25
   6  -8  -2    0.35    0.44
   6  -8  -2    0.31    0.62
   6  -8  -2    0.26    0.32
  -6   8   2    0.17    0.37
  -6   8   2   -0.07    0.28
  -6   8   2    0.31    0.37
   5  -8  -2   14.20    0.67
   5  -8  -2   13.50    0.71
   5  -8  -2   12.41    0.94
   5  -8  -2   12.41    0.78
  -5   8   2   13.99    0.73
  -5   8   2   13.64    0.75
  -5   8   2   12.57    0.74
  -5   8   2   13.15    0.67
   4  -8  -2   43.21    1.75
   4  -8  -2   47.26    1.65
   4  -8  -2   43.48    1.94
   4  -8  -2   45.96    1.67
  -4   8   2   36.85    1.93
  -4   8   2   42.42    1.66
  -4   8   2   44.73    1.72
   3  -8  -2   23.40    1.00
   3  -8  -2   21.02    1.02
   3  -8  -2   22.66    0.99
   3  -8  -2   21.52    1.14
  -3   8   2   22.00    0.98
  -3   8   2   22.37    1.03
  -3   8   2   21.95    0.77
  -3   8   2   21.49    0.96
   2  -8  -2  155.32    4.88
   2  -8  -2  149.34    4.91
   2  -8  -2  159.52    4.87
   2  -8  -2  150.34    5.06
  -2   8   2  154.35    4.90
  -2   8   2  157.92    4.86
  -2   8   2  147.22    4.65
  -2   8   2  136.82    5.29
   1  -8  -2   16.50    0.80
   1  -8  -2   16.59    0.90
   1  -8  -2   16.38    0.85
   1  -8  -2   17.88    0.85
   1  -8  -2   17.22    0.82
  -1   8   2   17.35    0.83
  -1   8   2   17.13    0.80
  -1   8   2   16.73    0.82
  -1   8   2   16.87    0.80
   0  -8  -2  322.12    9.78
   0  -8  -2  320.74    9.81
   0  -8  -2  322.11    9.73
   0  -8  -2  311.14    9.84
   0  -8  -2  328.88    9.94
   0   8   2  328.13    9.77
   0   8   2  320.36    9.79
   0   8   2  335.78    9.81
   0   8   2  323.54    9.74
  -1  -8  -2    0.20    0.14
  -1  -8  -2    0.29    0.14
  -1  -8  -2    0.51    0.15
  -1  -8  -2    0.27    0.18
   1   8   2    0.17    0.14
   1   8   2    0.26    0.15
   1   8   2    0.20    0.14
   1   8   2    0.42    0.12
  -2  -8  -2  413.58   12.27
  -2  -8  -2  388.48   12.32
  -2  -8  -2  407.79   12.21
  -2  -8  -2  413.57   12.24
   2   8   2  407.46   12.29
   2   8   2  417.33   12.25
   2   8   2  414.41   12.23
   2   8   2  416.97   12.19
  -3  -8  -2   51.03    1.87
  -3  -8  -2   51.03    1.88
  -3  -8  -2   51.62    1.91
  -3  -8  -2   50.54    1.97
   3   8   2   52.02    1.87
   3   8   2   52.05    1.91
   3   8   2   49.59    1.96
  -4  -8  -2   79.13    2.84
  -4  -8  -2   80.06    2.79
  -4  -8  -2   81.72    2.77
  -4  -8  -2   80.74    2.74
   4   8   2   82.48    2.73
   4   8   2   81.43    2.80
   4   8   2   78.72    2.86
  -5  -8  -2   58.55    2.12
  -5  -8  -2   58.86    2.18
  -5  -8  -2   56.14    2.04
  -5  -8  -2   57.95    2.15
   5   8   2   56.20    2.05
   5   8   2   58.74    2.15
  -6  -8  -2    2.02    0.30
  -6  -8  -2    2.36    0.32
  -6  -8  -2    1.79    0.25
   6   8   2    1.56    0.26
   6   8   2    2.27    0.34
  -7  -8  -2   25.85    1.14
  -7  -8  -2   24.87    1.05
  -7  -8  -2   26.52    1.18
  -7  -8  -2   25.94    1.20
   7   8   2   26.40    1.20
   7   8   2   26.23    1.06
  -8  -8  -2    3.63    0.35
  -8  -8  -2    4.42    0.47
  -8  -8  -2    3.62    0.49
  -8  -8  -2    3.85    0.36
   8   8   2    3.34    0.50
   8   8   2    3.60    0.35
  -9  -8  -2    0.91    0.35
  -9  -8  -2    0.70    0.18
  -9  -8  -2    0.62    0.35
  -9  -8  -2    0.54    0.24
   9   8   2    0.43    0.23
   9   8   2    1.15    0.38
 -10  -8  -2    4.12    0.47
 -10  -8  -2    4.71    0.65
 -10  -8  -2    4.01    0.72
 -10  -8  -2    4.03    0.61
 -10  -8  -2    3.53    0.45
  10   8   2    5.71    0.77
  10   8   2    4.06    0.46
   5  -9  -2    3.87    0.52
   5  -9  -2    2.93    0.66
   5  -9  -2    3.39    0.64
  -5   9   2    2.84    0.41
  -5   9   2    3.50    0.55
  -5   9   2    3.57    0.46
   4  -9  -2   -0.10    0.46
   4  -9  -2    0.60    0.34
   4  -9  -2   -0.09    0.26
   4  -9  -2    0.36    0.28
  -4   9   2   -0.08    0.28
  -4   9   2   -0.35    0.31
  -4   9   2    0.61    0.31
  -4   9   2    0.31    0.24
   3  -9  -2   32.25    1.34
   3  -9  -2   31.83    1.53
   3  -9  -2   30.45    1.38
   3  -9  -2   33.53    1.36
  -3   9   2   31.82    1.32
  -3   9   2   30.27    1.04
  -3   9   2   32.24    1.38
  -3   9   2   32.78    1.34
   2  -9  -2   12.76    0.67
   2  -9  -2   11.92    0.76
   2  -9  -2   11.59    0.68
   2  -9  -2   11.23    0.66
  -2   9   2   12.33    0.69
  -2   9   2   11.43    0.51
  -2   9   2   12.64    0.66
   1  -9  -2   43.68    1.70
   1  -9  -2   41.85    1.72
  -1   9   2   42.83    1.70
  -1   9   2   43.73    1.67
   0  -9  -2    1.65    0.25
   0  -9  -2    1.31    0.24
   0  -9  -2    1.22    0.20
   0  -9  -2    1.48    0.28
   0  -9  -2    1.27    0.19
   0   9   2    1.90    0.29
   0   9   2    1.33    0.29
   0   9   2    1.14    0.26
   0   9   2    1.39    0.26
  -1  -9  -2    0.15    0.18
  -1  -9  -2    0.12    0.16
  -1  -9  -2   -0.10    0.17
  -1  -9  -2    0.12    0.21
  -1  -9  -2   -0.15    0.16
   1   9   2    0.25    0.16
   1   9   2   -0.10    0.16
   1   9   2    0.11    0.18
   1   9   2    0.33    0.19
  -2  -9  -2   21.78    1.01
  -2  -9  -2   21.85    1.08
  -2  -9  -2   21.70    1.00
  -2  -9  -2   21.54    1.01
   2   9   2   22.22    1.01
   2   9   2   21.65    1.01
   2   9   2   21.70    1.03
   2   9   2   21.22    0.97
  -3  -9  -2    0.64    0.16
  -3  -9  -2    0.75    0.16
   3   9   2    0.68    0.17
   3   9   2    0.74    0.15
   3   9   2    0.70    0.16
  -4  -9  -2   10.00    0.63
  -4  -9  -2   10.23    0.60
  -4  -9  -2    9.40    0.60
  -4  -9  -2    9.97    0.58
   4   9   2    9.93    0.61
   4   9   2    9.95    0.64
   4   9   2    9.53    0.55
  -5  -9  -2    4.28    0.39
  -5  -9  -2    3.29    0.34
  -5  -9  -2    3.27    0.49
  -5  -9  -2    3.74    0.39
   5   9   2    4.20    0.39
   5   9   2    3.25    0.33
   5   9   2    3.44    0.63
  -6  -9  -2   36.55    1.43
  -6  -9  -2   35.55    1.53
  -6  -9  -2   36.72    1.54
   6   9   2   37.35    1.55
   6   9   2   36.65    1.43
  -7  -9  -2    1.43    0.29
  -7  -9  -2    1.80    0.28
  -7  -9  -2    1.39    0.30
   7   9   2    1.09    0.20
   7   9   2    1.31    0.30
  -8  -9  -2   11.01    0.58
  -8  -9  -2    9.43    0.71
  -8  -9  -2    9.67    0.71
  -8  -9  -2    9.42    0.68
   8   9   2   10.98    0.59
   8   9   2   11.21    0.76
  -9  -9  -2    1.85    0.40
  -9  -9  -2    1.92    0.45
  -9  -9  -2    1.26    0.40
  -9  -9  -2    0.87    0.27
   9   9   2    1.21    0.46
   9   9   2    1.17    0.27
 -10  -9  -2   10.63    0.91
 -10  -9  -2   10.84    0.75
 -10  -9  -2   10.18    0.62
 -10  -9  -2    8.91    0.82
 -10  -9  -2   10.36    0.64
  10   9   2   10.17    0.95
  10   9   2    9.31    0.62
   5 -10  -2    1.18    0.53
   5 -10  -2    1.82    0.78
   5 -10  -2    1.02    0.43
  -5  10   2    0.31    0.53
  -5  10   2    1.04    0.37
   4 -10  -2    0.27    0.59
   4 -10  -2    0.78    0.42
   4 -10  -2    0.76    0.36
  -4  10   2    0.88    0.40
  -4  10   2   -0.14    0.30
  -4  10   2    0.55    0.39
  -4  10   2    0.40    0.38
   3 -10  -2   25.50    1.37
   3 -10  -2   29.33    1.24
   3 -10  -2   24.93    1.24
  -3  10   2   26.80    1.21
  -3  10   2   27.46    1.22
  -3  10   2   28.31    1.25
  -3  10   2   28.20    1.19
   2 -10  -2    9.45    0.60
   2 -10  -2    8.36    0.64
   2 -10  -2    8.23    0.73
  -2  10   2    9.33    0.65
  -2  10   2    9.05    0.42
  -2  10   2    8.43    0.63
  -2  10   2    8.78    0.59
   1 -10  -2   88.02    3.38
   1 -10  -2   90.83    3.27
   1 -10  -2   94.86    3.25
  -1  10   2   93.66    3.26
  -1  10   2   96.68    3.24
   0 -10  -2   85.31    3.04
   0 -10  -2   82.74    3.04
   0 -10  -2   86.33    3.16
   0 -10  -2   86.26    3.00
   0  10   2   87.13    3.04
   0  10   2   85.15    3.00
  -1 -10  -2   71.68    2.77
  -1 -10  -2   73.11    2.66
  -1 -10  -2   74.89    2.62
   1  10   2   74.36    2.65
   1  10   2   74.02    2.61
   1  10   2   73.35    2.67
  -2 -10  -2   28.20    1.21
  -2 -10  -2   28.35    1.23
  -2 -10  -2   26.69    1.23
   2  10   2   28.56    1.60
   2  10   2   26.77    1.22
   2  10   2   28.03    1.23
   2  10   2   27.47    1.18
  -3 -10  -2   74.93    2.70
  -3 -10  -2   76.02    2.68
  -3 -10  -2   75.58    2.67
   3  10   2   68.94    2.96
   3  10   2   75.16    2.70
   3  10   2   77.84    2.66
   3  10   2   73.27    2.61
  -4 -10  -2   59.45    2.52
  -4 -10  -2   65.77    2.30
  -4 -10  -2   60.55    2.42
  -4 -10  -2   60.85    2.31
   4  10   2   61.66    2.34
   4  10   2   62.53    2.26
   4  10   2   65.72    2.95
  -5 -10  -2    4.31    0.38
  -5 -10  -2    4.15    0.44
  -5 -10  -2    4.22    0.43
  -5 -10  -2    3.39    0.44
   5  10   2    4.74    0.43
   5  10   2    4.16    0.37
  -6 -10  -2   60.96    2.20
  -6 -10  -2   58.02    2.28
  -6 -10  -2   59.88    2.33
   6  10   2   62.07    2.21
   6  10   2   63.61    2.35
  -7 -10  -2    1.20    0.32
  -7 -10  -2    1.22    0.23
  -7 -10  -2    1.18    0.26
   7  10   2    1.00    0.34
   7  10   2    1.31    0.23
  -8 -10  -2    1.78    0.41
  -8 -10  -2    3.55    0.57
  -8 -10  -2    3.08    0.70
   8  10   2    2.57    0.43
   8  10   2    2.40    0.42
  -9 -10  -2    0.12    0.30
  -9 -10  -2    0.40    0.45
  -9 -10  -2    0.22    0.49
   9  10   2    0.23    0.30
   9  10   2    0.14    0.51
 -10 -10  -2    0.41    0.40
 -10 -10  -2    2.04    0.62
 -10 -10  -2    0.88    0.37
 -10 -10  -2    1.10    0.23
  10  10   2    1.25    0.65
  10  10   2    1.70    0.36
   4 -11  -2    0.40    0.54
   4 -11  -2    0.84    0.76
   4 -11  -2    0.31    0.54
   4 -11  -2    1.00    0.43
  -4  11   2    0.33    0.52
  -4  11   2   -0.17    0.49
  -4  11   2   -0.02    0.37
   3 -11  -2   16.47    1.16
   3 -11  -2   19.57    0.98
   3 -11  -2   16.07    1.02
   3 -11  -2   19.56    0.98
  -3  11   2   17.18    1.00
  -3  11   2   18.25    0.90
  -3  11   2   17.69    0.95
  -3  11   2   18.31    0.95
   2 -11  -2    0.52    0.32
   2 -11  -2    0.53    0.37
   2 -11  -2    0.55    0.46
   2 -11  -2    0.02    0.35
  -2  11   2    1.11    0.47
  -2  11   2    0.17    0.35
  -2  11   2    0.15    0.37
  -2  11   2    0.18    0.21
  -2  11   2    1.04    0.31
   1 -11  -2   28.16    1.40
   1 -11  -2   27.85    1.31
   1 -11  -2   28.83    1.29
   1 -11  -2   26.62    1.29
  -1  11   2   27.42    1.24
  -1  11   2   28.90    1.30
   0 -11  -2    2.30    0.44
   0 -11  -2    2.28    0.44
   0 -11  -2    2.12    0.43
   0 -11  -2    2.13    0.39
   0  11   2    1.90    0.39
   0  11   2    1.97    0.44
  -1 -11  -2    6.78    0.51
  -1 -11  -2    6.37    0.59
  -1 -11  -2    5.99    0.56
  -1 -11  -2    5.78    0.53
   1  11   2    6.75    0.49
   1  11   2    6.78    0.51
   1  11   2    6.49    0.50
  -2 -11  -2   -0.04    0.23
  -2 -11  -2   -0.09    0.25
  -2 -11  -2   -0.08    0.25
  -2 -11  -2   -0.24    0.25
   2  11   2   -0.19    0.25
   2  11   2   -0.29    0.24
   2  11   2   -0.01    0.22
  -3 -11  -2    6.60    0.54
  -3 -11  -2    6.61    0.69
  -3 -11  -2    7.47    0.53
   3  11   2    7.35    0.53
   3  11   2    5.99    0.48
   3  11   2    7.38    0.56
  -4 -11  -2    4.65    0.44
  -4 -11  -2    3.65    0.44
   4  11   2    4.30    0.48
  -5 -11  -2    5.55    0.50
  -5 -11  -2    4.98    0.46
   5  11   2    6.06    0.46
  -6 -11  -2    0.23    0.35
  -6 -11  -2    0.24    0.24
   6  11   2    0.22    0.33
   6  11   2    0.40    0.23
   6  11   2    0.19    0.33
  -7 -11  -2   22.38    1.15
  -7 -11  -2   22.16    1.16
  -7 -11  -2   22.10    1.01
  -7 -11  -2   23.62    1.15
   7  11   2   21.45    1.24
   7  11   2   22.37    1.17
   7  11   2   22.11    0.99
  -8 -11  -2    8.64    0.80
  -8 -11  -2    9.31    0.74
  -8 -11  -2    8.50    0.62
  -8 -11  -2    8.67    0.60
   8  11   2    7.44    0.87
   8  11   2    8.52    1.21
   8  11   2    7.90    0.59
  -9 -11  -2    3.90    0.79
  -9 -11  -2    3.36    0.55
  -9 -11  -2    2.62    0.39
  -9 -11  -2    2.82    0.60
   9  11   2    2.62    0.58
   3 -12  -2   10.59    1.09
   3 -12  -2   14.85    0.91
   3 -12  -2   10.73    0.97
   3 -12  -2   14.47    0.92
  -3  12   2   12.39    0.99
   2 -12  -2    7.24    0.75
   2 -12  -2    4.72    0.75
   2 -12  -2    5.60    0.87
   2 -12  -2    6.58    0.71
  -2  12   2    5.97    0.70
  -2  12   2    5.89    0.65
  -2  12   2    5.98    0.58
  -2  12   2    6.45    0.74
   1 -12  -2   75.49    3.08
   1 -12  -2   82.29    2.97
   1 -12  -2   85.46    2.96
   1 -12  -2   73.80    2.93
  -1  12   2   80.15    2.88
  -1  12   2   77.92    2.88
  -1  12   2   77.12    2.85
  -1  12   2   83.50    2.95
   0 -12  -2    0.09    0.35
   0 -12  -2    0.18    0.32
   0 -12  -2    0.73    0.38
   0 -12  -2    0.25    0.40
   0  12   2   -0.06    0.35
   0  12   2    0.40    0.44
   0  12   2    0.18    0.31
   0  12   2    0.01    0.30
  -1 -12  -2  127.68    4.20
  -1 -12  -2  118.72    4.32
  -1 -12  -2  124.34    4.25
  -1 -12  -2  124.61    4.38
  -1 -12  -2  124.62    4.24
   1  12   2  124.54    4.21
   1  12   2  125.71    4.16
   1  12   2  115.21    4.51
   1  12   2  118.29    4.18
  -2 -12  -2   38.77    1.66
  -2 -12  -2   40.23    1.64
  -2 -12  -2   36.53    1.74
  -2 -12  -2   38.09    1.62
   2  12   2   38.63    1.62
   2  12   2   36.79    1.55
   2  12   2   38.49    1.64
  -3 -12  -2   56.43    2.16
  -3 -12  -2   55.14    2.14
   3  12   2   55.50    2.77
   3  12   2   56.31    2.13
   3  12   2   54.46    2.09
  -4 -12  -2   20.01    1.02
  -4 -12  -2   19.37    1.03
  -4 -12  -2   20.48    0.99
   4  12   2   19.41    0.97
   4  12   2   19.18    1.09
   4  12   2   21.40    1.06
  -5 -12  -2    5.52    0.53
  -5 -12  -2    5.27    0.59
  -5 -12  -2    4.17    0.50
  -5 -12  -2    5.42    0.54
   5  12   2    4.37    0.51
   5  12   2    4.62    0.57
   5  12   2    3.99    0.60
  -6 -12  -2   18.77    1.02
  -6 -12  -2   18.90    0.98
  -6 -12  -2   17.40    1.03
  -6 -12  -2   16.10    0.87
   6  12   2   17.04    0.88
   6  12   2   18.92    1.04
   6  12   2   16.78    1.02
  -7 -12  -2    0.22    0.37
  -7 -12  -2   -0.12    0.42
  -7 -12  -2    0.09    0.43
  -7 -12  -2    0.09    0.31
   7  12   2   -0.14    0.31
   7  12   2    0.42    0.45
   7  12   2   -0.27    0.48
  -8 -12  -2    5.83    0.61
  -8 -12  -2    4.93    0.78
  -8 -12  -2    5.16    0.78
  -8 -12  -2    7.10    0.65
   8  12   2    5.94    0.84
   8  12   2    5.92    0.87
  -9 -12  -2    2.87    0.64
   9  12   2    2.29    0.65
   1 -13  -2    0.89    0.54
   1 -13  -2    0.91    0.50
   1 -13  -2    1.47    0.68
   1 -13  -2    0.31    0.51
  -1  13   2    1.12    0.44
  -1  13   2    0.67    0.51
  -1  13   2    0.32    0.51
  -1  13   2    0.83    0.50
   0 -13  -2    3.50    0.74
   0 -13  -2    4.15    0.68
   0 -13  -2    5.09    0.74
   0 -13  -2    4.82    0.77
   0  13   2    5.70    0.61
   0  13   2    4.36    0.63
   0  13   2    4.62    0.65
   0  13   2    4.53    0.69
  -1 -13  -2    2.29    0.41
  -1 -13  -2    2.21    0.43
  -1 -13  -2    3.13    0.56
  -1 -13  -2    2.43    0.53
   1  13   2    2.41    0.42
   1  13   2    2.15    0.38
   1  13   2    2.17    0.38
   1  13   2    2.58    0.53
  -2 -13  -2    1.13    0.36
  -2 -13  -2    1.94    0.47
  -2 -13  -2    0.99    0.41
   2  13   2    1.54    0.36
   2  13   2    1.90    0.45
   2  13   2    1.63    0.37
  -3 -13  -2    0.26    0.36
  -3 -13  -2   -0.10    0.37
  -3 -13  -2    0.30    0.35
   3  13   2    0.28    0.33
   3  13   2    0.25    0.34
   3  13   2    0.91    0.46
   3  13   2   -0.05    0.52
  -4 -13  -2   -0.12    0.39
  -4 -13  -2    0.66    0.35
  -4 -13  -2    0.54    0.40
   4  13   2    0.24    0.32
   4  13   2   -0.02    0.47
   4  13   2    0.00    0.37
  -5 -13  -2    4.04    0.61
  -5 -13  -2    4.88    0.66
  -5 -13  -2    3.99    0.69
  -5 -13  -2    2.98    0.57
   5  13   2    5.53    0.68
   5  13   2    4.70    0.69
   5  13   2    3.64    0.58
  -6 -13  -2    0.23    0.35
  -6 -13  -2    0.43    0.44
  -6 -13  -2   -0.57    0.45
  -6 -13  -2   -0.33    0.45
   6  13   2   -0.05    0.47
   6  13   2   -0.10    0.35
   6  13   2    0.35    0.54
  -7 -13  -2    5.19    0.78
  -7 -13  -2    5.25    0.81
  -7 -13  -2    5.29    0.68
   7  13   2    5.82    0.88
   7  13   2    4.71    0.81
   7  13   2    4.04    0.64
  -8 -13  -2    0.79    0.52
  -8 -13  -2    0.09    0.58
  -8 -13  -2    0.44    0.42
   8  13   2    0.20    0.63
   8  13   2    0.18    0.42
   0 -14  -2    4.93    1.02
   0 -14  -2    5.67    0.93
   0  14   2    7.06    0.91
   0  14   2    5.81    0.85
  -1 -14  -2   16.57    1.04
  -1 -14  -2   13.63    1.03
  -1 -14  -2   16.14    1.18
   1  14   2   14.62    0.99
   1  14   2   14.10    0.96
   1  14   2   16.74    0.94
   1  14   2   15.41    0.94
  -2 -14  -2    7.32    0.74
  -2 -14  -2    6.29    0.92
  -2 -14  -2    6.04    0.82
  -2 -14  -2    6.25    0.78
   2  14   2    7.36    0.71
   2  14   2    7.60    0.80
   2  14   2    7.11    0.82
   2  14   2    7.52    0.72
  -3 -14  -2   24.53    1.45
  -3 -14  -2   25.97    1.45
  -3 -14  -2   27.87    1.36
  -3 -14  -2   25.18    1.29
   3  14   2   26.89    1.38
   3  14   2   28.01    1.34
   3  14   2   26.30    1.28
  -4 -14  -2    0.20    0.53
  -4 -14  -2   -0.43    0.48
  -4 -14  -2    0.45    0.54
  -4 -14  -2   -0.12    0.42
   4  14   2    0.51    0.44
   4  14   2    0.17    0.42
   4  14   2    0.52    0.52
  -5 -14  -2   17.25    1.03
  -5 -14  -2   15.97    1.12
  -5 -14  -2   14.73    0.94
  -5 -14  -2   16.48    1.05
   5  14   2   17.02    1.10
   5  14   2   16.81    1.08
   5  14   2   15.09    0.95
  -6 -14  -2    0.00    0.44
  -6 -14  -2    0.51    0.60
  -6 -14  -2   -0.07    0.56
  -6 -14  -2    0.21    0.55
   6  14   2    0.14    0.57
   6  14   2    0.16    0.68
   6  14   2    0.20    0.42
   6  13  -3    0.80    0.46
   6  13  -3    1.11    0.68
   6  13  -3    1.08    0.55
  -6 -13   3    0.50    0.48
   5  13  -3   10.27    0.96
   5  13  -3   10.50    0.79
   5  13  -3   11.29    0.71
  -5 -13   3    9.42    0.96
  -5 -13   3    9.61    0.84
  -5 -13   3    9.78    0.92
   4  13  -3    0.30    0.51
   4  13  -3    0.12    0.41
   4  13  -3    0.16    0.39
   4  13  -3    0.90    0.42
   4  13  -3    0.51    0.59
  -4 -13   3    0.70    0.47
  -4 -13   3    0.07    0.45
  -4 -13   3    0.47    0.50
   3  13  -3    2.98    0.65
   3  13  -3    2.56    0.55
   3  13  -3    2.74    0.42
   3  13  -3    2.25    0.44
   3  13  -3    2.73    0.59
  -3 -13   3    3.56    0.78
  -3 -13   3    3.13    0.47
  -3 -13   3    1.99    0.45
   2  13  -3   -0.20    0.46
   2  13  -3    0.69    0.44
   2  13  -3    0.03    0.47
   2  13  -3    0.94    0.53
   2  13  -3    0.22    0.39
  -2 -13   3   -0.34    0.45
  -2 -13   3    0.34    0.44
  -2 -13   3    0.45    0.52
   1  13  -3    5.07    0.65
   1  13  -3    3.61    0.70
   1  13  -3    3.96    0.60
   1  13  -3    4.93    0.69
   1  13  -3    4.02    0.58
  -1 -13   3    3.54    0.83
  -1 -13   3    4.44    0.82
   0  13  -3    0.54    0.50
   0  13  -3    0.47    0.53
   0  13  -3   -0.21    0.48
   0  13  -3    0.16    0.50
   0  13  -3   -0.05    0.42
   0 -13   3    0.82    0.57
   0 -13   3    0.42    0.61
   0 -13   3    0.01    0.49
   0 -13   3    0.06    0.56
  -1  13  -3    0.15    0.41
  -1  13  -3    2.01    0.72
  -1  13  -3    0.85    0.62
  -1  13  -3    0.60    0.63
   1 -13   3    1.46    0.61
   1 -13   3    0.74    0.76
   1 -13   3    0.41    0.59
   1 -13   3    1.82    0.58
   7  12  -3    0.33    0.65
   7  12  -3    0.45    0.43
   7  12  -3    0.57    0.57
   7  12  -3   -0.17    0.47
  -7 -12   3    0.47    0.51
  -7 -12   3    0.79    0.24
  -7 -12   3   -0.24    0.41
  -7 -12   3   -0.09    0.55
   6  12  -3    1.30    0.38
   6  12  -3    0.79    0.38
   6  12  -3    2.21    0.51
   6  12  -3    1.42    0.55
  -6 -12   3    1.64    0.46
  -6 -12   3    1.55    0.44
  -6 -12   3    1.63    0.41
   5  12  -3    0.22    0.53
   5  12  -3    0.03    0.34
   5  12  -3    0.00    0.36
   5  12  -3    0.19    0.37
  -5 -12   3   -0.11    0.44
  -5 -12   3    0.45    0.42
  -5 -12   3    0.28    0.44
   4  12  -3    1.11    0.35
   4  12  -3    0.88    0.37
   4  12  -3    0.69    0.33
   4  12  -3    0.86    0.48
   4  12  -3    0.61    0.33
  -4 -12   3    0.27    0.38
  -4 -12   3    1.17    0.43
  -4 -12   3    0.04    0.69
   3  12  -3   19.44    1.01
   3  12  -3   18.69    0.99
   3  12  -3   18.11    0.91
   3  12  -3   17.49    0.95
   3  12  -3   17.06    0.96
  -3 -12   3   16.69    1.03
  -3 -12   3   17.77    1.00
  -3 -12   3   17.64    0.96
   2  12  -3    0.93    0.30
   2  12  -3    1.31    0.38
   2  12  -3    0.99    0.34
   2  12  -3    1.38    0.42
  -2 -12   3    0.81    0.35
  -2 -12   3    0.56    0.40
  -2 -12   3    0.60    0.41
   1  12  -3   14.91    0.90
   1  12  -3   13.22    0.81
   1  12  -3   14.58    0.80
   1  12  -3   13.95    0.84
   1  12  -3   16.71    0.86
  -1 -12   3   15.12    0.93
  -1 -12   3   13.36    0.89
  -1 -12   3   14.28    0.84
   0  12  -3    1.01    0.31
   0  12  -3    0.69    0.41
   0 -12   3    1.03    0.45
   0 -12   3    0.64    0.47
   0 -12   3    0.83    0.39
   0 -12   3    1.18    0.48
  -1  12  -3   13.60    0.81
  -1  12  -3   12.74    0.87
  -1  12  -3   12.47    0.80
  -1  12  -3   12.32    0.89
  -1  12  -3   11.74    0.76
   1 -12   3   13.65    0.91
   1 -12   3   11.66    0.95
   1 -12   3   13.77    0.89
   1 -12   3   11.07    0.93
  -2  12  -3    1.90    0.61
  -2  12  -3    1.68    0.55
  -2  12  -3    1.61    0.48
  -2  12  -3    1.99    0.45
   2 -12   3    1.54    0.61
   2 -12   3    2.64    0.50
   2 -12   3    1.07    0.47
   2 -12   3    1.38    0.61
   8  11  -3    3.32    0.68
   8  11  -3    3.86    0.81
   8  11  -3    3.25    0.61
   8  11  -3    3.20    0.78
  -8 -11   3    3.11    0.38
  -8 -11   3    1.92    0.54
  -8 -11   3    2.84    0.63
   7  11  -3   -0.14    0.34
   7  11  -3    0.88    0.40
   7  11  -3    0.77    0.46
   7  11  -3    1.29    0.57
  -7 -11   3    0.55    0.41
  -7 -11   3    0.71    0.47
  -7 -11   3    0.61    0.34
  -7 -11   3    0.45    0.20
  -7 -11   3    0.60    0.41
   6  11  -3    6.32    0.56
   6  11  -3    6.01    0.57
   6  11  -3    6.39    0.68
   6  11  -3    6.85    0.69
  -6 -11   3    6.04    0.66
  -6 -11   3    6.40    0.57
  -6 -11   3    6.24    0.61
  -6 -11   3    6.54    0.65
  -6 -11   3    7.17    0.44
   5  11  -3    1.57    0.37
   5  11  -3    0.97    0.30
   5  11  -3    1.06    0.34
   5  11  -3    1.12    0.28
   5  11  -3    1.49    0.41
  -5 -11   3    1.29    0.35
  -5 -11   3    1.47    0.32
  -5 -11   3    1.05    0.34
  -5 -11   3    0.89    0.30
   4  11  -3   36.23    1.48
   4  11  -3   37.02    1.65
   4  11  -3   35.02    1.58
   4  11  -3   35.93    1.56
   4  11  -3   33.84    1.42
  -4 -11   3   32.83    1.88
  -4 -11   3   35.09    1.62
  -4 -11   3   37.72    1.49
   3  11  -3   18.82    0.96
   3  11  -3   17.12    0.85
   3  11  -3   18.86    0.93
   3  11  -3   16.19    0.94
   3  11  -3   16.60    0.93
  -3 -11   3   16.68    0.88
   2  11  -3   34.81    1.55
   2  11  -3   34.62    1.47
   2  11  -3   35.62    1.53
   2  11  -3   35.62    1.52
   2  11  -3   37.03    1.54
  -2 -11   3   34.63    1.61
  -2 -11   3   34.85    1.53
   1  11  -3   17.44    0.96
   1  11  -3   19.12    0.97
   1  11  -3   18.88    0.98
   1  11  -3   21.59    1.00
   1  11  -3   18.90    0.99
  -1 -11   3   18.98    1.00
  -1 -11   3   18.61    0.97
  -1 -11   3   17.55    1.03
   0  11  -3    4.82    0.61
   0  11  -3    5.78    0.53
   0  11  -3    6.54    0.53
   0  11  -3    5.77    0.57
   0 -11   3    4.63    0.60
   0 -11   3    4.62    0.60
   0 -11   3    5.38    0.59
   0 -11   3    6.72    0.56
  -1  11  -3   20.21    1.05
  -1  11  -3   22.09    1.04
  -1  11  -3   23.94    1.06
  -1  11  -3   21.24    1.08
  -1  11  -3   21.42    1.10
   1 -11   3   23.10    1.12
   1 -11   3   21.61    1.13
   1 -11   3   21.48    1.08
   1 -11   3   20.54    1.12
  -2  11  -3    0.08    0.28
  -2  11  -3    0.68    0.33
  -2  11  -3    0.99    0.64
  -2  11  -3    0.40    0.39
  -2  11  -3    0.53    0.43
   2 -11   3    0.39    0.49
   2 -11   3    0.33    0.43
   2 -11   3    0.17    0.39
   2 -11   3   -0.07    0.37
  -3  11  -3    4.23    0.74
  -3  11  -3    3.10    0.43
  -3  11  -3    2.92    0.54
  -3  11  -3    2.18    0.53
   3 -11   3    3.77    0.65
   3 -11   3    2.75    0.47
  -4  11  -3    0.27    0.61
  -4  11  -3    0.48    0.50
  -4  11  -3   -0.32    0.57
   4 -11   3   -0.56    0.66
   4 -11   3    0.10    0.72
   4 -11   3   -0.01    0.52
   8  10  -3    2.40    0.56
  -8 -10   3    1.15    0.31
  -8 -10   3    1.45    0.41
  -8 -10   3    1.29    0.36
  -8 -10   3    1.19    0.44
  -8 -10   3    1.90    0.34
   7  10  -3    7.61    0.56
   7  10  -3    8.48    0.69
   7  10  -3    7.50    0.81
   7  10  -3    8.62    0.62
  -7 -10   3    8.15    0.56
  -7 -10   3    8.57    0.62
  -7 -10   3    6.95    0.67
  -7 -10   3    8.93    0.64
  -7 -10   3    8.99    0.52
   6  10  -3    1.98    0.47
   6  10  -3    1.67    0.29
   6  10  -3    1.90    0.38
   6  10  -3    2.74    0.58
  -6 -10   3    1.93    0.28
  -6 -10   3    2.24    0.33
  -6 -10   3    2.11    0.48
   5  10  -3   13.97    0.71
   5  10  -3   12.34    0.79
   5  10  -3   14.83    0.80
   5  10  -3   13.24    0.67
   5  10  -3   13.40    0.78
  -5 -10   3   13.09    0.73
  -5 -10   3   12.95    0.95
  -5 -10   3   13.33    0.65
  -5 -10   3   13.56    0.79
  -5 -10   3   13.19    0.71
   4  10  -3   14.01    0.73
   4  10  -3   15.01    0.85
   4  10  -3   15.69    0.84
   4  10  -3   14.16    0.84
   4  10  -3   14.85    0.77
  -4 -10   3   15.85    0.79
  -4 -10   3   15.25    0.86
   3  10  -3    1.74    0.25
   3  10  -3    1.93    0.40
   3  10  -3    1.60    0.37
   3  10  -3    1.51    0.27
   3  10  -3    2.28    0.32
  -3 -10   3    1.77    0.26
   2  10  -3   30.79    1.32
   2  10  -3   31.26    1.40
   2  10  -3   30.16    1.33
   2  10  -3   31.52    1.35
  -2 -10   3   30.21    1.31
  -2 -10   3   27.54    1.67
   1  10  -3   18.62    1.01
   1  10  -3   19.13    0.97
   1  10  -3   19.46    0.99
   1  10  -3   18.65    0.93
   1  10  -3   20.04    1.01
  -1 -10   3   19.38    1.03
  -1 -10   3   19.75    0.98
  -1 -10   3   20.13    0.98
   0  10  -3   30.46    1.32
   0  10  -3   31.17    1.31
   0  10  -3   30.15    1.34
   0  10  -3   30.11    1.33
   0  10  -3   30.64    1.38
   0 -10   3   29.50    1.39
   0 -10   3   30.96    1.44
   0 -10   3   32.39    1.37
   0 -10   3   29.91    1.38
  -1  10  -3   13.37    0.76
  -1  10  -3   12.88    0.72
  -1  10  -3   11.86    0.71
  -1  10  -3   14.83    0.80
  -1  10  -3   12.47    0.78
   1 -10   3   12.82    0.81
   1 -10   3   13.27    0.78
   1 -10   3   12.13    0.80
   1 -10   3   12.73    0.79
  -2  10  -3    4.75    0.54
  -2  10  -3    4.83    0.53
  -2  10  -3    5.68    0.45
  -2  10  -3    5.72    0.48
   2 -10   3    5.62    0.54
   2 -10   3    6.12    0.52
   2 -10   3    4.39    0.58
   2 -10   3    5.04    0.61
  -3  10  -3   24.59    1.15
  -3  10  -3   23.84    1.07
  -3  10  -3   24.74    1.11
  -3  10  -3   26.03    1.22
  -3  10  -3   25.19    1.26
   3 -10   3   27.82    1.18
   3 -10   3   23.55    1.26
   3 -10   3   24.49    1.28
  -4  10  -3    0.96    0.38
  -4  10  -3    0.76    0.43
  -4  10  -3    1.08    0.48
  -4  10  -3    1.48    0.38
   4 -10   3    1.05    0.37
   4 -10   3    1.63    0.59
   4 -10   3    0.87    0.39
   4 -10   3    1.05    0.47
  -5  10  -3    5.17    0.85
  -5  10  -3    7.61    1.11
  -5  10  -3    7.86    0.90
   5 -10   3    6.49    0.76
   5 -10   3    4.98    0.92
   5 -10   3    5.50    1.13
   9   9  -3   -0.45    0.45
   9   9  -3    0.33    0.30
   9   9  -3    0.38    0.39
  -9  -9   3   -0.09    0.27
  -9  -9   3    0.09    0.45
  -9  -9   3    0.08    0.21
  -9  -9   3   -0.17    0.37
  -9  -9   3   -0.05    0.43
   8   9  -3    5.87    0.61
   8   9  -3    4.56    0.51
   8   9  -3    4.75    0.47
  -8  -9   3    5.17    0.59
  -8  -9   3    4.34    0.42
  -8  -9   3    5.73    0.47
  -8  -9   3    4.91    0.51
  -8  -9   3    4.53    0.47
   7   9  -3    1.01    0.29
   7   9  -3    0.69    0.33
   7   9  -3    0.80    0.25
  -7  -9   3    1.31    0.25
  -7  -9   3    1.05    0.32
  -7  -9   3    0.88    0.23
  -7  -9   3    1.27    0.29
   6   9  -3   11.16    0.77
   6   9  -3   12.42    0.73
   6   9  -3   12.46    0.73
   6   9  -3   11.94    0.62
  -6  -9   3   12.13    0.64
  -6  -9   3   10.82    0.59
   5   9  -3    1.90    0.37
   5   9  -3    1.47    0.22
   5   9  -3    1.65    0.26
   5   9  -3    1.73    0.26
   5   9  -3    1.37    0.26
  -5  -9   3    1.49    0.23
  -5  -9   3    0.85    0.30
  -5  -9   3    1.57    0.25
  -5  -9   3    1.06    0.23
   4   9  -3   66.53    2.40
   4   9  -3   69.60    2.43
   4   9  -3   68.80    2.54
   4   9  -3   69.63    2.50
  -4  -9   3   68.17    2.52
  -4  -9   3   65.31    2.44
  -4  -9   3   72.50    2.45
  -4  -9   3   68.80    2.59
   3   9  -3    0.29    0.20
   3   9  -3    0.22    0.18
  -3  -9   3   -0.12    0.20
  -3  -9   3    0.41    0.21
   2   9  -3  116.86    3.86
   2   9  -3  118.35    3.88
   2   9  -3  113.82    3.87
   2   9  -3  113.12    3.79
   2   9  -3  115.99    3.97
  -2  -9   3  113.97    4.01
  -2  -9   3  119.30    3.88
  -2  -9   3  109.26    4.08
   1   9  -3   11.13    0.69
   1   9  -3   11.72    0.67
   1   9  -3   11.68    0.66
   1   9  -3   11.63    0.68
   1   9  -3   11.47    0.64
  -1  -9   3   11.37    0.68
   0   9  -3   61.44    2.35
   0   9  -3   63.31    2.31
   0   9  -3   64.07    2.34
   0   9  -3   61.15    2.26
   0   9  -3   60.81    2.29
   0  -9   3   63.10    2.37
   0  -9   3   60.11    2.86
   0  -9   3   63.49    2.38
  -1   9  -3   35.73    1.46
  -1   9  -3   34.06    1.50
  -1   9  -3   36.00    1.46
  -1   9  -3   37.39    1.50
   1  -9   3   35.28    1.57
   1  -9   3   33.98    1.91
   1  -9   3   35.29    1.53
   1  -9   3   31.51    1.63
  -2   9  -3    1.04    0.24
  -2   9  -3    0.55    0.28
  -2   9  -3    1.08    0.33
  -2   9  -3    0.95    0.19
   2  -9   3    0.84    0.25
   2  -9   3    0.85    0.31
  -3   9  -3    0.64    0.33
  -3   9  -3    0.41    0.25
  -3   9  -3    0.77    0.21
  -3   9  -3    0.75    0.47
  -3   9  -3    0.59    0.33
   3  -9   3    0.36    0.26
   3  -9   3    0.23    0.37
   3  -9   3    0.09    0.32
   3  -9   3    0.40    0.31
  -4   9  -3    0.02    0.41
  -4   9  -3    0.07    0.29
  -4   9  -3    0.75    0.38
  -4   9  -3    0.05    0.30
   4  -9   3    0.16    0.29
   4  -9   3   -0.18    0.44
   4  -9   3   -0.17    0.31
  -5   9  -3    0.34    0.31
  -5   9  -3    0.64    0.40
  -5   9  -3    0.09    0.45
  -5   9  -3    0.70    0.46
   5  -9   3    0.28    0.64
   5  -9   3    0.27    0.49
   5  -9   3    0.32    0.32
   5  -9   3   -0.08    0.37
   6  -9   3    0.55    0.59
   9   8  -3    0.57    0.26
   9   8  -3    0.66    0.34
   9   8  -3    0.89    0.40
  -9  -8   3   -0.13    0.24
  -9  -8   3    0.18    0.38
  -9  -8   3   -0.29    0.32
  -9  -8   3    0.17    0.20
   8   8  -3    1.74    0.41
   8   8  -3    1.96    0.38
  -8  -8   3    1.86    0.39
  -8  -8   3    2.35    0.48
  -8  -8   3    2.10    0.32
  -8  -8   3    2.95    0.41
   7   8  -3    0.71    0.29
   7   8  -3    0.70    0.21
   7   8  -3    0.23    0.27
  -7  -8   3    0.35    0.23
  -7  -8   3    0.57    0.18
  -7  -8   3    0.45    0.24
   6   8  -3    0.17    0.21
   6   8  -3    0.03    0.18
   6   8  -3    0.56    0.24
  -6  -8   3    0.13    0.23
  -6  -8   3    0.23    0.21
  -6  -8   3   -0.01    0.18
   5   8  -3    0.34    0.19
   5   8  -3    0.18    0.20
   5   8  -3    0.11    0.18
   5   8  -3   -0.16    0.27
  -5  -8   3   -0.05    0.21
  -5  -8   3    0.53    0.26
   4   8  -3    9.30    0.56
   4   8  -3    9.02    0.57
   4   8  -3    8.33    0.49
   4   8  -3    8.92    0.52
   4   8  -3    8.91    0.60
  -4  -8   3    8.85    0.65
  -4  -8   3   10.01    0.62
  -4  -8   3    8.89    0.56
  -4  -8   3    8.77    0.51
   3   8  -3   -0.14    0.18
   3   8  -3   -0.26    0.20
   3   8  -3    0.00    0.17
   3   8  -3   -0.19    0.16
   3   8  -3    0.10    0.15
  -3  -8   3    0.07    0.18
  -3  -8   3   -0.11    0.16
  -3  -8   3   -0.19    0.18
  -3  -8   3   -0.14    0.16
   2   8  -3   56.26    2.09
   2   8  -3   56.08    2.05
   2   8  -3   58.49    2.11
   2   8  -3   57.56    2.19
   2   8  -3   58.46    2.12
  -2  -8   3   56.59    2.19
  -2  -8   3   57.12    2.13
  -2  -8   3   58.54    2.11
   1   8  -3   27.23    1.16
   1   8  -3   25.99    1.12
   1   8  -3   26.50    1.13
   1   8  -3   25.81    1.15
   1   8  -3   26.41    1.19
  -1  -8   3   25.99    1.21
  -1  -8   3   26.25    1.15
  -1  -8   3   24.94    1.13
   0   8  -3   50.38    1.90
   0   8  -3   51.40    1.95
   0   8  -3   51.98    1.92
   0   8  -3   49.70    1.95
   0   8  -3   50.30    1.87
   0  -8   3   48.82    1.94
   0  -8   3   48.82    1.91
   0  -8   3   49.47    1.95
   0  -8   3   52.30    1.96
  -1   8  -3   63.18    2.25
  -1   8  -3   63.64    2.31
  -1   8  -3   64.38    2.31
  -1   8  -3   64.76    2.34
  -1   8  -3   64.16    2.39
   1  -8   3   62.49    2.39
   1  -8   3   64.78    2.39
   1  -8   3   62.92    2.34
   1  -8   3   63.06    2.33
  -2   8  -3   19.68    0.90
  -2   8  -3   18.23    0.96
  -2   8  -3   19.09    0.94
  -2   8  -3   21.17    0.90
  -2   8  -3   18.40    0.97
   2  -8   3   19.65    0.94
   2  -8   3   18.86    0.98
   2  -8   3   18.97    0.98
   2  -8   3   19.84    0.93
  -3   8  -3   19.84    0.98
  -3   8  -3   19.13    0.93
  -3   8  -3   20.33    0.89
  -3   8  -3   18.58    1.07
  -3   8  -3   19.63    0.90
   3  -8   3   19.47    1.04
   3  -8   3   20.38    0.92
   3  -8   3   19.12    0.94
   3  -8   3   18.49    1.00
  -4   8  -3    2.29    0.45
  -4   8  -3    4.05    0.67
  -4   8  -3    4.02    0.50
  -4   8  -3    2.98    0.31
   4  -8   3    3.31    0.55
   4  -8   3    2.64    0.42
   4  -8   3    3.16    0.51
   4  -8   3    3.86    0.39
  -5   8  -3    1.80    0.36
  -5   8  -3    2.64    0.47
  -5   8  -3    1.30    0.37
  -5   8  -3    1.64    0.38
   5  -8   3    2.00    0.45
   5  -8   3    2.21    0.47
   5  -8   3    1.54    0.31
   5  -8   3    1.91    0.26
  -6   8  -3    1.29    0.43
  -6   8  -3    2.24    0.47
  -6   8  -3    1.51    0.44
   6  -8   3    2.38    0.40
   6  -8   3    1.96    0.49
   6  -8   3    1.20    0.61
   6  -8   3    2.52    0.58
   9   7  -3    1.79    0.23
  -9  -7   3    1.70    0.32
  -9  -7   3    1.87    0.40
  -9  -7   3    1.50    0.31
   8   7  -3    0.56    0.20
   8   7  -3    0.61    0.25
   8   7  -3    0.62    0.28
  -8  -7   3    0.60    0.23
  -8  -7   3    0.43    0.24
   7   7  -3   22.57    1.01
   7   7  -3   21.86    0.98
   7   7  -3   22.55    0.87
  -7  -7   3   22.08    1.03
  -7  -7   3   22.34    0.97
  -7  -7   3   21.70    0.85
  -7  -7   3   21.47    0.98
  -7  -7   3   19.98    1.00
   6   7  -3    5.52    0.43
   6   7  -3    5.31    0.36
   6   7  -3    6.05    0.43
  -6  -7   3    5.36    0.34
  -6  -7   3    5.83    0.43
  -6  -7   3    6.07    0.40
  -6  -7   3    5.32    0.39
  -6  -7   3    5.52    0.44
   5   7  -3   18.89    0.88
   5   7  -3   17.75    0.80
   5   7  -3   19.69    0.95
  -5  -7   3   19.98    0.93
  -5  -7   3   19.06    0.88
  -5  -7   3   18.39    0.84
  -5  -7   3   18.86    0.81
   4   7  -3    9.33    0.54
   4   7  -3    9.62    0.60
   4   7  -3    8.91    0.59
   4   7  -3   10.05    0.51
   4   7  -3    9.91    0.50
  -4  -7   3    9.17    0.49
  -4  -7   3    9.35    0.50
  -4  -7   3    8.41    0.59
  -4  -7   3   10.76    0.57
  -4  -7   3    8.48    0.50
   3   7  -3   74.08    2.50
   3   7  -3   72.67    2.60
   3   7  -3   74.52    2.53
   3   7  -3   74.84    2.66
   3   7  -3   75.24    2.57
  -3  -7   3   75.02    2.66
  -3  -7   3   74.01    2.58
  -3  -7   3   73.15    2.53
  -3  -7   3   77.21    2.55
   2   7  -3   71.78    2.46
   2   7  -3   69.59    2.54
   2   7  -3   71.84    2.48
   2   7  -3   70.40    2.42
   2   7  -3   72.27    2.49
  -2  -7   3   71.66    2.50
  -2  -7   3   72.26    2.47
   1   7  -3   27.17    1.13
   1   7  -3   27.77    1.19
   1   7  -3   26.44    1.14
   1   7  -3   25.55    1.10
   1   7  -3   26.94    1.11
  -1  -7   3   26.71    1.19
  -1  -7   3   27.05    1.15
  -1  -7   3   26.44    1.14
   0   7  -3  130.78    4.19
   0   7  -3  128.33    4.18
   0   7  -3  131.63    4.15
   0   7  -3  127.47    4.23
   0   7  -3  132.64    4.24
   0  -7   3  129.63    4.25
   0  -7   3  126.52    4.24
   0  -7   3  127.71    4.20
   0  -7   3  133.45    4.24
  -1   7  -3    3.09    0.30
  -1   7  -3    2.87    0.29
  -1   7  -3    3.11    0.29
  -1   7  -3    2.86    0.32
  -1   7  -3    2.22    0.28
   1  -7   3    2.88    0.32
   1  -7   3    2.49    0.31
   1  -7   3    2.95    0.29
   1  -7   3    2.74    0.29
  -2   7  -3  144.42    4.62
  -2   7  -3  140.71    4.42
  -2   7  -3  137.75    4.47
  -2   7  -3  140.73    4.55
  -2   7  -3  137.24    4.44
   2  -7   3  133.15    4.54
   2  -7   3  137.25    4.51
   2  -7   3  139.55    4.63
   2  -7   3  141.51    4.48
  -3   7  -3    0.55    0.17
  -3   7  -3    0.43    0.17
  -3   7  -3    0.76    0.20
  -3   7  -3    0.68    0.21
  -3   7  -3    0.59    0.17
   3  -7   3    0.53    0.18
   3  -7   3    0.84    0.25
   3  -7   3    0.53    0.18
   3  -7   3    0.61    0.25
  -4   7  -3    0.46    0.15
  -4   7  -3   -0.01    0.24
  -4   7  -3    0.39    0.21
  -4   7  -3    0.31    0.24
   4  -7   3    0.23    0.29
   4  -7   3    0.64    0.22
   4  -7   3    0.65    0.18
   4  -7   3    0.48    0.29
  -5   7  -3    2.10    0.38
  -5   7  -3    1.96    0.42
  -5   7  -3    2.50    0.46
   5  -7   3    1.91    0.36
   5  -7   3    1.49    0.39
   5  -7   3    2.09    0.38
   5  -7   3    1.73    0.31
  -6   7  -3    2.24    0.50
  -6   7  -3    2.10    0.45
  -6   7  -3    1.08    0.38
   6  -7   3    0.63    0.40
   6  -7   3    1.39    0.34
   6  -7   3    1.01    0.51
  -7   7  -3    0.16    0.43
  -7   7  -3    0.17    0.48
  -7   7  -3    0.22    0.33
  -7   7  -3    0.88    0.35
   7  -7   3    0.45    0.64
   7  -7   3    0.26    0.42
   7  -7   3    0.67    0.51
   9   6  -3   11.82    0.58
   9   6  -3    9.43    0.47
  -9  -6   3   10.74    0.69
  -9  -6   3    9.96    0.50
   8   6  -3    8.56    0.53
   8   6  -3    9.29    0.53
   8   6  -3    7.43    0.41
  -8  -6   3    8.28    0.45
  -8  -6   3    8.71    0.49
  -8  -6   3    8.52    0.51
  -8  -6   3    8.46    0.59
   7   6  -3   12.97    0.54
   7   6  -3   11.31    0.62
   7   6  -3   12.39    0.63
  -7  -6   3   11.82    0.69
  -7  -6   3   11.24    0.50
  -7  -6   3   12.60    0.63
  -7  -6   3   11.81    0.61
   6   6  -3    0.41    0.17
   6   6  -3    0.41    0.18
  -6  -6   3    0.65    0.17
  -6  -6   3    0.59    0.16
  -6  -6   3    0.45    0.15
  -6  -6   3    0.41    0.13
   5   6  -3    6.97    0.42
   5   6  -3    6.21    0.37
   5   6  -3    5.66    0.38
  -5  -6   3    5.99    0.39
  -5  -6   3    6.03    0.36
  -5  -6   3    5.31    0.36
  -5  -6   3    5.96    0.39
  -5  -6   3    6.74    0.43
   4   6  -3   23.10    0.94
   4   6  -3   23.12    0.98
   4   6  -3   22.65    0.92
   4   6  -3   23.75    1.07
  -4  -6   3   23.74    0.93
  -4  -6   3   23.41    0.96
  -4  -6   3   23.94    1.06
  -4  -6   3   23.65    0.93
  -4  -6   3   22.76    0.98
   3   6  -3   29.51    1.15
   3   6  -3   29.20    1.16
   3   6  -3   28.10    1.18
   3   6  -3   27.42    1.10
   3   6  -3   30.17    1.25
  -3  -6   3   29.71    1.24
  -3  -6   3   28.45    1.14
  -3  -6   3   30.82    1.06
  -3  -6   3   29.13    1.13
  -3  -6   3   28.89    1.17
   2   6  -3    0.51    0.17
   2   6  -3    0.54    0.12
   2   6  -3    0.85    0.18
   2   6  -3    0.70    0.13
   2   6  -3    0.64    0.14
  -2  -6   3    0.62    0.13
  -2  -6   3    0.77    0.15
   1   6  -3  104.37    3.47
   1   6  -3  106.70    3.53
   1   6  -3  108.97    3.47
   1   6  -3  107.33    3.44
   1   6  -3  105.65    3.43
  -1  -6   3  103.63    3.53
  -1  -6   3  112.04    3.49
  -1  -6   3  108.07    3.49
   0   6  -3  197.13    6.05
   0   6  -3  200.39    6.11
   0   6  -3  198.44    6.01
   0   6  -3  194.24    6.04
   0   6  -3  194.06    6.09
   0  -6   3  189.94    6.06
   0  -6   3  207.25    6.09
   0  -6   3  189.75    6.09
   0  -6   3  198.01    6.10
  -1   6  -3    6.78    0.41
  -1   6  -3    6.73    0.44
  -1   6  -3    6.86    0.42
  -1   6  -3    5.93    0.39
  -1   6  -3    6.33    0.41
   1  -6   3    6.49    0.43
   1  -6   3    6.41    0.41
   1  -6   3    6.65    0.44
   1  -6   3    6.24    0.42
  -2   6  -3  136.18    4.27
  -2   6  -3  133.31    4.33
  -2   6  -3  134.45    4.30
  -2   6  -3  141.01    4.41
  -2   6  -3  133.80    4.44
   2  -6   3  137.23    4.33
   2  -6   3  137.04    4.41
   2  -6   3  133.09    4.35
   2  -6   3  137.88    4.48
  -3   6  -3    2.12    0.28
  -3   6  -3    2.38    0.24
  -3   6  -3    1.67    0.29
  -3   6  -3    1.47    0.21
  -3   6  -3    2.07    0.22
   3  -6   3    1.82    0.24
   3  -6   3    1.71    0.30
   3  -6   3    1.37    0.29
   3  -6   3    1.98    0.25
  -4   6  -3  114.16    3.73
  -4   6  -3  124.97    4.08
  -4   6  -3  120.00    3.79
  -4   6  -3  122.91    4.09
  -4   6  -3  119.87    3.98
  -4   6  -3  116.97    3.84
   4  -6   3  118.53    3.91
   4  -6   3  116.51    4.07
   4  -6   3  119.74    3.75
   4  -6   3  114.77    4.30
  -5   6  -3    1.27    0.28
  -5   6  -3    1.28    0.23
  -5   6  -3    1.38    0.26
  -5   6  -3    1.46    0.35
   5  -6   3    0.82    0.33
   5  -6   3    1.53    0.25
   5  -6   3    1.27    0.22
   5  -6   3    1.92    0.41
  -6   6  -3   24.06    1.14
  -6   6  -3   23.65    1.08
  -6   6  -3   24.93    1.08
   6  -6   3   21.63    1.20
   6  -6   3   22.74    1.12
   6  -6   3   23.37    1.04
  -7   6  -3    1.20    0.36
  -7   6  -3    1.65    0.30
  -7   6  -3    1.14    0.40
   7  -6   3    1.27    0.44
   7  -6   3    1.40    0.54
  -8   6  -3    3.97    0.67
   8  -6   3    4.79    1.06
   8  -6   3    3.64    0.75
   8  -6   3    3.16    0.55
  -9  -5   3    1.88    0.33
  -9  -5   3    1.95    0.28
   8   5  -3    0.57    0.20
   8   5  -3    0.46    0.14
  -8  -5   3    0.15    0.16
   7   5  -3   19.63    0.74
   7   5  -3   20.50    0.89
   7   5  -3   18.91    0.83
  -7  -5   3   19.66    0.78
  -7  -5   3   19.28    0.97
  -7  -5   3   20.02    0.84
  -7  -5   3   20.18    0.82
   6   5  -3    0.04    0.16
   6   5  -3    0.14    0.11
   6   5  -3    0.12    0.15
  -6  -5   3    0.10    0.12
  -6  -5   3    0.38    0.13
  -6  -5   3    0.13    0.14
  -6  -5   3    0.21    0.15
   5   5  -3  107.27    3.49
   5   5  -3  109.21    3.30
   5   5  -3  106.17    3.38
  -5  -5   3  107.38    3.47
  -5  -5   3  104.95    3.33
  -5  -5   3  104.61    3.44
  -5  -5   3  106.25    3.38
  -5  -5   3  104.37    3.27
   4   5  -3    1.20    0.19
   4   5  -3    0.87    0.16
  -4  -5   3    1.13    0.16
  -4  -5   3    1.25    0.22
  -4  -5   3    0.97    0.16
  -4  -5   3    0.85    0.16
   3   5  -3  169.77    5.06
   3   5  -3  164.23    5.03
   3   5  -3  166.37    5.21
   3   5  -3  165.31    5.08
  -3  -5   3  164.18    5.09
  -3  -5   3  166.64    5.05
  -3  -5   3  170.57    5.00
  -3  -5   3  162.95    5.06
  -3  -5   3  163.95    5.18
   2   5  -3   94.52    3.04
   2   5  -3   93.09    2.98
   2   5  -3   93.94    3.02
   2   5  -3   95.55    3.01
   2   5  -3   92.84    3.11
  -2  -5   3   93.79    3.16
  -2  -5   3   94.84    3.01
  -2  -5   3   93.45    3.03
   1   5  -3  238.41    7.19
   1   5  -3  238.91    7.17
   1   5  -3  235.41    7.20
   1   5  -3  241.58    7.28
   1   5  -3  238.92    7.17
  -1  -5   3  233.34    7.27
  -1  -5   3  240.21    7.22
  -1  -5   3  246.80    7.22
   0   5  -3   76.95    2.57
   0   5  -3   76.90    2.60
   0   5  -3   77.64    2.57
   0   5  -3   77.42    2.53
   0   5  -3   78.92    2.63
   0  -5   3   76.69    2.59
   0  -5   3   81.87    2.59
   0  -5   3   81.37    2.63
   0  -5   3   75.96    2.62
  -1   5  -3   62.95    2.15
  -1   5  -3   62.97    2.18
  -1   5  -3   63.05    2.10
  -1   5  -3   64.66    2.18
   1  -5   3   65.84    2.24
   1  -5   3   62.61    2.17
   1  -5   3   61.19    2.16
   1  -5   3   61.59    2.15
  -2   5  -3  108.04    3.52
  -2   5  -3  112.93    3.69
  -2   5  -3  106.45    3.47
  -2   5  -3  106.79    3.41
  -2   5  -3  106.22    3.44
   2  -5   3  107.54    3.52
   2  -5   3  105.40    3.57
   2  -5   3  108.29    3.50
   2  -5   3  109.49    3.73
  -3   5  -3    6.12    0.39
  -3   5  -3    6.60    0.38
  -3   5  -3    7.08    0.46
  -3   5  -3    6.45    0.40
  -3   5  -3    6.88    0.38
   3  -5   3    6.24    0.46
   3  -5   3    6.70    0.39
   3  -5   3    6.53    0.45
   3  -5   3    6.64    0.41
  -4   5  -3    6.23    0.40
  -4   5  -3    6.15    0.37
  -4   5  -3    6.44    0.39
  -4   5  -3    5.91    0.43
  -4   5  -3    6.05    0.34
   4  -5   3    5.81    0.45
   4  -5   3    6.09    0.39
   4  -5   3    5.74    0.43
   4  -5   3    6.34    0.35
  -5   5  -3    6.75    0.35
  -5   5  -3    7.84    0.47
  -5   5  -3    6.61    0.49
   5  -5   3    7.24    0.54
   5  -5   3    7.47    0.44
   5  -5   3    6.92    0.37
   5  -5   3    6.59    0.54
  -6   5  -3    3.32    0.43
  -6   5  -3    3.78    0.37
   6  -5   3    4.04    0.37
   6  -5   3    2.97    0.53
  -7   5  -3    1.39    0.31
  -7   5  -3    1.17    0.35
  -7   5  -3    1.73    0.37
  -7   5  -3    1.86    0.35
   7  -5   3    1.17    0.45
   7  -5   3    1.97    0.43
   7  -5   3    0.82    0.36
  -8   5  -3    3.53    0.56
  -8   5  -3    4.46    0.47
  -8   5  -3    3.71    0.67
  -8   5  -3    3.35    0.47
   8  -5   3    3.01    0.58
   8  -5   3    2.82    0.66
   8  -5   3    3.01    0.65
   9   4  -3    4.02    0.33
  -9  -4   3    4.14    0.43
   8   4  -3    0.49    0.17
  -8  -4   3    0.27    0.16
   7   4  -3   11.97    0.58
   7   4  -3   13.92    0.52
   7   4  -3   13.75    0.63
  -7  -4   3   11.84    0.58
  -7  -4   3   13.35    0.75
   6   4  -3    5.71    0.28
   6   4  -3    5.31    0.34
   6   4  -3    6.03    0.38
  -6  -4   3    5.80    0.33
  -6  -4   3    5.37    0.42
  -6  -4   3    6.10    0.36
  -6  -4   3    6.01    0.31
   5   4  -3    5.94    0.34
   5   4  -3    6.61    0.31
   5   4  -3    6.54    0.41
  -5  -4   3    5.87    0.41
  -5  -4   3    5.71    0.32
  -5  -4   3    6.17    0.38
  -5  -4   3    6.27    0.34
   4   4  -3    0.36    0.10
   4   4  -3    0.37    0.10
  -4  -4   3    0.50    0.11
  -4  -4   3    0.42    0.09
  -4  -4   3    0.26    0.08
  -4  -4   3    0.36    0.10
   3   4  -3   31.00    1.09
   3   4  -3   32.53    1.23
   3   4  -3   30.26    1.11
   3   4  -3   29.84    1.07
  -3  -4   3   29.24    1.10
  -3  -4   3   31.23    1.12
  -3  -4   3   31.36    1.10
  -3  -4   3   28.98    1.07
  -3  -4   3   30.30    1.19
   2   4  -3    6.83    0.36
   2   4  -3    6.84    0.41
   2   4  -3    6.09    0.33
   2   4  -3    5.94    0.34
  -2  -4   3    6.24    0.39
  -2  -4   3    6.56    0.30
  -2  -4   3    6.04    0.35
  -2  -4   3    6.29    0.34
   1   4  -3   30.19    1.13
   1   4  -3   32.67    1.17
   1   4  -3   31.31    1.15
   1   4  -3   29.92    1.13
   1   4  -3   31.69    1.22
  -1  -4   3   32.12    0.99
  -1  -4   3   31.65    1.21
  -1  -4   3   31.85    1.16
  -1  -4   3   32.26    1.17
   0   4  -3  168.07    5.16
   0   4  -3  167.13    5.18
   0   4  -3  166.32    5.08
   0   4  -3  170.03    5.13
   0   4  -3  169.45    5.13
   0  -4   3  176.83    5.13
   0  -4   3  171.68    5.17
   0  -4   3  163.22    5.17
   0  -4   3  167.11    5.14
  -1   4  -3   55.06    1.88
  -1   4  -3   53.98    1.86
  -1   4  -3   53.92    1.91
  -1   4  -3   55.49    1.81
   1  -4   3   55.86    1.86
   1  -4   3   52.80    1.87
   1  -4   3   55.46    1.92
  -2   4  -3  123.05    3.91
  -2   4  -3  130.39    3.81
  -2   4  -3  125.87    3.95
  -2   4  -3  129.28    3.99
  -2   4  -3  129.48    4.08
   2  -4   3  127.99    4.08
   2  -4   3  125.12    3.95
   2  -4   3  125.95    4.00
   2  -4   3  128.89    4.02
  -3   4  -3   39.68    1.44
  -3   4  -3   40.00    1.33
  -3   4  -3   39.28    1.39
  -3   4  -3   37.59    1.36
  -3   4  -3   38.50    1.51
   3  -4   3   38.24    1.36
   3  -4   3   37.45    1.52
   3  -4   3   38.46    1.48
   3  -4   3   38.61    1.45
  -4   4  -3   92.70    3.06
  -4   4  -3   93.32    3.18
  -4   4  -3   94.60    3.06
  -4   4  -3   93.58    2.92
  -4   4  -3   95.48    3.00
   4  -4   3   94.84    3.08
   4  -4   3   92.72    3.19
   4  -4   3   92.40    2.91
   4  -4   3   92.13    3.20
  -5   4  -3   13.13    0.71
  -5   4  -3   13.45    0.52
  -5   4  -3   13.42    0.65
   5  -4   3   13.03    0.52
   5  -4   3   12.71    0.71
   5  -4   3   12.19    0.74
   5  -4   3   13.75    0.66
  -6   4  -3   25.96    1.15
  -6   4  -3   26.08    1.10
  -6   4  -3   24.79    1.06
   6  -4   3   24.38    1.22
   6  -4   3   26.26    1.08
   6  -4   3   24.46    1.15
  -7   4  -3    4.00    0.36
  -7   4  -3    4.10    0.39
  -7   4  -3    3.51    0.45
   7  -4   3    4.47    0.41
   7  -4   3    2.64    0.54
  -8   4  -3    3.36    0.54
  -8   4  -3    3.61    0.40
  -8   4  -3    2.31    0.39
   8  -4   3    2.97    0.69
   8  -4   3    2.39    0.56
   8  -4   3    3.09    0.49
  -9   4  -3    0.51    0.48
  -9   4  -3   -0.01    0.44
  -9   4  -3    0.22    0.26
  -9   4  -3    0.90    0.35
   9  -4   3    0.42    0.40
   9  -4   3    0.46    0.47
   9  -4   3    0.61    0.68
   9   3  -3    0.46    0.35
  -9  -3   3    0.25    0.18
   8   3  -3    2.16    0.24
  -8  -3   3    1.71    0.29
   7   3  -3    3.49    0.28
  -7  -3   3    3.42    0.34
  -7  -3   3    3.29    0.21
   6   3  -3   17.21    0.73
   6   3  -3   16.31    0.59
   6   3  -3   15.95    0.65
  -6  -3   3   15.98    0.83
  -6  -3   3   16.66    0.61
   5   3  -3   17.70    0.69
   5   3  -3   18.94    0.64
   5   3  -3   17.93    0.78
  -5  -3   3   17.50    0.82
  -5  -3   3   17.83    0.75
  -5  -3   3   18.38    0.66
   4   3  -3  122.53    3.75
   4   3  -3  124.19    3.55
   4   3  -3  106.99    3.59
  -4  -3   3  117.35    3.68
  -4  -3   3  117.94    3.73
  -4  -3   3  116.92    3.55
  -4  -3   3  123.17    3.59
   3   3  -3  288.68    8.56
   3   3  -3  297.80    8.75
   3   3  -3  306.73    8.58
   3   3  -3  284.23    8.59
  -3  -3   3  289.16    8.57
  -3  -3   3  295.53    8.66
  -3  -3   3  299.23    8.60
  -3  -3   3  290.27    8.71
  -3  -3   3  290.72    8.56
   2   3  -3  148.02    4.58
   2   3  -3  151.87    4.71
   2   3  -3  156.17    4.58
   2   3  -3  148.82    4.55
  -2  -3   3  154.89    4.59
  -2  -3   3  152.65    4.57
  -2  -3   3  156.83    4.72
  -2  -3   3  153.82    4.56
  -2  -3   3  155.40    4.70
   1   3  -3  400.71   11.64
   1   3  -3  396.78   11.62
   1   3  -3  394.18   11.62
   1   3  -3  399.37   11.74
   1   3  -3  405.48   11.64
  -1  -3   3  396.10   11.51
  -1  -3   3  421.74   11.72
  -1  -3   3  394.26   11.72
  -1  -3   3  388.19   11.64
  -1  -3   3  393.82   11.63
   0   3  -3   22.61    0.91
   0   3  -3   24.51    0.91
   0   3  -3   22.81    0.87
   0   3  -3   23.01    0.83
   0  -3   3   22.77    0.91
   0  -3   3   22.32    0.88
   0  -3   3   22.79    0.84
   0  -3   3   24.87    0.91
   0  -3   3   24.56    0.87
  -1   3  -3  156.65    4.81
  -1   3  -3  155.52    4.84
  -1   3  -3  158.30    4.73
  -1   3  -3  159.71    4.80
   1  -3   3  157.31    4.82
   1  -3   3  153.25    4.80
   1  -3   3  163.40    4.70
   1  -3   3  156.54    4.85
   1  -3   3  164.81    4.78
  -2   3  -3    6.90    0.36
  -2   3  -3    7.11    0.37
  -2   3  -3    6.81    0.38
  -2   3  -3    7.84    0.30
   2  -3   3    7.17    0.27
   2  -3   3    6.99    0.37
   2  -3   3    7.30    0.40
   2  -3   3    6.91    0.38
   2  -3   3    7.62    0.43
  -3   3  -3  227.82    6.92
  -3   3  -3  231.87    6.83
  -3   3  -3  229.84    6.74
  -3   3  -3  230.63    6.71
  -3   3  -3  222.48    6.78
   3  -3   3  225.25    6.84
   3  -3   3  227.17    6.93
   3  -3   3  224.81    6.87
   3  -3   3  222.12    6.71
  -4   3  -3    1.00    0.19
  -4   3  -3    0.63    0.12
  -4   3  -3    0.66    0.11
  -4   3  -3    0.94    0.15
   4  -3   3    1.04    0.13
   4  -3   3    0.85    0.20
   4  -3   3    0.74    0.17
   4  -3   3    0.88    0.17
  -5   3  -3   34.55    1.36
  -5   3  -3   33.58    1.08
  -5   3  -3   32.08    1.24
  -5   3  -3   31.75    1.26
   5  -3   3   31.54    1.38
   5  -3   3   33.12    1.27
   5  -3   3   33.08    1.36
  -6   3  -3    3.79    0.30
  -6   3  -3    3.98    0.35
  -6   3  -3    4.49    0.34
   6  -3   3    3.31    0.41
   6  -3   3    3.54    0.36
   6  -3   3    3.92    0.32
  -7   3  -3    0.11    0.22
  -7   3  -3    0.07    0.17
   7  -3   3    0.28    0.23
   7  -3   3   -0.02    0.29
   7  -3   3    0.38    0.20
  -8   3  -3    1.38    0.31
  -8   3  -3    1.27    0.29
  -8   3  -3    1.35    0.25
   8  -3   3    1.07    0.42
   8  -3   3    1.56    0.26
   8  -3   3    1.24    0.33
  -9   3  -3    2.58    0.60
  -9   3  -3    3.72    0.50
   9  -3   3    2.73    0.51
   9  -3   3    2.74    0.60
   9   2  -3    3.21    0.52
  -9  -2   3    2.68    0.38
   8   2  -3   11.35    0.67
  -8  -2   3   11.41    0.74
   7   2  -3   26.45    0.96
  -7  -2   3   26.40    1.23
   6   2  -3   12.12    0.55
  -6  -2   3   11.75    0.68
   5   2  -3   65.31    2.13
  -5  -2   3   63.28    2.25
   4   2  -3    4.31    0.28
  -4  -2   3    4.07    0.30
  -4  -2   3    3.90    0.18
  -4  -2   3    4.09    0.25
   3   2  -3   43.73    1.53
  -3  -2   3   45.04    1.60
  -3  -2   3   43.75    1.49
  -3  -2   3   44.45    1.51
   2   2  -3   75.20    2.46
   2   2  -3   74.99    2.31
   2   2  -3   78.99    2.32
   2   2  -3   73.29    2.32
  -2  -2   3   79.32    2.50
  -2  -2   3   76.69    2.38
  -2  -2   3   76.08    2.43
  -2  -2   3   78.71    2.33
   1   2  -3  121.23    3.67
   1   2  -3  124.59    3.68
   1   2  -3  119.41    3.66
   1   2  -3  119.98    3.77
  -1  -2   3  123.74    3.76
  -1  -2   3  128.22    3.78
  -1  -2   3  122.50    3.67
  -1  -2   3  124.96    3.68
  -1  -2   3  122.21    3.62
   0   2  -3  181.35    5.47
   0   2  -3  178.43    5.52
   0   2  -3  182.24    5.40
   0   2  -3  184.83    5.48
   0  -2   3  187.67    5.48
   0  -2   3  196.11    5.51
   0  -2   3  186.37    5.49
   0  -2   3  182.23    5.41
   0  -2   3  182.51    5.51
  -1   2  -3  325.41    9.39
  -1   2  -3  314.91    9.48
  -1   2  -3  329.05    9.48
  -1   2  -3  309.62    9.50
   1  -2   3  327.12    9.42
   1  -2   3  358.14    9.43
   1  -2   3  323.45    9.51
   1  -2   3  318.73    9.49
   1  -2   3  304.69    9.46
  -2   2  -3    2.84    0.20
  -2   2  -3    2.67    0.18
  -2   2  -3    2.95    0.15
  -2   2  -3    2.93    0.22
   2  -2   3    2.76    0.15
   2  -2   3    2.72    0.19
   2  -2   3    3.42    0.22
   2  -2   3    2.63    0.19
  -3   2  -3  205.51    5.92
  -3   2  -3  198.06    6.07
  -3   2  -3  199.84    6.01
  -3   2  -3  195.93    5.91
   3  -2   3  201.75    6.10
   3  -2   3  197.55    5.89
   3  -2   3  194.39    6.02
   3  -2   3  200.78    6.04
   3  -2   3  204.64    5.81
  -4   2  -3    0.24    0.09
  -4   2  -3    0.34    0.06
   4  -2   3    0.45    0.14
   4  -2   3    0.39    0.11
  -5   2  -3  146.98    4.52
  -5   2  -3  147.98    4.55
  -5   2  -3  147.34    4.63
   5  -2   3  144.87    4.67
   5  -2   3  142.99    4.53
   5  -2   3  143.83    4.63
  -6   2  -3    2.37    0.28
   6  -2   3    2.70    0.34
   6  -2   3    2.97    0.27
   6  -2   3    2.79    0.29
  -7   2  -3   42.67    1.66
  -7   2  -3   41.98    1.64
  -7   2  -3   42.74    1.56
   7  -2   3   42.60    1.65
   7  -2   3   42.88    1.74
   7  -2   3   42.06    1.55
  -8   2  -3    6.76    0.50
  -8   2  -3    7.07    0.46
  -8   2  -3    6.55    0.47
   8  -2   3    6.59    0.50
   8  -2   3    6.97    0.57
   8  -2   3    8.15    0.47
  -9   2  -3    1.48    0.31
  -9   2  -3    1.15    0.40
  -9   2  -3    0.77    0.33
   9  -2   3    0.95    0.35
   9  -2   3    0.75    0.46
   9   1  -3    0.39    0.36
  -9  -1   3    0.23    0.20
   8   1  -3    3.18    0.43
  -8  -1   3    3.57    0.41
   7   1  -3    0.36    0.21
  -7  -1   3    0.30    0.15
   6   1  -3   89.56    2.75
   6   1  -3   90.51    2.97
  -6  -1   3   83.74    3.02
   5   1  -3   38.69    1.28
  -5  -1   3   34.39    1.43
   4   1  -3  155.46    4.69
  -4  -1   3  151.45    4.81
  -4  -1   3  158.76    4.84
   3   1  -3    4.38    0.26
  -3  -1   3    4.51    0.29
  -3  -1   3    3.82    0.28
   2   1  -3  526.50   14.27
   2   1  -3  468.21   14.06
  -2  -1   3  475.10   14.21
   1   1  -3  604.16   18.36
   1   1  -3  563.49   18.46
  -1  -1   3  609.60   18.36
  -1  -1   3  720.60   18.41
  -1  -1   3  696.25   18.49
   0   1  -3  740.27   21.51
   0   1  -3  742.45   21.50
   0  -1   3  707.06   21.54
   0  -1   3  756.56   21.51
   0  -1   3  788.94   21.51
  -1   1  -3  698.33   21.29
  -1   1  -3  732.88   21.42
  -1   1  -3  759.65   21.40
  -1   1  -3  751.12   21.40
   1  -1   3  721.22   21.30
   1  -1   3  787.46   21.41
  -2   1  -3    1.00    0.11
  -2   1  -3    0.80    0.09
   2  -1   3    0.77    0.09
   2  -1   3    0.78    0.09
  -3   1  -3  244.66    6.98
  -3   1  -3  236.24    6.95
  -3   1  -3  236.57    7.10
  -3   1  -3  239.16    7.08
   3  -1   3  229.78    7.07
   3  -1   3  233.90    7.11
   3  -1   3  242.33    7.08
  -4   1  -3    9.47    0.45
  -4   1  -3    9.54    0.38
  -4   1  -3    9.47    0.48
  -4   1  -3   10.33    0.52
   4  -1   3    9.64    0.51
   4  -1   3    9.89    0.51
   4  -1   3    9.66    0.48
  -5   1  -3   15.03    0.68
  -5   1  -3   15.14    0.68
  -5   1  -3   15.58    0.72
   5  -1   3   15.89    0.75
   5  -1   3   14.69    0.71
   5  -1   3   15.30    0.68
  -6   1  -3    6.27    0.39
  -6   1  -3    6.49    0.41
  -6   1  -3    7.24    0.43
   6  -1   3    7.33    0.46
   6  -1   3    6.69    0.41
   6  -1   3    7.31    0.41
  -7   1  -3    3.29    0.30
  -7   1  -3    3.16    0.37
  -7   1  -3    3.22    0.31
   7  -1   3    3.38    0.30
  -8   1  -3    0.57    0.22
  -8   1  -3    0.83    0.19
   8  -1   3    0.84    0.26
   8  -1   3    0.66    0.23
  -9   1  -3    2.45    0.31
  -9   1  -3    1.96    0.43
  -9   1  -3    1.82    0.26
   9  -1   3    2.17    0.46
   9  -1   3    2.41    0.40
   9  -1   3    3.10    0.45
 -10   1  -3    0.23    0.34
 -10   1  -3   -0.29    0.38
  10  -1   3    0.57    0.48
  10  -1   3   -0.13    0.40
  10  -1   3    0.69    0.39
   9   0  -3    0.30    0.39
   8   0  -3   10.44    0.67
  -8   0   3   11.22    0.74
   7   0  -3    0.57    0.23
   6   0  -3   16.42    0.62
   6   0  -3   17.00    0.82
  -6   0   3   16.16    0.88
   5   0  -3    3.09    0.27
   5   0  -3    2.87    0.19
  -5   0   3    2.10    0.28
   4   0  -3    1.74    0.20
   4   0  -3    1.33    0.14
  -4   0   3    1.47    0.19
  -4   0   3    1.28    0.18
   3   0  -3   15.36    0.61
   3   0  -3   16.25    0.66
  -3   0   3   15.11    0.67
  -3   0   3   15.30    0.67
   2   0  -3   37.58    1.28
   2   0  -3   38.63    1.29
  -2   0   3   40.38    1.36
  -2   0   3   38.37    1.32
   1   0  -3   14.76    0.52
  -1   0   3   14.71    0.57
  -1   0   3   14.99    0.60
   0   0  -3   32.72    1.07
   0   0  -3   34.02    1.06
   0   0   3   34.50    1.06
   0   0   3   32.40    1.26
   0   0   3   34.85    1.07
  -1   0  -3  623.95   17.47
  -1   0  -3  586.74   17.47
  -2   0  -3    1.39    0.12
   2   0   3    1.20    0.11
  -3   0  -3  101.33    3.22
  -3   0  -3  106.27    3.22
   3   0   3  103.46    3.20
  -4   0  -3   15.15    0.63
  -4   0  -3   14.69    0.53
  -4   0  -3   15.40    0.66
  -4   0  -3   15.31    0.67
   4   0   3   14.90    0.65
   4   0   3   15.63    0.67
  -5   0  -3   28.64    1.11
  -5   0  -3   29.92    1.13
  -5   0  -3   30.22    1.12
   5   0   3   26.65    1.15
   5   0   3   30.32    1.12
   5   0   3   29.77    1.14
  -6   0  -3    5.30    0.35
  -6   0  -3    5.30    0.34
  -6   0  -3    4.35    0.33
   6   0   3    4.75    0.36
   6   0   3    4.81    0.32
   6   0   3    5.05    0.34
  -7   0  -3   25.08    1.11
  -7   0  -3   26.08    1.08
  -7   0  -3   25.45    1.15
   7   0   3   26.43    1.08
   7   0   3   25.92    1.14
   7   0   3   27.75    1.07
  -8   0  -3    1.53    0.29
  -8   0  -3    0.93    0.18
   8   0   3    1.61    0.35
   8   0   3    1.24    0.20
  -9   0  -3    3.24    0.41
  -9   0  -3    4.29    0.38
  -9   0  -3    3.98    0.41
   9   0   3    3.99    0.49
   9   0   3    5.23    0.45
   9   0   3    4.57    0.44
 -10   0  -3    0.14    0.33
 -10   0  -3    0.34    0.19
 -10   0  -3    0.65    0.34
  10   0   3    0.83    0.38
  10   0   3    0.86    0.42
  10   0   3    0.25    0.36
   9  -1  -3    0.50    0.44
  -9   1   3    0.52    0.21
   8  -1  -3    5.47    0.56
  -8   1   3    5.37    0.50
   7  -1  -3    0.87    0.25
  -7   1   3    0.59    0.20
   6  -1  -3    9.74    0.61
  -6   1   3    9.88    0.64
   5  -1  -3   15.06    0.58
   5  -1  -3   14.84    0.74
  -5   1   3   13.92    0.76
  -5   1   3   14.83    0.69
   4  -1  -3  132.67    3.96
   4  -1  -3  128.25    4.15
  -4   1   3  129.47    4.19
  -4   1   3  136.16    4.12
   3  -1  -3   30.47    1.13
  -3   1   3   28.90    1.15
  -3   1   3   31.08    1.12
   2  -1  -3  266.43    7.97
  -2   1   3  277.21    8.01
  -2   1   3  269.03    8.02
   1  -1  -3    0.92    0.09
   1  -1  -3    1.02    0.06
  -1   1   3    1.19    0.11
  -1   1   3    0.96    0.08
  -1   1   3    0.76    0.10
   0  -1  -3  454.25   13.47
   0  -1  -3  483.24   13.48
   0  -1  -3  449.24   13.48
   0   1   3  463.37   13.48
   0   1   3  490.75   13.48
  -1  -1  -3   64.94    1.99
  -1  -1  -3   65.60    1.99
   1   1   3   64.62    1.98
   1   1   3   64.23    1.98
  -2  -1  -3  731.81   22.02
   2   1   3  796.57   22.04
  -3  -1  -3   46.94    1.58
  -3  -1  -3   47.63    1.61
   3   1   3   50.70    1.60
   3   1   3   47.95    1.60
  -4  -1  -3   93.90    2.96
  -4  -1  -3   94.22    2.94
   4   1   3   93.38    2.94
   4   1   3   92.16    2.95
  -5  -1  -3   85.39    2.73
  -5  -1  -3   84.84    2.71
  -5  -1  -3   83.45    2.70
   5   1   3   82.06    2.70
   5   1   3   82.80    2.70
  -6  -1  -3    0.67    0.16
  -6  -1  -3    0.39    0.13
  -6  -1  -3    0.20    0.10
  -7  -1  -3    5.40    0.40
  -7  -1  -3    6.06    0.38
  -7  -1  -3    5.28    0.38
   7   1   3    6.41    0.41
   7   1   3    5.41    0.35
  -8  -1  -3    0.99    0.19
  -8  -1  -3    0.97    0.18
   8   1   3    0.97    0.22
   8   1   3    0.80    0.18
  -9  -1  -3    0.83    0.19
  -9  -1  -3    1.13    0.25
  -9  -1  -3    0.99    0.24
   9   1   3    1.46    0.30
   9   1   3    1.04    0.28
   9   1   3    0.69    0.24
 -10  -1  -3   -0.12    0.30
 -10  -1  -3    0.29    0.19
 -10  -1  -3   -0.09    0.32
  10   1   3    0.42    0.38
  10   1   3    0.36    0.39
  10   1   3    0.48    0.32
   9  -2  -3    6.19    0.77
  -9   2   3    6.59    0.61
   8  -2  -3    6.62    0.65
  -8   2   3    6.88    0.58
   7  -2  -3   20.59    1.03
  -7   2   3   18.87    0.69
  -7   2   3   19.39    1.06
   6  -2  -3   26.30    1.46
  -6   2   3   29.00    0.95
   5  -2  -3   18.68    0.68
   5  -2  -3   18.33    0.91
   5  -2  -3   19.03    0.66
  -5   2   3   18.45    0.79
  -5   2   3   16.48    0.91
  -5   2   3   20.47    0.66
  -5   2   3   17.72    0.66
   4  -2  -3   81.38    2.77
   4  -2  -3   79.88    2.47
  -4   2   3   80.99    2.47
  -4   2   3   81.46    2.79
  -4   2   3   84.46    2.65
   3  -2  -3    3.08    0.16
   3  -2  -3    3.21    0.18
   3  -2  -3    2.98    0.27
  -3   2   3    2.85    0.25
  -3   2   3    2.69    0.20
  -3   2   3    3.00    0.16
   2  -2  -3   19.92    0.66
   2  -2  -3   19.09    0.77
   2  -2  -3   17.51    0.71
  -2   2   3   18.72    0.63
  -2   2   3   19.00    0.78
  -2   2   3   18.81    0.74
  -2   2   3   18.95    0.73
   1  -2  -3   15.27    0.54
   1  -2  -3   15.37    0.53
   1  -2  -3   16.08    0.54
   1  -2  -3   14.46    0.60
  -1   2   3   14.66    0.62
  -1   2   3   14.79    0.57
  -1   2   3   15.89    0.61
  -1   2   3   15.56    0.54
   0  -2  -3  197.89    5.89
   0  -2  -3  205.22    5.93
   0  -2  -3  200.88    5.89
   0   2   3  200.24    5.91
   0   2   3  209.13    5.90
   0   2   3  196.16    5.88
  -1  -2  -3    2.94    0.17
  -1  -2  -3    2.97    0.18
   1   2   3    3.19    0.18
   1   2   3    3.16    0.18
   1   2   3    3.03    0.18
  -2  -2  -3  376.83   10.83
  -2  -2  -3  357.07   10.80
   2   2   3  381.07   10.81
  -3  -2  -3   45.77    1.56
  -3  -2  -3   48.65    1.60
   3   2   3   48.26    1.59
   3   2   3   48.20    1.56
  -4  -2  -3  354.18   10.59
  -4  -2  -3  358.97   10.52
   4   2   3  365.33   10.58
   4   2   3  359.00   10.53
  -5  -2  -3    7.29    0.40
  -5  -2  -3    7.23    0.33
   5   2   3    7.74    0.43
   5   2   3    7.65    0.40
  -6  -2  -3  101.59    3.32
  -6  -2  -3  101.45    3.25
  -6  -2  -3  104.87    3.34
   6   2   3  105.35    3.33
   6   2   3   98.66    3.25
  -7  -2  -3   21.13    0.91
  -7  -2  -3   19.99    0.85
  -7  -2  -3   18.98    0.92
   7   2   3   21.40    0.90
   7   2   3   18.92    0.85
  -8  -2  -3   10.27    0.53
  -8  -2  -3    9.41    0.60
  -8  -2  -3   10.29    0.57
   8   2   3   10.84    0.59
   8   2   3    9.04    0.50
  -9  -2  -3    4.06    0.37
  -9  -2  -3    4.02    0.41
  -9  -2  -3    3.84    0.37
   9   2   3    3.37    0.45
   9   2   3    4.01    0.36
   9   2   3    3.11    0.47
 -10  -2  -3    3.23    0.45
 -10  -2  -3    3.05    0.36
 -10  -2  -3    2.57    0.51
  10   2   3    2.46    0.56
  10   2   3    3.29    0.44
   8  -3  -3   -0.31    0.48
  -8   3   3    0.31    0.18
  -8   3   3    0.17    0.21
   7  -3  -3    5.94    0.42
   7  -3  -3    5.54    0.59
   7  -3  -3    6.05    0.33
  -7   3   3    6.20    0.34
  -7   3   3    6.96    0.57
   6  -3  -3    2.04    0.43
   6  -3  -3    3.33    0.30
  -6   3   3    2.53    0.35
  -6   3   3    2.81    0.22
  -6   3   3    3.31    0.22
   5  -3  -3   51.99    1.73
   5  -3  -3   54.28    2.09
   5  -3  -3   53.82    1.82
  -5   3   3   53.27    2.10
  -5   3   3   54.08    1.85
  -5   3   3   53.99    1.75
  -5   3   3   56.92    1.74
   4  -3  -3  114.41    3.59
   4  -3  -3  119.54    3.93
   4  -3  -3  120.36    3.67
  -4   3   3  115.27    3.91
  -4   3   3  122.00    3.71
  -4   3   3  121.51    3.62
  -4   3   3  119.93    3.58
   3  -3  -3  158.16    4.86
   3  -3  -3  164.64    5.13
   3  -3  -3  167.67    4.92
  -3   3   3  161.80    4.87
  -3   3   3  164.16    4.85
  -3   3   3  157.64    4.99
  -3   3   3  171.56    4.96
  -3   3   3  163.24    5.11
   2  -3  -3  366.58   10.25
   2  -3  -3  361.47   10.41
   2  -3  -3  339.98   10.21
   2  -3  -3  339.75   10.20
  -2   3   3  345.48   10.23
  -2   3   3  354.92   10.21
  -2   3   3  363.06   10.29
  -2   3   3  340.40   10.29
  -2   3   3  349.51   10.21
  -2   3   3  347.26   10.40
   1  -3  -3   89.09    2.77
   1  -3  -3   86.73    2.75
   1  -3  -3   92.22    2.79
   1  -3  -3   91.79    2.88
  -1   3   3   94.83    2.81
  -1   3   3   93.35    2.78
  -1   3   3   88.22    2.77
  -1   3   3   88.56    2.75
  -1   3   3   92.22    2.82
   0  -3  -3  706.20   21.07
   0  -3  -3  761.17   21.16
   0  -3  -3  747.19   21.09
   0  -3  -3  714.61   21.09
   0   3   3  708.85   21.07
   0   3   3  737.04   21.13
   0   3   3  741.93   21.10
  -1  -3  -3   54.83    1.70
  -1  -3  -3   50.55    1.65
  -1  -3  -3   50.67    1.65
   1   3   3   50.53    1.68
   1   3   3   52.06    1.65
   1   3   3   51.00    1.66
  -2  -3  -3  392.39   11.83
  -2  -3  -3  384.54   11.81
   2   3   3  417.65   11.82
   2   3   3  430.01   11.85
  -3  -3  -3    8.41    0.41
  -3  -3  -3    8.91    0.43
   3   3   3    8.80    0.41
   3   3   3    8.79    0.43
  -4  -3  -3  394.75   11.16
  -4  -3  -3  355.79   11.05
   4   3   3  371.61   11.06
   4   3   3  390.70   11.14
  -5  -3  -3   82.02    2.54
  -5  -3  -3   80.48    2.68
  -5  -3  -3   82.21    2.59
   5   3   3   81.80    2.67
   5   3   3   78.34    2.57
  -6  -3  -3   17.78    0.83
  -6  -3  -3   19.49    0.71
  -6  -3  -3   19.37    0.78
   6   3   3   17.95    0.83
   6   3   3   18.11    0.77
  -7  -3  -3   50.83    1.79
  -7  -3  -3   52.53    1.89
  -7  -3  -3   50.49    1.89
  -7  -3  -3   52.87    1.63
   7   3   3   50.12    1.79
   7   3   3   49.66    1.85
  -8  -3  -3   35.96    1.52
  -8  -3  -3   36.77    1.39
  -8  -3  -3   38.54    1.47
   8   3   3   37.32    1.44
   8   3   3   35.51    1.38
  -9  -3  -3    0.60    0.26
  -9  -3  -3    0.39    0.15
   9   3   3    0.48    0.28
 -10  -3  -3    3.52    0.54
 -10  -3  -3    4.48    0.44
 -10  -3  -3    4.16    0.39
  10   3   3    4.40    0.44
  10   3   3    4.86    0.61
   8  -4  -3    0.74    0.33
   8  -4  -3    0.42    0.58
   8  -4  -3    0.30    0.23
  -8   4   3   -0.19    0.28
  -8   4   3    0.46    0.24
   7  -4  -3    7.01    0.51
   7  -4  -3    7.33    0.39
   7  -4  -3    7.19    0.66
  -7   4   3    7.19    0.63
  -7   4   3    7.85    0.42
  -7   4   3    7.91    0.39
   6  -4  -3    1.14    0.33
   6  -4  -3    1.37    0.23
   6  -4  -3    1.33    0.21
  -6   4   3    1.49    0.19
  -6   4   3    1.61    0.32
  -6   4   3    1.16    0.20
   5  -4  -3   77.98    2.59
   5  -4  -3   77.86    2.89
   5  -4  -3   76.95    2.47
   5  -4  -3   76.71    2.49
  -5   4   3   77.40    2.87
  -5   4   3   81.36    2.53
  -5   4   3   79.62    2.56
  -5   4   3   80.56    2.55
   4  -4  -3   14.48    0.62
   4  -4  -3   15.03    0.66
   4  -4  -3   13.37    0.79
   4  -4  -3   14.92    0.61
  -4   4   3   14.24    0.79
  -4   4   3   15.62    0.60
  -4   4   3   15.56    0.64
  -4   4   3   14.61    0.62
  -4   4   3   14.85    0.64
   3  -4  -3    0.37    0.16
   3  -4  -3    0.64    0.12
  -3   4   3    0.43    0.10
  -3   4   3    0.35    0.10
  -3   4   3    0.37    0.11
   2  -4  -3    1.01    0.11
   2  -4  -3    0.81    0.19
   2  -4  -3    0.77    0.12
   2  -4  -3    1.07    0.15
  -2   4   3    0.95    0.13
  -2   4   3    0.74    0.13
  -2   4   3    0.89    0.12
  -2   4   3    0.99    0.17
  -2   4   3    0.96    0.12
  -2   4   3    0.62    0.13
   1  -4  -3   26.02    0.97
   1  -4  -3   26.06    0.98
   1  -4  -3   25.73    1.04
  -1   4   3   26.37    1.00
  -1   4   3   28.43    0.97
  -1   4   3   26.60    0.96
  -1   4   3   25.72    0.96
   0  -4  -3  148.06    4.49
   0  -4  -3  148.44    4.56
   0  -4  -3  155.12    4.56
   0  -4  -3  144.73    4.46
   0   4   3  145.53    4.46
   0   4   3  149.92    4.49
   0   4   3  149.47    4.53
   0   4   3  146.50    4.48
  -1  -4  -3   24.10    0.91
  -1  -4  -3   21.91    0.85
  -1  -4  -3   23.65    0.87
  -1  -4  -3   21.78    0.84
   1   4   3   23.77    0.89
   1   4   3   22.91    0.87
   1   4   3   22.49    0.85
  -2  -4  -3  235.75    6.95
  -2  -4  -3  233.34    6.96
   2   4   3  237.19    6.97
   2   4   3  235.74    7.01
   2   4   3  229.48    6.94
  -3  -4  -3   11.48    0.52
  -3  -4  -3   11.55    0.54
   3   4   3   11.49    0.54
  -4  -4  -3  160.05    4.90
  -4  -4  -3  163.07    4.86
  -4  -4  -3  158.53    4.83
   4   4   3  160.46    4.90
   4   4   3  154.16    4.82
  -5  -4  -3    0.06    0.12
  -5  -4  -3    0.07    0.08
   5   4   3    0.15    0.08
   5   4   3   -0.03    0.11
  -6  -4  -3  114.39    3.53
  -6  -4  -3  112.83    3.56
  -6  -4  -3  116.90    3.72
   6   4   3  111.70    3.68
   6   4   3  111.32    3.55
  -7  -4  -3    4.32    0.28
  -7  -4  -3    5.03    0.32
  -7  -4  -3    4.66    0.40
   7   4   3    4.66    0.32
   7   4   3    4.02    0.41
  -8  -4  -3   41.27    1.60
  -8  -4  -3   38.67    1.61
  -8  -4  -3   40.70    1.48
  -8  -4  -3   40.18    1.33
   8   4   3   39.97    1.56
   8   4   3   38.51    1.47
  -9  -4  -3    5.31    0.40
  -9  -4  -3    6.29    0.50
  -9  -4  -3    5.31    0.45
   9   4   3    6.23    0.54
   9   4   3    5.43    0.37
 -10  -4  -3    1.41    0.26
 -10  -4  -3    1.81    0.35
 -10  -4  -3    2.28    0.31
  10   4   3    2.27    0.40
 -11  -4  -3    0.13    0.46
 -11  -4  -3    0.29    0.35
  11   4   3   -0.32    0.36
  11   4   3    0.47    0.51
   7  -5  -3    3.94    0.48
   7  -5  -3    3.27    0.32
   7  -5  -3    3.31    0.68
  -7   5   3    2.48    0.36
  -7   5   3    2.97    0.42
   6  -5  -3    0.53    0.17
   6  -5  -3    1.20    0.26
  -6   5   3    0.76    0.21
  -6   5   3    0.68    0.15
  -6   5   3    0.69    0.21
   5  -5  -3    9.43    0.48
   5  -5  -3    9.31    0.68
   5  -5  -3    9.95    0.47
   5  -5  -3   10.01    0.55
  -5   5   3   10.06    0.47
  -5   5   3   10.31    0.47
  -5   5   3    9.26    0.65
  -5   5   3    9.46    0.52
  -5   5   3    9.25    0.49
   4  -5  -3   19.02    0.85
   4  -5  -3   20.17    1.02
   4  -5  -3   19.72    0.80
   4  -5  -3   19.86    0.80
  -4   5   3   19.30    0.89
  -4   5   3   19.75    0.81
  -4   5   3   20.28    0.78
  -4   5   3   18.57    0.82
  -4   5   3   18.96    0.99
  -4   5   3   19.60    0.78
   3  -5  -3  160.75    5.22
   3  -5  -3  162.41    4.96
   3  -5  -3  160.31    4.93
   3  -5  -3  164.36    5.01
  -3   5   3  156.76    5.01
  -3   5   3  155.41    5.14
  -3   5   3  163.77    4.92
  -3   5   3  158.46    4.93
  -3   5   3  163.45    4.98
  -3   5   3  168.55    4.90
   2  -5  -3    0.16    0.11
   2  -5  -3    0.19    0.14
  -2   5   3    0.17    0.09
  -2   5   3    0.16    0.10
  -2   5   3    0.22    0.10
  -2   5   3    0.31    0.11
   1  -5  -3  222.14    6.56
   1  -5  -3  212.71    6.49
   1  -5  -3  217.60    6.53
   1  -5  -3  221.90    6.67
  -1   5   3  221.69    6.53
  -1   5   3  222.31    6.58
  -1   5   3  202.48    6.49
  -1   5   3  217.63    6.53
   0  -5  -3    0.84    0.13
   0  -5  -3    0.81    0.12
   0  -5  -3    0.69    0.11
   0   5   3    1.10    0.13
   0   5   3    1.18    0.12
   0   5   3    1.14    0.15
  -1  -5  -3  589.22   17.00
  -1  -5  -3  576.63   16.92
  -1  -5  -3  566.09   16.89
  -1  -5  -3  584.67   16.92
   1   5   3  585.72   16.93
   1   5   3  588.20   16.96
   1   5   3  574.85   16.90
  -2  -5  -3  131.37    4.12
  -2  -5  -3  131.12    4.07
  -2  -5  -3  130.19    4.05
  -2  -5  -3  134.31    4.06
   2   5   3  132.25    4.05
   2   5   3  129.18    4.11
  -3  -5  -3  150.35    4.69
  -3  -5  -3  153.74    4.64
  -3  -5  -3  150.85    4.65
  -3  -5  -3  149.49    4.67
   3   5   3  149.06    4.62
   3   5   3  154.64    4.68
  -4  -5  -3    8.96    0.47
  -4  -5  -3    9.15    0.50
  -4  -5  -3    9.28    0.50
   4   5   3    8.34    0.48
   4   5   3    9.39    0.47
  -5  -5  -3   44.60    1.59
  -5  -5  -3   45.26    1.67
  -5  -5  -3   46.45    1.62
   5   5   3   44.01    1.58
   5   5   3   45.92    1.68
  -6  -5  -3   51.63    1.75
  -6  -5  -3   47.91    1.72
  -6  -5  -3   51.07    1.86
   6   5   3   48.00    1.72
   6   5   3   50.24    1.85
  -7  -5  -3    3.07    0.25
  -7  -5  -3    3.10    0.27
  -7  -5  -3    2.89    0.34
   7   5   3    2.48    0.26
   7   5   3    2.94    0.37
  -8  -5  -3   16.33    0.85
  -8  -5  -3   18.08    0.70
  -8  -5  -3   15.73    0.85
  -8  -5  -3   17.30    0.75
   8   5   3   15.71    0.73
   8   5   3   16.45    0.85
  -9  -5  -3   19.58    0.75
  -9  -5  -3   20.40    1.04
  -9  -5  -3   20.14    0.87
  -9  -5  -3   20.79    0.98
   9   5   3   19.10    0.85
   9   5   3   20.32    0.98
 -10  -5  -3    0.23    0.18
 -10  -5  -3    0.18    0.26
 -10  -5  -3    0.81    0.38
  10   5   3    0.47    0.40
  10   5   3    0.59    0.24
 -11  -5  -3    1.28    0.35
 -11  -5  -3    0.80    0.49
 -11  -5  -3    0.56    0.18
  11   5   3    1.09    0.52
   7  -6  -3    7.95    0.62
   7  -6  -3    5.71    0.88
   7  -6  -3    8.55    0.50
  -7   6   3    7.07    0.45
  -7   6   3    7.58    0.64
  -7   6   3    7.31    0.52
   6  -6  -3    6.94    0.41
   6  -6  -3    4.93    0.71
   6  -6  -3    6.28    0.52
  -6   6   3    6.09    0.44
  -6   6   3    5.43    0.47
  -6   6   3    7.23    0.58
   5  -6  -3   43.70    1.52
   5  -6  -3   44.21    1.92
   5  -6  -3   43.03    1.65
   5  -6  -3   43.33    1.56
  -5   6   3   44.35    1.59
  -5   6   3   43.31    1.47
  -5   6   3   43.86    1.61
  -5   6   3   42.65    1.87
  -5   6   3   43.49    1.55
   4  -6  -3    0.96    0.21
   4  -6  -3    0.81    0.15
   4  -6  -3    0.73    0.20
   4  -6  -3    0.38    0.29
  -4   6   3    0.97    0.15
  -4   6   3    0.95    0.14
  -4   6   3    0.71    0.17
  -4   6   3    1.22    0.17
   3  -6  -3   76.68    2.85
   3  -6  -3   77.27    2.60
   3  -6  -3   80.15    2.68
   3  -6  -3   77.52    2.62
  -3   6   3   78.07    2.61
  -3   6   3   79.94    2.51
  -3   6   3   80.04    2.65
  -3   6   3   80.34    2.59
  -3   6   3   78.63    2.67
   2  -6  -3    0.53    0.14
   2  -6  -3    0.08    0.18
   2  -6  -3    0.33    0.12
  -2   6   3    0.46    0.16
  -2   6   3    0.23    0.13
   1  -6  -3    3.51    0.31
   1  -6  -3    3.54    0.27
   1  -6  -3    3.16    0.26
   1  -6  -3    2.99    0.23
   1  -6  -3    2.74    0.25
  -1   6   3    3.83    0.28
  -1   6   3    3.33    0.26
  -1   6   3    3.11    0.25
  -1   6   3    3.32    0.25
   0  -6  -3    0.80    0.14
   0  -6  -3    0.71    0.16
   0  -6  -3    0.55    0.11
   0  -6  -3    0.55    0.12
   0  -6  -3    0.56    0.11
   0   6   3    0.57    0.13
   0   6   3    0.63    0.11
   0   6   3    0.69    0.12
   0   6   3    0.56    0.13
  -1  -6  -3   63.37    2.27
  -1  -6  -3   66.00    2.28
  -1  -6  -3   64.00    2.20
  -1  -6  -3   66.43    2.21
  -1  -6  -3   66.46    2.19
   1   6   3   63.63    2.23
   1   6   3   66.18    2.21
   1   6   3   64.72    2.19
   1   6   3   64.94    2.17
  -2  -6  -3    5.33    0.34
  -2  -6  -3    4.89    0.33
  -2  -6  -3    5.57    0.33
  -2  -6  -3    5.10    0.37
   2   6   3    4.80    0.33
   2   6   3    5.11    0.34
   2   6   3    4.31    0.35
  -3  -6  -3   96.86    3.19
  -3  -6  -3   99.70    3.17
  -3  -6  -3   97.07    3.16
  -3  -6  -3   96.20    3.24
   3   6   3   98.44    3.15
   3   6   3   98.20    3.20
   3   6   3  102.73    3.29
  -4  -6  -3    6.87    0.43
  -4  -6  -3    7.53    0.42
  -4  -6  -3    7.00    0.44
  -4  -6  -3    6.85    0.42
   4   6   3    7.22    0.41
   4   6   3    7.26    0.45
  -5  -6  -3  111.33    3.67
  -5  -6  -3  112.44    3.65
  -5  -6  -3  112.32    3.63
  -5  -6  -3  111.44    3.57
   5   6   3  115.28    3.68
   5   6   3  110.24    3.55
  -6  -6  -3   36.60    1.38
  -6  -6  -3   36.38    1.41
  -6  -6  -3   37.35    1.49
   6   6   3   37.46    1.38
   6   6   3   38.47    1.49
  -7  -6  -3   51.04    1.78
  -7  -6  -3   48.84    2.19
  -7  -6  -3   49.20    1.75
   7   6   3   49.40    1.90
   7   6   3   49.46    1.75
  -8  -6  -3   27.32    1.09
  -8  -6  -3   27.10    1.07
  -8  -6  -3   29.49    1.41
   8   6   3   26.34    1.21
   8   6   3   27.55    1.08
  -9  -6  -3    1.14    0.23
  -9  -6  -3    0.92    0.31
   9   6   3    1.32    0.30
   9   6   3    0.63    0.34
 -10  -6  -3    4.52    0.33
 -10  -6  -3    4.78    0.64
 -10  -6  -3    4.32    0.58
 -10  -6  -3    4.87    0.44
 -10  -6  -3    3.75    0.43
  10   6   3    3.87    0.67
  10   6   3    4.20    0.42
   6  -7  -3    5.99    0.79
   6  -7  -3    5.47    0.58
   6  -7  -3    5.88    0.44
  -6   7   3    5.71    0.55
  -6   7   3    5.56    0.49
  -6   7   3    5.23    0.52
   5  -7  -3   10.96    0.53
   5  -7  -3    9.70    0.62
   5  -7  -3    8.13    0.77
   5  -7  -3   10.18    0.55
  -5   7   3   10.19    0.73
  -5   7   3    9.21    0.58
  -5   7   3    9.56    0.57
   4  -7  -3   16.64    0.74
   4  -7  -3   15.80    0.73
   4  -7  -3   15.53    0.80
   4  -7  -3   15.46    0.93
  -4   7   3   16.82    0.75
  -4   7   3   15.41    0.78
  -4   7   3   16.68    0.76
  -4   7   3   15.71    0.63
   3  -7  -3   80.22    2.85
   3  -7  -3   83.98    2.80
   3  -7  -3   84.42    2.81
   3  -7  -3   77.86    3.28
  -3   7   3   84.98    2.84
  -3   7   3   86.04    2.64
  -3   7   3   87.30    2.81
  -3   7   3   82.86    2.85
   2  -7  -3   31.18    1.24
   2  -7  -3   31.40    1.27
   2  -7  -3   30.66    1.39
   2  -7  -3   30.79    1.27
  -2   7   3   31.90    1.24
  -2   7   3   31.67    1.27
  -2   7   3   31.81    1.23
  -2   7   3   31.66    1.13
  -2   7   3   31.52    1.26
   1  -7  -3  359.57   10.66
   1  -7  -3  354.85   10.69
   1  -7  -3  354.39   10.82
   1  -7  -3  349.01   10.70
   1  -7  -3  350.80   10.61
  -1   7   3  365.94   10.68
  -1   7   3  352.01   10.62
  -1   7   3  358.14   10.68
  -1   7   3  363.61   10.65
   0  -7  -3   39.41    1.60
   0  -7  -3   41.87    1.65
   0  -7  -3   43.31    1.57
   0  -7  -3   40.25    1.52
   0  -7  -3   42.01    1.57
   0   7   3   41.77    1.53
   0   7   3   41.67    1.55
   0   7   3   41.88    1.55
   0   7   3   41.78    1.58
  -1  -7  -3  448.39   13.13
  -1  -7  -3  446.14   13.21
  -1  -7  -3  433.18   13.19
  -1  -7  -3  440.81   13.10
  -1  -7  -3  442.77   13.06
   1   7   3  438.91   13.05
   1   7   3  446.49   13.09
   1   7   3  438.73   13.12
   1   7   3  445.40   13.10
  -2  -7  -3    3.14    0.28
  -2  -7  -3    2.93    0.26
  -2  -7  -3    2.78    0.29
  -2  -7  -3    3.55    0.28
   2   7   3    3.26    0.27
   2   7   3    2.95    0.27
   2   7   3    2.67    0.28
  -3  -7  -3  337.86   10.06
  -3  -7  -3  344.69   10.06
  -3  -7  -3  328.79   10.09
  -3  -7  -3  334.45   10.16
   3   7   3  340.79   10.04
   3   7   3  333.99   10.16
   3   7   3  335.58   10.10
  -4  -7  -3   60.31    2.10
  -4  -7  -3   60.17    2.20
  -4  -7  -3   59.36    2.16
  -4  -7  -3   61.23    2.15
   4   7   3   60.86    2.11
   4   7   3   61.25    2.17
   4   7   3   61.35    2.23
  -5  -7  -3   40.20    1.56
  -5  -7  -3   39.02    1.53
  -5  -7  -3   39.37    1.55
  -5  -7  -3   38.35    1.45
   5   7   3   38.26    1.46
   5   7   3   40.17    1.55
  -6  -7  -3   71.24    2.53
  -6  -7  -3   74.15    2.61
  -6  -7  -3   72.15    2.56
  -6  -7  -3   70.84    2.46
   6   7   3   72.77    2.46
   6   7   3   74.74    2.60
  -7  -7  -3    0.85    0.18
  -7  -7  -3    0.98    0.19
  -7  -7  -3    1.14    0.23
  -7  -7  -3    0.99    0.23
   7   7   3    1.02    0.26
  -8  -7  -3    1.67    0.29
  -8  -7  -3    1.46    0.28
   8   7   3    2.60    0.47
   8   7   3    1.88    0.28
  -9  -7  -3    2.42    0.53
  -9  -7  -3    1.42    0.33
  -9  -7  -3    1.56    0.36
  -9  -7  -3    1.36    0.30
  -9  -7  -3    2.01    0.32
   9   7   3    1.91    0.34
   9   7   3    2.63    0.59
 -10  -7  -3    1.40    0.47
 -10  -7  -3    1.84    0.31
 -10  -7  -3    1.40    0.24
 -10  -7  -3    1.56    0.41
 -10  -7  -3    1.33    0.27
  10   7   3    1.23    0.27
  10   7   3    0.90    0.47
   6  -8  -3    3.63    0.70
   6  -8  -3    4.05    0.67
   6  -8  -3    4.85    0.53
  -6   8   3    3.40    0.55
  -6   8   3    3.67    0.44
  -6   8   3    4.16    0.60
   5  -8  -3    3.90    0.55
   5  -8  -3    4.64    0.74
   5  -8  -3    4.35    0.45
  -5   8   3    4.52    0.51
  -5   8   3    4.45    0.51
  -5   8   3    5.21    0.47
  -5   8   3    4.10    0.40
   4  -8  -3   18.08    0.91
   4  -8  -3   18.96    0.85
   4  -8  -3   18.56    0.84
   4  -8  -3   16.72    1.03
  -4   8   3   18.65    0.89
  -4   8   3   18.53    0.86
  -4   8   3   18.09    0.90
   3  -8  -3    4.58    0.40
   3  -8  -3    5.46    0.41
   3  -8  -3    5.15    0.44
   3  -8  -3    5.21    0.51
  -3   8   3    5.15    0.39
  -3   8   3    5.62    0.39
  -3   8   3    4.95    0.31
  -3   8   3    6.18    0.44
   2  -8  -3    0.60    0.21
   2  -8  -3    1.10    0.30
   2  -8  -3    0.87    0.18
  -2   8   3    0.68    0.14
  -2   8   3    0.89    0.18
  -2   8   3    0.86    0.19
  -2   8   3    0.74    0.19
   1  -8  -3   -0.07    0.16
   1  -8  -3   -0.11    0.17
   1  -8  -3    0.13    0.15
   1  -8  -3    0.16    0.18
  -1   8   3    0.07    0.16
  -1   8   3    0.06    0.16
  -1   8   3   -0.14    0.17
  -1   8   3    0.20    0.19
   0  -8  -3    0.44    0.16
   0  -8  -3    0.57    0.16
   0  -8  -3    0.49    0.14
   0  -8  -3    0.30    0.20
   0   8   3    0.16    0.15
   0   8   3    0.48    0.14
   0   8   3    0.44    0.14
   0   8   3    0.53    0.14
  -1  -8  -3   72.34    2.50
  -1  -8  -3   69.84    2.60
  -1  -8  -3   72.78    2.53
  -1  -8  -3   72.43    2.53
  -1  -8  -3   72.88    2.64
   1   8   3   73.40    2.49
   1   8   3   71.52    2.55
   1   8   3   74.57    2.54
   1   8   3   73.83    2.53
  -2  -8  -3    6.01    0.41
  -2  -8  -3    6.43    0.42
  -2  -8  -3    5.58    0.47
  -2  -8  -3    5.84    0.40
   2   8   3    6.18    0.41
   2   8   3    6.47    0.39
   2   8   3    5.73    0.41
   2   8   3    6.47    0.45
  -3  -8  -3  125.15    3.96
  -3  -8  -3  120.04    4.07
  -3  -8  -3  123.92    3.96
  -3  -8  -3  120.37    3.99
   3   8   3  122.32    4.06
   3   8   3  121.25    3.99
   3   8   3  121.50    3.93
  -4  -8  -3    1.08    0.24
  -4  -8  -3    1.65    0.27
  -4  -8  -3    1.12    0.26
  -4  -8  -3    1.10    0.17
   4   8   3    1.46    0.24
   4   8   3    1.16    0.16
   4   8   3    1.15    0.27
  -5  -8  -3   38.34    1.56
  -5  -8  -3   39.93    1.50
  -5  -8  -3   38.26    1.58
  -5  -8  -3   38.82    1.55
   5   8   3   39.95    1.63
   5   8   3   37.99    1.48
   5   8   3   38.26    1.56
  -6  -8  -3   15.43    0.79
  -6  -8  -3   15.22    0.73
  -6  -8  -3   15.02    0.79
   6   8   3   14.81    0.80
   6   8   3   14.89    0.71
  -7  -8  -3   24.44    1.09
  -7  -8  -3   24.81    1.11
  -7  -8  -3   25.34    1.03
   7   8   3   24.54    1.02
   7   8   3   23.36    1.13
  -8  -8  -3    5.19    0.39
  -8  -8  -3    5.28    0.55
  -8  -8  -3    5.80    0.52
  -8  -8  -3    4.99    0.42
   8   8   3    4.43    0.55
   8   8   3    5.55    0.39
  -9  -8  -3    6.29    0.61
  -9  -8  -3    4.68    0.63
  -9  -8  -3    4.54    0.44
  -9  -8  -3    5.81    0.44
   9   8   3    4.97    0.66
   9   8   3    5.24    0.42
 -10  -8  -3    2.53    0.45
 -10  -8  -3    2.45    0.48
 -10  -8  -3    1.88    0.40
 -10  -8  -3    2.61    0.46
 -10  -8  -3    2.82    0.38
  10   8   3    2.74    0.46
  10   8   3    2.65    0.52
   5  -9  -3    0.80    0.31
   5  -9  -3    0.94    0.34
   5  -9  -3    0.20    0.44
   5  -9  -3    0.97    0.70
  -5   9   3    0.69    0.38
  -5   9   3    1.37    0.36
  -5   9   3    0.84    0.39
  -5   9   3    0.97    0.29
   4  -9  -3    4.67    0.45
   4  -9  -3    4.57    0.57
   4  -9  -3    3.47    0.74
  -4   9   3    4.73    0.49
  -4   9   3    4.46    0.54
  -4   9   3    4.27    0.30
  -4   9   3    4.73    0.41
   3  -9  -3   11.66    0.86
   3  -9  -3   13.00    0.70
   3  -9  -3   13.11    0.71
   3  -9  -3   11.92    0.75
  -3   9   3   13.13    0.74
  -3   9   3   12.99    0.73
  -3   9   3   12.42    0.71
  -3   9   3   12.26    0.67
  -3   9   3   12.54    0.53
   2  -9  -3   45.76    1.79
   2  -9  -3   46.17    1.75
   2  -9  -3   43.83    1.78
   2  -9  -3   42.56    1.92
  -2   9   3   47.31    1.79
  -2   9   3   45.06    1.54
  -2   9   3   46.64    1.74
   1  -9  -3    5.37    0.42
   1  -9  -3    6.08    0.64
   1  -9  -3    4.87    0.52
   1  -9  -3    5.57    0.48
   1  -9  -3    5.24    0.44
  -1   9   3    5.25    0.46
  -1   9   3    6.23    0.45
  -1   9   3    4.97    0.40
  -1   9   3    5.58    0.43
   0  -9  -3   75.14    2.62
   0  -9  -3   72.32    2.72
   0  -9  -3   74.73    2.68
   0  -9  -3   77.68    2.82
   0  -9  -3   77.33    2.67
   0   9   3   73.19    2.80
   0   9   3   75.51    2.62
   0   9   3   77.81    2.67
   0   9   3   74.17    2.73
  -1  -9  -3    9.77    0.58
  -1  -9  -3    9.44    0.56
  -1  -9  -3    9.14    0.63
  -1  -9  -3    9.67    0.64
  -1  -9  -3    9.82    0.58
   1   9   3   10.44    0.60
   1   9   3    9.95    0.61
   1   9   3   10.31    0.56
   1   9   3    9.88    0.58
  -2  -9  -3  228.17    6.97
  -2  -9  -3  221.48    7.11
  -2  -9  -3  222.92    7.00
  -2  -9  -3  224.64    6.98
   2   9   3  223.94    7.03
   2   9   3  230.37    6.97
   2   9   3  221.06    6.98
   2   9   3  222.94    6.92
  -3  -9  -3  100.35    3.56
  -3  -9  -3  104.46    3.48
  -3  -9  -3  102.87    3.43
  -3  -9  -3  101.68    3.42
   3   9   3  100.68    3.39
   3   9   3  103.69    3.47
   3   9   3  101.40    3.52
  -4  -9  -3   55.19    2.07
  -4  -9  -3   53.75    2.02
  -4  -9  -3   54.38    2.12
  -4  -9  -3   54.17    2.01
   4   9   3   53.77    2.11
   4   9   3   54.16    1.99
   4   9   3   55.70    2.06
  -5  -9  -3   79.73    2.77
  -5  -9  -3   80.25    2.84
  -5  -9  -3   82.13    2.93
  -5  -9  -3   77.59    2.89
   5   9   3   82.08    2.79
   5   9   3   82.12    2.88
  -6  -9  -3    0.71    0.17
  -6  -9  -3    0.90    0.30
  -6  -9  -3    1.19    0.28
   6   9   3    0.92    0.25
   6   9   3    0.82    0.19
  -7  -9  -3   16.49    0.87
  -7  -9  -3   15.12    0.76
  -7  -9  -3   15.94    0.96
   7   9   3   16.59    0.88
   7   9   3   16.99    0.77
  -8  -9  -3    2.13    0.34
  -8  -9  -3    2.44    0.47
  -8  -9  -3    1.71    0.32
  -8  -9  -3    2.38    0.38
   8   9   3    1.69    0.37
   8   9   3    1.95    0.34
  -9  -9  -3    0.24    0.45
  -9  -9  -3   -0.06    0.26
  -9  -9  -3    0.02    0.26
  -9  -9  -3    0.19    0.39
   9   9   3    0.28    0.26
   9   9   3    0.26    0.42
 -10  -9  -3    0.72    0.31
 -10  -9  -3    0.33    0.33
 -10  -9  -3    1.40    0.50
 -10  -9  -3    0.21    0.50
 -10  -9  -3    0.53    0.21
  10   9   3    0.10    0.34
  10   9   3    0.66    0.54
   4 -10  -3   34.47    1.71
   4 -10  -3   37.00    1.49
   4 -10  -3   36.89    1.45
   4 -10  -3   32.45    1.50
  -4  10   3   34.58    1.40
  -4  10   3   36.64    1.52
  -4  10   3   30.76    1.41
  -4  10   3   35.04    1.47
   3 -10  -3   -0.14    0.29
   3 -10  -3    0.21    0.36
   3 -10  -3    0.75    0.48
   3 -10  -3   -0.41    0.31
  -3  10   3    0.23    0.35
  -3  10   3   -0.15    0.21
  -3  10   3   -0.20    0.30
  -3  10   3   -0.31    0.27
  -3  10   3   -0.36    0.32
   2 -10  -3   15.65    0.96
   2 -10  -3   16.54    0.82
   2 -10  -3   15.28    0.83
   2 -10  -3   14.47    0.83
  -2  10   3   15.33    0.80
  -2  10   3   14.91    0.62
  -2  10   3   15.63    0.82
  -2  10   3   14.15    0.84
  -2  10   3   15.44    0.79
   1 -10  -3    0.92    0.29
   1 -10  -3    1.05    0.30
   1 -10  -3    0.84    0.27
   1 -10  -3    0.47    0.23
  -1  10   3    0.91    0.24
   0 -10  -3    0.25    0.26
   0 -10  -3    0.28    0.24
   0 -10  -3    0.55    0.21
   0 -10  -3    0.58    0.21
   0 -10  -3    0.23    0.31
   0  10   3    0.59    0.22
  -1 -10  -3    0.39    0.45
  -1 -10  -3    0.88    0.28
  -1 -10  -3    0.16    0.34
  -1 -10  -3    0.68    0.21
  -1 -10  -3    0.42    0.20
   1  10   3    0.51    0.21
   1  10   3    0.13    0.28
   1  10   3    0.09    0.21
  -2 -10  -3    3.63    0.37
  -2 -10  -3    3.79    0.39
  -2 -10  -3    4.12    0.40
  -2 -10  -3    3.29    0.46
   2  10   3    4.27    0.38
   2  10   3    2.97    0.35
  -3 -10  -3    0.83    0.20
  -3 -10  -3    0.67    0.21
  -3 -10  -3    0.34    0.18
   3  10   3    0.66    0.20
  -4 -10  -3   25.13    1.28
  -4 -10  -3   26.33    1.18
  -4 -10  -3   27.66    1.18
   4  10   3   26.47    1.21
   4  10   3   26.45    1.14
  -5 -10  -3    8.56    0.58
  -5 -10  -3    8.46    0.60
  -5 -10  -3    8.45    0.54
  -5 -10  -3    8.46    0.56
   5  10   3    7.91    0.53
   5  10   3    9.13    0.61
  -6 -10  -3   12.31    0.71
  -6 -10  -3   12.06    0.64
  -6 -10  -3   11.14    0.75
   6  10   3   11.59    0.71
   6  10   3   11.24    0.62
  -7 -10  -3   17.80    0.95
  -7 -10  -3   18.97    0.87
   7  10   3   19.35    0.87
   7  10   3   19.11    1.00
  -8 -10  -3    6.22    0.60
  -8 -10  -3    4.57    0.46
  -8 -10  -3    5.54    0.66
   8  10   3    5.32    0.65
   8  10   3    5.34    0.48
  -9 -10  -3    2.27    0.46
  -9 -10  -3    2.50    0.51
  -9 -10  -3    1.86    0.29
   9  10   3    2.53    0.48
   9  10   3    2.39    0.48
 -10 -10  -3   -0.16    0.37
 -10 -10  -3   -0.16    0.65
 -10 -10  -3   -0.83    0.93
  10  10   3   -0.40    0.35
  10  10   3    0.58    1.16
   3 -11  -3    2.70    0.60
   3 -11  -3    1.90    0.40
   3 -11  -3    2.46    0.57
   3 -11  -3    1.80    0.45
  -3  11   3    2.22    0.42
  -3  11   3    2.44    0.58
  -3  11   3    2.25    0.35
  -3  11   3    3.28    0.68
   2 -11  -3   39.30    1.86
   2 -11  -3   36.98    1.69
   2 -11  -3   41.36    1.70
   2 -11  -3   44.12    1.70
  -2  11   3   41.34    1.65
  -2  11   3   39.96    1.62
  -2  11   3   37.35    1.63
  -2  11   3   40.29    1.39
  -2  11   3   44.01    1.71
   1 -11  -3    1.17    0.31
   1 -11  -3    1.09    0.34
   1 -11  -3    1.46    0.32
   1 -11  -3    1.18    0.38
  -1  11   3    1.84    0.43
  -1  11   3    1.37    0.31
  -1  11   3    1.20    0.27
  -1  11   3    1.16    0.31
   0 -11  -3   99.43    3.38
   0 -11  -3   94.96    3.56
   0 -11  -3   93.32    3.46
   0 -11  -3   99.75    3.43
   0 -11  -3   96.47    3.42
   0  11   3   98.95    3.41
   0  11   3   96.65    3.35
  -1 -11  -3    0.33    0.24
  -1 -11  -3    0.55    0.33
  -1 -11  -3    0.43    0.25
  -1 -11  -3    0.55    0.30
  -1 -11  -3    0.27    0.25
   1  11   3    0.29    0.26
   1  11   3    0.47    0.25
   1  11   3    0.41    0.26
  -2 -11  -3   74.21    2.93
  -2 -11  -3   78.65    2.79
  -2 -11  -3   76.23    2.79
   2  11   3   78.65    2.76
   2  11   3   78.61    2.79
   2  11   3   79.82    2.84
  -3 -11  -3   26.12    1.22
  -3 -11  -3   25.89    1.17
  -3 -11  -3   26.96    1.20
   3  11   3   25.90    1.22
  -4 -11  -3   79.31    2.83
  -4 -11  -3   73.13    2.94
  -4 -11  -3   77.99    2.87
   4  11   3   79.28    2.77
   4  11   3   79.02    2.86
  -5 -11  -3   32.59    1.49
  -5 -11  -3   27.00    1.65
  -5 -11  -3   31.36    1.43
   5  11   3   30.93    1.39
   5  11   3   30.35    1.29
  -6 -11  -3    4.20    0.51
  -6 -11  -3    4.09    0.56
  -6 -11  -3    4.20    0.52
   6  11   3    4.47    0.43
   6  11   3    4.69    0.54
  -7 -11  -3   21.25    1.09
  -7 -11  -3   18.96    1.08
  -7 -11  -3   21.10    1.09
  -7 -11  -3   21.17    1.14
   7  11   3   21.32    0.97
   7  11   3   20.09    1.12
   7  11   3   22.72    1.13
  -8 -11  -3    2.08    0.45
  -8 -11  -3    1.63    0.35
   8  11   3    1.66    0.30
   8  11   3    2.05    0.45
   8  11   3    1.93    0.51
  -9 -11  -3    6.96    0.87
  -9 -11  -3    5.68    0.61
  -9 -11  -3    5.51    0.59
  -9 -11  -3    6.40    0.81
   9  11   3    6.77    0.92
   9  11   3    4.60    0.60
   2 -12  -3    4.25    0.67
   2 -12  -3    3.56    0.77
   2 -12  -3    5.53    0.70
   2 -12  -3    4.12    0.71
  -2  12   3    5.28    0.93
  -2  12   3    3.28    0.67
  -2  12   3    3.88    0.38
  -2  12   3    2.69    0.63
   1 -12  -3    0.21    0.43
   1 -12  -3    0.25    0.40
   1 -12  -3   -0.53    0.39
   1 -12  -3   -0.39    0.49
  -1  12   3    0.58    0.39
  -1  12   3    0.22    0.37
  -1  12   3   -0.01    0.31
   0 -12  -3    0.39    0.38
   0 -12  -3    0.24    0.36
   0 -12  -3   -0.18    0.45
   0 -12  -3    0.31    0.31
   0 -12  -3    0.23    0.33
   0  12   3    0.40    0.29
   0  12   3    0.63    0.36
   0  12   3    0.40    0.35
   0  12   3    0.45    0.38
  -1 -12  -3    0.72    0.42
  -1 -12  -3    0.29    0.30
  -1 -12  -3    0.70    0.31
  -1 -12  -3    0.68    0.33
  -1 -12  -3    1.20    0.34
   1  12   3    0.56    0.32
   1  12   3    0.40    0.32
   1  12   3    0.54    0.32
  -2 -12  -3   12.17    0.74
  -2 -12  -3   10.96    0.70
  -2 -12  -3   12.28    0.80
  -2 -12  -3   10.09    0.69
   2  12   3   10.98    0.70
   2  12   3   11.56    0.73
   2  12   3   11.41    0.67
  -3 -12  -3    1.76    0.32
  -3 -12  -3    2.18    0.48
  -3 -12  -3    1.16    0.37
  -3 -12  -3    1.18    0.29
   3  12   3    1.41    0.28
   3  12   3    2.12    0.48
  -4 -12  -3   21.29    1.01
  -4 -12  -3   17.89    1.21
  -4 -12  -3   20.20    1.04
   4  12   3   22.98    1.40
   4  12   3   19.45    0.98
  -5 -12  -3    2.54    0.49
  -5 -12  -3    2.19    0.51
  -5 -12  -3    2.41    0.38
  -5 -12  -3    1.88    0.44
   5  12   3    1.71    0.34
   5  12   3    2.01    0.44
  -6 -12  -3   11.87    0.84
  -6 -12  -3   12.86    0.74
  -6 -12  -3   12.21    0.81
   6  12   3   12.24    0.73
   6  12   3   12.97    0.84
   6  12   3   12.05    0.86
  -7 -12  -3    3.46    0.52
  -7 -12  -3    3.89    0.64
  -7 -12  -3    2.99    0.46
  -7 -12  -3    3.13    0.58
   7  12   3    2.96    0.52
   7  12   3    3.85    0.51
   7  12   3    3.86    0.65
  -8 -12  -3    7.75    0.89
  -8 -12  -3    5.38    0.60
  -8 -12  -3    6.67    0.66
  -8 -12  -3    7.11    0.79
   8  12   3    6.77    0.89
   8  12   3    6.29    0.63
   8  12   3    5.73    0.85
  -9 -12  -3    1.64    0.42
  -9 -12  -3    0.81    0.63
  -9 -12  -3    1.36    0.43
   9  12   3    2.02    1.24
   9  12   3    2.33    0.45
   1 -13  -3    3.27    0.57
   1 -13  -3    1.98    0.51
   1 -13  -3    2.07    0.64
  -1  13   3    2.06    0.39
  -1  13   3    2.29    0.44
  -1  13   3    2.92    0.55
  -1  13   3    2.63    0.51
   0 -13  -3    1.49    0.51
   0 -13  -3    2.51    0.46
   0 -13  -3    1.50    0.51
   0 -13  -3    1.84    0.44
   0  13   3    2.57    0.42
   0  13   3    2.17    0.43
   0  13   3    1.74    0.44
   0  13   3    2.51    0.48
  -1 -13  -3   13.68    0.89
  -1 -13  -3   13.11    0.95
  -1 -13  -3   13.40    0.96
  -1 -13  -3   14.49    0.88
  -1 -13  -3   14.23    0.84
   1  13   3   12.85    0.80
   1  13   3   13.60    0.97
   1  13   3   13.69    0.83
   1  13   3   12.72    0.85
  -2 -13  -3   17.72    1.02
  -2 -13  -3   19.64    1.03
  -2 -13  -3   19.58    1.06
  -2 -13  -3   15.36    1.08
   2  13   3   19.75    1.03
   2  13   3   19.00    1.01
   2  13   3   19.98    1.07
   2  13   3   19.22    0.97
  -3 -13  -3    9.30    0.70
  -3 -13  -3    8.77    0.69
  -3 -13  -3    8.99    0.75
  -3 -13  -3    9.72    0.73
   3  13   3    8.95    0.72
   3  13   3   10.32    0.89
   3  13   3    8.95    0.69
  -4 -13  -3   21.76    1.09
  -4 -13  -3   21.37    1.14
  -4 -13  -3   22.93    1.13
  -4 -13  -3   20.41    1.27
   4  13   3   23.62    1.16
   4  13   3   21.85    1.09
   4  13   3   22.74    1.20
  -5 -13  -3    1.01    0.36
  -5 -13  -3    1.46    0.44
  -5 -13  -3    0.88    0.45
  -5 -13  -3    1.59    0.40
   5  13   3    1.59    0.43
   5  13   3    0.68    0.32
   5  13   3    0.79    0.48
  -6 -13  -3   14.77    1.11
  -6 -13  -3   17.65    1.03
  -6 -13  -3   14.23    0.92
  -6 -13  -3   15.78    0.94
   6  13   3   15.85    0.99
   6  13   3   14.97    0.86
  -7 -13  -3    0.85    0.47
  -7 -13  -3    0.51    0.48
  -7 -13  -3    1.18    0.49
  -7 -13  -3    0.16    0.36
   7  13   3    0.16    0.61
   7  13   3   -0.18    0.49
   7  13   3    0.11    0.41
  -8 -13  -3    1.74    0.43
  -8 -13  -3    2.37    0.61
  -8 -13  -3    2.76    0.52
   8  13   3    2.31    0.62
   8  13   3    1.30    0.44
  -1 -14  -3    0.85    0.49
  -1 -14  -3    0.19    0.49
  -1 -14  -3    1.73    0.60
  -1 -14  -3    0.87    0.59
  -1 -14  -3    1.03    0.58
   1  14   3    0.43    0.43
   1  14   3    0.57    0.52
   1  14   3    1.34    0.51
   1  14   3    0.45    0.47
  -2 -14  -3    0.59    0.48
  -2 -14  -3    1.64    0.47
  -2 -14  -3    2.67    0.57
  -2 -14  -3    1.83    0.51
   2  14   3    1.44    0.49
   2  14   3    1.80    0.53
   2  14   3    1.08    0.48
  -3 -14  -3    0.16    0.51
  -3 -14  -3   -0.23    0.42
  -3 -14  -3   -0.40    0.56
  -3 -14  -3    0.16    0.43
   3  14   3    0.85    0.45
   3  14   3    0.49    0.44
   3  14   3    0.61    0.54
  -4 -14  -3    0.54    0.55
  -4 -14  -3    0.08    0.47
  -4 -14  -3    0.53    0.46
  -4 -14  -3    0.17    0.46
   4  14   3    0.14    0.45
   4  14   3   -0.16    0.45
   4  14   3    0.96    0.52
  -5 -14  -3    5.26    0.86
  -5 -14  -3    3.55    0.68
  -5 -14  -3    6.24    0.75
   5  14   3    4.96    0.83
   5  14   3    5.21    0.87
   5  14   3    4.56    0.69
  -6 -14  -3    0.09    0.42
  -6 -14  -3    0.28    0.55
  -6 -14  -3    0.48    0.73
   6  14   3   -0.50    0.65
   6  14   3    0.10    0.42
  -7 -14  -3    0.84    0.46
  -7 -14  -3    1.73    0.64
   7  14   3    1.21    0.51
   7  14   3    0.59    0.64
   5  13  -4    2.46    0.54
   5  13  -4    2.80    0.54
   5  13  -4    3.73    0.67
   5  13  -4    4.23    0.70
  -5 -13   4    3.74    0.44
  -5 -13   4    2.89    0.53
   4  13  -4   -0.51    0.45
   4  13  -4    0.66    0.60
   4  13  -4   -0.57    0.47
   4  13  -4    0.34    0.51
   4  13  -4    0.16    0.47
  -4 -13   4    0.00    0.27
  -4 -13   4    0.16    0.51
  -4 -13   4    0.65    0.57
  -4 -13   4    0.83    0.52
   3  13  -4    0.49    0.46
   3  13  -4    0.95    0.39
   3  13  -4    2.23    0.49
   3  13  -4    1.64    0.49
   3  13  -4    2.43    0.59
  -3 -13   4    1.30    0.53
  -3 -13   4    2.17    0.53
   2  13  -4   13.77    0.88
   2  13  -4   14.06    0.92
   2  13  -4   16.09    1.00
   2  13  -4   13.45    0.87
   2  13  -4   12.85    0.95
  -2 -13   4   14.57    1.09
  -2 -13   4   13.68    0.98
  -2 -13   4   13.18    0.94
   1  13  -4    1.26    0.44
   1  13  -4    0.63    0.39
   1  13  -4    1.63    0.51
   1  13  -4    1.23    0.49
   1  13  -4    1.58    0.55
  -1 -13   4    1.98    0.60
  -1 -13   4    0.99    0.54
   0  13  -4   10.31    0.84
   0  13  -4   12.49    0.96
   0  13  -4   10.51    0.80
   0  13  -4    9.94    0.99
   0 -13   4   12.38    0.94
   0 -13   4   14.25    1.04
   0 -13   4   10.75    1.02
   6  12  -4    0.93    0.49
   6  12  -4    0.36    0.41
   6  12  -4    0.74    0.64
   6  12  -4   -0.55    0.48
  -6 -12   4    0.32    0.47
  -6 -12   4    0.56    0.42
  -6 -12   4    0.44    0.53
  -6 -12   4    0.14    0.24
   5  12  -4    4.83    0.78
   5  12  -4    4.97    0.66
   5  12  -4    3.77    0.78
   5  12  -4    3.49    0.55
   5  12  -4    3.53    0.64
  -5 -12   4    3.95    0.39
  -5 -12   4    4.65    0.71
  -5 -12   4    3.19    0.68
   4  12  -4    3.35    0.72
   4  12  -4    2.28    0.38
   4  12  -4    3.13    0.59
   4  12  -4    2.86    0.60
  -4 -12   4    2.78    0.65
  -4 -12   4    2.35    0.35
   3  12  -4    5.33    0.60
   3  12  -4    4.96    0.65
   3  12  -4    5.16    0.61
   3  12  -4    3.76    0.53
   3  12  -4    6.42    0.67
  -3 -12   4    4.78    0.62
  -3 -12   4    4.85    0.64
  -3 -12   4    6.61    0.73
   2  12  -4    4.32    0.54
   2  12  -4    3.97    0.63
   2  12  -4    4.25    0.55
   2  12  -4    3.90    0.64
  -2 -12   4    4.21    0.61
  -2 -12   4    4.14    0.66
   1  12  -4    4.47    0.55
   1  12  -4    3.92    0.67
   1  12  -4    3.45    0.60
   1  12  -4    5.82    0.60
   1  12  -4    4.78    0.59
  -1 -12   4    4.95    0.68
  -1 -12   4    4.01    0.68
   0  12  -4    0.88    0.33
   0  12  -4    0.10    0.40
   0  12  -4    0.97    0.40
   0  12  -4    0.58    0.44
   0  12  -4    0.90    0.46
   0 -12   4    0.41    0.51
   0 -12   4    0.06    0.42
   0 -12   4    1.03    0.51
   0 -12   4    1.07    0.47
  -1  12  -4    1.05    0.51
  -1  12  -4    1.07    0.50
  -1  12  -4    0.07    0.43
  -1  12  -4    1.46    0.45
  -1  12  -4    0.66    0.39
   1 -12   4    0.82    0.48
   1 -12   4    0.98    0.53
   1 -12   4    0.34    0.59
   1 -12   4    1.67    0.48
  -2  12  -4    0.30    0.51
  -2  12  -4    0.55    0.58
  -2  12  -4   -0.04    0.42
  -2  12  -4    0.03    0.40
  -2  12  -4    0.17    0.51
   2 -12   4   -0.02    0.52
   2 -12   4    0.11    0.61
   2 -12   4   -0.09    0.69
   7  11  -4    4.84    0.71
   7  11  -4    6.00    0.75
   7  11  -4    6.13    0.93
   7  11  -4    5.11    0.61
  -7 -11   4    5.31    0.67
  -7 -11   4    4.40    0.59
  -7 -11   4    5.10    0.74
   6  11  -4    5.33    0.66
   6  11  -4    5.02    0.75
   6  11  -4    5.15    0.61
   6  11  -4    4.89    0.57
  -6 -11   4    5.44    0.73
  -6 -11   4    4.94    0.57
  -6 -11   4    5.63    0.41
  -6 -11   4    4.36    0.64
   5  11  -4    0.92    0.32
   5  11  -4    1.55    0.45
   5  11  -4    0.82    0.37
   5  11  -4    1.09    0.37
   5  11  -4    0.55    0.30
  -5 -11   4    0.37    0.35
  -5 -11   4    1.59    0.40
  -5 -11   4    1.20    0.39
  -5 -11   4    0.71    0.20
   4  11  -4    7.05    1.07
   4  11  -4    5.90    0.60
   4  11  -4    6.76    0.58
   4  11  -4    5.40    0.50
   4  11  -4    6.82    0.56
  -4 -11   4    6.13    0.58
  -4 -11   4    6.74    0.64
  -4 -11   4    5.89    0.38
  -4 -11   4    7.38    0.59
   3  11  -4    4.81    0.54
   3  11  -4    6.21    0.60
   3  11  -4    5.10    0.47
   3  11  -4    5.59    0.52
  -3 -11   4    4.25    0.53
  -3 -11   4    5.60    0.60
  -3 -11   4    4.66    0.65
   2  11  -4    0.23    0.27
   2  11  -4    0.68    0.36
   2  11  -4    0.86    0.30
   2  11  -4    0.35    0.28
   2  11  -4    0.66    0.33
  -2 -11   4    0.27    0.36
  -2 -11   4    0.45    0.30
   1  11  -4   27.20    1.15
   1  11  -4   22.00    1.16
   1  11  -4   23.64    1.16
   1  11  -4   24.06    1.14
   1  11  -4   24.93    1.14
  -1 -11   4   22.52    1.13
  -1 -11   4   23.75    1.17
  -1 -11   4   23.70    1.23
   0  11  -4    6.34    0.54
   0  11  -4    6.36    0.59
   0  11  -4    7.49    0.59
   0  11  -4    6.26    0.61
   0  11  -4    6.82    0.73
   0 -11   4    8.70    0.77
   0 -11   4    5.69    0.67
   0 -11   4    8.24    0.63
   0 -11   4    7.06    0.65
  -1  11  -4   26.74    1.16
  -1  11  -4   25.94    1.28
  -1  11  -4   25.18    1.19
  -1  11  -4   25.21    1.18
  -1  11  -4   27.05    1.26
   1 -11   4   25.14    1.23
   1 -11   4   24.70    1.29
   1 -11   4   27.87    1.28
   1 -11   4   24.67    1.27
  -2  11  -4   24.78    1.15
  -2  11  -4   21.78    1.21
  -2  11  -4   25.94    1.13
  -2  11  -4   23.14    1.13
   2 -11   4   24.47    1.18
   2 -11   4   27.46    1.22
   2 -11   4   21.45    1.24
   2 -11   4   22.28    1.22
  -3  11  -4    2.29    0.35
  -3  11  -4    2.97    0.64
  -3  11  -4    3.44    0.57
  -3  11  -4    2.59    0.49
  -3  11  -4    2.34    0.66
   3 -11   4    1.37    0.60
   3 -11   4    2.75    0.47
   3 -11   4    2.78    0.59
   8  10  -4    2.70    0.44
   8  10  -4    2.88    0.55
   8  10  -4    4.45    0.73
  -8 -10   4    3.93    0.72
  -8 -10   4    3.74    0.40
  -8 -10   4    2.63    0.40
   7  10  -4   28.21    1.41
   7  10  -4   27.38    1.15
   7  10  -4   29.70    1.32
   7  10  -4   28.66    1.30
  -7 -10   4   26.90    1.13
  -7 -10   4   27.89    1.29
  -7 -10   4   29.82    1.23
  -7 -10   4   27.51    1.29
   6  10  -4   -0.24    0.35
   6  10  -4   -0.13    0.29
   6  10  -4    0.11    0.32
   6  10  -4    0.72    0.45
  -6 -10   4    0.39    0.19
  -6 -10   4    0.17    0.29
  -6 -10   4    0.23    0.36
  -6 -10   4   -0.45    0.44
   5  10  -4   24.83    1.08
   5  10  -4   25.11    1.22
   5  10  -4   26.43    1.13
   5  10  -4   26.97    1.19
   5  10  -4   24.97    1.25
  -5 -10   4   25.72    1.25
  -5 -10   4   25.78    1.04
  -5 -10   4   27.05    1.22
  -5 -10   4   26.14    1.12
   4  10  -4    0.68    0.29
   4  10  -4    1.12    0.34
   4  10  -4    0.84    0.25
   4  10  -4    0.69    0.23
  -4 -10   4    1.20    0.29
  -4 -10   4    0.81    0.29
  -4 -10   4    1.00    0.16
  -4 -10   4    0.95    0.33
   3  10  -4   26.80    1.16
   3  10  -4   25.57    1.17
   3  10  -4   24.56    1.24
   3  10  -4   24.96    1.24
   3  10  -4   24.29    1.09
  -3 -10   4   27.03    1.17
   2  10  -4    8.35    0.59
   2  10  -4    9.71    0.57
   2  10  -4    8.49    0.61
   2  10  -4    9.57    0.61
  -2 -10   4    9.61    0.62
   1  10  -4    6.89    0.63
   1  10  -4    5.93    0.70
   1  10  -4    7.05    0.51
   1  10  -4    6.50    0.60
   1  10  -4    6.47    0.52
  -1 -10   4    7.69    0.72
  -1 -10   4    6.35    0.56
  -1 -10   4    8.30    0.79
   0  10  -4   10.32    0.63
   0  10  -4   10.42    0.65
   0  10  -4   11.66    0.68
   0  10  -4    9.77    0.66
   0  10  -4    9.90    0.67
   0 -10   4    9.39    0.71
   0 -10   4   10.59    0.69
   0 -10   4   11.90    0.77
  -1  10  -4    0.21    0.23
  -1  10  -4    0.59    0.43
  -1  10  -4    0.13    0.27
  -1  10  -4    0.68    0.30
  -1  10  -4    0.18    0.32
   1 -10   4   -0.01    0.32
   1 -10   4    0.84    0.36
   1 -10   4    0.33    0.33
  -2  10  -4    0.69    0.38
  -2  10  -4    1.61    0.32
  -2  10  -4    1.03    0.25
  -2  10  -4    1.32    0.36
  -2  10  -4    1.59    0.33
   2 -10   4    1.34    0.34
   2 -10   4    1.38    0.41
   2 -10   4    2.21    0.49
  -3  10  -4    2.04    0.46
  -3  10  -4    1.37    0.34
  -3  10  -4    1.42    0.28
  -3  10  -4    1.12    0.43
  -3  10  -4    1.40    0.43
   3 -10   4    1.70    0.41
   3 -10   4    1.53    0.36
   3 -10   4    0.55    0.50
   3 -10   4    0.46    0.49
  -4  10  -4    0.75    0.35
  -4  10  -4    0.57    0.30
  -4  10  -4    1.33    0.40
  -4  10  -4    0.09    0.46
  -4  10  -4    0.78    0.51
   4 -10   4    0.41    0.41
   4 -10   4    1.40    0.60
   4 -10   4    1.25    0.65
   4 -10   4    0.53    0.39
   8   9  -4    0.33    0.36
   8   9  -4    0.69    0.29
  -8  -9   4    0.01    0.21
  -8  -9   4    0.18    0.27
  -8  -9   4   -0.30    0.34
  -8  -9   4    0.43    0.37
   7   9  -4    0.58    0.26
   7   9  -4    0.84    0.34
   7   9  -4    1.21    0.34
  -7  -9   4    0.15    0.33
  -7  -9   4    0.62    0.24
  -7  -9   4    0.63    0.19
  -7  -9   4    0.59    0.27
   6   9  -4    0.10    0.40
   6   9  -4    0.43    0.26
   6   9  -4   -0.13    0.29
   6   9  -4    0.38    0.24
  -6  -9   4   -0.11    0.29
  -6  -9   4    0.49    0.17
  -6  -9   4    0.22    0.23
   5   9  -4    2.89    0.37
   5   9  -4    2.61    0.48
   5   9  -4    2.73    0.31
   5   9  -4    3.21    0.40
   5   9  -4    3.40    0.43
  -5  -9   4    2.85    0.37
  -5  -9   4    2.98    0.28
   4   9  -4    2.52    0.42
   4   9  -4    2.39    0.34
   4   9  -4    2.75    0.38
   4   9  -4    2.01    0.30
   4   9  -4    2.64    0.36
  -4  -9   4    2.67    0.24
  -4  -9   4    2.55    0.52
  -4  -9   4    2.20    0.36
  -4  -9   4    2.51    0.50
   3   9  -4   11.73    0.64
   3   9  -4   12.30    0.69
   3   9  -4   12.80    0.71
   3   9  -4   11.64    0.75
   3   9  -4   11.47    0.66
  -3  -9   4   12.24    0.53
  -3  -9   4   12.44    0.67
   2   9  -4    1.19    0.22
   2   9  -4    1.43    0.29
   2   9  -4    1.60    0.30
   2   9  -4    1.35    0.29
   2   9  -4    1.45    0.32
  -2  -9   4    1.43    0.23
   1   9  -4   32.99    1.35
   1   9  -4   27.48    1.50
   1   9  -4   30.67    1.38
   1   9  -4   32.36    1.32
   1   9  -4   33.16    1.37
  -1  -9   4   31.16    1.35
  -1  -9   4   31.92    1.37
  -1  -9   4   31.93    1.43
   0   9  -4    2.12    0.34
   0   9  -4    2.68    0.33
   0   9  -4    2.04    0.34
   0   9  -4    1.86    0.34
   0  -9   4    2.37    0.40
   0  -9   4    1.68    0.39
   0  -9   4    2.23    0.38
   0  -9   4    2.12    0.36
  -1   9  -4   47.73    1.96
  -1   9  -4   49.44    1.92
  -1   9  -4   45.98    2.23
  -1   9  -4   46.74    1.88
   1  -9   4   51.98    1.97
   1  -9   4   48.51    1.92
   1  -9   4   48.36    1.92
  -2   9  -4    7.01    0.48
  -2   9  -4    5.34    0.53
  -2   9  -4    5.47    0.48
  -2   9  -4    6.34    0.53
  -2   9  -4    5.48    0.53
   2  -9   4    6.03    0.51
   2  -9   4    5.55    0.48
   2  -9   4    5.40    0.54
   2  -9   4    5.35    0.55
  -3   9  -4   39.16    1.69
  -3   9  -4   36.81    1.53
  -3   9  -4   40.65    1.65
  -3   9  -4   38.40    1.55
   3  -9   4   34.78    1.66
   3  -9   4   37.00    1.65
   3  -9   4   39.61    1.61
   3  -9   4   38.29    1.59
  -4   9  -4    9.82    0.64
  -4   9  -4   11.42    0.60
  -4   9  -4   11.75    0.66
  -4   9  -4    9.00    0.76
  -4   9  -4   10.21    0.74
   4  -9   4   10.02    0.77
   4  -9   4    8.88    0.80
  -5   9  -4    8.67    0.69
  -5   9  -4   10.20    0.81
  -5   9  -4    8.62    0.82
  -5   9  -4    9.89    0.65
   5  -9   4   11.22    0.71
   5  -9   4    9.52    0.95
   5  -9   4   10.83    0.72
   5  -9   4    9.35    0.86
   9   8  -4    0.02    0.37
   9   8  -4   -0.14    0.37
   8   8  -4    1.78    0.32
   8   8  -4    2.02    0.35
   8   8  -4    1.89    0.39
  -8  -8   4    1.74    0.33
  -8  -8   4    1.16    0.32
  -8  -8   4    1.50    0.22
   7   8  -4    9.74    0.51
   7   8  -4    8.62    0.59
   7   8  -4    9.62    0.61
  -7  -8   4    8.57    0.48
  -7  -8   4    9.75    0.59
   6   8  -4   31.57    1.36
   6   8  -4   31.12    1.29
   6   8  -4   31.02    1.18
  -6  -8   4   31.41    1.35
  -6  -8   4   29.20    1.30
  -6  -8   4   29.76    1.23
  -6  -8   4   30.27    1.16
  -6  -8   4   31.35    1.27
   5   8  -4   38.22    1.51
   5   8  -4   37.03    1.40
   5   8  -4   38.03    1.44
   5   8  -4   37.87    1.57
  -5  -8   4   37.72    1.42
  -5  -8   4   36.66    1.51
  -5  -8   4   39.03    1.42
  -5  -8   4   36.85    1.58
   4   8  -4    0.70    0.24
   4   8  -4    0.48    0.17
   4   8  -4    0.62    0.20
   4   8  -4    0.82    0.19
   4   8  -4    0.70    0.17
  -4  -8   4    1.07    0.21
   3   8  -4   38.90    1.48
   3   8  -4   37.74    1.52
   3   8  -4   39.39    1.53
   3   8  -4   36.63    1.44
  -3  -8   4   38.10    1.48
  -3  -8   4   36.44    2.05
  -3  -8   4   36.82    1.61
  -3  -8   4   36.94    1.30
   2   8  -4    0.28    0.16
   2   8  -4   -0.03    0.16
   2   8  -4    0.01    0.18
   2   8  -4    0.22    0.21
   2   8  -4    0.17    0.16
  -2  -8   4    0.04    0.19
  -2  -8   4   -0.02    0.18
  -2  -8   4    0.06    0.19
   1   8  -4   19.23    0.96
   1   8  -4   20.46    0.94
   1   8  -4   20.18    0.90
   1   8  -4   18.27    0.92
   1   8  -4   19.22    0.90
  -1  -8   4   17.80    0.95
  -1  -8   4   18.97    0.92
  -1  -8   4   20.39    0.95
   0   8  -4   15.87    0.83
   0   8  -4   15.11    0.81
   0   8  -4   16.01    0.79
   0   8  -4   14.63    0.79
   0   8  -4   15.68    0.76
   0  -8   4   15.21    0.83
   0  -8   4   14.55    0.78
   0  -8   4   15.55    0.88
   0  -8   4   15.46    0.81
  -1   8  -4   28.97    1.19
  -1   8  -4   29.55    1.29
  -1   8  -4   28.57    1.29
  -1   8  -4   27.77    1.22
  -1   8  -4   28.82    1.25
   1  -8   4   29.41    1.27
   1  -8   4   27.76    1.32
   1  -8   4   28.22    1.26
   1  -8   4   30.65    1.30
  -2   8  -4    1.61    0.25
  -2   8  -4    1.36    0.26
  -2   8  -4    1.24    0.28
  -2   8  -4    1.06    0.20
  -2   8  -4    1.24    0.27
   2  -8   4    1.13    0.29
   2  -8   4    1.12    0.26
   2  -8   4    1.58    0.33
   2  -8   4    1.37    0.32
  -3   8  -4    2.90    0.32
  -3   8  -4    2.71    0.34
  -3   8  -4    2.46    0.32
  -3   8  -4    3.07    0.43
  -3   8  -4    2.84    0.41
   3  -8   4    3.01    0.48
   3  -8   4    2.76    0.37
   3  -8   4    2.08    0.31
   3  -8   4    2.06    0.36
  -4   8  -4    4.55    0.38
  -4   8  -4    4.55    0.51
  -4   8  -4    4.52    0.42
  -4   8  -4    4.30    0.54
   4  -8   4    4.64    0.59
   4  -8   4    4.85    0.47
   4  -8   4    4.49    0.43
   4  -8   4    3.95    0.58
  -5   8  -4    0.06    0.40
  -5   8  -4    0.41    0.33
  -5   8  -4    0.03    0.37
  -5   8  -4    0.16    0.26
   5  -8   4    0.15    0.35
   5  -8   4    0.27    0.54
   5  -8   4    0.05    0.26
   5  -8   4    0.11    0.48
  -6   8  -4    0.46    0.53
  -6   8  -4    0.12    0.46
   6  -8   4    0.39    0.64
   6  -8   4    0.42    0.28
   6  -8   4    0.15    0.54
   9   7  -4    0.57    0.22
   9   7  -4    0.21    0.36
   9   7  -4    0.74    0.32
  -9  -7   4    0.67    0.23
   8   7  -4    7.34    0.43
   8   7  -4    7.31    0.67
   8   7  -4    6.58    0.52
  -8  -7   4    6.67    0.52
  -8  -7   4    7.78    0.50
   7   7  -4    9.70    0.59
   7   7  -4   10.34    0.51
   7   7  -4   10.35    0.64
  -7  -7   4   11.12    0.64
  -7  -7   4   10.26    0.62
  -7  -7   4   11.05    0.55
  -7  -7   4   10.08    0.59
  -7  -7   4    9.33    0.48
   6   7  -4   13.69    0.73
   6   7  -4   13.28    0.67
   6   7  -4   14.02    0.62
  -6  -7   4   14.05    0.70
  -6  -7   4   12.80    0.58
  -6  -7   4   12.50    0.82
  -6  -7   4   11.01    0.84
   5   7  -4   42.73    1.52
   5   7  -4   40.96    1.69
   5   7  -4   40.89    1.58
  -5  -7   4   41.94    1.60
  -5  -7   4   42.24    1.56
  -5  -7   4   43.58    1.69
  -5  -7   4   40.74    1.54
  -5  -7   4   40.51    1.48
   4   7  -4   55.23    1.95
   4   7  -4   56.77    2.01
   4   7  -4   55.65    2.06
   4   7  -4   56.33    2.13
   4   7  -4   52.30    1.90
  -4  -7   4   55.86    2.02
  -4  -7   4   54.19    1.88
  -4  -7   4   55.83    2.11
  -4  -7   4   56.31    1.94
   3   7  -4    3.88    0.36
   3   7  -4    4.53    0.30
   3   7  -4    4.91    0.34
   3   7  -4    5.03    0.36
   3   7  -4    4.30    0.38
  -3  -7   4    4.26    0.38
  -3  -7   4    4.27    0.34
  -3  -7   4    4.12    0.34
  -3  -7   4    4.18    0.27
   2   7  -4   75.47    2.59
   2   7  -4   73.27    2.55
   2   7  -4   74.94    2.71
   2   7  -4   76.89    2.61
   2   7  -4   75.20    2.59
  -2  -7   4   75.15    2.70
  -2  -7   4   76.42    2.33
  -2  -7   4   74.76    2.62
  -2  -7   4   76.90    2.61
   1   7  -4   14.58    0.73
   1   7  -4   16.25    0.83
   1   7  -4   16.37    0.78
   1   7  -4   15.29    0.74
   1   7  -4   14.86    0.77
  -1  -7   4   15.59    0.82
  -1  -7   4   16.40    0.79
  -1  -7   4   15.90    0.78
   0   7  -4   79.00    2.74
   0   7  -4   81.46    2.70
   0   7  -4   79.02    2.74
   0   7  -4   81.74    2.83
   0   7  -4   79.18    2.80
   0  -7   4   80.74    2.77
   0  -7   4   78.22    2.77
   0  -7   4   79.18    2.81
   0  -7   4   82.22    2.83
  -1   7  -4   87.05    2.87
  -1   7  -4   85.37    2.96
  -1   7  -4   86.18    3.03
  -1   7  -4   84.98    2.97
  -1   7  -4   85.92    2.95
   1  -7   4   89.53    3.00
   1  -7   4   84.68    2.97
   1  -7   4   86.21    3.05
   1  -7   4   86.79    2.99
  -2   7  -4   52.92    1.86
  -2   7  -4   50.82    1.93
  -2   7  -4   50.59    1.92
  -2   7  -4   52.42    2.04
  -2   7  -4   51.53    1.99
   2  -7   4   53.04    1.94
   2  -7   4   51.44    1.96
   2  -7   4   51.56    1.97
   2  -7   4   52.68    2.06
  -3   7  -4  132.56    4.33
  -3   7  -4  133.61    4.41
  -3   7  -4  128.23    4.15
  -3   7  -4  129.91    4.13
  -3   7  -4  127.73    4.20
   3  -7   4  129.08    4.16
   3  -7   4  132.08    4.27
   3  -7   4  126.95    4.31
   3  -7   4  118.42    4.80
  -4   7  -4    1.77    0.42
  -4   7  -4    2.59    0.40
  -4   7  -4    2.44    0.27
   4  -7   4    2.07    0.35
   4  -7   4    2.28    0.45
   4  -7   4    1.92    0.32
  -5   7  -4   54.23    1.91
  -5   7  -4   52.73    1.82
  -5   7  -4   54.42    2.13
  -5   7  -4   55.50    2.08
  -5   7  -4   51.98    1.99
   5  -7   4   51.18    2.14
   5  -7   4   55.38    1.84
   5  -7   4   46.09    2.34
   5  -7   4   50.22    2.13
  -6   7  -4    1.21    0.52
  -6   7  -4    1.88    0.31
  -6   7  -4    1.61    0.38
   6  -7   4    1.76    0.42
   6  -7   4    1.38    0.55
   6  -7   4    1.40    0.33
  -7   7  -4    8.93    0.76
  -7   7  -4    8.01    0.60
  -7   7  -4    8.55    0.83
   7  -7   4    7.89    1.00
   7  -7   4   10.56    0.75
   7  -7   4    8.58    0.84
   9   6  -4    1.52    0.29
   8   6  -4   16.18    0.67
   8   6  -4   17.40    0.81
  -8  -6   4   17.15    0.93
   7   6  -4    0.35    0.15
   7   6  -4    0.38    0.21
  -7  -6   4    0.06    0.15
  -7  -6   4    0.27    0.19
   6   6  -4   46.25    1.51
   6   6  -4   42.78    1.59
   6   6  -4   43.52    1.71
  -6  -6   4   45.57    1.60
  -6  -6   4   44.17    1.70
  -6  -6   4   43.06    1.54
  -6  -6   4   42.13    1.47
  -6  -6   4   44.83    1.68
   5   6  -4    5.29    0.39
   5   6  -4    6.38    0.44
   5   6  -4    4.49    0.33
  -5  -6   4    5.23    0.37
  -5  -6   4    4.72    0.33
  -5  -6   4    6.32    0.44
  -5  -6   4    5.40    0.36
  -5  -6   4    5.44    0.38
   4   6  -4  217.49    6.59
   4   6  -4  218.63    6.53
   4   6  -4  216.67    6.76
   4   6  -4  208.00    6.49
  -4  -6   4  215.49    6.71
  -4  -6   4  215.12    6.51
  -4  -6   4  220.59    6.61
  -4  -6   4  213.12    6.51
   3   6  -4   90.41    3.08
   3   6  -4   88.12    2.93
   3   6  -4   89.79    2.91
   3   6  -4   86.20    2.86
   3   6  -4   87.60    2.96
  -3  -6   4   89.53    2.79
  -3  -6   4   89.66    3.05
  -3  -6   4   89.40    2.90
  -3  -6   4   88.42    2.94
   2   6  -4  113.52    3.62
   2   6  -4  110.08    3.73
   2   6  -4  109.18    3.57
   2   6  -4  114.28    3.62
   2   6  -4  113.14    3.62
  -2  -6   4  112.71    3.72
  -2  -6   4  110.24    3.38
  -2  -6   4  114.62    3.61
  -2  -6   4  112.08    3.63
   1   6  -4  135.15    4.38
   1   6  -4  132.73    4.28
   1   6  -4  133.44    4.24
   1   6  -4  136.83    4.23
   1   6  -4  135.03    4.27
  -1  -6   4  138.40    4.30
  -1  -6   4  134.55    4.29
  -1  -6   4  132.99    3.95
  -1  -6   4  131.15    4.35
   0   6  -4   29.13    1.21
   0   6  -4   29.27    1.24
   0   6  -4   29.57    1.18
   0   6  -4   29.57    1.18
   0   6  -4   29.45    1.14
   0  -6   4   28.35    1.21
   0  -6   4   27.99    1.18
   0  -6   4   29.37    1.18
   0  -6   4   28.98    1.23
  -1   6  -4   16.27    0.82
  -1   6  -4   16.90    0.81
  -1   6  -4   16.12    0.79
  -1   6  -4   15.75    0.74
  -1   6  -4   16.62    0.78
   1  -6   4   17.93    0.82
   1  -6   4   16.22    0.79
   1  -6   4   16.54    0.83
   1  -6   4   16.78    0.80
  -2   6  -4    1.67    0.26
  -2   6  -4    1.37    0.21
  -2   6  -4    1.28    0.21
  -2   6  -4    0.99    0.20
   2  -6   4    1.28    0.27
   2  -6   4    1.60    0.23
   2  -6   4    1.15    0.26
   2  -6   4    1.37    0.23
  -3   6  -4   11.12    0.62
  -3   6  -4   12.64    0.68
  -3   6  -4   11.63    0.60
  -3   6  -4   12.74    0.61
  -3   6  -4   12.85    0.72
   3  -6   4   12.14    0.62
   3  -6   4   11.99    0.65
   3  -6   4   12.04    0.68
   3  -6   4   11.72    0.71
  -4   6  -4    0.98    0.23
  -4   6  -4    1.40    0.27
  -4   6  -4    1.24    0.27
  -4   6  -4    1.11    0.18
  -4   6  -4    0.92    0.21
   4  -6   4    1.13    0.25
   4  -6   4    0.70    0.18
   4  -6   4    0.90    0.41
   4  -6   4    1.13    0.28
  -5   6  -4    0.90    0.27
  -5   6  -4    1.29    0.23
  -5   6  -4    0.76    0.27
  -5   6  -4    1.14    0.23
   5  -6   4    0.96    0.32
   5  -6   4    1.41    0.26
   5  -6   4    1.17    0.23
  -6   6  -4    0.33    0.26
  -6   6  -4    0.76    0.32
  -6   6  -4    0.82    0.33
   6  -6   4    0.46    0.43
   6  -6   4    0.68    0.29
   6  -6   4    0.23    0.38
  -7   6  -4    0.75    0.39
  -7   6  -4    0.36    0.27
  -7   6  -4    0.71    0.47
  -7   6  -4    0.89    0.30
   7  -6   4    1.03    0.43
   7  -6   4    0.87    0.35
   7  -6   4    0.42    0.61
   9   5  -4   -0.09    0.25
  -9  -5   4    0.18    0.20
   8   5  -4    0.42    0.23
  -8  -5   4    0.59    0.19
   7   5  -4    0.13    0.19
   7   5  -4    0.33    0.13
  -7  -5   4    0.10    0.15
  -7  -5   4    0.59    0.17
   6   5  -4    3.82    0.31
   6   5  -4    5.00    0.26
   6   5  -4    4.54    0.35
  -6  -5   4    3.96    0.35
  -6  -5   4    4.11    0.30
  -6  -5   4    4.33    0.34
   5   5  -4   14.80    0.60
   5   5  -4   15.14    0.76
   5   5  -4   14.33    0.65
  -5  -5   4   14.54    0.59
  -5  -5   4   15.35    0.66
  -5  -5   4   14.15    0.73
  -5  -5   4   15.59    0.74
   4   5  -4    0.21    0.11
   4   5  -4    0.40    0.12
   4   5  -4    0.43    0.10
  -4  -5   4    0.46    0.12
  -4  -5   4    0.49    0.13
  -4  -5   4    0.50    0.13
  -4  -5   4    0.30    0.11
   3   5  -4    2.14    0.21
   3   5  -4    2.56    0.19
   3   5  -4    2.32    0.27
   3   5  -4    2.14    0.21
  -3  -5   4    2.30    0.22
  -3  -5   4    2.27    0.26
  -3  -5   4    2.10    0.19
  -3  -5   4    2.50    0.21
   2   5  -4  109.97    3.56
   2   5  -4  115.10    3.60
   2   5  -4  113.60    3.60
   2   5  -4  114.71    3.61
   2   5  -4  114.77    3.74
  -2  -5   4  115.23    3.59
  -2  -5   4  113.42    3.61
  -2  -5   4  113.82    3.43
  -2  -5   4  113.51    3.71
   1   5  -4   15.63    0.71
   1   5  -4   15.63    0.72
   1   5  -4   16.40    0.79
   1   5  -4   15.15    0.68
   1   5  -4   16.17    0.70
  -1  -5   4   15.94    0.72
  -1  -5   4   16.35    0.78
  -1  -5   4   14.75    0.52
  -1  -5   4   16.62    0.73
   0   5  -4  169.51    5.31
   0   5  -4  170.08    5.27
   0   5  -4  172.00    5.28
   0   5  -4  170.92    5.20
   0   5  -4  170.38    5.34
   0  -5   4  166.98    5.33
   0  -5   4  167.84    5.29
   0  -5   4  178.13    5.34
   0  -5   4  173.38    5.25
  -1   5  -4   30.53    1.12
  -1   5  -4   29.96    1.21
  -1   5  -4   29.50    1.24
  -1   5  -4   29.82    1.20
  -1   5  -4   30.11    1.19
   1  -5   4   29.51    1.19
   1  -5   4   31.72    1.19
   1  -5   4   30.10    1.24
   1  -5   4   29.10    1.20
  -2   5  -4  247.01    7.52
  -2   5  -4  243.40    7.51
  -2   5  -4  246.54    7.42
  -2   5  -4  254.60    7.65
   2  -5   4  247.92    7.56
   2  -5   4  253.45    7.67
   2  -5   4  241.07    7.49
   2  -5   4  249.40    7.54
  -3   5  -4  121.05    3.88
  -3   5  -4  120.95    3.80
  -3   5  -4  125.42    4.04
  -3   5  -4  119.79    3.66
  -3   5  -4  118.33    3.81
   3  -5   4  117.13    3.93
   3  -5   4  119.37    3.80
   3  -5   4  120.00    3.90
  -4   5  -4   31.96    1.24
  -4   5  -4   31.45    1.27
  -4   5  -4   31.69    1.16
  -4   5  -4   31.25    1.18
  -4   5  -4   31.69    1.38
   4  -5   4   32.22    1.29
   4  -5   4   32.48    1.18
   4  -5   4   30.76    1.38
   4  -5   4   31.49    1.36
  -5   5  -4   85.03    3.00
  -5   5  -4   80.96    2.64
  -5   5  -4   85.81    2.78
   5  -5   4   83.84    2.86
   5  -5   4   82.89    3.02
   5  -5   4   84.25    2.64
   5  -5   4   78.29    2.99
  -6   5  -4    3.69    0.45
  -6   5  -4    2.99    0.37
   6  -5   4    3.99    0.41
   6  -5   4    3.72    0.46
   6  -5   4    3.58    0.55
  -7   5  -4   11.86    0.67
  -7   5  -4   10.23    0.60
  -7   5  -4   11.61    0.74
   7  -5   4   10.41    0.82
   7  -5   4   11.20    0.74
   7  -5   4   11.74    0.67
  -8   5  -4    0.49    0.50
  -8   5  -4    0.12    0.29
  -8   5  -4    0.32    0.31
  -8   5  -4    0.09    0.41
   8  -5   4    0.41    0.45
   8  -5   4    0.15    0.62
   9   4  -4    7.31    0.45
  -9  -4   4    8.65    0.60
   8   4  -4    1.72    0.31
  -8  -4   4    1.52    0.31
   7   4  -4   12.62    0.65
  -7  -4   4   13.35    0.77
   6   4  -4   39.19    1.52
  -6  -4   4   41.42    1.47
  -6  -4   4   39.09    1.59
   5   4  -4    9.14    0.39
   5   4  -4    8.43    0.52
  -5  -4   4    7.73    0.50
  -5  -4   4    8.68    0.37
  -5  -4   4    8.80    0.42
  -5  -4   4    9.28    0.49
   4   4  -4   69.37    2.39
   4   4  -4   68.23    2.21
   4   4  -4   71.49    2.17
  -4  -4   4   68.57    2.33
  -4  -4   4   70.02    2.30
  -4  -4   4   69.72    2.21
  -4  -4   4   62.33    2.13
   3   4  -4    0.75    0.15
   3   4  -4    0.67    0.14
  -3  -4   4    0.89    0.17
  -3  -4   4    0.85    0.14
  -3  -4   4    0.94    0.13
  -3  -4   4    0.72    0.14
   2   4  -4  139.37    4.29
   2   4  -4  139.05    4.44
   2   4  -4  139.03    4.26
   2   4  -4  142.77    4.30
  -2  -4   4  139.03    4.41
  -2  -4   4  141.62    4.44
  -2  -4   4  138.24    4.19
  -2  -4   4  141.00    4.28
  -2  -4   4  141.76    4.30
   1   4  -4   13.25    0.60
   1   4  -4   15.10    0.72
   1   4  -4   14.36    0.64
   1   4  -4   14.72    0.63
   1   4  -4   14.76    0.64
  -1  -4   4   13.74    0.63
  -1  -4   4   14.75    0.64
  -1  -4   4   15.18    0.68
  -1  -4   4   13.95    0.49
  -1  -4   4   14.47    0.70
   0   4  -4  260.55    7.81
   0   4  -4  261.60    7.64
   0   4  -4  263.04    7.73
   0   4  -4  253.43    7.72
   0   4  -4  262.07    7.77
   0  -4   4  255.76    7.79
   0  -4   4  266.90    7.77
   0  -4   4  268.43    7.68
   0  -4   4  237.91    7.86
   0  -4   4  255.56    7.74
  -1   4  -4    0.65    0.14
  -1   4  -4    0.93    0.15
   1  -4   4    0.68    0.13
   1  -4   4    0.45    0.12
   1  -4   4    0.84    0.14
   1  -4   4    0.40    0.12
   1  -4   4    0.68    0.15
  -2   4  -4   15.18    0.74
  -2   4  -4   15.45    0.69
  -2   4  -4   14.41    0.51
  -2   4  -4   14.83    0.69
  -2   4  -4   15.56    0.64
   2  -4   4   14.31    0.68
   2  -4   4   14.16    0.67
   2  -4   4   15.27    0.55
   2  -4   4   14.64    0.67
  -3   4  -4    0.89    0.18
  -3   4  -4    0.83    0.17
  -3   4  -4    1.18    0.17
  -3   4  -4    0.83    0.16
   3  -4   4    0.85    0.13
   3  -4   4    0.77    0.18
   3  -4   4    1.03    0.19
   3  -4   4    0.93    0.17
  -4   4  -4   36.63    1.40
  -4   4  -4   38.03    1.52
  -4   4  -4   37.04    1.32
  -4   4  -4   37.68    1.32
   4  -4   4   37.16    1.30
   4  -4   4   36.70    1.53
   4  -4   4   37.31    1.43
   4  -4   4   36.37    1.49
  -5   4  -4    0.03    0.18
  -5   4  -4    0.05    0.11
  -5   4  -4    0.08    0.14
   5  -4   4   -0.17    0.17
   5  -4   4    0.04    0.19
   5  -4   4    0.04    0.24
  -6   4  -4    4.59    0.35
  -6   4  -4    4.95    0.42
   6  -4   4    5.23    0.38
   6  -4   4    4.33    0.42
  -7   4  -4    0.08    0.20
  -7   4  -4    0.29    0.24
  -7   4  -4   -0.02    0.27
   7  -4   4    0.17    0.26
   7  -4   4   -0.44    0.41
   7  -4   4    0.10    0.31
  -8   4  -4    2.84    0.39
  -8   4  -4    2.41    0.42
   8  -4   4    2.80    0.50
   8  -4   4    2.63    0.57
   8  -4   4    2.53    0.34
   9  -4   4    0.69    0.70
   9  -4   4    0.51    0.49
   9   3  -4    8.22    0.65
  -9  -3   4    8.25    0.64
   8   3  -4    1.65    0.27
  -8  -3   4    1.09    0.24
   7   3  -4   15.53    0.70
  -7  -3   4   15.81    0.88
   6   3  -4    9.94    0.53
  -6  -3   4   10.11    0.61
   5   3  -4   15.96    0.75
  -5  -3   4   16.33    0.79
   4   3  -4   18.61    0.83
   4   3  -4   18.46    0.70
  -4  -3   4   18.07    0.80
  -4  -3   4   18.43    0.79
   3   3  -4   12.88    0.63
   3   3  -4   12.31    0.50
   3   3  -4   12.08    0.48
   3   3  -4   11.55    0.50
  -3  -3   4   13.31    0.62
  -3  -3   4   12.58    0.51
  -3  -3   4   12.02    0.65
  -3  -3   4   12.40    0.56
   2   3  -4    1.12    0.12
   2   3  -4    1.01    0.12
  -2  -3   4    1.26    0.14
  -2  -3   4    1.31    0.12
  -2  -3   4    1.24    0.17
  -2  -3   4    1.38    0.16
   1   3  -4   40.83    1.38
   1   3  -4   40.79    1.41
   1   3  -4   41.37    1.53
   1   3  -4   41.86    1.43
   1   3  -4   42.06    1.42
  -1  -3   4   41.29    1.30
  -1  -3   4   44.02    1.52
  -1  -3   4   42.85    1.43
  -1  -3   4   42.57    1.51
  -1  -3   4   41.89    1.43
   0   3  -4  204.82    6.45
   0   3  -4  209.57    6.28
   0   3  -4  214.72    6.37
   0   3  -4  216.22    6.41
   0  -3   4  205.06    6.42
   0  -3   4  219.58    6.41
   0  -3   4  211.47    6.30
   0  -3   4  216.39    6.39
   0  -3   4  222.82    6.40
  -1   3  -4   52.06    1.68
  -1   3  -4   51.85    1.81
  -1   3  -4   53.20    1.79
   1  -3   4   53.81    1.73
   1  -3   4   50.69    1.79
   1  -3   4   54.70    1.74
   1  -3   4   52.74    1.80
   1  -3   4   52.93    1.83
  -2   3  -4  400.36   11.64
  -2   3  -4  416.54   11.53
  -2   3  -4  397.83   11.75
  -2   3  -4  398.62   11.84
  -2   3  -4  393.45   11.73
   2  -3   4  385.43   11.71
   2  -3   4  407.59   11.60
   2  -3   4  396.69   11.84
   2  -3   4  398.99   11.71
   2  -3   4  396.76   11.77
  -3   3  -4    8.98    0.51
  -3   3  -4    8.27    0.43
  -3   3  -4    8.94    0.44
  -3   3  -4    8.72    0.47
  -3   3  -4    8.87    0.38
   3  -3   4    8.70    0.47
   3  -3   4    8.21    0.35
   3  -3   4    8.40    0.42
   3  -3   4    8.52    0.51
   3  -3   4    8.45    0.47
  -4   3  -4  305.64    9.41
  -4   3  -4  306.21    9.15
  -4   3  -4  316.27    9.18
   4  -3   4  312.43    9.40
   4  -3   4  315.42    9.32
   4  -3   4  308.39    9.44
  -5   3  -4   28.08    1.20
  -5   3  -4   25.80    0.96
  -5   3  -4   28.40    1.08
  -5   3  -4   27.17    1.12
   5  -3   4   27.43    1.22
   5  -3   4   29.19    1.15
   5  -3   4   27.57    1.21
  -6   3  -4   44.01    1.59
  -6   3  -4   45.28    1.71
   6  -3   4   36.89    1.83
   6  -3   4   41.70    1.73
   6  -3   4   44.09    1.61
  -7   3  -4   26.37    1.19
  -7   3  -4   26.99    1.14
   7  -3   4   25.65    1.24
   7  -3   4   26.02    1.18
   7  -3   4   28.64    1.12
  -8   3  -4    3.45    0.36
  -8   3  -4    2.52    0.48
  -8   3  -4    2.05    0.40
   8  -3   4    3.27    0.59
   8  -3   4    2.67    0.43
   8  -3   4    3.19    0.50
  -9   3  -4    0.71    0.42
  -9   3  -4    1.49    0.27
  -9   3  -4    1.17    0.34
   9  -3   4    0.66    0.53
   9  -3   4    1.29    0.36
   9  -3   4    1.00    0.41
   9   2  -4    8.79    0.67
   8   2  -4    7.22    0.55
   8   2  -4    7.69    0.40
  -8  -2   4    7.76    0.58
   7   2  -4   84.83    3.14
   7   2  -4   92.63    2.87
  -7  -2   4   89.08    3.17
   6   2  -4    8.81    0.46
  -6  -2   4    8.42    0.56
   5   2  -4  178.42    5.41
  -5  -2   4  174.91    5.53
   4   2  -4  107.43    3.38
  -4  -2   4  107.61    3.49
  -4  -2   4  102.17    3.39
   3   2  -4  345.34   10.16
   3   2  -4  345.65    9.91
  -3  -2   4  338.91   10.10
  -3  -2   4  340.38   10.10
  -3  -2   4  343.35   10.24
   2   2  -4  289.41    8.78
   2   2  -4  301.87    8.78
   2   2  -4  301.96    8.98
   2   2  -4  299.12    8.79
  -2  -2   4  309.81    8.79
  -2  -2   4  299.96    8.85
  -2  -2   4  311.59    9.03
  -2  -2   4  302.96    8.94
   1   2  -4   39.23    1.42
   1   2  -4   39.56    1.31
   1   2  -4   39.41    1.30
  -1  -2   4   40.68    1.31
  -1  -2   4   40.26    1.42
  -1  -2   4   40.00    1.26
  -1  -2   4   38.78    1.39
  -1  -2   4   38.62    1.30
   0   2  -4  367.40   10.89
   0   2  -4  363.71   10.98
   0   2  -4  359.75   10.91
   0  -2   4  376.90   10.92
   0  -2   4  405.61   10.97
   0  -2   4  377.12   10.91
   0  -2   4  363.41   10.95
  -1   2  -4  181.00    5.35
  -1   2  -4  177.32    5.22
  -1   2  -4  173.40    5.38
  -1   2  -4  175.38    5.38
   1  -2   4  171.54    5.35
   1  -2   4  192.68    5.34
   1  -2   4  171.71    5.35
   1  -2   4  179.93    5.39
   1  -2   4  180.50    5.26
  -2   2  -4  136.62    4.11
  -2   2  -4  136.65    4.19
  -2   2  -4  136.12    4.22
  -2   2  -4  133.94    4.27
  -2   2  -4  137.89    4.03
   2  -2   4  134.46    4.22
   2  -2   4  140.58    4.15
   2  -2   4  145.33    4.11
   2  -2   4  134.86    4.17
  -3   2  -4   26.89    1.09
  -3   2  -4   26.86    0.92
  -3   2  -4   25.11    0.96
   3  -2   4   26.30    1.04
   3  -2   4   26.38    0.89
   3  -2   4   27.36    1.02
   3  -2   4   27.14    1.10
  -4   2  -4    0.48    0.11
  -4   2  -4    0.63    0.14
   4  -2   4    0.36    0.13
   4  -2   4    0.84    0.18
   4  -2   4    0.52    0.12
  -5   2  -4   14.38    0.66
  -5   2  -4   15.13    0.58
  -5   2  -4   14.87    0.71
  -5   2  -4   15.11    0.75
   5  -2   4   15.15    0.76
   5  -2   4   15.50    0.71
   5  -2   4   15.93    0.77
  -6   2  -4   14.43    0.68
  -6   2  -4   13.80    0.72
  -6   2  -4   13.85    0.69
   6  -2   4   13.86    0.73
   6  -2   4   15.43    0.70
   6  -2   4   14.50    0.77
  -7   2  -4    0.48    0.20
  -7   2  -4   -0.09    0.14
   7  -2   4    0.17    0.30
   7  -2   4    0.23    0.18
   7  -2   4    0.21    0.22
  -8   2  -4    0.35    0.23
  -8   2  -4    0.12    0.26
  -8   2  -4    0.22    0.17
   8  -2   4    0.00    0.32
   8  -2   4    0.27    0.25
   8  -2   4    0.42    0.26
  -9   2  -4    1.13    0.35
  -9   2  -4    0.61    0.30
  -9   2  -4    0.73    0.21
   9  -2   4    0.70    0.42
   9  -2   4    0.53    0.35
   9   1  -4    3.47    0.59
  -9  -1   4    4.46    0.47
  -8  -1   4    0.89    0.24
   7   1  -4    8.59    0.57
   7   1  -4    9.24    0.44
  -7  -1   4    8.44    0.63
   6   1  -4    0.77    0.18
   6   1  -4    0.45    0.12
  -6  -1   4    0.21    0.13
   5   1  -4    6.22    0.42
   5   1  -4    6.18    0.36
  -5  -1   4    5.79    0.41
  -5  -1   4    6.03    0.44
   4   1  -4    3.84    0.28
  -4  -1   4    3.73    0.30
  -4  -1   4    3.85    0.31
  -3  -1   4    0.46    0.09
   2   1  -4   40.12    1.38
   2   1  -4   38.94    1.18
  -2  -1   4   40.41    1.42
  -2  -1   4   35.57    1.39
   1   1  -4   10.24    0.49
   1   1  -4   10.16    0.39
   1   1  -4    9.86    0.40
  -1  -1   4    9.63    0.55
  -1  -1   4   10.89    0.40
  -1  -1   4   10.63    0.42
   0   1  -4  123.24    3.78
   0   1  -4  119.78    3.87
   0   1  -4  125.57    3.81
   0  -1   4  128.14    3.80
   0  -1   4  126.75    3.79
   0  -1   4  136.58    3.89
  -1   1  -4   46.76    1.62
  -1   1  -4   47.64    1.62
   1  -1   4   47.83    1.60
   1  -1   4   49.88    1.62
   1  -1   4   51.17    1.60
  -2   1  -4  150.23    4.72
  -2   1  -4  144.43    4.64
  -2   1  -4  159.93    4.70
   2  -1   4  151.79    4.69
   2  -1   4  156.87    4.60
   2  -1   4  154.65    4.73
   2  -1   4  165.94    4.82
  -3   1  -4  242.18    6.99
  -3   1  -4  232.84    7.01
  -3   1  -4  223.57    6.86
   3  -1   4  240.13    6.94
   3  -1   4  229.41    7.02
   3  -1   4  229.12    6.96
  -4   1  -4  342.28   10.27
  -4   1  -4  359.25   10.49
  -4   1  -4  353.31   10.33
  -4   1  -4  356.13   10.44
   4  -1   4  352.98   10.45
   4  -1   4  343.55   10.42
   4  -1   4  358.27   10.50
  -5   1  -4   18.89    0.80
  -5   1  -4   19.88    0.70
  -5   1  -4   19.23    0.84
  -5   1  -4   19.73    0.88
   5  -1   4   20.31    0.88
   5  -1   4   19.53    0.85
   5  -1   4   19.80    0.88
  -6   1  -4  153.87    5.04
  -6   1  -4  170.20    5.09
  -6   1  -4  165.56    5.16
   6  -1   4  161.44    5.15
   6  -1   4  162.45    5.07
   6  -1   4  164.32    5.19
  -7   1  -4    6.15    0.43
  -7   1  -4    6.60    0.41
  -7   1  -4    6.14    0.43
   7  -1   4    6.00    0.43
   7  -1   4    6.46    0.40
  -8   1  -4   19.52    0.85
  -8   1  -4   18.68    0.89
  -8   1  -4   18.30    0.92
   8  -1   4   18.01    0.87
   8  -1   4   17.56    0.90
   8  -1   4   18.92    0.85
  -9   1  -4    4.70    0.46
  -9   1  -4    4.71    0.40
  -9   1  -4    5.76    0.51
   9  -1   4    4.83    0.51
   9  -1   4    4.48    0.56
 -10   1  -4    2.70    0.36
 -10   1  -4    2.63    0.40
 -10   1  -4    1.93    0.37
  10  -1   4    1.94    0.41
  10  -1   4    1.68    0.41
  10  -1   4    3.32    0.74
   9   0  -4    0.53    0.49
   8   0  -4    2.24    0.48
  -8   0   4    2.50    0.38
   7   0  -4   16.48    0.86
  -7   0   4   17.30    0.96
   6   0  -4    9.25    0.56
   6   0  -4    9.53    0.44
  -6   0   4    8.43    0.60
   5   0  -4   98.06    3.04
   5   0  -4  100.99    3.20
  -5   0   4   95.57    3.21
  -5   0   4   92.41    3.26
   4   0  -4    1.49    0.18
   4   0  -4    1.72    0.21
  -4   0   4    1.46    0.20
  -4   0   4    1.04    0.18
   3   0  -4  358.36   10.77
   3   0  -4  370.13   10.77
  -3   0   4  369.16   10.85
  -3   0   4  369.01   10.87
   2   0  -4   10.92    0.45
   2   0  -4   10.43    0.48
  -2   0   4    9.73    0.48
  -2   0   4   10.30    0.51
   1   0  -4  244.24    7.55
  -1   0   4  276.79    7.67
   0   0  -4   52.41    1.72
   0   0  -4   53.54    1.70
   0   0   4   56.20    1.71
   0   0   4   56.78    1.73
   0   0   4   58.67    1.82
  -1   0  -4  113.94    3.46
  -1   0  -4  108.85    3.47
   1   0   4  120.40    3.49
   1   0   4  115.17    3.45
  -2   0  -4   13.10    0.57
  -2   0  -4   13.56    0.56
   2   0   4   12.71    0.55
  -3   0  -4   34.63    1.25
  -3   0  -4   35.53    1.24
   3   0   4   34.63    1.25
   3   0   4   32.50    1.21
  -4   0  -4   11.15    0.46
  -4   0  -4   11.74    0.56
  -4   0  -4   11.88    0.57
   4   0   4   11.39    0.56
   4   0   4   11.68    0.55
  -5   0  -4    5.38    0.26
  -5   0  -4    6.15    0.36
  -5   0  -4    6.52    0.39
  -5   0  -4    5.93    0.34
   5   0   4    5.52    0.35
   5   0   4    6.43    0.39
   5   0   4    5.52    0.37
  -6   0  -4    0.69    0.14
  -6   0  -4    0.87    0.19
  -6   0  -4    0.50    0.13
   6   0   4    0.41    0.13
   6   0   4    0.65    0.16
  -7   0  -4    0.05    0.12
  -7   0  -4    0.16    0.17
  -7   0  -4    0.05    0.18
   7   0   4    0.00    0.19
   7   0   4    0.11    0.17
   7   0   4    0.22    0.17
  -8   0  -4    1.13    0.24
  -8   0  -4    1.93    0.32
   8   0   4    1.48    0.32
  -9   0  -4    3.21    0.34
  -9   0  -4    1.86    0.41
  -9   0  -4    2.58    0.40
   9   0   4    3.04    0.47
   9   0   4    2.06    0.43
 -10   0  -4    0.08    0.37
 -10   0  -4    0.08    0.20
 -10   0  -4   -0.09    0.33
  10   0   4   -0.10    0.38
  10   0   4    0.36    0.38
  10   0   4    0.42    0.42
   8  -1  -4    8.11    0.63
  -8   1   4    6.66    0.60
   7  -1  -4   11.47    0.70
  -7   1   4   10.18    0.72
   6  -1  -4   30.27    1.28
   6  -1  -4   29.86    1.05
  -6   1   4   28.98    1.37
   5  -1  -4   46.57    1.74
   5  -1  -4   47.79    1.54
  -5   1   4   45.43    1.69
  -5   1   4   42.39    1.78
   4  -1  -4   22.81    0.95
   4  -1  -4   22.61    0.85
  -4   1   4   21.61    1.01
  -4   1   4   21.78    0.94
   3  -1  -4   15.85    0.71
  -3   1   4   15.97    0.72
  -3   1   4   16.09    0.75
   2  -1  -4    1.04    0.13
  -2   1   4    0.70    0.13
  -2   1   4    0.80    0.13
   1  -1  -4    9.70    0.41
  -1   1   4   10.18    0.40
  -1   1   4    9.87    0.46
   0  -1  -4   61.08    1.89
   0  -1  -4   59.81    1.91
   0   1   4   66.48    2.02
   0   1   4   63.66    1.90
   0   1   4   61.42    1.91
  -1  -1  -4  186.17    5.53
  -1  -1  -4  185.24    5.52
   1   1   4  188.81    5.53
   1   1   4  189.64    5.52
  -2  -1  -4  211.11    6.24
  -2  -1  -4  205.38    6.23
   2   1   4  210.16    6.24
   2   1   4  215.56    6.25
  -3  -1  -4  504.30   14.64
  -3  -1  -4  495.93   14.62
   3   1   4  515.06   14.64
   3   1   4  492.46   14.62
  -4  -1  -4   24.98    0.99
  -4  -1  -4   26.84    1.01
   4   1   4   26.29    1.01
   4   1   4   24.97    1.00
  -5  -1  -4  224.12    6.81
  -5  -1  -4  228.90    6.83
   5   1   4  225.65    6.82
   5   1   4  222.65    6.81
  -6  -1  -4   71.10    2.47
  -6  -1  -4   69.10    2.45
  -6  -1  -4   79.53    2.53
   6   1   4   75.11    2.49
  -7  -1  -4   42.99    1.64
  -7  -1  -4   41.74    1.56
  -7  -1  -4   38.98    1.57
   7   1   4   43.59    1.57
   7   1   4   40.65    1.54
  -8  -1  -4    9.95    0.54
  -8  -1  -4    7.87    0.55
   8   1   4    9.10    0.52
   8   1   4    9.38    0.58
   8   1   4   10.08    0.55
  -9  -1  -4    6.52    0.47
  -9  -1  -4    6.02    0.48
  -9  -1  -4    6.66    0.48
   9   1   4    6.04    0.52
   9   1   4    6.42    0.48
   9   1   4    6.73    0.53
 -10  -1  -4    6.02    0.46
 -10  -1  -4    5.37    0.54
 -10  -1  -4    5.75    0.55
  10   1   4    4.52    0.54
  10   1   4    5.44    0.59
   8  -2  -4   14.05    0.89
  -8   2   4   14.94    0.95
   7  -2  -4   -0.07    0.36
  -7   2   4    0.16    0.18
   6  -2  -4   45.92    2.16
   6  -2  -4   53.64    1.62
  -6   2   4   47.23    2.02
   5  -2  -4   71.53    2.57
   5  -2  -4   75.75    2.30
  -5   2   4   68.07    2.62
  -5   2   4   72.70    2.46
   4  -2  -4  155.01    4.81
  -4   2   4  146.79    4.84
  -4   2   4  151.99    4.70
   3  -2  -4  500.12   14.58
  -3   2   4  499.94   14.52
  -3   2   4  486.54   14.62
   2  -2  -4  329.99    9.47
   2  -2  -4  305.23    9.25
  -2   2   4  333.65    9.48
  -2   2   4  309.64    9.38
  -2   2   4  321.97    9.52
   1  -2  -4  594.14   16.56
   1  -2  -4  565.77   16.45
   1  -2  -4  563.40   16.45
   1  -2  -4  533.43   16.43
  -1   2   4  603.13   16.46
  -1   2   4  565.70   16.50
   0  -2  -4   19.84    0.70
   0  -2  -4   21.06    0.74
   0  -2  -4   20.21    0.71
   0   2   4   20.33    0.71
   0   2   4   20.26    0.78
   0   2   4   20.34    0.71
   0   2   4   20.93    0.72
  -1  -2  -4  571.40   16.74
  -1  -2  -4  609.52   16.75
   1   2   4  553.77   16.73
   1   2   4  579.42   16.72
   1   2   4  582.81   16.74
  -2  -2  -4   36.38    1.23
  -2  -2  -4   35.94    1.22
   2   2   4   35.35    1.22
   2   2   4   36.35    1.22
  -3  -2  -4  198.15    5.92
  -3  -2  -4  196.98    5.88
   3   2   4  199.13    5.91
   3   2   4  194.11    5.87
  -4  -2  -4   12.43    0.58
  -4  -2  -4   12.05    0.55
   4   2   4   12.30    0.55
  -5  -2  -4    2.52    0.21
  -5  -2  -4    2.08    0.22
   5   2   4    2.12    0.23
   5   2   4    1.84    0.20
  -6  -2  -4    0.89    0.20
  -6  -2  -4    0.88    0.16
  -6  -2  -4    0.82    0.11
  -7  -2  -4    0.33    0.15
  -7  -2  -4    0.26    0.12
   7   2   4    0.24    0.18
  -8  -2  -4    0.35    0.14
  -8  -2  -4    0.53    0.20
  -8  -2  -4    0.43    0.17
   8   2   4    0.52    0.16
  -9  -2  -4    7.03    0.51
  -9  -2  -4    7.53    0.47
  -9  -2  -4    7.54    0.53
   9   2   4    8.00    0.57
   9   2   4    6.05    0.55
   9   2   4    6.93    0.46
 -10  -2  -4    0.01    0.17
 -10  -2  -4   -0.43    0.34
 -10  -2  -4    0.40    0.30
  10   2   4   -0.64    0.41
  10   2   4    0.12    0.30
  10   2   4   -0.04    0.36
   8  -3  -4    8.80    0.83
  -8   3   4    9.00    0.81
   7  -3  -4    0.23    0.37
  -7   3   4    0.74    0.23
   6  -3  -4   14.13    0.85
   6  -3  -4   16.49    0.60
  -6   3   4   14.57    0.90
   5  -3  -4   12.65    0.78
  -5   3   4   14.74    0.67
  -5   3   4   14.16    0.51
  -5   3   4   13.46    0.82
   4  -3  -4   27.67    1.19
  -4   3   4   26.81    0.91
  -4   3   4   26.24    1.22
  -4   3   4   28.27    1.08
   3  -3  -4    0.28    0.07
   3  -3  -4    0.22    0.09
  -3   3   4    0.28    0.10
  -3   3   4    0.22    0.10
  -3   3   4    0.17    0.11
   2  -3  -4    4.49    0.23
   2  -3  -4    4.75    0.32
   2  -3  -4    4.27    0.25
   2  -3  -4    4.62    0.24
  -2   3   4    5.29    0.30
  -2   3   4    4.50    0.33
  -2   3   4    4.76    0.24
  -2   3   4    4.65    0.28
   1  -3  -4    1.03    0.09
   1  -3  -4    0.96    0.10
   1  -3  -4    0.73    0.13
   1  -3  -4    1.19    0.11
  -1   3   4    0.99    0.13
  -1   3   4    0.96    0.10
  -1   3   4    1.30    0.14
  -1   3   4    0.94    0.10
   0  -3  -4  192.48    5.72
   0  -3  -4  194.97    5.79
   0  -3  -4  189.44    5.72
   0   3   4  189.64    5.71
   0   3   4  198.10    5.76
   0   3   4  196.36    5.73
  -1  -3  -4  104.69    3.20
  -1  -3  -4  106.52    3.23
  -1  -3  -4  105.07    3.20
   1   3   4  107.14    3.21
   1   3   4  103.49    3.21
   1   3   4  102.63    3.19
  -2  -3  -4  143.16    4.28
  -2  -3  -4  137.86    4.25
   2   3   4  142.20    4.27
   2   3   4  140.26    4.25
  -3  -3  -4  129.85    4.04
  -3  -3  -4  135.83    4.10
   3   3   4  131.48    4.04
   3   3   4  134.09    4.08
  -4  -3  -4   59.65    2.00
  -4  -3  -4   59.98    2.06
   4   3   4   61.16    2.00
   4   3   4   62.42    2.06
  -5  -3  -4  352.79   10.46
  -5  -3  -4  349.48   10.35
   5   3   4  356.06   10.45
   5   3   4  344.55   10.34
  -6  -3  -4    0.68    0.12
   6   3   4    0.78    0.15
   6   3   4    0.74    0.16
  -7  -3  -4  131.58    3.99
  -7  -3  -4  134.06    4.30
  -7  -3  -4  128.88    4.17
   7   3   4  128.55    4.17
   7   3   4  137.83    4.29
  -8  -3  -4   13.04    0.74
  -8  -3  -4   14.53    0.68
  -8  -3  -4   14.22    0.75
   8   3   4   14.84    0.74
   8   3   4   13.21    0.65
  -9  -3  -4    4.21    0.37
  -9  -3  -4    3.33    0.45
  -9  -3  -4    4.63    0.37
   9   3   4    3.98    0.47
 -10  -3  -4    3.38    0.54
 -10  -3  -4    4.73    0.47
 -10  -3  -4    3.93    0.40
  10   3   4    4.00    0.44
  10   3   4    5.14    0.60
   8  -4  -4    1.12    0.57
   7  -4  -4    0.36    0.44
  -7   4   4    0.10    0.23
   6  -4  -4   60.62    1.93
   6  -4  -4   60.52    2.39
  -6   4   4   57.71    2.43
  -6   4   4   61.89    1.92
   5  -4  -4    3.13    0.28
  -5   4   4    3.09    0.20
  -5   4   4    2.72    0.21
  -5   4   4    2.20    0.34
  -5   4   4    2.82    0.26
   4  -4  -4   35.38    1.25
   4  -4  -4   34.51    1.19
   4  -4  -4   33.32    1.47
  -4   4   4   34.37    1.19
  -4   4   4   35.85    1.30
  -4   4   4   35.40    1.17
   3  -4  -4    3.91    0.26
   3  -4  -4    2.76    0.34
   3  -4  -4    3.62    0.23
  -3   4   4    3.68    0.27
  -3   4   4    3.09    0.27
  -3   4   4    3.72    0.22
  -3   4   4    3.77    0.22
  -3   4   4    3.93    0.24
   2  -4  -4  344.21    9.77
   2  -4  -4  334.05    9.95
   2  -4  -4  322.47    9.70
   2  -4  -4  326.99    9.73
  -2   4   4  325.22    9.80
  -2   4   4  326.99    9.95
  -2   4   4  333.61    9.80
  -2   4   4  330.85    9.71
  -2   4   4  333.83    9.73
  -2   4   4  338.03    9.72
   1  -4  -4    0.56    0.10
   1  -4  -4    0.51    0.12
  -1   4   4    0.62    0.13
  -1   4   4    0.58    0.11
  -1   4   4    0.61    0.12
  -1   4   4    0.59    0.11
   0  -4  -4  545.63   16.07
   0  -4  -4  528.94   16.09
   0  -4  -4  560.49   16.10
   0  -4  -4  592.14   16.21
   0   4   4  543.02   16.08
   0   4   4  555.45   16.10
   0   4   4  553.71   16.14
  -1  -4  -4  180.24    5.28
  -1  -4  -4  173.97    5.28
  -1  -4  -4  179.06    5.34
  -1  -4  -4  170.40    5.26
   1   4   4  176.52    5.31
   1   4   4  174.72    5.27
   1   4   4  175.96    5.29
  -2  -4  -4  122.49    3.70
  -2  -4  -4  121.47    3.69
   2   4   4  121.32    3.73
   2   4   4  117.17    3.70
   2   4   4  117.02    3.67
  -3  -4  -4   26.02    0.98
  -3  -4  -4   25.29    0.99
   3   4   4   26.46    0.98
   3   4   4   25.91    1.01
  -4  -4  -4   56.10    1.90
  -4  -4  -4   58.42    1.98
   4   4   4   55.53    1.89
   4   4   4   57.41    1.96
  -5  -4  -4   28.35    1.04
  -5  -4  -4   27.01    1.05
  -5  -4  -4   26.98    1.12
   5   4   4   25.04    1.02
   5   4   4   27.57    1.12
  -6  -4  -4    1.87    0.27
  -6  -4  -4    2.63    0.22
  -6  -4  -4    2.69    0.23
   6   4   4    2.46    0.22
   6   4   4    2.33    0.29
  -7  -4  -4    0.43    0.11
   7   4   4    0.02    0.20
  -8  -4  -4    1.14    0.25
  -8  -4  -4    0.81    0.19
   8   4   4    1.00    0.23
   8   4   4    0.72    0.24
  -9  -4  -4    0.46    0.16
  -9  -4  -4    0.06    0.20
  -9  -4  -4    0.39    0.28
   9   4   4    0.32    0.19
   9   4   4    0.72    0.30
 -10  -4  -4    1.89    0.29
 -10  -4  -4    2.05    0.36
 -10  -4  -4    2.21    0.32
  10   4   4    3.31    0.63
 -11  -4  -4    0.41    0.37
 -11  -4  -4    0.27    0.47
 -11  -4  -4    0.69    0.19
  11   4   4    0.74    0.37
  11   4   4    0.50    0.53
   7  -5  -4    6.95    0.83
   7  -5  -4    7.82    0.40
  -7   5   4    7.48    0.64
  -7   5   4    8.22    0.41
   6  -5  -4   20.43    0.98
   6  -5  -4   21.61    0.81
   6  -5  -4   22.15    0.81
   6  -5  -4   20.45    1.15
  -6   5   4   18.27    0.96
  -6   5   4   22.41    0.82
  -6   5   4   20.30    1.17
  -6   5   4   22.22    0.80
   5  -5  -4   14.99    0.69
   5  -5  -4   14.54    0.89
   5  -5  -4   13.95    0.61
   5  -5  -4   13.74    0.62
  -5   5   4   14.10    0.88
  -5   5   4   14.77    0.65
  -5   5   4   14.61    0.62
   4  -5  -4   22.11    1.11
   4  -5  -4   23.33    0.93
   4  -5  -4   21.70    0.86
   4  -5  -4   21.94    0.89
  -4   5   4   21.76    0.86
  -4   5   4   22.42    0.89
  -4   5   4   22.39    1.13
  -4   5   4   23.12    0.91
  -4   5   4   22.35    0.84
  -4   5   4   21.77    1.00
   3  -5  -4   24.32    0.96
   3  -5  -4   23.70    1.13
   3  -5  -4   23.00    0.90
  -3   5   4   24.42    0.93
  -3   5   4   23.47    0.89
  -3   5   4   22.08    1.09
  -3   5   4   23.88    0.93
  -3   5   4   24.33    0.90
  -3   5   4   22.59    0.97
   2  -5  -4   62.33    2.10
   2  -5  -4   65.21    2.15
   2  -5  -4   65.02    2.13
   2  -5  -4   63.47    2.30
  -2   5   4   65.91    2.14
  -2   5   4   61.81    2.10
  -2   5   4   63.79    2.17
  -2   5   4   64.13    2.12
  -2   5   4   65.90    2.12
   1  -5  -4    0.51    0.10
   1  -5  -4    0.49    0.11
   1  -5  -4    0.36    0.09
   1  -5  -4    0.37    0.13
  -1   5   4    0.30    0.09
  -1   5   4    0.39    0.09
   0  -5  -4    0.71    0.12
   0  -5  -4    0.68    0.12
   0  -5  -4    1.02    0.16
   0  -5  -4    0.63    0.11
   0   5   4    0.79    0.14
   0   5   4    0.59    0.12
  -1  -5  -4    0.18    0.08
  -1  -5  -4    0.42    0.09
  -1  -5  -4    0.28    0.07
   1   5   4    0.24    0.09
   1   5   4    0.37    0.11
  -2  -5  -4  209.66    6.28
  -2  -5  -4  207.58    6.30
  -2  -5  -4  207.95    6.28
   2   5   4  214.53    6.35
   2   5   4  206.37    6.30
   2   5   4  206.56    6.27
  -3  -5  -4    2.79    0.24
  -3  -5  -4    3.19    0.24
   3   5   4    2.50    0.26
   3   5   4    3.64    0.24
   3   5   4    3.31    0.25
  -4  -5  -4  306.05    8.98
  -4  -5  -4  289.78    8.89
   4   5   4  288.81    8.88
   4   5   4  313.03    8.99
  -5  -5  -4   27.46    1.08
  -5  -5  -4   26.43    1.05
  -5  -5  -4   26.44    1.11
   5   5   4   26.34    1.04
   5   5   4   27.94    1.13
  -6  -5  -4   58.60    2.12
  -6  -5  -4   60.15    2.01
  -6  -5  -4   57.62    2.00
   6   5   4   55.70    1.98
   6   5   4   59.75    2.12
  -7  -5  -4   80.18    2.64
  -7  -5  -4   77.28    2.79
  -7  -5  -4   79.88    2.60
   7   5   4   80.84    2.79
   7   5   4   77.65    2.62
  -8  -5  -4   12.90    0.74
  -8  -5  -4   13.16    0.60
  -8  -5  -4   13.98    0.67
   8   5   4   13.30    0.64
   8   5   4   14.90    0.79
  -9  -5  -4    6.56    0.43
  -9  -5  -4    6.74    0.51
  -9  -5  -4    6.26    0.36
  -9  -5  -4    6.65    0.56
   9   5   4    6.43    0.61
   9   5   4    6.04    0.42
 -10  -5  -4    0.24    0.17
 -10  -5  -4    0.64    0.57
  10   5   4    0.60    0.42
  10   5   4    0.28    0.25
 -11  -5  -4    2.15    0.33
 -11  -5  -4    1.57    0.37
 -11  -5  -4    1.97    0.52
   7  -6  -4   12.39    1.05
   7  -6  -4   15.07    0.77
   7  -6  -4   15.41    0.65
  -7   6   4   14.72    0.95
  -7   6   4   13.91    0.62
  -7   6   4   14.03    0.64
   6  -6  -4    6.92    0.39
   6  -6  -4    5.20    0.74
   6  -6  -4    6.63    0.40
   6  -6  -4    5.93    0.52
  -6   6   4    5.95    0.57
  -6   6   4    6.82    0.42
  -6   6   4    5.54    0.44
   5  -6  -4   61.60    2.21
   5  -6  -4   60.64    2.52
   5  -6  -4   62.79    2.12
   5  -6  -4   61.51    2.12
  -5   6   4   65.45    2.14
  -5   6   4   65.43    2.09
  -5   6   4   65.47    2.12
  -5   6   4   64.42    2.17
  -5   6   4   60.67    2.53
   4  -6  -4  111.55    3.99
   4  -6  -4  111.66    3.62
   4  -6  -4  112.99    3.58
   4  -6  -4  114.50    3.68
  -4   6   4  114.79    3.57
  -4   6   4  119.19    3.57
  -4   6   4  107.79    3.70
  -4   6   4  114.18    3.60
  -4   6   4  109.47    3.94
  -4   6   4  115.58    3.64
   3  -6  -4   59.22    2.29
   3  -6  -4   59.69    2.09
   3  -6  -4   58.68    2.07
   3  -6  -4   57.69    2.02
  -3   6   4   57.74    2.09
  -3   6   4   60.61    2.01
  -3   6   4   59.94    2.05
  -3   6   4   60.67    2.03
  -3   6   4   60.69    2.01
   2  -6  -4  320.80    9.68
   2  -6  -4  316.62    9.43
   2  -6  -4  323.49    9.48
   2  -6  -4  320.64    9.50
   2  -6  -4  286.28    9.48
  -2   6   4  321.03    9.41
  -2   6   4  321.73    9.45
  -2   6   4  315.15    9.48
  -2   6   4  315.81    9.41
  -2   6   4  320.45    9.38
   1  -6  -4   15.73    0.71
   1  -6  -4   14.91    0.78
   1  -6  -4   14.87    0.68
   1  -6  -4   15.20    0.68
  -1   6   4   16.06    0.70
  -1   6   4   14.75    0.72
  -1   6   4   15.77    0.69
  -1   6   4   15.84    0.68
   0  -6  -4  430.55   12.57
   0  -6  -4  435.22   12.69
   0  -6  -4  417.67   12.51
   0  -6  -4  427.53   12.56
   0   6   4  431.72   12.55
   0   6   4  419.33   12.53
   0   6   4  430.00   12.60
   0   6   4  412.99   12.50
  -1  -6  -4    1.06    0.17
  -1  -6  -4    0.74    0.15
  -1  -6  -4    0.81    0.15
  -1  -6  -4    0.69    0.11
   1   6   4    0.93    0.17
   1   6   4    0.87    0.18
   1   6   4    0.69    0.16
  -2  -6  -4  349.11   10.42
  -2  -6  -4  345.19   10.42
  -2  -6  -4  351.15   10.45
   2   6   4  354.15   10.50
   2   6   4  353.99   10.41
   2   6   4  356.62   10.46
  -3  -6  -4   33.13    1.35
  -3  -6  -4   35.62    1.30
  -3  -6  -4   34.98    1.31
  -3  -6  -4   33.90    1.32
   3   6   4   35.41    1.30
   3   6   4   34.02    1.32
   3   6   4   34.07    1.36
  -4  -6  -4   95.43    3.16
  -4  -6  -4   96.86    3.18
  -4  -6  -4   96.94    3.19
  -4  -6  -4   93.32    3.11
   4   6   4   94.48    3.10
   4   6   4  101.60    3.20
  -5  -6  -4   18.57    0.84
  -5  -6  -4   17.58    0.78
  -5  -6  -4   17.21    0.82
   5   6   4   17.67    0.78
   5   6   4   17.28    0.83
  -6  -6  -4    1.40    0.27
  -6  -6  -4    1.08    0.18
  -6  -6  -4    1.33    0.19
   6   6   4    0.80    0.18
   6   6   4    0.99    0.19
  -7  -6  -4   24.18    0.99
  -7  -6  -4   22.45    0.96
   7   6   4   22.62    0.95
   7   6   4   22.86    1.08
  -8  -6  -4   -0.03    0.16
  -8  -6  -4   -0.03    0.16
   8   6   4   -0.16    0.27
   8   6   4    0.26    0.16
  -9  -6  -4    0.26    0.32
  -9  -6  -4    0.25    0.18
  -9  -6  -4    0.44    0.19
  -9  -6  -4    0.63    0.21
   9   6   4    0.35    0.21
   9   6   4    0.59    0.36
 -10  -6  -4    5.97    0.49
 -10  -6  -4    6.72    0.71
 -10  -6  -4    6.99    0.52
 -10  -6  -4    5.30    0.38
  10   6   4    5.90    0.46
  10   6   4    5.98    0.74
 -11  -6  -4   -0.02    0.19
 -11  -6  -4    0.04    0.54
 -11  -6  -4   -0.15    0.37
  11   6   4    0.20    0.35
   6  -7  -4    0.10    0.24
   6  -7  -4    0.37    0.37
   6  -7  -4    0.08    0.58
  -6   7   4    0.29    0.30
  -6   7   4   -0.27    0.28
  -6   7   4   -0.14    0.29
   5  -7  -4   13.37    0.96
   5  -7  -4   14.02    0.74
   5  -7  -4   14.27    0.67
   5  -7  -4   14.35    0.67
  -5   7   4   13.82    0.61
  -5   7   4   13.76    0.67
  -5   7   4   14.92    0.71
   4  -7  -4    7.05    0.65
   4  -7  -4    8.09    0.51
   4  -7  -4    7.42    0.46
   4  -7  -4    7.58    0.45
  -4   7   4    7.17    0.47
  -4   7   4    7.76    0.46
  -4   7   4    7.27    0.41
  -4   7   4    7.87    0.43
   3  -7  -4   15.40    0.76
   3  -7  -4   16.39    0.73
   3  -7  -4   15.83    0.76
  -3   7   4   15.38    0.81
  -3   7   4   15.74    0.68
  -3   7   4   15.17    0.77
  -3   7   4   16.26    0.73
  -3   7   4   16.49    0.75
   2  -7  -4    0.46    0.15
   2  -7  -4    0.04    0.17
   2  -7  -4    0.32    0.13
   2  -7  -4    0.37    0.22
   2  -7  -4    0.37    0.14
  -2   7   4    0.18    0.17
  -2   7   4    0.17    0.14
  -2   7   4    0.39    0.15
  -2   7   4    0.32    0.13
   1  -7  -4    0.19    0.18
   1  -7  -4    0.13    0.14
   1  -7  -4    0.08    0.15
   1  -7  -4    0.07    0.13
   1  -7  -4    0.19    0.13
  -1   7   4    0.28    0.13
  -1   7   4   -0.12    0.14
  -1   7   4    0.11    0.13
  -1   7   4    0.35    0.13
   0  -7  -4    1.47    0.20
   0  -7  -4    1.21    0.23
   0  -7  -4    1.64    0.22
   0  -7  -4    1.61    0.21
   0  -7  -4    1.39    0.21
   0   7   4    1.47    0.21
   0   7   4    1.37    0.21
   0   7   4    1.20    0.20
  -1  -7  -4   21.60    0.95
  -1  -7  -4   22.89    0.97
  -1  -7  -4   22.52    1.02
  -1  -7  -4   22.10    1.03
  -1  -7  -4   22.45    0.95
   1   7   4   21.96    0.96
   1   7   4   22.28    0.94
   1   7   4   23.17    0.99
  -2  -7  -4   68.40    2.34
  -2  -7  -4   67.53    2.32
  -2  -7  -4   67.31    2.35
  -2  -7  -4   66.50    2.43
   2   7   4   68.32    2.35
   2   7   4   68.12    2.39
   2   7   4   70.95    2.34
  -3  -7  -4   18.77    0.85
  -3  -7  -4   18.39    0.83
  -3  -7  -4   19.07    0.85
   3   7   4   18.43    0.85
   3   7   4   17.42    0.80
   3   7   4   18.30    0.89
  -4  -7  -4  218.29    6.67
  -4  -7  -4  217.58    6.78
  -4  -7  -4  224.11    6.73
  -4  -7  -4  216.90    6.75
   4   7   4  218.16    6.75
   4   7   4  211.85    6.65
   4   7   4  222.39    6.82
  -5  -7  -4    0.99    0.21
  -5  -7  -4    0.71    0.16
  -5  -7  -4    0.60    0.13
   5   7   4    0.67    0.12
   5   7   4    0.60    0.15
  -6  -7  -4  141.90    4.51
  -6  -7  -4  142.46    4.57
  -6  -7  -4  136.18    4.57
  -6  -7  -4  136.79    4.43
   6   7   4  137.54    4.42
   6   7   4  145.17    4.60
  -7  -7  -4   10.43    0.59
  -7  -7  -4   10.93    0.57
   7   7   4   11.04    0.74
   7   7   4   10.76    0.65
  -8  -7  -4   25.10    1.09
  -8  -7  -4   27.41    1.10
  -8  -7  -4   26.75    1.20
   8   7   4   28.14    1.25
   8   7   4   25.34    1.06
  -9  -7  -4    7.95    0.50
  -9  -7  -4    8.06    0.50
  -9  -7  -4    7.69    0.66
  -9  -7  -4    8.34    0.65
   9   7   4    6.69    0.48
   9   7   4    8.92    0.69
 -10  -7  -4    4.56    0.42
 -10  -7  -4    4.18    0.44
 -10  -7  -4    4.17    0.65
 -10  -7  -4    4.92    0.40
 -10  -7  -4    3.72    0.73
  10   7   4    3.85    0.43
  10   7   4    4.82    0.74
   6  -8  -4    1.70    0.32
   6  -8  -4    1.48    0.68
   6  -8  -4    1.55    0.47
  -6   8   4    2.19    0.37
   5  -8  -4   31.63    1.34
   5  -8  -4   32.46    1.24
   5  -8  -4   28.95    1.57
   5  -8  -4   32.59    1.24
  -5   8   4   30.70    1.22
  -5   8   4   30.67    1.23
  -5   8   4   30.37    1.10
  -5   8   4   31.94    1.28
   4  -8  -4    9.39    0.80
   4  -8  -4    8.92    0.62
   4  -8  -4   10.17    0.56
   4  -8  -4    9.45    0.56
  -4   8   4    9.68    0.61
  -4   8   4    8.99    0.47
  -4   8   4    8.39    0.59
  -4   8   4    9.44    0.55
  -4   8   4    9.94    0.61
   3  -8  -4   65.77    2.37
   3  -8  -4   65.90    2.62
   3  -8  -4   65.77    2.41
   3  -8  -4   67.69    2.34
  -3   8   4   67.18    2.21
  -3   8   4   69.61    2.39
  -3   8   4   68.06    2.34
  -3   8   4   66.42    2.33
   2  -8  -4   38.58    1.80
   2  -8  -4   42.37    1.61
   2  -8  -4   42.54    1.65
  -2   8   4   42.64    1.49
  -2   8   4   41.72    1.58
  -2   8   4   41.56    1.63
  -2   8   4   41.88    1.59
  -2   8   4   44.47    1.64
   1  -8  -4  149.20    4.80
   1  -8  -4  149.54    4.76
   1  -8  -4  149.98    4.99
   1  -8  -4  150.64    4.88
   1  -8  -4  154.04    4.84
  -1   8   4  149.50    4.82
  -1   8   4  151.42    4.78
  -1   8   4  148.94    4.76
  -1   8   4  151.53    4.81
   0  -8  -4   95.78    3.33
   0  -8  -4   91.67    3.26
   0  -8  -4   96.85    3.19
   0  -8  -4   95.46    3.20
   0  -8  -4   94.27    3.14
   0   8   4   96.18    3.18
   0   8   4   94.04    3.20
   0   8   4   94.59    3.14
   0   8   4   94.70    3.17
  -1  -8  -4   70.18    2.52
  -1  -8  -4   68.46    2.40
  -1  -8  -4   68.80    2.41
  -1  -8  -4   68.77    2.37
  -1  -8  -4   64.80    2.47
   1   8   4   67.90    2.39
   1   8   4   68.53    2.42
   1   8   4   67.48    2.37
  -2  -8  -4  116.09    3.79
  -2  -8  -4  116.21    3.82
  -2  -8  -4  117.51    3.81
  -2  -8  -4  115.41    3.93
   2   8   4  118.45    3.84
   2   8   4  116.72    3.79
   2   8   4  117.84    3.87
  -3  -8  -4    7.91    0.49
  -3  -8  -4    6.36    0.44
  -3  -8  -4    5.59    0.45
   3   8   4    5.93    0.40
   3   8   4    6.37    0.44
   3   8   4    6.56    0.48
  -4  -8  -4   55.13    2.08
  -4  -8  -4   52.82    2.02
  -4  -8  -4   54.27    1.97
  -4  -8  -4   55.07    2.01
   4   8   4   56.19    2.05
   4   8   4   54.76    1.97
   4   8   4   54.95    2.10
  -5  -8  -4    5.02    0.43
  -5  -8  -4    5.74    0.41
  -5  -8  -4    5.54    0.42
  -5  -8  -4    6.24    0.44
   5   8   4    5.03    0.37
   5   8   4    6.01    0.44
   5   8   4    5.55    0.46
  -6  -8  -4    4.65    0.41
  -6  -8  -4    5.15    0.41
  -6  -8  -4    4.91    0.37
   6   8   4    4.83    0.36
   6   8   4    4.73    0.44
  -7  -8  -4    1.39    0.26
  -7  -8  -4    0.96    0.22
  -7  -8  -4    0.91    0.17
   7   8   4    0.56    0.26
   7   8   4    0.65    0.17
  -8  -8  -4    0.34    0.47
  -8  -8  -4    0.08    0.20
  -8  -8  -4    0.12    0.21
   8   8   4    0.04    0.19
   8   8   4    0.45    0.31
  -9  -8  -4    5.58    0.46
  -9  -8  -4    5.24    0.73
  -9  -8  -4    6.97    0.62
  -9  -8  -4    6.41    0.46
   9   8   4    5.72    0.68
   9   8   4    5.10    0.44
 -10  -8  -4    0.21    0.27
 -10  -8  -4   -0.04    0.49
 -10  -8  -4    0.42    0.47
 -10  -8  -4    0.66    0.30
 -10  -8  -4   -0.06    0.20
  10   8   4    0.23    0.52
  10   8   4    0.55    0.30
   5  -9  -4   13.25    0.88
   5  -9  -4   15.24    0.78
   5  -9  -4   13.18    1.06
   5  -9  -4   14.49    0.79
  -5   9   4   13.26    0.87
  -5   9   4   15.41    0.83
  -5   9   4   14.16    0.72
   4  -9  -4    9.78    0.71
   4  -9  -4   10.03    0.62
   4  -9  -4   10.85    0.62
   4  -9  -4   10.00    0.88
  -4   9   4   10.30    0.58
  -4   9   4    9.55    0.48
  -4   9   4    8.68    0.59
  -4   9   4    9.75    0.66
  -4   9   4    9.71    0.66
   3  -9  -4   19.32    1.11
   3  -9  -4   20.36    0.90
   3  -9  -4   17.55    0.92
   3  -9  -4   18.63    0.91
  -3   9   4   18.00    0.75
  -3   9   4   18.20    0.92
  -3   9   4   18.68    0.86
  -3   9   4   20.25    0.93
   2  -9  -4    5.90    0.58
   2  -9  -4    6.37    0.50
   2  -9  -4    5.83    0.47
   2  -9  -4    5.76    0.52
  -2   9   4    6.27    0.37
  -2   9   4    5.97    0.44
  -2   9   4    6.68    0.50
   1  -9  -4   25.75    1.24
   1  -9  -4   25.31    1.16
   1  -9  -4   24.07    1.11
   1  -9  -4   24.90    1.11
   1  -9  -4   25.00    1.09
  -1   9   4   24.80    1.09
  -1   9   4   25.01    1.12
  -1   9   4   25.47    1.11
  -1   9   4   23.61    1.07
   0  -9  -4    1.70    0.27
   0  -9  -4    1.26    0.19
   0  -9  -4    1.93    0.31
   0  -9  -4    1.94    0.36
   0  -9  -4    1.71    0.30
   0   9   4    1.69    0.29
   0   9   4    1.53    0.27
   0   9   4    1.43    0.32
  -1  -9  -4    1.54    0.26
  -1  -9  -4    1.62    0.29
  -1  -9  -4    1.11    0.19
  -1  -9  -4    1.71    0.26
  -1  -9  -4    1.32    0.24
   1   9   4    1.29    0.27
   1   9   4    1.34    0.29
   1   9   4    1.14    0.25
   1   9   4    1.35    0.22
  -2  -9  -4   13.53    0.82
  -2  -9  -4   14.21    0.74
  -2  -9  -4   15.57    0.78
  -2  -9  -4   14.60    0.75
   2   9   4   15.10    0.79
   2   9   4   14.58    0.74
   2   9   4   15.38    0.78
  -3  -9  -4   28.07    1.22
  -3  -9  -4   28.99    1.24
  -3  -9  -4   27.61    1.31
  -3  -9  -4   28.66    1.22
   3   9   4   28.51    1.27
   3   9   4   29.00    1.21
   3   9   4   29.71    1.25
  -4  -9  -4    9.54    0.59
  -4  -9  -4   11.21    0.69
  -4  -9  -4    9.98    0.62
  -4  -9  -4   11.17    0.60
   4   9   4   10.49    0.59
   4   9   4   11.02    0.63
   4   9   4   10.15    0.66
  -5  -9  -4   91.88    3.14
  -5  -9  -4   91.87    3.20
  -5  -9  -4   87.01    3.16
  -5  -9  -4   90.16    3.06
   5   9   4   87.85    3.04
   5   9   4   91.20    3.17
  -6  -9  -4   17.91    0.95
  -6  -9  -4   19.10    0.88
  -6  -9  -4   18.61    0.97
  -6  -9  -4   19.91    0.96
   6   9   4   19.93    1.22
   6   9   4   19.63    0.98
   6   9   4   18.96    0.87
  -7  -9  -4   30.77    1.37
  -7  -9  -4   30.48    1.26
   7   9   4   31.14    1.26
   7   9   4   32.43    1.41
  -8  -9  -4   35.53    1.57
  -8  -9  -4   37.65    1.58
  -8  -9  -4   37.71    1.44
   8   9   4   36.75    1.43
   8   9   4   36.50    1.60
  -9  -9  -4    1.51    0.28
  -9  -9  -4    2.96    0.65
  -9  -9  -4    1.90    0.42
   9   9   4    1.88    0.41
   9   9   4    1.60    0.42
 -10  -9  -4    0.47    0.55
 -10  -9  -4    0.04    0.37
  10   9   4    0.29    0.34
   4 -10  -4    7.15    0.61
   4 -10  -4    8.68    0.62
   4 -10  -4    8.38    0.92
   4 -10  -4    6.51    0.73
  -4  10   4    7.04    0.55
  -4  10   4    6.38    0.63
  -4  10   4    7.25    0.69
   3 -10  -4   73.42    2.63
   3 -10  -4   71.39    2.91
   3 -10  -4   70.68    2.67
   3 -10  -4   76.21    2.62
  -3  10   4   76.40    2.66
  -3  10   4   71.94    2.56
  -3  10   4   71.33    2.63
  -3  10   4   72.38    2.59
  -3  10   4   73.02    2.36
   2 -10  -4    4.48    0.47
   2 -10  -4    5.51    0.63
   2 -10  -4    3.89    0.53
   2 -10  -4    3.92    0.47
  -2  10   4    4.64    0.33
  -2  10   4    4.55    0.48
  -2  10   4    4.57    0.42
  -2  10   4    4.13    0.44
  -2  10   4    4.45    0.50
   1 -10  -4  145.10    4.94
   1 -10  -4  147.83    5.10
   1 -10  -4  147.64    4.91
   1 -10  -4  146.74    4.82
   1 -10  -4  150.60    4.89
  -1  10   4  158.84    4.92
  -1  10   4  145.74    4.82
   0 -10  -4    3.43    0.35
   0 -10  -4    2.80    0.37
   0 -10  -4    3.05    0.45
   0 -10  -4    3.07    0.40
   0 -10  -4    2.54    0.41
   0  10   4    2.31    0.37
   0  10   4    2.48    0.46
   0  10   4    2.85    0.33
  -1 -10  -4  226.95    6.90
  -1 -10  -4  206.89    6.97
  -1 -10  -4  218.92    6.81
  -1 -10  -4  224.23    7.10
  -1 -10  -4  210.63    6.85
   1  10   4  214.97    6.88
   1  10   4  219.04    6.83
   1  10   4  219.78    6.80
  -2 -10  -4   77.29    2.73
  -2 -10  -4   75.71    2.88
  -2 -10  -4   76.68    2.76
   2  10   4   79.37    2.73
   2  10   4   75.99    2.79
   2  10   4   76.82    2.76
  -3 -10  -4   45.61    1.76
  -3 -10  -4   45.05    1.77
  -3 -10  -4   44.37    1.80
   3  10   4   45.33    1.74
   3  10   4   45.47    1.84
  -4 -10  -4   25.97    1.16
  -4 -10  -4   27.32    1.30
  -4 -10  -4   26.58    1.20
  -4 -10  -4   24.80    1.25
   4  10   4   26.92    1.27
   4  10   4   26.97    1.29
   4  10   4   27.55    1.16
  -5 -10  -4   15.04    0.76
  -5 -10  -4   13.77    0.83
  -5 -10  -4   14.65    0.80
  -5 -10  -4   14.46    0.80
   5  10   4   15.04    0.82
   5  10   4   12.95    0.74
  -6 -10  -4    3.09    0.43
  -6 -10  -4    3.10    0.47
  -6 -10  -4    3.97    0.38
  -6 -10  -4    3.36    0.44
   6  10   4    3.27    0.37
   6  10   4    3.17    0.47
  -7 -10  -4    1.47    0.23
  -7 -10  -4    1.68    0.37
   7  10   4    1.61    0.45
   7  10   4    1.48    0.25
  -8 -10  -4   11.67    0.65
  -8 -10  -4   11.59    0.80
  -8 -10  -4   12.56    0.84
   8  10   4   10.08    0.97
   8  10   4   12.17    0.66
  -9 -10  -4    2.46    0.47
  -9 -10  -4    3.06    0.69
  -9 -10  -4    2.65    0.47
   9  10   4    2.85    0.53
   9  10   4    3.02    0.48
 -10 -10  -4    0.44    0.59
 -10 -10  -4    0.14    0.64
 -10 -10  -4    0.14    0.39
  10  10   4   -0.04    0.35
  10  10   4    0.70    0.62
   3 -11  -4    1.75    0.46
   3 -11  -4    3.14    0.66
  -3  11   4    1.80    0.26
  -3  11   4    2.02    0.37
  -3  11   4    2.96    0.66
  -3  11   4    1.70    0.47
  -3  11   4    1.35    0.41
   2 -11  -4    4.48    0.55
   2 -11  -4    2.84    0.63
   2 -11  -4    3.12    0.47
  -2  11   4    3.77    0.59
  -2  11   4    3.24    0.65
  -2  11   4    3.88    0.54
  -2  11   4    3.25    0.33
  -2  11   4    3.46    0.45
   1 -11  -4    3.22    0.51
   1 -11  -4    3.01    0.48
   1 -11  -4    3.01    0.47
   1 -11  -4    2.42    0.53
  -1  11   4    2.33    0.50
  -1  11   4    2.57    0.43
  -1  11   4    2.31    0.32
   0 -11  -4    0.11    0.26
   0 -11  -4    0.25    0.38
   0 -11  -4    0.11    0.28
   0 -11  -4    0.34    0.29
   0  11   4    0.32    0.29
   0  11   4    0.12    0.28
   0  11   4    0.09    0.29
  -1 -11  -4    2.60    0.47
  -1 -11  -4    2.05    0.43
  -1 -11  -4    2.34    0.39
  -1 -11  -4    2.14    0.30
  -1 -11  -4    2.32    0.46
   1  11   4    1.96    0.42
  -2 -11  -4    8.33    0.58
  -2 -11  -4    9.63    0.63
  -2 -11  -4    7.50    0.63
  -2 -11  -4    9.21    0.59
   2  11   4    9.75    0.63
   2  11   4    9.33    0.59
  -3 -11  -4   21.67    1.09
  -3 -11  -4   21.25    1.01
  -3 -11  -4   20.59    1.03
   3  11   4   21.96    1.06
   3  11   4   22.17    1.04
  -4 -11  -4    1.69    0.40
  -4 -11  -4    2.10    0.31
  -4 -11  -4    1.77    0.24
   4  11   4    1.75    0.37
   4  11   4    1.76    0.40
  -5 -11  -4   65.86    2.58
  -5 -11  -4   66.01    2.40
  -5 -11  -4   64.10    2.48
   5  11   4   66.40    2.51
   5  11   4   66.79    2.40
  -6 -11  -4    0.24    0.26
  -6 -11  -4    0.68    0.33
  -6 -11  -4    0.32    0.40
  -6 -11  -4    0.16    0.31
   6  11   4    0.06    0.31
   6  11   4    0.10    0.26
  -7 -11  -4   35.34    1.44
  -7 -11  -4   35.81    1.60
  -7 -11  -4   36.12    1.58
  -7 -11  -4   36.26    1.60
   7  11   4   33.14    1.66
   7  11   4   34.78    1.42
   7  11   4   38.61    1.63
  -8 -11  -4    6.04    0.54
  -8 -11  -4    7.62    0.59
  -8 -11  -4    5.21    0.77
  -8 -11  -4    6.04    0.71
   8  11   4    6.69    0.80
   8  11   4    7.28    0.56
   8  11   4    7.93    0.79
  -9 -11  -4    6.73    0.92
  -9 -11  -4    7.28    0.66
  -9 -11  -4    6.86    0.61
  -9 -11  -4    7.33    0.87
   9  11   4    6.59    0.61
   9  11   4    8.14    0.91
   2 -12  -4   10.02    0.76
   2 -12  -4    8.26    0.82
  -2  12   4    9.04    0.66
  -2  12   4   10.00    0.83
  -2  12   4    8.02    0.72
  -2  12   4    8.76    0.72
  -2  12   4    9.32    0.50
   1 -12  -4   29.43    1.35
   1 -12  -4   28.27    1.49
   1 -12  -4   23.85    1.70
   1 -12  -4   29.77    1.37
  -1  12   4   27.72    1.44
  -1  12   4   28.21    1.28
  -1  12   4   29.57    1.11
  -1  12   4   29.70    1.30
  -1  12   4   28.84    1.30
   0 -12  -4   15.08    0.86
   0 -12  -4   14.93    0.90
   0 -12  -4   14.12    0.85
   0 -12  -4   15.35    0.83
   0 -12  -4   13.85    0.95
   0  12   4   13.53    0.84
   0  12   4   13.87    0.81
   0  12   4   13.82    0.80
   0  12   4   13.60    0.82
  -1 -12  -4   47.42    2.13
  -1 -12  -4   49.09    2.10
  -1 -12  -4   52.94    2.02
  -1 -12  -4   52.32    1.98
  -1 -12  -4   48.33    1.97
   1  12   4   50.20    1.97
   1  12   4   47.93    1.98
   1  12   4   51.13    1.93
   1  12   4   41.18    2.27
  -2 -12  -4   11.42    0.72
  -2 -12  -4   11.30    0.70
  -2 -12  -4    9.20    0.73
  -2 -12  -4   10.27    0.70
   2  12   4   10.02    0.67
   2  12   4   11.76    0.75
   2  12   4   10.72    0.70
  -3 -12  -4   31.81    1.59
  -3 -12  -4   35.33    1.48
  -3 -12  -4   33.71    1.43
  -3 -12  -4   33.10    1.49
   3  12   4   32.87    1.42
   3  12   4   34.92    1.50
  -4 -12  -4    0.61    0.31
  -4 -12  -4    0.04    0.30
  -4 -12  -4    1.16    0.37
   4  12   4    1.03    0.30
  -5 -12  -4   12.72    0.74
  -5 -12  -4   13.09    0.79
  -5 -12  -4   13.74    0.80
  -5 -12  -4   13.56    0.88
   5  12   4   13.23    1.00
   5  12   4   13.32    0.87
   5  12   4   11.73    0.73
  -6 -12  -4    0.96    0.29
  -6 -12  -4    1.51    0.44
   6  12   4    2.07    0.42
   6  12   4    2.18    0.48
   6  12   4    1.31    0.31
  -7 -12  -4    0.24    0.29
  -7 -12  -4    0.92    0.44
  -7 -12  -4    0.02    0.49
  -7 -12  -4   -0.09    0.38
   7  12   4    0.78    0.49
   7  12   4    0.52    0.35
   7  12   4   -0.17    0.42
  -8 -12  -4    0.08    0.59
  -8 -12  -4   -0.01    0.35
  -8 -12  -4    0.40    0.43
  -8 -12  -4    0.44    0.53
   8  12   4   -0.46    0.57
   8  12   4    0.13    0.39
   8  12   4   -0.34    0.61
  -9 -12  -4    0.66    0.68
  -9 -12  -4    0.19    0.38
  -9 -12  -4   -0.44    0.48
   9  12   4    0.23    0.43
   9  12   4    0.49    0.70
   1 -13  -4    0.09    0.49
   1 -13  -4    0.42    0.47
   1 -13  -4    0.47    0.49
   1 -13  -4    0.11    0.71
  -1  13   4    0.35    0.27
  -1  13   4    0.22    0.50
  -1  13   4   -0.47    0.47
  -1  13   4    0.60    0.51
  -1  13   4    1.01    0.61
   0 -13  -4    8.87    0.83
   0 -13  -4    8.10    0.88
   0 -13  -4   10.62    0.77
   0 -13  -4   12.09    0.91
   0 -13  -4   11.31    0.83
   0  13   4    9.26    0.73
   0  13   4   10.44    0.78
   0  13   4   10.30    0.73
  -1 -13  -4   -0.63    0.38
  -1 -13  -4   -0.06    0.39
  -1 -13  -4   -0.28    0.47
  -1 -13  -4    0.30    0.55
   1  13   4   -0.34    0.41
   1  13   4    0.00    0.40
   1  13   4   -0.10    0.39
  -2 -13  -4   -0.32    0.46
  -2 -13  -4    0.17    0.34
  -2 -13  -4    0.21    0.39
  -2 -13  -4    0.06    0.37
   2  13   4    0.48    0.40
   2  13   4    0.25    0.44
   2  13   4   -0.05    0.37
  -3 -13  -4    1.07    0.40
  -3 -13  -4    0.66    0.43
  -3 -13  -4    0.87    0.33
  -3 -13  -4    0.08    0.38
   3  13   4    0.32    0.38
   3  13   4    0.82    0.43
  -4 -13  -4    7.32    0.70
  -4 -13  -4    7.95    0.71
  -4 -13  -4    8.25    0.68
  -4 -13  -4    5.84    0.62
   4  13   4    6.19    0.62
   4  13   4    6.79    0.71
   4  13   4    7.99    0.68
  -5 -13  -4    1.34    0.38
  -5 -13  -4    1.76    0.42
   5  13   4    1.17    0.34
   5  13   4    2.18    0.45
   5  13   4    1.81    0.48
  -6 -13  -4    7.21    0.78
  -6 -13  -4    7.75    0.69
  -6 -13  -4    9.35    0.76
  -6 -13  -4    7.95    0.75
   6  13   4   10.55    0.82
   6  13   4    9.75    0.78
   6  13   4    8.28    0.66
  -7 -13  -4    4.91    0.76
  -7 -13  -4    5.31    0.62
  -7 -13  -4    3.83    0.79
  -7 -13  -4    5.65    0.76
   7  13   4    4.41    0.80
   7  13   4    4.79    0.63
   7  13   4    5.74    0.80
  -8 -13  -4    3.18    0.62
  -8 -13  -4    2.27    0.85
  -8 -13  -4    2.72    0.44
  -8 -13  -4    3.01    0.52
   8  13   4    2.62    0.60
   8  13   4    1.83    0.43
  -1 -14  -4    4.08    0.59
  -1 -14  -4    2.70    0.49
  -1 -14  -4    4.23    0.90
  -1 -14  -4    3.60    0.82
   1  14   4    3.40    0.69
   1  14   4    2.69    0.50
   1  14   4    3.18    0.62
  -2 -14  -4   30.78    1.43
  -2 -14  -4   25.65    1.43
  -2 -14  -4   27.41    1.36
   2  14   4   27.84    1.35
   2  14   4   28.87    1.36
   2  14   4   28.11    1.36
  -3 -14  -4   13.52    0.98
  -3 -14  -4   15.57    0.93
  -3 -14  -4   12.35    1.03
  -3 -14  -4   14.78    0.89
   3  14   4   13.42    0.99
   3  14   4   12.99    0.90
   3  14   4   12.10    0.89
  -4 -14  -4    4.32    0.70
  -4 -14  -4    4.86    0.84
  -4 -14  -4    6.02    0.78
   4  14   4    5.84    0.79
   4  14   4    4.63    0.82
   4  14   4    4.53    0.71
  -5 -14  -4    4.35    0.82
  -5 -14  -4    3.92    0.77
  -5 -14  -4    2.78    0.57
  -5 -14  -4    3.00    0.45
   5  14   4    2.27    0.48
   5  14   4    3.01    0.61
  -6 -14  -4    0.88    0.57
  -6 -14  -4    0.87    0.51
  -6 -14  -4    0.69    0.58
  -6 -14  -4    0.91    0.46
   6  14   4    0.82    0.60
   6  14   4    0.35    0.44
   6  14   4    0.30    0.67
  -7 -14  -4    7.85    0.94
  -7 -14  -4    5.58    0.76
  -7 -14  -4    7.60    0.95
   7  14   4    5.51    0.77
   7  14   4    6.94    1.03
   3  13  -5    5.78    0.94
   3  13  -5    4.33    0.85
   3  13  -5    3.19    0.71
   3  13  -5    5.43    0.81
   3  13  -5    3.96    0.78
  -3 -13   5    4.16    0.62
   2  13  -5    0.61    0.47
   2  13  -5    0.26    0.47
   2  13  -5    0.51    0.53
   2  13  -5    0.53    0.58
   2  13  -5    0.47    0.51
  -2 -13   5    0.34    0.61
   1  13  -5    1.98    0.55
   1  13  -5    1.82    0.51
   1  13  -5    2.39    0.56
   1  13  -5    0.90    0.57
   1  13  -5    1.51    0.48
  -1 -13   5    2.12    0.79
  -1 -13   5    1.84    0.58
   5  12  -5    0.28    0.41
   5  12  -5    0.24    0.43
   5  12  -5    0.31    0.63
   5  12  -5    0.55    0.45
   5  12  -5    1.16    0.51
  -5 -12   5    0.14    0.45
  -5 -12   5    1.30    0.51
  -5 -12   5    0.40    0.27
  -5 -12   5    0.71    0.45
   4  12  -5    1.06    0.54
   4  12  -5    1.67    0.45
   4  12  -5    1.67    0.40
   4  12  -5    0.91    0.39
   4  12  -5    2.00    0.43
  -4 -12   5    1.74    0.49
  -4 -12   5    1.04    0.44
  -4 -12   5    2.60    0.67
   3  12  -5    0.03    0.42
   3  12  -5    0.68    0.51
   3  12  -5    0.03    0.40
   3  12  -5    0.22    0.39
   3  12  -5    0.44    0.40
  -3 -12   5    0.36    0.47
  -3 -12   5    0.54    0.26
  -3 -12   5    0.72    0.48
  -3 -12   5   -0.02    0.45
   2  12  -5    2.36    0.41
   2  12  -5    3.53    0.60
   2  12  -5    4.58    0.65
   2  12  -5    4.18    0.69
  -2 -12   5    3.18    0.49
  -2 -12   5    3.15    0.49
  -2 -12   5    3.88    0.71
   1  12  -5    2.78    0.43
   1  12  -5    2.96    0.64
   1  12  -5    2.75    0.57
   1  12  -5    2.82    0.62
   1  12  -5    2.29    0.42
  -1 -12   5    1.88    0.45
  -1 -12   5    2.67    0.44
  -1 -12   5    2.15    0.48
   0  12  -5    3.31    0.70
   0  12  -5    3.33    0.53
   0  12  -5    3.31    0.64
   0  12  -5    3.74    0.60
   0  12  -5    4.06    0.62
   0 -12   5    2.58    0.51
   0 -12   5    3.06    0.50
   0 -12   5    3.11    0.54
  -1  12  -5    2.87    0.58
  -1  12  -5    2.63    0.45
  -1  12  -5    2.63    0.47
  -1  12  -5    1.99    0.39
  -1  12  -5    3.25    0.55
   1 -12   5    2.48    0.54
   1 -12   5    2.02    0.54
   1 -12   5    2.08    0.61
   6  11  -5   10.24    0.80
   6  11  -5    9.83    0.71
   6  11  -5   10.91    0.81
   6  11  -5    9.23    0.90
  -6 -11   5   11.74    0.60
  -6 -11   5    9.53    0.69
  -6 -11   5   10.21    0.78
  -6 -11   5   10.44    0.78
   5  11  -5    0.93    0.49
   5  11  -5    0.53    0.33
   5  11  -5    0.19    0.35
   5  11  -5    0.91    0.40
   5  11  -5    0.59    0.38
  -5 -11   5    0.71    0.70
  -5 -11   5    0.41    0.23
  -5 -11   5    0.48    0.37
  -5 -11   5    0.31    0.35
   4  11  -5   22.34    1.05
   4  11  -5   21.33    1.14
   4  11  -5   23.04    1.11
   4  11  -5   20.26    0.99
  -4 -11   5   22.07    1.07
  -4 -11   5   22.51    1.17
  -4 -11   5   22.30    0.86
  -4 -11   5   22.85    1.09
   3  11  -5    4.48    0.48
   3  11  -5    6.16    0.62
   3  11  -5    4.76    0.57
   3  11  -5    5.61    0.55
  -3 -11   5    5.02    0.36
  -3 -11   5    5.68    0.63
  -3 -11   5    5.58    0.57
   2  11  -5    5.30    0.55
   2  11  -5    5.33    0.52
   2  11  -5    4.65    0.56
   2  11  -5    5.73    0.62
   2  11  -5    4.41    0.50
  -2 -11   5    5.09    0.62
  -2 -11   5    4.43    0.78
  -2 -11   5    4.71    0.57
   1  11  -5   12.92    0.73
   1  11  -5   10.62    0.69
   1  11  -5   10.50    0.70
   1  11  -5   11.68    0.72
   1  11  -5    9.79    0.72
  -1 -11   5   11.47    0.80
  -1 -11   5   11.23    0.78
  -1 -11   5   11.86    0.77
   0  11  -5    1.08    0.39
   0  11  -5    1.68    0.34
   0  11  -5    1.41    0.38
   0  11  -5    0.99    0.37
   0  11  -5    0.60    0.33
   0 -11   5    1.06    0.45
   0 -11   5    1.36    0.41
   0 -11   5    1.56    0.38
  -1  11  -5    2.91    0.62
  -1  11  -5    2.80    0.45
  -1  11  -5    3.41    0.48
  -1  11  -5    3.97    0.54
  -1  11  -5    2.61    0.55
   1 -11   5    2.55    0.53
   1 -11   5    2.77    0.62
   1 -11   5    3.28    0.62
   1 -11   5    2.58    0.49
  -2  11  -5    0.44    0.47
  -2  11  -5    1.52    0.40
  -2  11  -5    0.85    0.39
  -2  11  -5    0.80    0.36
  -2  11  -5    1.11    0.51
   2 -11   5    0.87    0.56
   2 -11   5    0.82    0.51
   2 -11   5    1.72    0.46
   2 -11   5    0.81    0.46
  -3  11  -5   -0.60    0.43
  -3  11  -5    0.42    0.60
  -3  11  -5    0.58    0.37
  -3  11  -5    0.08    0.44
  -3  11  -5    0.24    0.58
   3 -11   5   -0.14    0.48
   3 -11   5   -0.14    0.59
   3 -11   5    0.57    0.66
   3 -11   5   -0.55    0.49
   7  10  -5    1.68    0.63
   7  10  -5    2.93    0.64
   7  10  -5    1.78    0.43
   7  10  -5    2.19    0.35
  -7 -10   5    1.11    0.39
  -7 -10   5    1.88    0.39
  -7 -10   5    2.53    0.51
  -7 -10   5    1.06    0.43
   6  10  -5    3.05    0.70
   6  10  -5    3.64    0.54
   6  10  -5    2.54    0.50
   6  10  -5    2.67    0.56
  -6 -10   5    3.04    0.52
  -6 -10   5    3.58    0.58
  -6 -10   5    2.72    0.49
   5  10  -5    0.03    0.29
   5  10  -5    0.31    0.27
   5  10  -5    0.10    0.32
   5  10  -5    0.11    0.33
   5  10  -5   -0.29    0.41
  -5 -10   5   -0.18    0.34
  -5 -10   5    0.05    0.30
  -5 -10   5    0.17    0.35
  -5 -10   5   -0.14    0.20
   4  10  -5   10.14    0.66
   4  10  -5    9.86    0.71
   4  10  -5    9.28    0.70
   4  10  -5    9.97    0.63
  -4 -10   5   10.17    0.50
  -4 -10   5    9.46    0.70
  -4 -10   5    9.93    0.65
  -4 -10   5   10.87    0.66
   3  10  -5    0.30    0.30
   3  10  -5    0.61    0.35
   3  10  -5    0.43    0.26
   3  10  -5    0.64    0.26
   3  10  -5    0.37    0.27
  -3 -10   5    0.46    0.28
  -3 -10   5    0.63    0.28
  -3 -10   5    0.41    0.16
   2  10  -5   15.93    0.80
   2  10  -5   15.03    0.87
   2  10  -5   16.38    0.83
   2  10  -5   14.43    0.83
  -2 -10   5   14.91    0.83
   1  10  -5    0.61    0.29
   1  10  -5    0.04    0.28
   1  10  -5    0.23    0.34
   1  10  -5    0.28    0.29
  -1 -10   5    0.63    0.31
  -1 -10   5   -0.13    0.32
   0  10  -5   26.58    1.24
   0  10  -5   26.41    1.21
   0  10  -5   26.54    1.15
   0  10  -5   25.07    1.19
   0  10  -5   24.81    1.21
   0 -10   5   25.38    1.25
   0 -10   5   25.97    1.22
   0 -10   5   26.50    1.25
   0 -10   5   26.19    1.24
  -1  10  -5    3.61    0.45
  -1  10  -5    2.69    0.50
  -1  10  -5    3.17    0.50
  -1  10  -5    3.74    0.48
  -1  10  -5    2.17    0.42
   1 -10   5    3.74    0.50
   1 -10   5    3.03    0.58
   1 -10   5    3.08    0.51
   1 -10   5    2.62    0.57
  -2  10  -5   25.04    1.09
  -2  10  -5   23.74    1.10
  -2  10  -5   24.97    1.13
  -2  10  -5   22.98    1.22
   2 -10   5   23.62    1.14
   2 -10   5   23.58    1.20
   2 -10   5   25.23    1.16
   2 -10   5   22.54    1.24
  -3  10  -5    1.94    0.46
  -3  10  -5    3.42    0.51
  -3  10  -5    2.64    0.37
  -3  10  -5    1.96    0.47
   3 -10   5    2.27    0.44
   3 -10   5    2.31    0.51
   3 -10   5    2.30    0.53
   3 -10   5    3.26    0.59
  -4  10  -5    3.63    0.53
  -4  10  -5    4.20    0.63
  -4  10  -5    4.59    0.79
  -4  10  -5    2.88    0.58
  -4  10  -5    3.11    0.53
   4 -10   5    3.91    0.67
   4 -10   5    2.85    0.64
   4 -10   5    2.72    0.48
   4 -10   5    2.55    0.67
   8   9  -5    0.81    0.39
   8   9  -5    0.37    0.31
   8   9  -5    0.28    0.41
  -8  -9   5    0.24    0.24
  -8  -9   5    0.23    0.39
  -8  -9   5    0.29    0.27
  -8  -9   5    0.34    0.40
   7   9  -5    1.34    0.29
   7   9  -5    1.40    0.33
  -7  -9   5    1.10    0.36
  -7  -9   5    1.20    0.26
  -7  -9   5    1.72    0.35
  -7  -9   5    1.13    0.22
   6   9  -5    5.28    0.50
   6   9  -5    4.53    0.65
   6   9  -5    5.29    0.52
   6   9  -5    3.71    0.44
  -6  -9   5    4.47    0.38
  -6  -9   5    4.20    0.42
  -6  -9   5    3.84    0.49
  -6  -9   5    4.77    0.50
   5   9  -5    6.07    0.57
   5   9  -5    6.55    0.55
   5   9  -5    5.44    0.49
   5   9  -5    5.33    0.40
   5   9  -5    6.26    0.51
  -5  -9   5    5.53    0.39
  -5  -9   5    6.15    0.51
  -5  -9   5    5.91    0.52
  -5  -9   5    5.56    0.46
   4   9  -5    4.13    0.49
   4   9  -5    4.32    0.43
   4   9  -5    5.37    0.45
   4   9  -5    4.69    0.37
   4   9  -5    4.18    0.47
  -4  -9   5    4.89    0.34
  -4  -9   5    5.35    0.44
   3   9  -5   16.18    0.78
   3   9  -5   15.16    0.87
   3   9  -5   14.45    0.82
   3   9  -5   15.74    0.82
   3   9  -5   17.16    0.82
  -3  -9   5   16.55    0.80
  -3  -9   5   15.46    0.63
   2   9  -5   25.74    1.11
   2   9  -5   24.50    1.08
   2   9  -5   24.81    1.11
   2   9  -5   25.20    1.12
  -2  -9   5   25.83    1.14
  -2  -9   5   22.83    0.82
   1   9  -5    3.83    0.41
   1   9  -5    4.08    0.42
   1   9  -5    4.48    0.43
   1   9  -5    5.27    0.42
  -1  -9   5    5.28    0.45
  -1  -9   5    4.22    0.45
   0   9  -5    7.26    0.53
   0   9  -5    7.64    0.54
   0   9  -5    7.21    0.50
   0   9  -5    7.50    0.53
   0   9  -5    6.98    0.51
   0  -9   5    7.26    0.56
   0  -9   5    8.55    0.58
   0  -9   5    6.96    0.52
   0  -9   5    7.51    0.57
  -1   9  -5    1.37    0.25
  -1   9  -5    1.26    0.22
  -1   9  -5    0.84    0.25
  -1   9  -5    1.48    0.30
  -1   9  -5    0.95    0.29
   1  -9   5    0.76    0.27
   1  -9   5    1.00    0.31
   1  -9   5    1.13    0.28
   1  -9   5    0.63    0.32
  -2   9  -5    1.45    0.31
  -2   9  -5    1.62    0.31
  -2   9  -5    1.14    0.31
  -2   9  -5    0.93    0.23
   2  -9   5    2.03    0.51
   2  -9   5    1.22    0.28
   2  -9   5    0.71    0.32
   2  -9   5    1.95    0.35
  -3   9  -5    0.30    0.26
  -3   9  -5   -0.05    0.36
  -3   9  -5   -0.24    0.26
  -3   9  -5   -0.24    0.57
  -3   9  -5   -0.07    0.37
   3  -9   5    0.33    0.43
   3  -9   5   -0.01    0.29
   3  -9   5    0.37    0.38
   3  -9   5   -0.13    0.35
  -4   9  -5    2.67    0.47
  -4   9  -5    2.31    0.41
  -4   9  -5    2.88    0.51
  -4   9  -5    2.60    0.44
  -4   9  -5    2.06    0.30
   4  -9   5    2.35    0.51
   4  -9   5    3.08    0.54
   4  -9   5    2.25    0.40
   4  -9   5    2.97    0.54
  -5   9  -5    2.55    0.50
  -5   9  -5    1.82    0.48
  -5   9  -5    1.50    0.35
  -5   9  -5    1.64    0.57
   5  -9   5    1.00    0.41
   5  -9   5    0.82    0.60
   5  -9   5    1.27    0.64
   8   8  -5    1.77    0.36
   8   8  -5    2.41    0.41
  -8  -8   5    2.10    0.48
  -8  -8   5    2.16    0.33
  -8  -8   5    2.23    0.37
   7   8  -5    1.92    0.44
   7   8  -5    1.52    0.30
  -7  -8   5    1.60    0.31
  -7  -8   5    1.28    0.22
  -7  -8   5    1.21    0.34
  -7  -8   5    1.16    0.21
   6   8  -5    9.98    0.64
   6   8  -5    9.87    0.54
   6   8  -5   10.08    0.60
  -6  -8   5   10.70    0.58
  -6  -8   5    8.43    0.49
   5   8  -5    2.18    0.45
   5   8  -5    2.19    0.35
   5   8  -5    1.86    0.36
   5   8  -5    1.52    0.32
   5   8  -5    2.05    0.26
  -5  -8   5    2.10    0.27
  -5  -8   5    1.72    0.25
   4   8  -5    1.47    0.30
   4   8  -5    1.31    0.26
   4   8  -5    1.03    0.24
   4   8  -5    1.65    0.31
   4   8  -5    1.08    0.18
  -4  -8   5    0.71    0.21
  -4  -8   5    1.33    0.23
  -4  -8   5    0.95    0.22
   3   8  -5    0.77    0.24
   3   8  -5    0.68    0.23
   3   8  -5    0.93    0.19
   3   8  -5    1.14    0.19
  -3  -8   5    0.83    0.20
  -3  -8   5    0.97    0.20
  -3  -8   5    0.65    0.13
  -3  -8   5    0.41    0.19
   2   8  -5    6.26    0.42
   2   8  -5    5.72    0.50
   2   8  -5    5.77    0.43
   2   8  -5    6.40    0.46
  -2  -8   5    5.72    0.28
  -2  -8   5    5.45    0.45
  -2  -8   5    6.13    0.43
   1   8  -5    9.76    0.64
   1   8  -5    9.16    0.56
   1   8  -5    9.69    0.61
   1   8  -5   10.64    0.59
   1   8  -5   10.28    0.59
  -1  -8   5   10.39    0.62
  -1  -8   5    8.56    0.70
   0   8  -5   18.80    1.04
   0   8  -5   16.85    0.92
   0   8  -5   18.63    0.84
   0   8  -5   18.10    0.88
   0   8  -5   18.35    0.90
   0  -8   5   16.99    0.90
   0  -8   5   18.77    0.90
   0  -8   5   17.59    0.89
  -1   8  -5   17.66    0.90
  -1   8  -5   17.59    0.87
  -1   8  -5   17.55    0.89
  -1   8  -5   18.97    0.84
   1  -8   5   18.57    0.91
   1  -8   5   18.11    0.89
   1  -8   5   17.84    0.94
   1  -8   5   17.54    1.05
  -2   8  -5   30.63    1.35
  -2   8  -5   30.93    1.32
  -2   8  -5   31.29    1.43
  -2   8  -5   31.44    1.23
  -2   8  -5   30.55    1.30
   2  -8   5   31.87    1.35
   2  -8   5   29.16    1.32
   2  -8   5   32.04    1.37
   2  -8   5   26.32    1.55
  -3   8  -5    0.75    0.26
  -3   8  -5    0.73    0.29
  -3   8  -5    0.38    0.22
  -3   8  -5    1.05    0.33
  -3   8  -5    0.57    0.23
   3  -8   5    0.83    0.25
   3  -8   5    0.77    0.29
   3  -8   5    0.47    0.34
   3  -8   5    1.30    0.38
  -4   8  -5   19.71    1.07
  -4   8  -5   19.69    0.90
  -4   8  -5   21.00    1.07
  -4   8  -5   19.81    0.95
   4  -8   5   19.14    1.10
   4  -8   5   20.23    0.99
   4  -8   5   20.23    1.06
   4  -8   5   21.70    0.95
  -5   8  -5   -0.34    0.28
  -5   8  -5    0.10    0.41
  -5   8  -5    0.26    0.38
  -5   8  -5    0.21    0.24
  -5   8  -5    0.49    0.40
   5  -8   5    0.47    0.53
   5  -8   5   -0.45    0.49
   5  -8   5   -0.19    0.36
   5  -8   5    0.56    0.29
  -6   8  -5    4.13    0.73
  -6   8  -5    3.16    0.49
   6  -8   5    2.65    0.62
   6  -8   5    3.00    0.68
   8   7  -5   17.30    0.89
  -8  -7   5   17.79    0.95
   7   7  -5   22.35    0.83
   7   7  -5   20.68    0.91
   7   7  -5   21.76    1.02
  -7  -7   5   21.31    0.99
  -7  -7   5   21.28    1.06
  -7  -7   5   21.25    0.90
   6   7  -5    8.56    0.60
   6   7  -5    9.05    0.54
   6   7  -5    7.72    0.52
  -6  -7   5    9.11    0.55
  -6  -7   5    8.93    0.53
  -6  -7   5   10.53    0.60
  -6  -7   5    8.75    0.45
   5   7  -5   93.64    3.45
   5   7  -5   92.61    3.08
   5   7  -5   90.12    3.05
   5   7  -5   93.47    2.98
  -5  -7   5   92.02    3.03
  -5  -7   5   89.73    2.95
  -5  -7   5   90.53    3.19
   4   7  -5    6.63    0.43
   4   7  -5    6.19    0.47
   4   7  -5    6.29    0.41
   4   7  -5    6.82    0.52
   4   7  -5    4.82    0.50
  -4  -7   5    6.06    0.37
  -4  -7   5    6.53    0.41
  -4  -7   5    6.15    0.44
   3   7  -5  131.89    4.19
   3   7  -5  126.23    4.11
   3   7  -5  134.62    4.18
   3   7  -5  131.98    4.38
   3   7  -5  129.28    4.20
  -3  -7   5  128.28    4.32
  -3  -7   5  128.68    4.19
  -3  -7   5  123.70    3.95
  -3  -7   5  132.88    4.16
   2   7  -5   17.85    0.83
   2   7  -5   18.44    0.85
   2   7  -5   17.17    0.81
   2   7  -5   17.88    0.93
   2   7  -5   17.98    0.84
  -2  -7   5   18.00    0.92
  -2  -7   5   18.12    0.84
  -2  -7   5   18.84    0.86
  -2  -7   5   17.60    0.64
   1   7  -5   77.65    2.76
   1   7  -5   76.23    2.62
   1   7  -5   74.99    2.62
   1   7  -5   75.23    2.56
   1   7  -5   75.01    2.65
  -1  -7   5   75.25    2.65
  -1  -7   5   75.24    2.72
  -1  -7   5   76.41    2.66
   0   7  -5   46.62    1.69
   0   7  -5   47.32    1.78
   0   7  -5   46.44    1.76
   0   7  -5   46.59    1.81
   0   7  -5   45.94    1.83
   0  -7   5   45.10    1.78
   0  -7   5   47.06    1.82
   0  -7   5   47.37    1.75
   0  -7   5   46.44    1.83
  -1   7  -5    1.86    0.25
  -1   7  -5    2.03    0.26
  -1   7  -5    1.63    0.28
  -1   7  -5    1.38    0.27
  -1   7  -5    1.88    0.27
   1  -7   5    1.47    0.25
   1  -7   5    1.53    0.27
   1  -7   5    1.40    0.32
   1  -7   5    1.34    0.31
  -2   7  -5    0.23    0.15
  -2   7  -5    0.05    0.15
  -2   7  -5    0.16    0.24
  -2   7  -5    0.34    0.21
  -2   7  -5    0.40    0.18
   2  -7   5    0.14    0.25
   2  -7   5    0.42    0.23
   2  -7   5    0.13    0.19
   2  -7   5    0.14    0.20
  -3   7  -5    1.82    0.38
  -3   7  -5    2.80    0.31
  -3   7  -5    2.08    0.31
   3  -7   5    2.19    0.33
   3  -7   5    2.32    0.48
   3  -7   5    3.15    0.40
  -4   7  -5    3.44    0.34
  -4   7  -5    3.73    0.45
  -4   7  -5    3.91    0.37
   4  -7   5    2.83    0.48
   4  -7   5    2.78    0.49
   4  -7   5    2.46    0.38
   4  -7   5    3.25    0.36
  -5   7  -5    0.20    0.24
  -5   7  -5    0.17    0.35
  -5   7  -5   -0.17    0.34
  -5   7  -5    0.16    0.20
   5  -7   5    0.18    0.29
   5  -7   5    0.12    0.23
   5  -7   5    0.20    0.41
   5  -7   5    0.29    0.41
  -6   7  -5    2.90    0.50
  -6   7  -5    2.03    0.33
  -6   7  -5    2.19    0.42
   6  -7   5    2.67    0.57
   6  -7   5    2.26    0.54
   6  -7   5    1.68    0.48
  -7   7  -5    1.95    0.39
  -7   7  -5    0.75    0.51
  -7   7  -5    1.51    0.51
   7  -7   5    1.44    0.45
   7  -7   5    0.29    0.74
   9   6  -5    1.97    0.41
  -8  -6   5    3.34    0.40
   7   6  -5    0.67    0.16
   7   6  -5    0.62    0.23
  -7  -6   5    0.51    0.18
   6   6  -5    5.86    0.44
   6   6  -5    5.12    0.38
   6   6  -5    5.31    0.32
  -6  -6   5    5.46    0.42
  -6  -6   5    4.92    0.37
  -6  -6   5    5.20    0.41
   5   6  -5   17.47    0.79
   5   6  -5   17.75    0.73
   5   6  -5   17.53    0.90
  -5  -6   5   16.72    0.70
  -5  -6   5   18.57    0.79
  -5  -6   5   18.26    0.83
  -5  -6   5   18.73    0.88
   4   6  -5    7.38    0.46
   4   6  -5    8.77    0.55
   4   6  -5    7.62    0.41
   4   6  -5    7.57    0.44
  -4  -6   5    8.09    0.52
  -4  -6   5    7.55    0.46
  -4  -6   5    7.95    0.43
  -4  -6   5    7.20    0.41
   3   6  -5   13.82    0.75
   3   6  -5   13.07    0.65
   3   6  -5   12.19    0.63
   3   6  -5   13.60    0.66
   3   6  -5   12.04    0.60
  -3  -6   5   12.26    0.70
  -3  -6   5   12.96    0.62
  -3  -6   5   13.44    0.66
  -3  -6   5   12.89    0.55
   2   6  -5    9.21    0.52
   2   6  -5    9.44    0.61
   2   6  -5    9.78    0.51
   2   6  -5    9.67    0.53
   2   6  -5    9.79    0.53
  -2  -6   5   10.31    0.53
  -2  -6   5    9.37    0.39
  -2  -6   5    9.74    0.61
  -2  -6   5   10.17    0.54
   1   6  -5   61.67    2.09
   1   6  -5   62.20    2.15
   1   6  -5   61.54    2.26
   1   6  -5   60.09    2.12
   1   6  -5   59.92    2.16
  -1  -6   5   61.21    2.17
  -1  -6   5   61.05    2.17
  -1  -6   5   60.40    2.24
   0   6  -5   18.62    0.84
   0   6  -5   17.71    0.89
   0   6  -5   17.91    0.78
   0   6  -5   17.82    0.85
   0   6  -5   18.06    0.83
   0  -6   5   17.40    0.88
   0  -6   5   18.19    0.83
   0  -6   5   18.49    0.85
   0  -6   5   18.40    0.87
  -1   6  -5   76.71    2.69
  -1   6  -5   75.77    2.73
  -1   6  -5   76.66    2.69
  -1   6  -5   77.47    2.54
  -1   6  -5   77.64    2.65
   1  -6   5   75.90    2.68
   1  -6   5   77.95    2.68
   1  -6   5   77.42    2.64
   1  -6   5   78.13    2.75
  -2   6  -5   39.47    1.60
  -2   6  -5   38.19    1.39
  -2   6  -5   36.48    1.52
  -2   6  -5   37.57    1.48
  -2   6  -5   37.29    1.50
   2  -6   5   36.28    1.49
   2  -6   5   38.52    1.48
   2  -6   5   36.86    1.48
   2  -6   5   38.04    1.58
  -3   6  -5   33.86    1.46
  -3   6  -5   35.74    1.32
  -3   6  -5   36.41    1.54
  -3   6  -5   34.84    1.37
  -3   6  -5   33.64    1.40
   3  -6   5   34.14    1.52
   3  -6   5   37.02    1.38
   3  -6   5   34.83    1.43
   3  -6   5   34.37    1.42
  -4   6  -5   16.95    0.78
  -4   6  -5   16.78    0.82
  -4   6  -5   16.70    0.68
  -4   6  -5   16.86    0.77
  -4   6  -5   18.11    0.93
   4  -6   5   16.60    0.76
   4  -6   5   15.19    0.91
   4  -6   5   16.00    0.86
   4  -6   5   17.29    0.84
  -5   6  -5    5.72    0.53
  -5   6  -5    5.84    0.42
  -5   6  -5    5.44    0.41
  -5   6  -5    6.37    0.39
   5  -6   5    7.06    0.41
   5  -6   5    5.25    0.54
   5  -6   5    5.77    0.65
   5  -6   5    6.22    0.56
  -6   6  -5   22.21    0.84
  -6   6  -5   21.15    1.05
  -6   6  -5   22.65    0.97
   6  -6   5   19.27    1.14
   6  -6   5   20.88    1.10
   6  -6   5   23.65    1.04
  -7   6  -5    0.41    0.43
  -7   6  -5    0.71    0.32
  -7   6  -5   -0.06    0.45
  -7   6  -5    0.98    0.31
   7  -6   5    0.91    0.37
   7  -6   5   -0.47    0.59
   7  -6   5   -0.19    0.42
   9   5  -5    0.17    0.32
   8   5  -5    1.92    0.39
  -8  -5   5    1.31    0.22
   7   5  -5    0.75    0.23
  -7  -5   5    0.93    0.19
   6   5  -5   10.96    0.63
  -6  -5   5   10.59    0.58
  -6  -5   5   10.53    0.62
   5   5  -5   24.69    0.88
   5   5  -5   22.50    0.91
   5   5  -5   23.74    1.18
  -5  -5   5   25.63    1.06
  -5  -5   5   23.38    1.03
  -5  -5   5   23.94    0.91
   4   5  -5   47.73    1.64
   4   5  -5   46.92    1.68
   4   5  -5   51.40    1.67
   4   5  -5   49.91    1.88
  -4  -5   5   50.23    1.84
  -4  -5   5   48.00    1.73
  -4  -5   5   49.46    1.69
  -4  -5   5   48.16    1.63
   3   5  -5  175.98    5.22
   3   5  -5  172.34    5.44
   3   5  -5  167.04    5.22
   3   5  -5  164.82    5.17
  -3  -5   5  168.89    5.23
  -3  -5   5  171.74    5.20
  -3  -5   5  168.36    5.15
  -3  -5   5  175.20    5.39
   2   5  -5    6.97    0.39
   2   5  -5    5.36    0.37
   2   5  -5    6.73    0.44
   2   5  -5    5.97    0.36
   2   5  -5    5.94    0.37
  -2  -5   5    6.24    0.37
  -2  -5   5    6.22    0.38
  -2  -5   5    6.61    0.45
  -2  -5   5    6.20    0.29
   1   5  -5  153.85    4.72
   1   5  -5  155.20    4.65
   1   5  -5  147.35    4.69
   1   5  -5  148.73    4.73
   1   5  -5  151.10    4.86
  -1  -5   5  155.46    4.74
  -1  -5   5  146.32    4.81
  -1  -5   5  152.48    4.74
  -1  -5   5  153.46    4.79
   0   5  -5   14.59    0.69
   0   5  -5   13.93    0.61
   0   5  -5   14.44    0.71
   0   5  -5   13.94    0.72
   0   5  -5   14.16    0.68
   0  -5   5   14.49    0.71
   0  -5   5   14.63    0.65
   0  -5   5   14.01    0.66
   0  -5   5   13.38    0.71
   0  -5   5   13.60    0.68
  -1   5  -5   56.30    1.86
  -1   5  -5   55.42    1.97
  -1   5  -5   55.35    2.02
  -1   5  -5   55.91    2.21
   1  -5   5   56.60    2.06
   1  -5   5   57.96    1.95
   1  -5   5   52.88    1.89
   1  -5   5   54.60    2.00
   1  -5   5   56.20    2.00
  -2   5  -5    2.26    0.24
  -2   5  -5    2.73    0.28
  -2   5  -5    2.06    0.25
  -2   5  -5    1.91    0.21
   2  -5   5    1.88    0.26
   2  -5   5    2.20    0.24
   2  -5   5    2.14    0.28
   2  -5   5    2.42    0.26
  -3   5  -5    6.73    0.37
  -3   5  -5    5.78    0.37
  -3   5  -5    5.83    0.28
  -3   5  -5    5.09    0.37
  -3   5  -5    6.07    0.45
   3  -5   5    5.29    0.40
   3  -5   5    5.81    0.38
   3  -5   5    4.87    0.43
   3  -5   5    5.70    0.38
  -4   5  -5    0.35    0.22
  -4   5  -5    0.13    0.17
  -4   5  -5    0.56    0.14
  -4   5  -5    0.36    0.16
  -4   5  -5    0.36    0.16
   4  -5   5    0.16    0.22
   4  -5   5    0.35    0.25
   4  -5   5    0.35    0.14
  -5   5  -5    2.86    0.39
  -5   5  -5    3.01    0.26
  -5   5  -5    3.55    0.32
   5  -5   5    2.92    0.45
   5  -5   5    3.98    0.35
   5  -5   5    2.61    0.41
  -6   5  -5    1.21    0.22
  -6   5  -5    1.20    0.33
   6  -5   5    1.83    0.38
   6  -5   5    1.35    0.25
   6  -5   5    0.96    0.30
  -7   5  -5    0.69    0.26
  -7   5  -5    0.73    0.37
   7  -5   5    1.32    0.32
   7  -5   5    0.45    0.37
   7  -5   5    0.99    0.47
  -8   5  -5    3.51    0.52
  -8   5  -5    2.17    0.51
   8  -5   5    3.04    0.69
   8  -5   5    2.43    0.43
   8  -5   5    2.58    0.49
   9   4  -5    1.50    0.28
   9   4  -5    1.85    0.43
  -9  -4   5    1.38    0.31
   8   4  -5    2.65    0.36
  -8  -4   5    2.87    0.36
  -7  -4   5    1.35    0.28
   6   4  -5    0.17    0.18
  -6  -4   5    0.16    0.15
   5   4  -5    0.91    0.18
   5   4  -5    1.41    0.15
  -5  -4   5    0.94    0.19
  -5  -4   5    1.24    0.21
   4   4  -5    3.12    0.20
   4   4  -5    2.97    0.22
   4   4  -5    3.28    0.21
   4   4  -5    3.34    0.30
  -4  -4   5    3.64    0.30
  -4  -4   5    3.04    0.28
  -4  -4   5    3.42    0.23
   3   4  -5    6.49    0.34
   3   4  -5    6.28    0.33
   3   4  -5    6.11    0.34
   3   4  -5    6.66    0.44
  -3  -4   5    6.06    0.45
  -3  -4   5    6.65    0.45
  -3  -4   5    6.18    0.33
  -3  -4   5    6.52    0.35
  -3  -4   5    7.54    0.38
   2   4  -5   10.24    0.49
   2   4  -5   10.23    0.59
   2   4  -5   10.70    0.48
   2   4  -5    9.90    0.48
   2   4  -5   10.17    0.49
  -2  -4   5    9.45    0.57
  -2  -4   5    9.70    0.56
  -2  -4   5   10.10    0.48
  -2  -4   5    9.40    0.43
  -2  -4   5    9.75    0.47
   1   4  -5   55.24    1.87
   1   4  -5   55.45    1.82
   1   4  -5   55.79    1.90
   1   4  -5   54.83    1.88
   1   4  -5   54.95    2.01
  -1  -4   5   54.17    1.68
  -1  -4   5   54.64    1.98
  -1  -4   5   53.85    1.88
  -1  -4   5   57.14    1.90
  -1  -4   5   58.75    1.99
   0   4  -5   11.53    0.55
   0   4  -5   10.65    0.49
   0   4  -5   11.08    0.56
   0   4  -5   11.25    0.59
   0  -4   5   10.67    0.54
   0  -4   5   10.90    0.56
   0  -4   5   10.94    0.55
   0  -4   5   10.58    0.57
  -1   4  -5  101.94    3.33
  -1   4  -5  102.26    3.12
  -1   4  -5   98.95    3.30
  -1   4  -5  102.77    3.26
   1  -4   5  108.57    3.21
   1  -4   5   94.90    3.31
   1  -4   5   97.59    3.27
   1  -4   5   99.94    3.27
   1  -4   5  103.43    3.34
  -2   4  -5    6.62    0.41
  -2   4  -5    6.16    0.43
  -2   4  -5    6.77    0.36
  -2   4  -5    6.67    0.41
   2  -4   5    6.47    0.40
   2  -4   5    6.70    0.33
   2  -4   5    6.74    0.39
   2  -4   5    6.39    0.41
  -3   4  -5   54.45    1.81
  -3   4  -5   52.87    2.00
  -3   4  -5   54.83    1.68
  -3   4  -5   52.18    1.85
  -3   4  -5   53.75    1.90
   3  -4   5   50.71    1.65
   3  -4   5   52.26    1.90
   3  -4   5   51.46    1.82
   3  -4   5   52.27    1.89
  -4   4  -5    1.42    0.22
  -4   4  -5    1.38    0.28
  -4   4  -5    1.05    0.21
  -4   4  -5    1.69    0.23
   4  -4   5    1.27    0.29
  -5   4  -5   31.95    1.16
  -5   4  -5   30.97    1.17
  -5   4  -5   30.86    1.36
  -5   4  -5   29.64    1.29
   5  -4   5   31.90    1.38
   5  -4   5   33.32    1.30
   5  -4   5   31.97    1.44
  -6   4  -5    3.61    0.25
  -6   4  -5    3.15    0.41
  -6   4  -5    2.62    0.31
   6  -4   5    3.28    0.46
   6  -4   5    3.05    0.37
   6  -4   5    2.43    0.42
  -7   4  -5   18.26    1.07
  -7   4  -5   19.08    0.97
  -7   4  -5   20.20    0.89
   7  -4   5   19.77    0.90
   7  -4   5   17.89    1.03
   7  -4   5   17.21    0.94
  -8   4  -5    1.87    0.43
  -8   4  -5    1.85    0.38
  -8   4  -5    1.37    0.29
   8  -4   5    0.94    0.38
   8  -4   5    0.90    0.57
   8  -4   5    1.02    0.39
   9   3  -5   -0.01    0.25
   9   3  -5    0.43    0.41
  -9  -3   5    0.03    0.22
   8   3  -5   10.93    0.58
   8   3  -5   11.47    0.69
  -8  -3   5   11.86    0.75
   7   3  -5    0.19    0.18
  -7  -3   5    0.08    0.16
   6   3  -5   65.28    2.26
  -6  -3   5   64.91    2.39
   5   3  -5    3.60    0.32
  -5  -3   5    4.95    0.38
   4   3  -5  202.97    6.31
  -4  -3   5  197.24    6.27
  -4  -3   5  198.97    6.11
   3   3  -5   82.34    2.53
   3   3  -5   85.04    2.80
   3   3  -5   76.00    2.58
   3   3  -5   85.37    2.55
  -3  -3   5   83.58    2.55
  -3  -3   5   83.14    2.73
  -3  -3   5   82.85    2.65
  -3  -3   5   82.48    2.84
   2   3  -5  369.50   10.98
   2   3  -5  360.54   10.73
   2   3  -5  375.04   10.76
   2   3  -5  359.95   10.75
  -2  -3   5  378.09   11.01
  -2  -3   5  376.88   10.77
  -2  -3   5  363.43   10.74
  -2  -3   5  360.53   10.74
  -2  -3   5  366.78   10.91
   1   3  -5  336.65   10.00
   1   3  -5  333.07   10.18
   1   3  -5  330.21    9.99
   1   3  -5  340.82   10.03
   1   3  -5  350.20    9.95
  -1  -3   5  342.00   10.02
  -1  -3   5  331.31   10.12
  -1  -3   5  348.41   10.16
  -1  -3   5  344.40    9.88
  -1  -3   5  349.82   10.03
   0   3  -5   47.91    1.53
   0   3  -5   48.16    1.67
   0   3  -5   47.28    1.74
   0   3  -5   47.89    1.64
   0  -3   5   50.14    1.70
   0  -3   5   50.13    1.68
   0  -3   5   47.03    1.68
   0  -3   5   46.00    1.70
  -1   3  -5  433.95   12.46
  -1   3  -5  415.70   12.68
  -1   3  -5  423.04   12.67
  -1   3  -5  434.19   12.63
   1  -3   5  451.32   12.61
   1  -3   5  425.21   12.68
   1  -3   5  410.86   12.63
   1  -3   5  449.74   12.53
   1  -3   5  423.39   12.64
  -2   3  -5   19.47    0.85
  -2   3  -5   20.76    0.76
  -2   3  -5   20.80    0.91
  -2   3  -5   20.51    0.65
  -2   3  -5   21.39    0.87
   2  -3   5   19.72    0.85
   2  -3   5   20.05    0.81
   2  -3   5   19.33    0.83
   2  -3   5   20.12    0.77
  -3   3  -5    5.35    0.36
  -3   3  -5    5.73    0.27
  -3   3  -5    6.00    0.36
  -3   3  -5    5.61    0.39
   3  -3   5    5.49    0.35
   3  -3   5    5.91    0.38
   3  -3   5    5.64    0.40
   3  -3   5    5.75    0.34
  -4   3  -5    8.70    0.41
  -4   3  -5    8.92    0.55
  -4   3  -5    8.37    0.43
   4  -3   5    8.32    0.49
   4  -3   5    8.46    0.50
   4  -3   5    8.35    0.35
   4  -3   5    8.44    0.54
  -5   3  -5    0.51    0.18
  -5   3  -5    0.46    0.13
  -5   3  -5    0.60    0.13
  -5   3  -5    0.78    0.17
   5  -3   5    0.49    0.16
   5  -3   5    0.14    0.21
   5  -3   5    0.37    0.18
  -6   3  -5    1.82    0.19
  -6   3  -5    2.14    0.27
  -6   3  -5    1.46    0.33
   6  -3   5    1.78    0.33
   6  -3   5    1.94    0.38
   6  -3   5    2.11    0.30
  -7   3  -5    7.31    0.45
  -7   3  -5    6.85    0.53
   7  -3   5    7.73    0.50
   7  -3   5    6.49    0.59
   7  -3   5    6.67    0.49
  -8   3  -5   -0.10    0.31
  -8   3  -5    0.04    0.26
  -8   3  -5    0.32    0.21
   8  -3   5    0.76    0.29
   8  -3   5    0.24    0.34
   8  -3   5   -0.10    0.43
  -9   3  -5    2.95    0.38
  -9   3  -5    1.91    0.38
  -9   3  -5    2.54    0.45
   9  -3   5    1.66    0.46
   9  -3   5    2.97    0.65
   9  -3   5    1.11    0.55
   9   2  -5    2.75    0.61
  -9  -2   5    3.01    0.43
   8   2  -5    3.75    0.34
   8   2  -5    3.04    0.47
  -8  -2   5    4.30    0.44
   7   2  -5    4.50    0.41
   7   2  -5    4.13    0.33
  -7  -2   5    4.79    0.40
   6   2  -5    1.59    0.24
   6   2  -5    2.50    0.30
  -6  -2   5    2.18    0.27
   5   2  -5    6.28    0.40
  -5  -2   5    6.09    0.44
  -5  -2   5    6.07    0.46
   4   2  -5   21.34    0.92
  -4  -2   5   21.85    1.01
  -4  -2   5   20.43    0.92
   3   2  -5   30.33    0.98
   3   2  -5   31.70    1.22
  -3  -2   5   29.95    1.15
  -3  -2   5   31.34    1.28
   2   2  -5   59.64    1.98
   2   2  -5   64.57    1.99
   2   2  -5   65.81    2.23
   2   2  -5   65.27    2.00
  -2  -2   5   64.56    1.99
  -2  -2   5   65.59    2.23
   1   2  -5   30.30    1.06
   1   2  -5   31.25    1.08
   1   2  -5   31.13    1.20
  -1  -2   5   30.79    1.06
  -1  -2   5   32.20    1.21
  -1  -2   5   30.12    1.06
  -1  -2   5   30.29    1.18
  -1  -2   5   30.22    1.03
   0   2  -5  150.07    4.49
   0   2  -5  144.77    4.61
   0   2  -5  147.94    4.52
   0  -2   5  142.34    4.56
   0  -2   5  149.74    4.51
   0  -2   5  158.36    4.60
   0  -2   5  147.27    4.50
  -1   2  -5   92.43    3.00
  -1   2  -5   93.95    3.01
  -1   2  -5   93.52    2.96
   1  -2   5   92.29    2.99
   1  -2   5   92.31    2.96
   1  -2   5   97.37    2.97
  -2   2  -5  331.73    9.92
  -2   2  -5  342.12    9.86
  -2   2  -5  315.94    9.84
   2  -2   5  335.50    9.93
   2  -2   5  326.74    9.86
   2  -2   5  337.93    9.74
   2  -2   5  341.21    9.78
  -3   2  -5  254.00    7.34
  -3   2  -5  249.20    7.63
  -3   2  -5  245.15    7.47
   3  -2   5  253.89    7.48
   3  -2   5  255.87    7.39
   3  -2   5  246.02    7.55
  -4   2  -5   30.44    1.20
  -4   2  -5   31.21    1.07
  -4   2  -5   30.18    1.10
  -4   2  -5   30.92    1.26
   4  -2   5   29.78    1.25
   4  -2   5   30.39    1.19
   4  -2   5   29.00    1.18
   4  -2   5   28.84    1.04
  -5   2  -5   88.77    2.87
  -5   2  -5   91.92    3.00
  -5   2  -5   88.22    2.81
  -5   2  -5   91.25    3.09
   5  -2   5   89.27    3.05
   5  -2   5   91.15    3.00
   5  -2   5   88.87    3.08
  -6   2  -5   10.64    0.55
  -6   2  -5   10.83    0.75
  -6   2  -5   11.93    0.66
  -6   2  -5   11.14    0.46
   6  -2   5   10.97    0.65
   6  -2   5   10.73    0.62
   6  -2   5   10.98    0.59
  -7   2  -5   28.30    1.23
  -7   2  -5   28.09    1.16
   7  -2   5   27.42    1.22
   7  -2   5   28.04    1.15
   7  -2   5   28.49    1.26
  -8   2  -5    4.79    0.47
  -8   2  -5    5.22    0.42
  -8   2  -5    4.39    0.37
   8  -2   5    3.85    0.48
   8  -2   5    5.09    0.45
   8  -2   5    4.17    0.53
  -9   2  -5    6.78    0.62
  -9   2  -5    7.01    0.57
   9  -2   5    6.63    0.60
   9  -2   5    7.28    0.61
   9  -2   5    6.99    0.70
   9   1  -5    0.43    0.44
  -9  -1   5    0.46    0.22
   8   1  -5    1.50    0.28
   8   1  -5    1.59    0.32
  -8  -1   5    1.61    0.36
   7   1  -5    0.26    0.26
   7   1  -5    0.26    0.17
   6   1  -5   16.26    0.72
   6   1  -5   15.85    0.79
  -6  -1   5   16.31    0.91
   5   1  -5    7.47    0.44
  -5  -1   5    7.48    0.50
  -5  -1   5    7.64    0.53
   4   1  -5  155.05    4.62
   4   1  -5  150.41    4.62
  -4  -1   5  145.64    4.74
  -4  -1   5  142.43    4.67
  -3  -1   5    1.27    0.18
  -3  -1   5    1.27    0.18
   2   1  -5  314.15    9.39
   2   1  -5  309.70    9.13
  -2  -1   5  315.62    9.44
  -2  -1   5  323.14    9.32
   1   1  -5   18.28    0.65
   1   1  -5   17.96    0.77
  -1  -1   5   17.32    0.67
  -1  -1   5   18.63    0.63
  -1  -1   5   18.31    0.78
  -1  -1   5   16.08    0.63
   0   1  -5  174.79    5.23
   0   1  -5  166.85    5.32
   0  -1   5  178.08    5.22
   0  -1   5  181.67    5.33
   0  -1   5  173.50    5.20
  -1   1  -5  102.15    3.34
  -1   1  -5  106.38    3.29
  -1   1  -5  105.08    3.32
   1  -1   5  104.05    3.29
   1  -1   5  110.82    3.32
   1  -1   5  109.78    3.32
  -2   1  -5  228.40    7.07
  -2   1  -5  238.82    7.04
  -2   1  -5  226.36    7.02
   2  -1   5  243.33    7.09
   2  -1   5  238.15    6.89
   2  -1   5  231.11    7.03
   2  -1   5  241.96    6.99
  -3   1  -5   87.02    2.73
  -3   1  -5   88.38    2.81
   3  -1   5   88.78    2.72
   3  -1   5   82.24    2.78
   3  -1   5   84.51    2.84
  -4   1  -5    1.11    0.14
  -4   1  -5    1.37    0.16
  -4   1  -5    1.32    0.14
   4  -1   5    1.24    0.19
   4  -1   5    1.17    0.19
   4  -1   5    1.28    0.17
  -5   1  -5    2.81    0.26
  -5   1  -5    3.88    0.25
  -5   1  -5    3.34    0.22
  -5   1  -5    3.52    0.30
   5  -1   5    3.22    0.29
   5  -1   5    2.93    0.29
   5  -1   5    3.27    0.28
  -6   1  -5    1.56    0.24
  -6   1  -5    1.10    0.14
  -6   1  -5    1.28    0.22
   6  -1   5    1.36    0.28
   6  -1   5    1.64    0.25
   6  -1   5    1.52    0.24
  -7   1  -5    2.50    0.26
  -7   1  -5    2.38    0.31
   7  -1   5    2.51    0.42
   7  -1   5    2.76    0.31
  -8   1  -5    3.80    0.38
  -8   1  -5    3.50    0.34
  -8   1  -5    3.03    0.39
   8  -1   5    3.30    0.45
   8  -1   5    3.43    0.40
   8  -1   5    3.49    0.42
  -9   1  -5   11.19    0.65
  -9   1  -5    9.48    0.67
  -9   1  -5    9.98    0.63
   9  -1   5   11.71    0.73
   9  -1   5   12.20    0.67
   9  -1   5   10.03    0.66
 -10   1  -5   -0.09    0.43
 -10   1  -5   -0.18    0.40
 -10   1  -5    0.02    0.22
  10  -1   5    0.23    0.45
  10  -1   5   -0.12    0.42
  10  -1   5    0.65    0.52
   8   0  -5    2.86    0.55
  -8   0   5    2.35    0.37
   7   0  -5    0.47    0.27
   7   0  -5    0.22    0.16
  -7   0   5    0.18    0.19
   6   0  -5    8.42    0.53
   6   0  -5    7.41    0.41
  -6   0   5    7.68    0.57
   5   0  -5    5.70    0.38
   5   0  -5    4.12    0.32
  -5   0   5    4.85    0.42
  -5   0   5    5.32    0.39
   4   0  -5    1.88    0.28
   4   0  -5    1.83    0.20
  -4   0   5    2.10    0.23
  -4   0   5    1.52    0.23
   3   0  -5    3.53    0.25
   3   0  -5    3.11    0.26
  -3   0   5    3.36    0.28
  -3   0   5    3.42    0.28
   2   0  -5   27.18    0.95
   2   0  -5   27.09    1.05
  -2   0   5   28.25    1.10
  -2   0   5   25.66    1.02
   1   0  -5    4.99    0.32
   1   0  -5    5.19    0.24
  -1   0   5    5.31    0.22
  -1   0   5    5.01    0.34
  -1   0   5    5.32    0.30
   0   0  -5  170.14    5.20
   0   0  -5  169.48    5.23
   0   0   5  180.73    5.23
   0   0   5  181.84    5.21
   0   0   5  181.11    5.35
  -1   0  -5   31.27    1.07
  -1   0  -5   29.35    1.09
   1   0   5   30.10    1.06
   1   0   5   31.18    1.15
   1   0   5   32.09    1.10
  -2   0  -5  165.58    4.88
  -2   0  -5  155.75    4.90
   2   0   5  170.63    4.76
   2   0   5  157.46    4.90
   2   0   5  156.34    4.86
  -3   0  -5   53.60    1.80
   3   0   5   52.59    1.82
   3   0   5   51.21    1.78
  -4   0  -5  100.36    3.24
  -4   0  -5  110.24    3.39
  -4   0  -5  106.34    3.40
   4   0   5  106.83    3.37
   4   0   5  106.58    3.35
   4   0   5  103.95    3.39
  -5   0  -5    5.42    0.38
  -5   0  -5    6.27    0.37
  -5   0  -5    4.89    0.27
  -5   0  -5    5.31    0.32
   5   0   5    6.38    0.38
   5   0   5    6.51    0.38
   5   0   5    5.72    0.37
  -6   0  -5   87.57    2.81
  -6   0  -5   80.86    2.73
  -6   0  -5   77.62    2.53
  -6   0  -5   84.58    2.83
   6   0   5   81.34    2.81
   6   0   5   85.55    2.80
   6   0   5   84.11    2.82
  -7   0  -5    3.64    0.34
  -7   0  -5    2.84    0.30
   7   0   5    3.78    0.36
   7   0   5    2.96    0.40
   7   0   5    4.27    0.35
  -8   0  -5   17.95    1.15
  -8   0  -5   19.75    0.95
  -8   0  -5   21.53    0.96
   8   0   5   20.06    0.96
   8   0   5   20.14    0.92
   8   0   5   21.66    0.92
  -9   0  -5    0.84    0.28
  -9   0  -5    1.01    0.27
   9   0   5    1.34    0.29
   9   0   5    1.18    0.30
   9   0   5    0.80    0.34
 -10   0  -5    0.82    0.37
 -10   0  -5    0.72    0.21
 -10   0  -5    0.75    0.34
  10   0   5    0.73    0.39
  10   0   5    1.11    0.49
   8  -1  -5    1.29    0.41
   7  -1  -5   19.91    1.00
   7  -1  -5   19.58    0.75
  -7   1   5   19.32    1.13
   6  -1  -5    1.82    0.22
   6  -1  -5    1.85    0.30
  -6   1   5    1.76    0.25
  -6   1   5    1.21    0.25
   5  -1  -5  154.52    4.69
   5  -1  -5  155.15    4.88
  -5   1   5  149.52    5.00
  -5   1   5  151.35    4.87
   4  -1  -5   62.36    2.15
   4  -1  -5   62.21    2.05
  -4   1   5   60.81    2.16
  -4   1   5   60.02    2.23
   3  -1  -5  267.24    7.86
   3  -1  -5  262.78    7.89
  -3   1   5  261.38    8.00
  -3   1   5  264.88    7.98
   2  -1  -5  376.51   11.21
  -2   1   5  385.05   11.33
  -2   1   5  388.45   11.35
   1  -1  -5  315.85    8.91
   1  -1  -5  285.27    8.83
   1  -1  -5  272.87    8.84
  -1   1   5  320.79    8.84
  -1   1   5  314.12    9.07
  -1   1   5  323.95    9.05
   0  -1  -5  326.52    9.80
   0  -1  -5  302.78    9.82
   0   1   5  339.54    9.83
   0   1   5  367.88    9.99
   0   1   5  353.30    9.81
  -1  -1  -5   33.41    1.08
  -1  -1  -5   30.35    1.08
   1   1   5   28.76    1.22
   1   1   5   32.04    1.10
   1   1   5   31.92    1.07
  -2  -1  -5  131.04    4.13
  -2  -1  -5  136.17    4.13
   2   1   5  137.21    4.13
   2   1   5  138.71    4.15
  -3  -1  -5    6.49    0.37
  -3  -1  -5    6.46    0.37
   3   1   5    6.56    0.38
   3   1   5    6.62    0.37
  -4  -1  -5  129.60    4.06
  -4  -1  -5  127.33    4.06
   4   1   5  131.57    4.06
  -5  -1  -5    4.83    0.33
  -5  -1  -5    4.36    0.30
   5   1   5    4.10    0.31
   5   1   5    4.55    0.32
  -6  -1  -5    1.39    0.13
  -6  -1  -5    1.62    0.23
  -6  -1  -5    1.39    0.21
   6   1   5    1.52    0.22
  -7  -1  -5   16.34    0.79
  -7  -1  -5   16.44    0.79
  -7  -1  -5   18.39    1.13
   7   1   5   15.98    0.77
   7   1   5   16.98    0.79
  -8  -1  -5   17.41    0.88
  -8  -1  -5   18.46    0.86
   8   1   5   17.57    0.84
   8   1   5   17.83    0.88
   8   1   5   20.37    0.89
  -9  -1  -5    0.71    0.25
  -9  -1  -5    0.52    0.16
  -9  -1  -5    0.59    0.25
   9   1   5    0.80    0.26
   9   1   5    1.08    0.34
 -10  -1  -5    3.78    0.54
 -10  -1  -5    3.12    0.35
 -10  -1  -5    3.21    0.52
  10   1   5    2.65    0.36
  10   1   5    4.51    0.68
  10   1   5    2.91    0.58
   8  -2  -5    6.64    0.68
  -8   2   5    5.73    0.54
   7  -2  -5    5.31    0.59
  -7   2   5    6.57    0.59
   6  -2  -5    1.98    0.43
   6  -2  -5    2.81    0.29
  -6   2   5    2.71    0.29
  -6   2   5    2.31    0.33
   5  -2  -5    1.60    0.18
   5  -2  -5    1.19    0.23
  -5   2   5    1.19    0.22
   4  -2  -5    1.12    0.21
  -4   2   5    0.88    0.21
  -4   2   5    0.94    0.18
   3  -2  -5   10.41    0.56
  -3   2   5   11.26    0.56
  -3   2   5    9.87    0.59
   2  -2  -5   12.41    0.44
   2  -2  -5   12.00    0.58
  -2   2   5   12.09    0.63
  -2   2   5   13.32    0.62
   1  -2  -5   52.72    1.64
   1  -2  -5   52.81    1.65
   1  -2  -5   54.23    1.74
   1  -2  -5   48.02    1.66
  -1   2   5   57.01    1.66
  -1   2   5   52.40    1.68
  -1   2   5   54.91    1.83
   0  -2  -5  133.82    4.11
   0  -2  -5  141.09    4.13
   0  -2  -5  134.05    4.10
   0   2   5  141.35    4.11
   0   2   5  142.59    4.25
   0   2   5  134.16    4.10
   0   2   5  138.97    4.09
  -1  -2  -5    2.07    0.15
  -1  -2  -5    2.08    0.16
   1   2   5    2.05    0.15
   1   2   5    1.79    0.15
   1   2   5    2.34    0.15
  -2  -2  -5  396.97   11.53
  -2  -2  -5  397.46   11.54
   2   2   5  381.40   11.52
   2   2   5  402.55   11.52
  -3  -2  -5   53.84    1.86
  -3  -2  -5   56.12    1.84
   3   2   5   56.62    1.84
   3   2   5   54.55    1.85
  -4  -2  -5  247.31    7.66
  -4  -2  -5  263.86    7.73
   4   2   5  258.53    7.67
   4   2   5  257.96    7.70
  -5  -2  -5    2.31    0.23
  -5  -2  -5    3.17    0.23
   5   2   5    2.27    0.24
   5   2   5    3.04    0.24
  -6  -2  -5  154.51    4.87
  -6  -2  -5  151.74    4.80
   6   2   5  158.18    4.85
   6   2   5  148.51    4.79
  -7  -2  -5    1.17    0.20
  -7  -2  -5    1.46    0.22
  -7  -2  -5    1.14    0.20
   7   2   5    1.71    0.30
   7   2   5    1.59    0.21
  -8  -2  -5   49.92    1.91
  -8  -2  -5   49.81    1.84
   8   2   5   46.69    1.80
   8   2   5   52.22    1.87
  -9  -2  -5    8.82    0.59
  -9  -2  -5   10.78    0.58
  -9  -2  -5    9.51    0.61
   9   2   5    8.93    0.55
   9   2   5   10.25    0.64
   9   2   5    8.19    0.61
 -10  -2  -5    0.61    0.34
 -10  -2  -5    0.68    0.19
 -10  -2  -5    0.32    0.33
  10   2   5    0.50    0.42
  10   2   5    0.42    0.32
  10   2   5   -0.02    0.38
   8  -3  -5    2.08    0.53
  -8   3   5    2.73    0.43
   7  -3  -5    0.82    0.40
  -7   3   5    0.48    0.28
   6  -3  -5    0.81    0.31
   6  -3  -5    1.18    0.21
  -6   3   5    0.90    0.22
  -6   3   5    1.13    0.19
   5  -3  -5   18.17    0.73
   5  -3  -5   18.35    0.96
  -5   3   5   17.17    0.98
  -5   3   5   17.78    0.84
   4  -3  -5   65.85    2.36
  -4   3   5   62.45    2.40
  -4   3   5   65.12    2.25
   3  -3  -5  284.09    8.52
  -3   3   5  270.32    8.56
  -3   3   5  287.14    8.44
   2  -3  -5   40.07    1.46
   2  -3  -5   37.35    1.32
   2  -3  -5   42.46    1.30
   2  -3  -5   38.35    1.26
  -2   3   5   37.60    1.50
  -2   3   5   39.82    1.37
  -2   3   5   39.59    1.44
   1  -3  -5  413.05   12.35
   1  -3  -5  439.60   12.59
   1  -3  -5  424.15   12.37
   1  -3  -5  433.20   12.38
  -1   3   5  408.87   12.41
  -1   3   5  432.70   12.53
  -1   3   5  442.41   12.38
  -1   3   5  415.45   12.36
   0  -3  -5  174.08    5.43
   0  -3  -5  182.42    5.50
   0  -3  -5  181.98    5.45
   0   3   5  178.40    5.43
   0   3   5  190.16    5.47
   0   3   5  189.61    5.57
   0   3   5  187.65    5.46
  -1  -3  -5  156.03    4.76
  -1  -3  -5  159.12    4.77
   1   3   5  159.65    4.76
   1   3   5  160.61    4.76
   1   3   5  158.27    4.77
  -2  -3  -5  152.72    4.70
  -2  -3  -5  153.92    4.69
   2   3   5  155.51    4.68
   2   3   5  157.39    4.70
   2   3   5  156.59    4.68
  -3  -3  -5   70.17    2.28
  -3  -3  -5   67.82    2.24
   3   3   5   69.71    2.24
  -4  -3  -5    6.59    0.38
  -4  -3  -5    5.61    0.37
   4   3   5    5.59    0.35
   4   3   5    6.07    0.39
  -5  -3  -5    5.32    0.37
  -5  -3  -5    6.02    0.35
   5   3   5    5.97    0.40
   5   3   5    5.91    0.36
  -6  -3  -5    1.16    0.18
  -6  -3  -5    1.17    0.18
   6   3   5    1.10    0.20
   6   3   5    1.06    0.19
  -7  -3  -5   10.29    0.54
  -7  -3  -5    9.86    0.58
  -7  -3  -5    9.23    0.45
   7   3   5    9.63    0.53
   7   3   5   11.09    0.60
  -8  -3  -5    0.08    0.17
  -8  -3  -5    0.27    0.13
   8   3   5    0.72    0.26
   8   3   5    0.07    0.15
  -9  -3  -5    7.31    0.53
  -9  -3  -5    6.88    0.55
  -9  -3  -5    7.93    0.49
   9   3   5    8.11    0.59
 -10  -3  -5   12.92    0.77
 -10  -3  -5   11.66    0.73
 -10  -3  -5   11.63    0.68
  10   3   5   13.14    0.79
  10   3   5   11.20    0.65
   7  -4  -5    1.00    0.46
  -7   4   5    1.41    0.29
   6  -4  -5    7.82    0.39
   6  -4  -5    5.72    0.63
   6  -4  -5    7.70    0.39
  -6   4   5    6.83    0.46
  -6   4   5    8.36    0.64
   5  -4  -5    0.09    0.28
  -5   4   5    0.37    0.19
  -5   4   5    0.29    0.15
   4  -4  -5    9.36    0.65
  -4   4   5    8.62    0.62
  -4   4   5   10.42    0.54
   3  -4  -5    0.88    0.15
   3  -4  -5    0.73    0.17
   3  -4  -5    0.79    0.17
  -3   4   5    1.04    0.22
  -3   4   5    0.93    0.18
   2  -4  -5   20.99    0.79
   2  -4  -5   23.09    0.83
   2  -4  -5   21.21    0.80
   2  -4  -5   21.41    0.96
  -2   4   5   22.34    0.80
  -2   4   5   21.07    0.87
  -2   4   5   21.20    0.79
  -2   4   5   21.24    0.90
   1  -4  -5   26.47    0.98
   1  -4  -5   27.03    1.09
   1  -4  -5   26.73    0.97
   1  -4  -5   28.24    1.00
  -1   4   5   27.99    1.03
  -1   4   5   26.81    0.97
  -1   4   5   28.33    1.07
  -1   4   5   28.07    0.99
   0  -4  -5   52.32    1.74
   0  -4  -5   50.16    1.72
   0  -4  -5   52.78    1.81
   0   4   5   53.40    1.74
   0   4   5   53.59    1.77
   0   4   5   52.61    1.72
  -1  -4  -5   53.12    1.73
  -1  -4  -5   52.33    1.76
  -1  -4  -5   50.20    1.72
   1   4   5   51.46    1.74
   1   4   5   51.62    1.73
   1   4   5   51.35    1.71
  -2  -4  -5   38.54    1.36
  -2  -4  -5   38.99    1.37
   2   4   5   39.26    1.38
   2   4   5   39.02    1.38
   2   4   5   38.44    1.35
  -3  -4  -5  128.95    3.98
  -3  -4  -5  126.82    3.93
   3   4   5  127.67    3.96
   3   4   5  125.13    3.92
  -4  -4  -5   74.10    2.46
  -4  -4  -5   76.40    2.54
   4   4   5   77.92    2.53
   4   4   5   73.67    2.45
  -5  -4  -5   74.18    2.48
  -5  -4  -5   73.84    2.57
   5   4   5   80.47    2.58
   5   4   5   71.81    2.46
  -6  -4  -5    1.26    0.19
  -6  -4  -5    1.65    0.27
   6   4   5    1.45    0.23
   6   4   5    1.57    0.24
  -7  -4  -5   10.27    0.64
  -7  -4  -5   11.76    0.58
  -7  -4  -5   11.10    0.53
   7   4   5   10.71    0.56
   7   4   5   11.35    0.64
  -8  -4  -5    6.99    0.36
  -8  -4  -5    6.37    0.42
   8   4   5    5.65    0.39
   8   4   5    6.07    0.52
  -9  -4  -5   15.39    0.76
  -9  -4  -5   16.22    0.86
  -9  -4  -5   16.74    0.88
   9   4   5   14.85    0.84
   9   4   5   14.90    0.73
 -10  -4  -5    9.59    0.71
 -10  -4  -5   10.65    0.68
 -10  -4  -5    9.43    0.62
  10   4   5   11.85    0.80
 -11  -4  -5   -0.35    0.39
 -11  -4  -5    0.42    0.57
  11   4   5   -0.32    0.56
  11   4   5    0.27    0.39
   7  -5  -5    1.66    0.61
   6  -5  -5    7.89    0.74
   6  -5  -5    8.99    0.45
  -6   5   5    8.26    0.68
  -6   5   5    9.49    0.51
   5  -5  -5   23.16    0.91
   5  -5  -5   22.79    1.18
   5  -5  -5   23.44    0.91
   5  -5  -5   22.03    0.88
  -5   5   5   20.99    1.19
  -5   5   5   22.53    0.95
   4  -5  -5   59.59    1.98
   4  -5  -5   56.45    1.91
   4  -5  -5   59.05    2.29
  -4   5   5   60.17    1.89
  -4   5   5   58.85    2.04
  -4   5   5   56.17    2.29
   3  -5  -5   91.73    2.82
   3  -5  -5   86.83    3.07
   3  -5  -5   83.39    2.74
  -3   5   5   84.09    3.08
  -3   5   5   86.11    2.87
  -3   5   5   85.22    2.75
  -3   5   5   89.52    2.74
  -3   5   5   88.17    2.87
   2  -5  -5   92.49    2.98
   2  -5  -5   96.64    3.02
   2  -5  -5   92.44    2.96
   2  -5  -5   92.22    3.19
  -2   5   5   94.62    2.98
  -2   5   5   93.85    3.05
  -2   5   5   94.52    3.06
  -2   5   5   97.94    2.98
   1  -5  -5  496.70   15.20
   1  -5  -5  509.05   15.23
   1  -5  -5  523.95   15.41
   1  -5  -5  540.08   15.26
  -1   5   5  524.89   15.23
  -1   5   5  523.76   15.29
  -1   5   5  525.24   15.23
  -1   5   5  531.22   15.30
   0  -5  -5   28.51    1.10
   0  -5  -5   29.11    1.09
   0  -5  -5   29.87    1.12
   0  -5  -5   29.68    1.19
   0   5   5   30.04    1.14
   0   5   5   30.79    1.10
   0   5   5   30.20    1.12
  -1  -5  -5  591.21   17.14
  -1  -5  -5  561.97   17.12
  -1  -5  -5  574.67   17.20
  -1  -5  -5  581.04   17.11
   1   5   5  598.54   17.18
   1   5   5  605.53   17.34
   1   5   5  603.14   17.13
  -2  -5  -5    4.92    0.32
  -2  -5  -5    5.64    0.34
  -2  -5  -5    5.23    0.33
   2   5   5    4.89    0.33
   2   5   5    5.09    0.34
   2   5   5    5.14    0.32
  -3  -5  -5  264.44    7.93
  -3  -5  -5  266.10    7.97
   3   5   5  271.53    8.01
   3   5   5  263.50    7.91
   3   5   5  261.13    7.96
  -4  -5  -5   84.78    2.78
  -4  -5  -5   84.67    2.83
   4   5   5   84.10    2.77
   4   5   5   88.36    2.85
  -5  -5  -5   34.56    1.38
  -5  -5  -5   34.10    1.29
   5   5   5   34.61    1.36
   5   5   5   33.02    1.27
  -6  -5  -5    9.92    0.57
  -6  -5  -5   10.16    0.53
  -6  -5  -5    9.88    0.52
   6   5   5   10.46    0.60
   6   5   5    9.56    0.51
  -7  -5  -5   22.55    0.95
  -7  -5  -5   21.87    0.91
   7   5   5   22.45    0.93
   7   5   5   22.42    1.03
  -8  -5  -5    7.93    0.47
  -8  -5  -5    7.46    0.41
   8   5   5    6.47    0.56
   8   5   5    7.15    0.43
  -9  -5  -5    5.10    0.46
  -9  -5  -5    4.41    0.38
  -9  -5  -5    4.97    0.52
  -9  -5  -5    4.66    0.32
   9   5   5    5.47    0.59
   9   5   5    4.12    0.37
 -10  -5  -5   -0.21    0.30
 -10  -5  -5    0.29    0.18
 -10  -5  -5   -0.08    0.40
  10   5   5    0.23    0.27
  10   5   5   -0.09    0.44
 -11  -5  -5    2.25    0.54
 -11  -5  -5    2.50    0.37
 -11  -5  -5    1.85    0.38
   6  -6  -5    6.21    0.78
   6  -6  -5    7.87    0.44
   6  -6  -5    7.87    0.53
  -6   6   5    7.41    0.65
  -6   6   5    7.19    0.45
   5  -6  -5    2.95    0.56
   5  -6  -5    1.82    0.30
   5  -6  -5    2.16    0.27
   5  -6  -5    1.73    0.37
  -5   6   5    2.50    0.28
  -5   6   5    2.35    0.40
  -5   6   5    2.64    0.25
   4  -6  -5    2.67    0.25
   4  -6  -5    2.62    0.27
   4  -6  -5    2.78    0.32
   4  -6  -5    1.86    0.36
  -4   6   5    2.07    0.27
  -4   6   5    2.40    0.22
  -4   6   5    1.89    0.25
  -4   6   5    2.27    0.30
  -4   6   5    1.69    0.25
   3  -6  -5    0.28    0.17
   3  -6  -5    0.15    0.23
   3  -6  -5    0.03    0.13
  -3   6   5    0.18    0.13
  -3   6   5   -0.05    0.15
  -3   6   5    0.17    0.14
  -3   6   5   -0.11    0.15
  -3   6   5    0.32    0.16
   2  -6  -5    5.51    0.32
   2  -6  -5    5.31    0.34
   2  -6  -5    5.03    0.36
   2  -6  -5    5.39    0.43
  -2   6   5    5.78    0.34
  -2   6   5    5.53    0.33
  -2   6   5    5.25    0.34
  -2   6   5    4.95    0.36
   1  -6  -5   36.62    1.35
   1  -6  -5   37.14    1.37
   1  -6  -5   31.49    1.41
   1  -6  -5   35.12    1.46
  -1   6   5   37.55    1.39
  -1   6   5   37.88    1.37
  -1   6   5   36.74    1.34
  -1   6   5   37.91    1.35
   0  -6  -5    9.62    0.51
   0  -6  -5    9.21    0.49
   0  -6  -5    9.72    0.49
   0  -6  -5    9.17    0.56
   0   6   5    9.17    0.48
   0   6   5   10.35    0.55
   0   6   5    9.46    0.50
  -1  -6  -5  111.34    3.59
  -1  -6  -5  113.17    3.57
  -1  -6  -5  111.62    3.68
  -1  -6  -5  112.84    3.60
   1   6   5  114.98    3.57
   1   6   5  115.66    3.61
   1   6   5  111.04    3.62
  -2  -6  -5    5.44    0.37
  -2  -6  -5    5.77    0.38
  -2  -6  -5    6.30    0.37
   2   6   5    6.00    0.37
   2   6   5    5.91    0.39
   2   6   5    6.13    0.39
  -3  -6  -5  174.20    5.44
  -3  -6  -5  180.65    5.48
  -3  -6  -5  175.59    5.49
   3   6   5  177.05    5.44
   3   6   5  179.52    5.50
   3   6   5  177.51    5.54
  -4  -6  -5    0.86    0.18
  -4  -6  -5    0.65    0.15
   4   6   5    0.68    0.15
  -5  -6  -5  154.76    4.92
  -5  -6  -5  159.18    5.04
  -5  -6  -5  157.65    4.98
   5   6   5  164.34    5.05
   5   6   5  156.33    4.91
  -6  -6  -5    0.15    0.12
  -6  -6  -5    0.12    0.17
  -6  -6  -5   -0.18    0.13
   6   6   5    0.05    0.13
   6   6   5   -0.16    0.18
  -7  -6  -5   60.43    2.14
  -7  -6  -5   62.37    2.14
  -7  -6  -5   63.11    2.49
   7   6   5   62.02    2.28
   7   6   5   56.83    2.14
  -8  -6  -5    0.93    0.17
  -8  -6  -5    0.78    0.19
   8   6   5    0.82    0.17
   8   6   5    1.03    0.30
  -9  -6  -5   15.16    0.67
  -9  -6  -5   14.56    0.87
  -9  -6  -5   14.25    0.72
   9   6   5   15.35    0.90
   9   6   5   14.44    0.69
 -10  -6  -5    5.00    0.71
 -10  -6  -5    4.21    0.45
 -10  -6  -5    4.42    0.36
 -10  -6  -5    5.48    0.45
  10   6   5    5.66    0.76
 -11  -6  -5    0.56    0.71
 -11  -6  -5    0.04    0.39
  11   6   5    0.39    1.02
  11   6   5    0.36    0.36
   6  -7  -5    3.23    0.55
   6  -7  -5    2.67    0.41
   6  -7  -5    2.32    0.38
  -6   7   5    2.42    0.34
   5  -7  -5    1.95    0.45
   5  -7  -5    2.17    0.48
   5  -7  -5    1.78    0.35
   5  -7  -5    1.95    0.32
  -5   7   5    1.62    0.38
  -5   7   5    2.37    0.27
  -5   7   5    1.72    0.31
   4  -7  -5   54.97    1.97
   4  -7  -5   55.21    1.97
   4  -7  -5   52.52    2.27
   4  -7  -5   54.70    1.89
  -4   7   5   57.53    1.88
  -4   7   5   55.35    1.90
  -4   7   5   57.02    1.94
  -4   7   5   54.92    1.89
  -4   7   5   48.64    2.13
   3  -7  -5   11.24    0.75
   3  -7  -5   11.75    0.62
   3  -7  -5   11.61    0.59
   3  -7  -5   11.61    0.62
  -3   7   5   12.02    0.59
  -3   7   5   11.30    0.64
  -3   7   5   12.32    0.62
  -3   7   5   11.08    0.57
   2  -7  -5  120.62    4.03
   2  -7  -5  125.95    4.00
   2  -7  -5  124.55    4.21
   2  -7  -5  122.33    3.92
   2  -7  -5  122.46    3.96
  -2   7   5  124.47    3.94
  -2   7   5  128.41    3.97
  -2   7   5  122.53    3.92
  -2   7   5  124.82    3.93
  -2   7   5  123.06    4.01
   1  -7  -5   37.31    1.42
   1  -7  -5   37.40    1.44
   1  -7  -5   39.40    1.60
   1  -7  -5   38.40    1.47
  -1   7   5   38.70    1.44
  -1   7   5   38.66    1.44
  -1   7   5   38.37    1.44
  -1   7   5   39.77    1.49
   0  -7  -5  145.42    4.78
   0  -7  -5  149.22    4.65
   0  -7  -5  143.75    4.60
   0  -7  -5  146.51    4.64
   0   7   5  146.85    4.61
   0   7   5  150.08    4.64
   0   7   5  148.44    4.68
  -1  -7  -5  145.12    4.60
  -1  -7  -5  146.15    4.60
  -1  -7  -5  147.89    4.72
  -1  -7  -5  144.59    4.57
   1   7   5  149.94    4.58
   1   7   5  147.32    4.61
   1   7   5  140.83    4.62
  -2  -7  -5   87.43    2.89
  -2  -7  -5   86.16    2.89
  -2  -7  -5   88.93    2.92
   2   7   5   88.39    2.89
   2   7   5   86.06    2.93
   2   7   5   86.17    2.92
  -3  -7  -5  184.88    5.75
  -3  -7  -5  186.38    5.80
  -3  -7  -5  181.40    5.76
   3   7   5  187.75    5.75
   3   7   5  190.33    5.81
   3   7   5  187.24    5.86
  -4  -7  -5    0.27    0.14
  -4  -7  -5    0.39    0.11
  -4  -7  -5    0.50    0.14
  -4  -7  -5    0.25    0.13
   4   7   5    0.35    0.16
   4   7   5    0.24    0.13
  -5  -7  -5   39.68    1.56
  -5  -7  -5   39.15    1.55
  -5  -7  -5   38.96    1.55
  -5  -7  -5   38.48    1.48
   5   7   5   38.25    1.47
   5   7   5   39.89    1.56
  -6  -7  -5   20.23    0.95
  -6  -7  -5   19.42    0.89
  -6  -7  -5   20.12    0.97
   6   7   5   20.30    0.89
   6   7   5   20.55    0.97
  -7  -7  -5    1.94    0.26
  -7  -7  -5    1.79    0.27
   7   7   5    1.93    0.26
   7   7   5    1.79    0.32
  -8  -7  -5   12.31    0.64
  -8  -7  -5   12.54    0.64
   8   7   5   11.44    0.76
   8   7   5   11.75    0.62
  -9  -7  -5   14.10    0.69
  -9  -7  -5   13.11    0.85
  -9  -7  -5   12.98    0.66
   9   7   5   12.74    0.86
   9   7   5   13.15    0.66
 -10  -7  -5    0.00    0.47
 -10  -7  -5   -0.12    0.26
 -10  -7  -5    0.20    0.18
 -10  -7  -5   -0.17    0.28
  10   7   5    0.17    0.30
  10   7   5   -0.31    0.46
   5  -8  -5    1.11    0.28
   5  -8  -5    0.89    0.63
   5  -8  -5    0.99    0.28
   5  -8  -5    0.93    0.37
  -5   8   5    0.83    0.24
  -5   8   5    0.69    0.30
  -5   8   5    0.54    0.30
  -5   8   5    0.80    0.24
   4  -8  -5    4.92    0.51
   4  -8  -5    5.48    0.69
   4  -8  -5    5.54    0.43
   4  -8  -5    5.42    0.42
  -4   8   5    5.78    0.46
  -4   8   5    4.84    0.35
  -4   8   5    4.46    0.42
  -4   8   5    5.53    0.45
  -4   8   5    4.71    0.38
   3  -8  -5    6.07    0.45
   3  -8  -5    5.10    0.57
   3  -8  -5    5.11    0.40
   3  -8  -5    4.90    0.46
  -3   8   5    4.31    0.43
  -3   8   5    4.98    0.37
  -3   8   5    5.09    0.41
  -3   8   5    5.87    0.49
   2  -8  -5   10.68    0.56
   2  -8  -5    9.48    0.66
   2  -8  -5   10.08    0.54
   2  -8  -5    9.39    0.59
   2  -8  -5   10.33    0.71
  -2   8   5    8.31    0.61
  -2   8   5   10.21    0.60
  -2   8   5   10.37    0.57
  -2   8   5   10.91    0.56
  -2   8   5    9.43    0.51
   1  -8  -5    9.07    0.52
   1  -8  -5    9.57    0.59
   1  -8  -5    8.78    0.54
   1  -8  -5    9.18    0.63
   1  -8  -5    9.15    0.55
  -1   8   5    9.27    0.53
  -1   8   5    9.02    0.51
  -1   8   5    9.14    0.56
  -1   8   5    9.69    0.57
   0  -8  -5    4.09    0.32
   0  -8  -5    3.92    0.34
   0  -8  -5    4.48    0.34
   0  -8  -5    4.52    0.37
   0  -8  -5    3.97    0.39
   0   8   5    3.92    0.33
   0   8   5    3.88    0.33
   0   8   5    4.16    0.35
  -1  -8  -5   20.12    0.99
  -1  -8  -5   20.05    0.91
  -1  -8  -5   20.40    0.92
  -1  -8  -5   19.19    0.89
  -1  -8  -5   19.91    0.99
   1   8   5   20.22    0.90
   1   8   5   20.34    0.94
   1   8   5   19.90    0.91
  -2  -8  -5    7.17    0.51
  -2  -8  -5    8.47    0.49
  -2  -8  -5    7.50    0.46
  -2  -8  -5    7.63    0.49
   2   8   5    7.68    0.50
   2   8   5    8.17    0.48
   2   8   5    7.50    0.46
  -3  -8  -5   17.02    0.80
  -3  -8  -5   17.38    0.84
  -3  -8  -5   16.71    0.89
  -3  -8  -5   17.93    0.83
   3   8   5   17.08    0.87
   3   8   5   17.53    0.81
   3   8   5   17.30    0.84
  -4  -8  -5   32.06    1.29
  -4  -8  -5   29.21    1.34
  -4  -8  -5   30.56    1.30
  -4  -8  -5   31.70    1.27
   4   8   5   31.83    1.31
   4   8   5   31.07    1.25
   4   8   5   31.43    1.35
  -5  -8  -5   24.88    1.15
  -5  -8  -5   26.23    1.20
  -5  -8  -5   26.57    1.15
  -5  -8  -5   26.64    1.11
   5   8   5   25.45    1.16
   5   8   5   26.82    1.10
   5   8   5   27.33    1.23
  -6  -8  -5   51.55    1.97
  -6  -8  -5   49.62    1.87
  -6  -8  -5   50.94    1.96
   6   8   5   50.90    1.87
   6   8   5   53.09    2.00
  -7  -8  -5   10.19    0.62
  -7  -8  -5   10.45    0.68
  -7  -8  -5   11.00    0.58
   7   8   5   10.90    0.69
   7   8   5   11.22    0.58
  -8  -8  -5    1.84    0.34
  -8  -8  -5    1.77    0.38
  -8  -8  -5    1.13    0.20
   8   8   5    1.10    0.20
   8   8   5    1.16    0.30
  -9  -8  -5    3.23    0.41
  -9  -8  -5    4.39    0.65
  -9  -8  -5    4.20    0.59
  -9  -8  -5    4.02    0.40
   9   8   5    2.74    0.40
   9   8   5    3.43    0.66
 -10  -8  -5    2.09    0.30
 -10  -8  -5    3.19    0.50
 -10  -8  -5    2.36    0.44
 -10  -8  -5    2.28    0.50
  10   8   5    1.97    0.46
  10   8   5    3.59    0.83
   5  -9  -5    2.06    0.71
  -5   9   5    2.18    0.46
  -5   9   5    1.43    0.38
   4  -9  -5    9.16    0.56
   4  -9  -5    7.37    0.89
   4  -9  -5    9.07    0.66
   4  -9  -5    7.74    0.90
  -4   9   5    7.77    0.52
  -4   9   5    7.04    0.57
  -4   9   5    7.31    0.61
  -4   9   5    7.71    0.63
  -4   9   5    8.40    0.47
   3  -9  -5   33.11    1.27
   3  -9  -5   29.44    1.29
   3  -9  -5   25.01    1.58
   3  -9  -5   29.97    1.47
  -3   9   5   31.59    1.23
  -3   9   5   30.43    1.28
  -3   9   5   32.75    1.18
  -3   9   5   29.51    1.24
  -3   9   5   29.33    1.29
   2  -9  -5  102.03    3.90
   2  -9  -5  110.69    3.73
   2  -9  -5  113.24    3.69
   2  -9  -5  109.49    3.95
  -2   9   5  113.58    3.71
  -2   9   5  113.81    3.70
   1  -9  -5    3.40    0.40
   1  -9  -5    2.91    0.34
   1  -9  -5    2.60    0.37
   1  -9  -5    2.13    0.43
   1  -9  -5    2.54    0.32
  -1   9   5    2.78    0.35
  -1   9   5    2.77    0.35
  -1   9   5    1.92    0.31
  -1   9   5    2.81    0.30
  -1   9   5    2.66    0.27
   0  -9  -5  218.49    7.08
   0  -9  -5  225.81    6.92
   0  -9  -5  232.61    6.99
   0  -9  -5  233.65    7.21
   0   9   5  225.12    6.96
   0   9   5  200.76    7.18
   0   9   5  228.48    6.96
  -1  -9  -5    0.16    0.19
  -1  -9  -5    0.45    0.22
  -1  -9  -5    0.27    0.17
  -1  -9  -5    0.52    0.18
  -1  -9  -5    0.55    0.17
   1   9   5    0.26    0.19
   1   9   5    0.19    0.17
  -2  -9  -5  114.74    3.80
  -2  -9  -5  117.61    3.84
  -2  -9  -5  113.38    3.78
  -2  -9  -5  110.44    3.93
   2   9   5  118.41    3.79
   2   9   5  113.34    3.84
   2   9   5  115.50    3.83
  -3  -9  -5    4.42    0.39
  -3  -9  -5    4.56    0.47
  -3  -9  -5    4.55    0.38
  -3  -9  -5    4.68    0.40
   3   9   5    4.12    0.37
   3   9   5    4.71    0.43
   3   9   5    4.68    0.40
  -4  -9  -5  142.52    4.59
  -4  -9  -5  139.04    4.66
  -4  -9  -5  143.58    4.64
  -4  -9  -5  141.11    4.76
   4   9   5  143.03    4.68
   4   9   5  144.02    4.59
   4   9   5  144.41    4.75
  -5  -9  -5   53.68    2.01
  -5  -9  -5   50.03    1.98
  -5  -9  -5   50.94    2.01
  -5  -9  -5   49.91    2.16
   5   9   5   52.86    2.01
   5   9   5   52.71    1.92
  -6  -9  -5    6.81    0.46
  -6  -9  -5    7.68    0.54
   6   9   5    6.72    0.54
   6   9   5    7.08    0.47
   6   9   5    6.49    0.55
  -7  -9  -5   25.50    1.58
  -7  -9  -5   22.02    1.00
  -7  -9  -5   23.45    1.13
  -7  -9  -5   23.23    1.16
   7   9   5   23.17    1.16
   7   9   5   22.19    0.99
  -8  -9  -5    9.24    0.57
  -8  -9  -5    9.10    0.70
  -8  -9  -5    8.59    0.54
   8   9   5    8.86    0.54
   8   9   5    9.91    1.17
  -9  -9  -5    0.46    0.33
  -9  -9  -5    0.89    0.45
  -9  -9  -5    0.95    0.29
  -9  -9  -5    0.86    0.46
   9   9   5    0.69    0.46
   9   9   5    0.81    0.26
 -10  -9  -5    1.51    0.34
 -10  -9  -5    1.37    0.55
 -10  -9  -5    1.03    0.54
  10   9   5    1.20    0.34
  10   9   5    0.83    0.59
   4 -10  -5    3.89    0.56
   4 -10  -5    3.44    0.56
   4 -10  -5    3.57    0.77
  -4  10   5    2.62    0.40
  -4  10   5    2.76    0.42
  -4  10   5    2.71    0.61
  -4  10   5    2.25    0.35
   3 -10  -5    0.03    0.54
   3 -10  -5    0.38    0.32
   3 -10  -5    0.75    0.36
  -3  10   5   -0.15    0.34
  -3  10   5    0.19    0.35
  -3  10   5    0.37    0.28
  -3  10   5   -0.19    0.33
  -3  10   5    0.07    0.23
   2 -10  -5    1.02    0.31
   2 -10  -5    2.26    0.43
   2 -10  -5    1.82    0.43
   2 -10  -5    1.39    0.29
  -2  10   5    1.41    0.31
  -2  10   5    1.35    0.26
  -2  10   5    1.32    0.20
  -2  10   5    1.54    0.31
   1 -10  -5    0.02    0.27
   1 -10  -5   -0.40    0.38
   1 -10  -5    0.21    0.24
   1 -10  -5    0.16    0.26
   1 -10  -5   -0.08    0.23
  -1  10   5   -0.29    0.26
  -1  10   5   -0.10    0.25
  -1  10   5   -0.10    0.23
  -1  10   5   -0.01    0.18
  -1  10   5    0.10    0.25
   0 -10  -5    4.06    0.50
   0 -10  -5    4.06    0.45
   0 -10  -5    5.03    0.43
   0 -10  -5    4.46    0.40
   0 -10  -5    3.07    0.41
   0  10   5    3.38    0.40
  -1 -10  -5    1.07    0.23
  -1 -10  -5    0.76    0.24
  -1 -10  -5    0.54    0.25
  -1 -10  -5    0.64    0.21
   1  10   5    0.72    0.21
   1  10   5    0.90    0.25
  -2 -10  -5   79.06    2.79
  -2 -10  -5   77.00    2.73
  -2 -10  -5   72.38    2.85
  -2 -10  -5   75.70    2.72
   2  10   5   78.42    2.72
   2  10   5   77.99    2.79
  -3 -10  -5    2.45    0.33
  -3 -10  -5    2.30    0.35
   3  10   5    2.80    0.36
   3  10   5    2.35    0.39
   3  10   5    2.60    0.32
  -4 -10  -5   42.34    1.69
  -4 -10  -5   42.70    1.73
  -4 -10  -5   40.80    2.03
   4  10   5   43.15    1.73
   4  10   5   42.35    1.65
   4  10   5   41.48    1.77
  -5 -10  -5    1.71    0.39
  -5 -10  -5    2.35    0.36
  -5 -10  -5    2.13    0.35
  -5 -10  -5    1.65    0.37
   5  10   5    1.91    0.27
   5  10   5    2.67    0.34
   5  10   5    1.68    0.40
  -6 -10  -5   37.56    1.60
  -6 -10  -5   31.39    1.71
  -6 -10  -5   35.12    1.53
   6  10   5   36.19    1.54
   6  10   5   34.95    1.41
  -7 -10  -5    2.48    0.48
  -7 -10  -5    2.87    0.51
  -7 -10  -5    3.67    0.50
   7  10   5    2.65    0.39
   7  10   5    2.66    0.57
   7  10   5    2.80    0.53
  -8 -10  -5   11.93    0.80
  -8 -10  -5    9.66    0.77
  -8 -10  -5   10.33    0.62
   8  10   5   11.38    0.81
   8  10   5   10.23    0.62
  -9 -10  -5    7.06    0.55
  -9 -10  -5    5.98    0.77
  -9 -10  -5    8.56    0.80
   9  10   5    9.11    0.84
   9  10   5    6.89    0.54
 -10 -10  -5    2.01    0.71
 -10 -10  -5    3.46    0.64
 -10 -10  -5    3.26    0.62
 -10 -10  -5    3.22    0.60
  10  10   5    2.89    0.41
  10  10   5    4.41    0.81
   3 -11  -5    9.93    1.01
   3 -11  -5   13.01    0.79
   3 -11  -5   11.51    0.77
   3 -11  -5   11.77    0.86
  -3  11   5   10.95    0.71
  -3  11   5   11.56    0.76
  -3  11   5   11.42    0.82
  -3  11   5   10.53    0.56
   2 -11  -5    8.76    0.87
   2 -11  -5    8.72    0.75
   2 -11  -5   11.42    0.71
   2 -11  -5   11.50    0.74
  -2  11   5   10.10    0.74
  -2  11   5   11.14    0.68
  -2  11   5    9.73    0.70
  -2  11   5    9.76    0.55
  -2  11   5    9.61    0.66
   1 -11  -5   49.82    1.86
   1 -11  -5   45.00    1.99
   1 -11  -5   46.95    2.06
   1 -11  -5   46.09    1.89
   1 -11  -5   49.99    1.89
  -1  11   5   45.50    1.86
  -1  11   5   47.05    1.86
  -1  11   5   47.22    1.84
  -1  11   5   48.19    1.74
  -1  11   5   47.64    1.83
   0 -11  -5   57.39    2.34
   0 -11  -5   60.49    2.20
   0 -11  -5   56.29    2.17
   0 -11  -5   55.32    2.12
   0 -11  -5   48.05    2.63
   0  11   5   56.77    2.16
   0  11   5   57.84    2.15
   0  11   5   57.03    2.17
  -1 -11  -5   34.68    1.61
  -1 -11  -5   35.10    1.49
  -1 -11  -5   35.11    1.47
  -1 -11  -5   38.03    1.53
   1  11   5   30.74    1.60
   1  11   5   36.46    1.47
  -2 -11  -5  102.53    3.57
  -2 -11  -5  103.76    3.57
  -2 -11  -5  106.71    3.63
   2  11   5  103.21    3.54
  -3 -11  -5    3.95    0.43
  -3 -11  -5    3.21    0.68
  -3 -11  -5    3.89    0.42
   3  11   5    3.63    0.41
   3  11   5    3.96    0.42
  -4 -11  -5   14.69    0.85
  -4 -11  -5   15.67    0.84
  -4 -11  -5   14.56    0.81
   4  11   5   14.48    0.79
   4  11   5   16.21    0.86
  -5 -11  -5    3.98    0.48
  -5 -11  -5    3.38    0.42
  -5 -11  -5    4.25    0.48
   5  11   5    3.99    0.51
   5  11   5    3.08    0.69
   5  11   5    3.63    0.41
  -6 -11  -5    5.67    0.58
  -6 -11  -5    5.88    0.49
  -6 -11  -5    5.83    0.57
  -6 -11  -5    5.97    0.56
   6  11   5    7.24    0.60
   6  11   5    5.99    0.61
  -7 -11  -5    8.34    0.59
  -7 -11  -5    7.53    0.70
  -7 -11  -5    9.80    0.71
  -7 -11  -5   10.78    0.79
   7  11   5   10.31    0.76
   7  11   5    9.70    0.60
   7  11   5    8.99    0.75
  -8 -11  -5    0.17    0.30
  -8 -11  -5    0.21    0.45
  -8 -11  -5    0.38    0.36
  -8 -11  -5    1.19    0.43
   8  11   5   -0.05    0.54
   8  11   5    0.54    0.50
   8  11   5    0.37    0.30
  -9 -11  -5    1.83    0.57
  -9 -11  -5    1.62    0.40
  -9 -11  -5    0.93    0.35
  -9 -11  -5    0.62    0.54
   9  11   5    2.57    0.54
   2 -12  -5    0.31    0.64
   2 -12  -5    1.23    0.45
   2 -12  -5    0.50    0.48
   2 -12  -5    1.12    0.44
  -2  12   5    0.49    0.48
  -2  12   5    0.42    0.38
  -2  12   5    0.16    0.46
  -2  12   5    0.94    0.27
  -2  12   5    0.02    0.46
   1 -12  -5    1.43    0.42
   1 -12  -5    1.72    0.38
   1 -12  -5    1.33    0.56
   1 -12  -5    1.44    0.41
  -1  12   5    0.88    0.40
  -1  12   5    1.25    0.24
  -1  12   5    1.40    0.35
  -1  12   5    1.79    0.40
   0 -12  -5    4.01    0.69
   0 -12  -5    4.85    1.00
   0 -12  -5    4.60    0.59
   0 -12  -5    5.04    0.53
   0 -12  -5    4.63    0.60
   0  12   5    5.24    0.53
   0  12   5    5.40    0.55
   0  12   5    5.00    0.60
  -1 -12  -5    0.22    0.35
  -1 -12  -5    0.19    0.41
  -1 -12  -5   -0.28    0.40
  -1 -12  -5   -0.04    0.34
   1  12   5    0.05    0.33
   1  12   5    0.40    0.32
   1  12   5    0.56    0.34
  -2 -12  -5    6.75    0.55
  -2 -12  -5    4.92    0.64
  -2 -12  -5    5.52    0.57
  -2 -12  -5    5.71    0.53
   2  12   5    6.38    0.60
   2  12   5    5.72    0.56
   2  12   5    6.10    0.55
  -3 -12  -5    1.51    0.31
  -3 -12  -5    0.70    0.36
  -3 -12  -5    0.60    0.32
  -3 -12  -5    0.95    0.28
   3  12   5    0.30    0.28
   3  12   5    1.37    0.30
   3  12   5    1.00    0.35
  -4 -12  -5    6.72    0.57
  -4 -12  -5    6.47    0.54
  -4 -12  -5    8.10    0.97
   4  12   5    6.10    0.53
   4  12   5    6.62    0.58
   4  12   5    6.61    0.62
  -5 -12  -5    4.57    0.59
  -5 -12  -5    5.10    0.56
  -5 -12  -5    4.08    0.57
  -5 -12  -5    4.61    0.49
   5  12   5    4.07    0.55
   5  12   5    4.05    0.51
   5  12   5    4.17    0.63
  -6 -12  -5    9.80    0.76
  -6 -12  -5    8.89    0.63
  -6 -12  -5    9.04    0.70
  -6 -12  -5    7.92    0.77
   6  12   5    9.18    0.75
   6  12   5    9.28    0.63
   6  12   5   10.27    0.75
  -7 -12  -5    1.47    0.45
  -7 -12  -5    0.74    0.32
  -7 -12  -5    1.40    0.36
  -7 -12  -5    1.05    0.44
   7  12   5    0.77    0.51
   7  12   5    0.43    0.34
   7  12   5    1.18    0.45
  -8 -12  -5    1.76    0.35
  -8 -12  -5    3.30    0.56
  -8 -12  -5    1.76    0.41
  -8 -12  -5    3.24    0.54
   8  12   5    2.42    0.41
   8  12   5    2.51    0.56
   8  12   5    2.39    0.53
  -9 -12  -5   -1.07    0.66
  -9 -12  -5   -0.19    0.50
  -9 -12  -5    0.14    0.39
   9  12   5   -0.20    0.64
   9  12   5   -0.06    0.42
   1 -13  -5   25.78    1.35
   1 -13  -5   31.07    1.44
   1 -13  -5   28.55    1.53
   1 -13  -5   32.68    1.42
  -1  13   5   25.76    1.37
   0 -13  -5    0.16    0.55
   0 -13  -5   -0.21    0.42
   0 -13  -5    0.97    0.51
   0 -13  -5   -0.23    0.45
   0 -13  -5    0.07    0.41
   0  13   5    0.65    0.49
   0  13   5   -0.32    0.39
   0  13   5    0.09    0.44
  -1 -13  -5   61.12    2.56
  -1 -13  -5   67.35    2.52
  -1 -13  -5   64.91    2.44
  -1 -13  -5   60.03    2.42
  -1 -13  -5   64.05    2.62
   1  13   5   62.05    2.44
   1  13   5   63.80    2.45
   1  13   5   65.56    2.43
  -2 -13  -5    4.85    0.61
  -2 -13  -5    4.77    0.66
  -2 -13  -5    5.48    0.60
  -2 -13  -5    4.98    0.69
   2  13   5    3.92    0.60
   2  13   5    3.93    0.89
   2  13   5    3.56    0.63
  -3 -13  -5   50.28    2.07
  -3 -13  -5   51.87    2.04
  -3 -13  -5   48.65    2.00
   3  13   5   50.66    2.06
   3  13   5   52.39    2.09
   3  13   5   49.89    1.99
  -4 -13  -5   30.58    1.42
  -4 -13  -5   28.49    1.31
  -4 -13  -5   28.07    1.48
  -4 -13  -5   30.70    1.41
   4  13   5   28.52    1.41
   4  13   5   29.15    1.37
   4  13   5   28.76    1.30
  -5 -13  -5   12.33    0.88
  -5 -13  -5   13.09    0.84
  -5 -13  -5   10.72    0.74
   5  13   5   13.55    0.91
   5  13   5   11.36    0.77
   5  13   5   12.44    0.93
  -6 -13  -5   13.83    0.86
  -6 -13  -5   15.71    0.95
  -6 -13  -5   15.81    1.00
   6  13   5   14.43    0.84
   6  13   5   15.60    0.98
   6  13   5   16.76    1.00
  -7 -13  -5    0.22    0.36
  -7 -13  -5    0.47    0.60
  -7 -13  -5   -0.44    0.50
  -7 -13  -5    0.91    0.55
   7  13   5    0.27    0.57
   7  13   5    0.47    0.40
   7  13   5    0.67    0.52
  -8 -13  -5    5.17    0.94
  -8 -13  -5    4.25    0.68
  -8 -13  -5    3.62    0.78
  -8 -13  -5    6.12    0.85
   8  13   5    5.57    0.70
   8  13   5    5.42    1.07
  -1 -14  -5    0.05    0.53
  -1 -14  -5    0.83    0.62
  -1 -14  -5    0.86    0.49
  -1 -14  -5    0.40    0.57
  -1 -14  -5    0.65    0.57
   1  14   5    0.36    0.51
  -2 -14  -5   -0.63    0.53
  -2 -14  -5    0.24    0.46
  -2 -14  -5    0.43    0.55
  -2 -14  -5   -0.07    0.49
   2  14   5    0.60    0.54
   2  14   5   -0.05    0.51
   2  14   5    0.42    0.43
  -3 -14  -5   12.14    0.85
  -3 -14  -5    9.38    1.01
  -3 -14  -5   13.29    0.92
  -3 -14  -5   12.15    0.97
   3  14   5    9.75    0.87
   3  14   5   10.36    0.85
  -4 -14  -5   -0.20    0.57
  -4 -14  -5   -0.10    0.50
  -4 -14  -5    0.05    0.40
  -4 -14  -5    0.24    0.50
   4  14   5    0.34    0.40
   4  14   5   -0.73    0.55
   4  14   5    0.22    0.47
  -5 -14  -5    4.37    0.83
  -5 -14  -5    4.31    0.82
  -5 -14  -5    3.15    0.45
  -5 -14  -5    4.30    0.76
   5  14   5    3.79    0.88
   5  14   5    3.53    0.45
   5  14   5    4.20    0.82
  -6 -14  -5    0.87    0.58
  -6 -14  -5    0.45    0.41
  -6 -14  -5    0.83    0.57
  -6 -14  -5    0.37    0.53
   6  14   5    0.75    0.47
   6  14   5    0.48    0.63
   6  14   5    0.33    0.56
  -7 -14  -5   10.07    1.01
  -7 -14  -5    9.43    0.80
   7  14   5   10.99    1.06
   4  12  -6    0.84    0.48
   4  12  -6   -0.27    0.43
   4  12  -6   -0.38    0.60
   4  12  -6    0.83    0.46
   4  12  -6   -0.05    0.49
  -4 -12   6    0.48    0.61
  -4 -12   6    0.38    0.54
  -4 -12   6    0.10    0.69
   3  12  -6    5.06    0.63
   3  12  -6    5.98    0.75
   3  12  -6    5.88    0.82
   3  12  -6    4.55    0.71
   3  12  -6    5.26    0.71
  -3 -12   6    5.84    0.80
  -3 -12   6    4.34    0.79
  -3 -12   6    3.75    0.51
   2  12  -6   -0.25    0.42
   2  12  -6    0.46    0.45
   2  12  -6    0.08    0.47
   2  12  -6    0.36    0.48
   2  12  -6    1.05    0.52
  -2 -12   6    0.49    0.50
  -2 -12   6    0.03    0.54
  -2 -12   6    0.04    0.47
   1  12  -6    0.28    0.44
   1  12  -6    0.62    0.48
   1  12  -6    1.35    0.48
   1  12  -6    1.26    0.47
   1  12  -6    1.31    0.47
  -1 -12   6    0.88    0.49
  -1 -12   6    0.41    0.52
  -1 -12   6    1.02    0.55
   0  12  -6    0.21    0.45
   0  12  -6    0.50    0.53
   0  12  -6    0.62    0.50
   0  12  -6    0.89    0.45
   0  12  -6    0.29    0.53
   0 -12   6    0.13    0.52
   0 -12   6    0.03    0.58
   0 -12   6    0.35    0.50
  -1  12  -6    1.15    0.43
  -1  12  -6    1.70    0.51
  -1  12  -6    0.79    0.60
  -1  12  -6    0.90    0.61
   1 -12   6    1.09    0.56
   1 -12   6    1.26    0.65
   1 -12   6    0.69    0.68
   1 -12   6    0.72    0.59
   6  11  -6    7.15    0.96
   6  11  -6   10.01    0.81
   6  11  -6    7.53    0.77
   6  11  -6    6.92    0.71
  -6 -11   6    7.55    0.80
  -6 -11   6    7.79    0.70
  -6 -11   6    9.42    0.58
  -6 -11   6    8.26    0.85
   5  11  -6    0.32    0.45
   5  11  -6    1.25    0.36
   5  11  -6    0.66    0.40
   5  11  -6    1.16    0.44
  -5 -11   6   -0.07    0.38
  -5 -11   6    0.33    0.41
  -5 -11   6    0.49    0.26
  -5 -11   6    0.61    0.47
   4  11  -6    8.83    0.69
   4  11  -6    8.35    0.78
   4  11  -6    8.32    0.62
   4  11  -6    7.67    0.99
   4  11  -6   10.87    0.74
  -4 -11   6   11.01    0.76
  -4 -11   6    9.64    0.73
  -4 -11   6    9.02    0.73
  -4 -11   6    8.33    0.48
   3  11  -6   21.67    1.09
   3  11  -6   23.83    1.12
   3  11  -6   23.45    1.15
   3  11  -6   20.88    1.14
   3  11  -6   21.21    1.02
  -3 -11   6   22.50    1.13
  -3 -11   6   21.07    1.16
  -3 -11   6   21.73    1.09
   2  11  -6    0.96    0.36
   2  11  -6    0.60    0.35
   2  11  -6    0.83    0.38
   2  11  -6    1.29    0.43
   2  11  -6    1.23    0.38
  -2 -11   6    0.32    0.49
  -2 -11   6    0.70    0.43
  -2 -11   6    0.65    0.42
   1  11  -6   33.31    1.37
   1  11  -6   29.22    1.39
   1  11  -6   31.67    1.42
   1  11  -6   30.56    1.45
   1  11  -6   32.02    1.37
  -1 -11   6   30.65    1.39
  -1 -11   6   29.66    1.45
  -1 -11   6   31.12    1.44
   0  11  -6    0.24    0.42
   0  11  -6    0.09    0.36
   0  11  -6    0.17    0.44
   0  11  -6    0.80    0.37
   0  11  -6    0.74    0.42
   0 -11   6   -0.40    0.45
   0 -11   6    0.39    0.44
   0 -11   6    0.50    0.49
  -1  11  -6   14.57    0.87
  -1  11  -6   15.40    0.89
  -1  11  -6   13.67    0.96
  -1  11  -6   18.07    0.88
  -1  11  -6   15.22    0.96
   1 -11   6   15.98    1.01
   1 -11   6   17.75    0.99
   1 -11   6   16.01    0.95
   1 -11   6   13.75    1.03
  -2  11  -6    6.27    0.60
  -2  11  -6    4.54    0.79
  -2  11  -6    5.85    0.65
  -2  11  -6    7.00    0.66
  -2  11  -6    5.90    0.80
   2 -11   6    6.36    0.89
   2 -11   6    6.99    0.76
  -3  11  -6    3.81    0.72
   3 -11   6    2.57    0.74
   6  10  -6    0.84    0.39
   6  10  -6    0.41    0.34
   6  10  -6    0.71    0.55
   6  10  -6    0.44    0.41
  -6 -10   6    0.69    0.42
  -6 -10   6    0.87    0.25
  -6 -10   6    0.65    0.40
  -6 -10   6    0.36    0.34
   5  10  -6    2.29    0.43
   5  10  -6    3.81    0.52
   5  10  -6    4.07    0.56
   5  10  -6    3.37    0.58
   5  10  -6    4.14    0.66
  -5 -10   6    3.05    0.37
  -5 -10   6    2.76    0.58
  -5 -10   6    4.56    0.57
  -5 -10   6    3.21    0.38
   4  10  -6    0.41    0.32
   4  10  -6    0.37    0.40
   4  10  -6    0.57    0.29
   4  10  -6    0.37    0.34
   4  10  -6    0.67    0.34
  -4 -10   6    0.10    0.21
  -4 -10   6    0.34    0.35
  -4 -10   6    0.44    0.35
  -4 -10   6   -0.07    0.36
   3  10  -6    1.30    0.31
   3  10  -6    1.37    0.35
   3  10  -6    1.27    0.28
   3  10  -6    1.13    0.32
   3  10  -6    1.18    0.37
  -3 -10   6    1.06    0.32
  -3 -10   6    0.64    0.32
   2  10  -6    6.14    0.54
   2  10  -6    6.50    0.59
   2  10  -6    5.83    0.53
   2  10  -6    5.19    0.48
  -2 -10   6    5.05    0.55
  -2 -10   6    6.54    0.58
  -2 -10   6    5.10    0.58
   1  10  -6    1.50    0.33
   1  10  -6    2.49    0.44
   1  10  -6    1.46    0.30
   1  10  -6    1.50    0.30
  -1 -10   6    1.54    0.33
  -1 -10   6    1.73    0.33
  -1 -10   6    2.02    0.36
   0  10  -6    3.22    0.44
   0  10  -6    2.13    0.48
   0  10  -6    3.32    0.49
   0  10  -6    2.61    0.49
   0 -10   6    2.62    0.57
   0 -10   6    3.31    0.53
   0 -10   6    2.21    0.35
  -1  10  -6    0.59    0.31
  -1  10  -6    0.38    0.37
  -1  10  -6    0.71    0.33
  -1  10  -6    0.21    0.35
  -1  10  -6    0.16    0.31
   1 -10   6    0.19    0.34
   1 -10   6    0.13    0.43
   1 -10   6    0.19    0.38
   1 -10   6    0.69    0.39
  -2  10  -6    0.15    0.44
  -2  10  -6   -0.14    0.33
  -2  10  -6    0.68    0.39
  -2  10  -6    0.07    0.34
  -2  10  -6    0.32    0.34
   2 -10   6   -0.04    0.37
   2 -10   6   -0.03    0.43
   2 -10   6    0.43    0.37
   2 -10   6    0.09    0.48
  -3  10  -6    1.93    0.41
  -3  10  -6    1.25    0.33
  -3  10  -6    1.30    0.48
  -3  10  -6    1.68    0.50
   3 -10   6    1.93    0.47
   3 -10   6    1.46    0.55
   3 -10   6    2.40    0.43
  -4  10  -6    0.01    0.56
  -4  10  -6    0.67    0.37
  -4  10  -6    0.13    0.40
  -4  10  -6    0.74    0.47
  -4  10  -6    1.03    0.60
   4 -10   6    0.25    0.53
   4 -10   6    1.11    0.47
   4 -10   6    0.35    0.61
   4 -10   6    0.72    0.70
   7   9  -6    1.01    0.30
   7   9  -6    0.58    0.60
   7   9  -6    0.32    0.39
   7   9  -6    0.83    0.37
  -7  -9   6    0.82    0.24
  -7  -9   6    0.82    0.38
  -7  -9   6    0.74    0.39
  -7  -9   6    0.41    0.27
   6   9  -6    0.77    0.29
   6   9  -6    1.80    0.54
   6   9  -6    0.54    0.34
   6   9  -6    0.33    0.32
  -6  -9   6    0.86    0.22
  -6  -9   6    0.69    0.33
   5   9  -6    3.16    0.37
   5   9  -6    4.78    0.58
   5   9  -6    5.17    0.48
   5   9  -6    4.68    0.50
   5   9  -6    4.00    0.45
  -5  -9   6    3.75    0.47
  -5  -9   6    3.55    0.55
  -5  -9   6    4.35    0.36
   4   9  -6   13.55    0.73
   4   9  -6   13.25    0.70
   4   9  -6   12.39    0.65
   4   9  -6   13.29    0.75
   4   9  -6   12.34    0.81
  -4  -9   6   12.46    0.57
  -4  -9   6   12.71    0.75
  -4  -9   6   12.91    0.69
  -4  -9   6   11.82    0.71
   3   9  -6    7.80    0.54
   3   9  -6    6.58    0.48
   3   9  -6    6.87    0.56
   3   9  -6    7.31    0.56
   3   9  -6    7.72    0.54
  -3  -9   6    7.15    0.55
  -3  -9   6    8.32    0.56
  -3  -9   6    5.35    0.88
   2   9  -6   21.51    0.99
   2   9  -6   20.19    0.95
   2   9  -6   20.04    0.93
   2   9  -6   19.39    1.06
   2   9  -6   19.45    0.97
  -2  -9   6   21.70    1.01
   1   9  -6   52.75    1.98
   1   9  -6   50.46    1.95
   1   9  -6   54.66    1.91
   1   9  -6   50.72    2.08
   1   9  -6   51.23    2.01
  -1  -9   6   52.76    2.01
  -1  -9   6   42.46    2.22
   0   9  -6    2.05    0.38
   0   9  -6    1.52    0.36
   0   9  -6    1.29    0.26
   0   9  -6    1.77    0.39
   0   9  -6    1.39    0.26
   0  -9   6    2.20    0.46
   0  -9   6    1.75    0.40
  -1   9  -6   34.16    1.53
  -1   9  -6   33.30    1.44
  -1   9  -6   34.61    1.44
  -1   9  -6   35.56    1.50
  -1   9  -6   32.96    1.46
   1  -9   6   36.87    1.72
   1  -9   6   33.44    1.47
   1  -9   6   32.12    1.51
   1  -9   6   34.91    1.47
  -2   9  -6    0.09    0.29
  -2   9  -6    0.02    0.36
  -2   9  -6   -0.15    0.27
   2  -9   6   -0.13    0.30
   2  -9   6   -0.04    0.32
   2  -9   6    0.41    0.39
   2  -9   6    0.08    0.40
  -3   9  -6    4.88    0.63
  -3   9  -6    6.11    0.95
  -3   9  -6    7.17    0.56
  -3   9  -6    5.85    0.53
   3  -9   6    6.12    0.71
   3  -9   6    6.39    0.73
   3  -9   6    7.54    0.64
   3  -9   6    7.43    0.60
  -4   9  -6    0.18    0.44
  -4   9  -6    0.17    0.52
  -4   9  -6    0.36    0.30
  -4   9  -6    0.01    0.36
  -4   9  -6    0.89    0.36
   4  -9   6   -0.32    0.39
   4  -9   6    0.94    0.54
   4  -9   6    0.27    0.37
   4  -9   6   -0.79    0.55
  -5   9  -6    2.74    0.59
  -5   9  -6    3.88    0.58
  -5   9  -6    2.94    0.58
   5  -9   6    2.93    0.65
   5  -9   6    3.67    0.70
   7   8  -6    0.58    0.26
  -7  -8   6    0.69    0.29
  -7  -8   6    0.31    0.23
  -7  -8   6    0.50    0.23
   6   8  -6    9.76    0.54
   6   8  -6    9.99    0.59
   6   8  -6    8.94    0.63
  -6  -8   6   10.68    0.59
  -6  -8   6   11.10    0.68
  -6  -8   6    9.35    0.51
   5   8  -6    0.56    0.35
   5   8  -6    0.44    0.27
   5   8  -6    0.37    0.22
   5   8  -6    0.29    0.24
  -5  -8   6    0.45    0.18
  -5  -8   6    0.27    0.22
  -5  -8   6    0.18    0.30
   4   8  -6   36.15    1.36
   4   8  -6   35.28    1.54
   4   8  -6   34.49    1.41
   4   8  -6   33.85    1.38
   4   8  -6   32.50    1.30
  -4  -8   6   28.23    1.55
  -4  -8   6   34.81    1.24
  -4  -8   6   35.39    1.34
   3   8  -6   11.62    0.63
   3   8  -6   10.77    0.64
   3   8  -6   12.14    0.76
   3   8  -6   10.50    0.57
   3   8  -6   12.56    0.65
  -3  -8   6   11.73    0.65
  -3  -8   6   10.84    0.48
  -3  -8   6   11.60    0.62
   2   8  -6    7.72    0.53
   2   8  -6    8.71    0.54
   2   8  -6    7.99    0.57
   2   8  -6    8.42    0.53
   2   8  -6    7.63    0.49
  -2  -8   6    8.81    0.55
  -2  -8   6    8.62    0.54
   1   8  -6    5.75    0.45
   1   8  -6    5.83    0.51
   1   8  -6    6.04    0.45
  -1  -8   6    5.72    0.48
  -1  -8   6    7.08    0.49
   0   8  -6    3.09    0.33
   0   8  -6    2.44    0.33
   0   8  -6    2.61    0.33
   0   8  -6    2.55    0.34
   0   8  -6    3.00    0.37
   0  -8   6    2.42    0.37
   0  -8   6    2.37    0.38
  -1   8  -6    4.04    0.43
  -1   8  -6    4.17    0.41
  -1   8  -6    4.57    0.45
  -1   8  -6    4.79    0.41
  -1   8  -6    4.64    0.38
   1  -8   6    4.68    0.47
   1  -8   6    4.17    0.41
   1  -8   6    3.62    0.44
   1  -8   6    4.18    0.44
  -2   8  -6    5.42    0.45
  -2   8  -6    5.93    0.51
  -2   8  -6    5.99    0.53
  -2   8  -6    6.09    0.44
  -2   8  -6    6.24    0.71
   2  -8   6    5.96    0.51
   2  -8   6    7.08    0.49
   2  -8   6    5.80    0.57
   2  -8   6    5.27    0.50
  -3   8  -6    7.61    0.49
  -3   8  -6    7.22    0.55
  -3   8  -6    6.86    0.58
  -3   8  -6    8.16    0.61
   3  -8   6    6.93    0.54
   3  -8   6    6.32    0.65
   3  -8   6    7.13    0.78
   3  -8   6    5.99    0.99
  -4   8  -6   10.13    0.69
  -4   8  -6   10.49    0.86
  -4   8  -6    8.61    0.57
  -4   8  -6    8.15    0.69
   4  -8   6   10.30    0.69
   4  -8   6    7.25    0.75
   4  -8   6    9.06    0.73
   4  -8   6    8.72    0.61
  -5   8  -6    0.23    0.46
  -5   8  -6    0.23    0.28
  -5   8  -6    0.25    0.32
   5  -8   6    0.37    0.51
   5  -8   6    0.03    0.57
   5  -8   6    0.41    0.36
  -6   8  -6    0.43    0.30
  -6   8  -6    1.21    0.54
  -6   8  -6    0.21    0.52
   6  -8   6   -0.06    0.74
   6  -8   6    1.34    0.62
   8   7  -6    0.99    0.37
  -8  -7   6    1.15    0.25
   7   7  -6   -0.06    0.29
  -7  -7   6    0.58    0.32
  -7  -7   6    0.21    0.21
   6   7  -6    2.18    0.42
   6   7  -6    1.46    0.33
   6   7  -6    1.37    0.21
  -6  -7   6    1.23    0.21
  -6  -7   6    1.49    0.22
  -6  -7   6    1.32    0.28
   5   7  -6    1.96    0.31
   5   7  -6    1.70    0.38
   5   7  -6    1.77    0.24
   5   7  -6    1.30    0.23
  -5  -7   6    1.64    0.38
  -5  -7   6    1.41    0.28
  -5  -7   6    1.63    0.32
   4   7  -6    4.02    0.32
   4   7  -6    4.57    0.42
   4   7  -6    4.72    0.39
   4   7  -6    4.54    0.43
   4   7  -6    4.23    0.38
  -4  -7   6    5.01    0.45
  -4  -7   6    4.28    0.35
  -4  -7   6    4.85    0.32
  -4  -7   6    3.95    0.39
   3   7  -6   25.64    1.06
   3   7  -6   24.50    1.05
   3   7  -6   25.28    1.05
   3   7  -6   23.18    1.05
  -3  -7   6   25.12    1.04
  -3  -7   6   24.64    0.90
  -3  -7   6   25.14    1.18
   2   7  -6  135.56    4.41
   2   7  -6  138.04    4.64
   2   7  -6  139.19    4.47
   2   7  -6  144.19    4.46
   2   7  -6  136.85    4.38
  -2  -7   6  140.78    4.46
  -2  -7   6  136.45    5.12
  -2  -7   6  132.82    4.72
   1   7  -6    1.25    0.22
   1   7  -6    1.53    0.26
   1   7  -6    1.56    0.25
   1   7  -6    1.49    0.26
  -1  -7   6    0.95    0.30
  -1  -7   6    1.96    0.30
  -1  -7   6    1.52    0.33
   0   7  -6  164.71    5.30
   0   7  -6  166.57    5.41
   0   7  -6  169.04    5.29
   0   7  -6  164.28    5.35
   0   7  -6  168.25    5.16
   0  -7   6  159.17    5.36
   0  -7   6  170.73    5.38
  -1   7  -6   63.60    2.26
  -1   7  -6   62.39    2.29
  -1   7  -6   62.94    2.11
  -1   7  -6   61.25    2.34
  -1   7  -6   59.65    2.29
   1  -7   6   64.65    2.24
   1  -7   6   57.04    2.34
   1  -7   6   62.62    2.35
   1  -7   6   60.80    2.28
  -2   7  -6   49.81    1.96
  -2   7  -6   49.19    1.91
  -2   7  -6   47.83    1.87
  -2   7  -6   50.51    1.76
   2  -7   6   49.69    1.88
   2  -7   6   47.46    1.89
   2  -7   6   51.11    1.89
   2  -7   6   49.96    2.02
  -3   7  -6   77.14    2.83
  -3   7  -6   76.91    2.52
  -3   7  -6   71.54    2.61
  -3   7  -6   71.89    2.62
  -3   7  -6   76.92    2.76
   3  -7   6   73.13    2.65
   3  -7   6   73.71    2.67
   3  -7   6   71.31    2.79
   3  -7   6   75.47    2.61
  -4   7  -6    8.00    0.63
  -4   7  -6    8.65    0.51
  -4   7  -6    8.53    0.59
  -4   7  -6    7.41    0.51
  -4   7  -6    7.06    0.49
   4  -7   6    7.19    0.64
   4  -7   6    8.85    0.54
   4  -7   6    6.89    0.71
  -5   7  -6   14.97    0.93
  -5   7  -6   16.19    0.88
  -5   7  -6   14.14    0.75
  -5   7  -6   14.42    0.70
   5  -7   6   14.37    0.91
   5  -7   6   13.14    0.90
   5  -7   6   14.94    1.07
   5  -7   6   16.55    0.73
  -6   7  -6    0.30    0.24
  -6   7  -6   -0.02    0.35
  -6   7  -6    0.03    0.31
  -6   7  -6    0.46    0.47
  -6   7  -6   -0.19    0.45
   6  -7   6   -0.27    0.38
   6  -7   6   -0.09    0.47
   6  -7   6   -0.30    0.57
   7  -7   6    1.25    0.62
   8   6  -6    9.62    0.64
  -8  -6   6    9.37    0.64
   7   6  -6    0.01    0.29
  -7  -6   6    0.54    0.20
   6   6  -6   25.75    0.90
   6   6  -6   22.34    1.23
  -6  -6   6   25.79    1.16
  -6  -6   6   25.77    1.13
   5   6  -6    3.40    0.30
   5   6  -6    3.69    0.39
   5   6  -6    3.82    0.29
  -5  -6   6    3.63    0.31
  -5  -6   6    3.13    0.27
  -5  -6   6    3.93    0.37
   4   6  -6   32.38    1.40
   4   6  -6   32.09    1.19
   4   6  -6   30.27    1.21
  -4  -6   6   31.18    1.51
  -4  -6   6   31.71    1.17
  -4  -6   6   32.23    1.22
  -4  -6   6   30.88    1.19
   3   6  -6    2.04    0.21
   3   6  -6    1.53    0.24
   3   6  -6    1.82    0.26
   3   6  -6    1.89    0.31
   3   6  -6    1.49    0.26
  -3  -6   6    1.74    0.21
  -3  -6   6    1.71    0.25
  -3  -6   6    1.57    0.24
  -3  -6   6    1.98    0.30
   2   6  -6   23.92    1.01
   2   6  -6   24.06    1.14
   2   6  -6   23.54    1.02
   2   6  -6   23.30    0.98
   2   6  -6   25.11    0.99
  -2  -6   6   23.01    1.11
  -2  -6   6   24.34    1.01
  -2  -6   6   23.23    0.81
  -2  -6   6   24.94    1.04
   1   6  -6    0.08    0.14
   1   6  -6   -0.13    0.14
   1   6  -6   -0.13    0.15
   1   6  -6   -0.07    0.17
  -1  -6   6   -0.15    0.16
  -1  -6   6    0.08    0.15
  -1  -6   6   -0.01    0.17
   0   6  -6    3.00    0.29
   0   6  -6    3.08    0.30
   0   6  -6    2.87    0.32
   0   6  -6    3.29    0.35
   0   6  -6    3.58    0.28
   0  -6   6    3.26    0.30
   0  -6   6    3.38    0.35
   0  -6   6    3.05    0.33
  -1   6  -6    0.11    0.18
  -1   6  -6    0.08    0.13
  -1   6  -6    0.40    0.16
   1  -6   6   -0.07    0.17
   1  -6   6    0.18    0.18
   1  -6   6    0.00    0.18
  -2   6  -6   13.84    0.79
  -2   6  -6   13.70    0.73
  -2   6  -6   14.00    0.75
  -2   6  -6   14.56    0.64
  -2   6  -6   14.19    0.73
   2  -6   6   13.85    0.73
   2  -6   6   14.49    0.79
   2  -6   6   14.40    0.71
   2  -6   6   14.00    0.74
  -3   6  -6    0.87    0.24
  -3   6  -6    0.83    0.17
  -3   6  -6    0.80    0.18
  -3   6  -6    0.53    0.18
   3  -6   6    0.39    0.26
  -4   6  -6    1.97    0.45
  -4   6  -6    1.64    0.25
  -4   6  -6    1.39    0.28
  -4   6  -6    2.21    0.30
   4  -6   6    2.43    0.34
   4  -6   6    2.47    0.30
  -5   6  -6    0.68    0.20
  -5   6  -6    0.75    0.24
  -5   6  -6    0.02    0.31
   5  -6   6    0.02    0.36
   5  -6   6    0.17    0.38
   5  -6   6    0.34    0.27
  -6   6  -6    4.83    0.62
  -6   6  -6    4.28    0.43
  -6   6  -6    5.58    0.37
  -6   6  -6    5.69    0.48
   6  -6   6    3.50    0.64
   6  -6   6    3.81    0.68
   6  -6   6    5.83    0.55
  -7   6  -6    0.90    0.32
  -7   6  -6    1.26    0.48
  -7   6  -6    1.92    0.36
   7  -6   6    2.30    0.56
   7  -6   6    1.54    0.40
   7  -6   6    0.79    0.62
  -8  -5   6    2.17    0.37
   7   5  -6    1.83    0.37
  -7  -5   6    1.79    0.32
   6   5  -6    4.18    0.41
  -6  -5   6    4.45    0.39
   5   5  -6    2.46    0.34
   5   5  -6    1.85    0.21
  -5  -5   6    2.01    0.18
  -5  -5   6    1.64    0.26
  -5  -5   6    1.98    0.29
   4   5  -6    0.62    0.13
   4   5  -6    0.30    0.18
   4   5  -6    0.41    0.13
   4   5  -6    0.54    0.12
  -4  -5   6    0.42    0.12
  -4  -5   6    0.78    0.14
  -4  -5   6    0.73    0.13
  -4  -5   6    0.72    0.17
   3   5  -6   37.89    1.42
   3   5  -6   39.88    1.39
   3   5  -6   36.16    1.37
   3   5  -6   40.07    1.60
   3   5  -6   36.87    1.35
  -3  -5   6   37.21    1.36
  -3  -5   6   37.77    1.33
  -3  -5   6   38.96    1.54
  -3  -5   6   38.11    1.39
   2   5  -6   19.15    0.83
   2   5  -6   20.64    0.87
   2   5  -6   19.55    0.96
   2   5  -6   20.33    0.83
   2   5  -6   19.25    0.85
  -2  -5   6   20.32    0.95
  -2  -5   6   19.76    0.84
  -2  -5   6   20.62    0.99
  -2  -5   6   19.57    0.71
  -2  -5   6   20.02    0.86
   1   5  -6    9.36    0.49
   1   5  -6    9.08    0.50
   1   5  -6    8.31    0.44
   1   5  -6    8.71    0.47
   1   5  -6    8.79    0.56
  -1  -5   6    8.58    0.48
  -1  -5   6    8.42    0.53
  -1  -5   6    9.10    0.50
  -1  -5   6    8.54    0.54
   0   5  -6   83.64    2.59
   0   5  -6   79.76    2.77
   0   5  -6   79.42    2.83
   0   5  -6   80.25    2.72
   0   5  -6   82.75    2.73
   0  -5   6   80.19    2.73
   0  -5   6   79.41    2.73
   0  -5   6   85.15    2.79
   0  -5   6   78.60    2.78
  -1   5  -6    1.11    0.21
  -1   5  -6    0.94    0.18
  -1   5  -6    1.28    0.20
  -1   5  -6    1.25    0.22
   1  -5   6    1.18    0.24
   1  -5   6    1.34    0.21
   1  -5   6    1.32    0.24
   1  -5   6    1.15    0.18
   1  -5   6    1.09    0.21
  -2   5  -6  114.50    3.78
  -2   5  -6  107.01    3.64
  -2   5  -6  112.91    3.48
  -2   5  -6  109.98    3.63
   2  -5   6  112.14    3.58
   2  -5   6  111.93    3.78
   2  -5   6  108.39    3.63
   2  -5   6  111.70    3.67
  -3   5  -6    2.00    0.26
  -3   5  -6    2.07    0.25
  -3   5  -6    1.99    0.30
   3  -5   6    1.44    0.28
   3  -5   6    1.91    0.33
   3  -5   6    2.29    0.25
  -4   5  -6   70.07    2.41
  -4   5  -6   69.91    2.63
  -4   5  -6   70.40    2.22
   4  -5   6   71.90    2.38
   4  -5   6   68.93    2.50
   4  -5   6   70.14    2.66
   4  -5   6   70.64    2.52
  -5   5  -6    5.32    0.37
  -5   5  -6    4.86    0.47
  -5   5  -6    4.95    0.36
   5  -5   6    4.87    0.51
   5  -5   6    4.44    0.49
  -6   5  -6    7.70    0.49
  -6   5  -6    7.26    0.43
  -6   5  -6    7.79    0.48
   6  -5   6    8.30    0.68
   6  -5   6    7.23    0.62
   6  -5   6    8.28    0.55
  -7   5  -6    0.69    0.17
  -7   5  -6    0.94    0.27
  -7   5  -6    0.24    0.39
  -7   5  -6    1.07    0.28
   7  -5   6    0.92    0.33
   7  -5   6    0.18    0.52
   7  -5   6    0.40    0.40
  -8   5  -6    1.59    0.33
  -8   5  -6    1.20    0.39
  -8   5  -6    1.06    0.55
   8  -5   6    1.04    0.43
   8  -5   6    0.38    0.51
   8  -5   6    0.50    0.69
   8   4  -6    0.13    0.36
  -8  -4   6    0.33    0.21
   7   4  -6   29.89    1.27
  -7  -4   6   32.53    1.43
   6   4  -6    3.88    0.39
  -6  -4   6    3.77    0.35
   5   4  -6   50.20    1.91
  -5  -4   6   50.70    1.88
   4   4  -6   19.00    0.70
   4   4  -6   19.53    0.71
   4   4  -6   19.38    0.93
  -4  -4   6   18.59    0.98
  -4  -4   6   18.48    0.83
  -4  -4   6   18.22    0.68
   3   4  -6  102.89    3.26
   3   4  -6  100.21    3.28
   3   4  -6  108.49    3.57
   3   4  -6  111.38    3.30
  -3  -4   6  108.72    3.30
  -3  -4   6  103.30    3.59
  -3  -4   6  105.80    3.27
  -3  -4   6  105.25    3.49
  -3  -4   6  105.78    3.33
   2   4  -6   35.84    1.31
   2   4  -6   36.71    1.49
   2   4  -6   37.63    1.33
   2   4  -6   35.46    1.29
   2   4  -6   37.33    1.30
  -2  -4   6   36.12    1.23
  -2  -4   6   36.29    1.50
  -2  -4   6   36.74    1.32
  -2  -4   6   36.31    1.44
  -2  -4   6   36.92    1.31
   1   4  -6   38.95    1.58
   1   4  -6   39.18    1.35
   1   4  -6   40.83    1.45
   1   4  -6   38.88    1.43
   1   4  -6   38.78    1.45
  -1  -4   6   40.37    1.45
  -1  -4   6   41.18    1.46
  -1  -4   6   39.53    1.54
  -1  -4   6   39.74    1.26
  -1  -4   6   41.77    1.58
   0   4  -6   20.73    0.85
   0   4  -6   18.70    0.85
   0   4  -6   18.91    0.90
   0   4  -6   20.25    0.73
   0  -4   6   18.74    0.84
   0  -4   6   19.26    0.86
   0  -4   6   18.75    0.88
   0  -4   6   19.15    0.86
  -1   4  -6   16.43    0.75
  -1   4  -6   16.19    0.63
  -1   4  -6   16.46    0.79
  -1   4  -6   16.55    0.80
   1  -4   6   16.04    0.79
   1  -4   6   15.59    0.75
   1  -4   6   16.56    0.69
   1  -4   6   15.86    0.72
   1  -4   6   16.58    0.77
  -2   4  -6   24.94    0.90
  -2   4  -6   24.36    1.04
  -2   4  -6   24.59    1.09
  -2   4  -6   23.88    1.02
   2  -4   6   23.86    1.01
   2  -4   6   24.93    1.10
   2  -4   6   22.68    1.01
   2  -4   6   24.38    0.96
  -3   4  -6    5.03    0.31
  -3   4  -6    4.94    0.35
  -3   4  -6    5.35    0.36
  -3   4  -6    4.92    0.39
  -3   4  -6    5.12    0.24
   3  -4   6    5.21    0.35
   3  -4   6    4.21    0.28
   3  -4   6    5.38    0.40
  -4   4  -6    0.56    0.21
  -4   4  -6    0.79    0.15
  -4   4  -6    0.47    0.14
   4  -4   6    0.60    0.20
   4  -4   6    0.78    0.13
   4  -4   6    0.72    0.19
  -5   4  -6    0.14    0.15
  -5   4  -6    0.29    0.23
  -5   4  -6    0.10    0.15
  -5   4  -6   -0.01    0.15
   5  -4   6    0.47    0.25
   5  -4   6   -0.10    0.33
   5  -4   6    0.46    0.20
  -6   4  -6    1.44    0.29
  -6   4  -6    1.29    0.23
  -6   4  -6    0.66    0.25
  -6   4  -6    1.16    0.16
   6  -4   6    0.94    0.39
   6  -4   6    1.65    0.32
   6  -4   6    1.19    0.24
  -7   4  -6    0.25    0.26
  -7   4  -6    0.62    0.22
   7  -4   6    0.41    0.37
   7  -4   6    0.38    0.44
   7  -4   6    0.25    0.30
  -8   4  -6    1.53    0.31
  -8   4  -6    1.41    0.41
   8  -4   6    1.94    0.56
   8  -4   6    2.05    0.42
   8  -4   6    1.88    0.41
   8   3  -6    1.00    0.35
  -8  -3   6    1.55    0.29
   7   3  -6   11.22    0.65
   7   3  -6   10.93    0.60
  -7  -3   6   11.25    0.71
   6   3  -6   18.94    0.89
  -6  -3   6   19.72    0.98
   5   3  -6    0.32    0.17
  -5  -3   6    0.49    0.14
   4   3  -6   26.16    1.12
  -4  -3   6   25.34    1.06
  -4  -3   6   24.16    1.17
   3   3  -6   47.54    1.52
   3   3  -6   44.75    1.50
   3   3  -6   46.34    1.77
  -3  -3   6   45.79    1.62
  -3  -3   6   48.66    1.51
  -3  -3   6   45.77    1.83
   2   3  -6    0.35    0.09
   2   3  -6    0.10    0.09
   2   3  -6    0.20    0.11
   2   3  -6    0.20    0.08
  -2  -3   6    0.26    0.11
  -2  -3   6    0.22    0.09
  -2  -3   6    0.24    0.10
   1   3  -6  325.68    9.74
   1   3  -6  322.33    9.76
   1   3  -6  327.61    9.96
  -1  -3   6  335.28    9.93
  -1  -3   6  331.05    9.75
  -1  -3   6  329.09    9.76
  -1  -3   6  347.63    9.65
  -1  -3   6  325.79    9.89
   0   3  -6   48.96    1.77
   0   3  -6   53.87    1.77
   0   3  -6   50.34    1.87
   0  -3   6   53.47    1.85
   0  -3   6   50.68    1.78
   0  -3   6   50.04    1.76
   0  -3   6   50.36    1.83
  -1   3  -6  235.92    6.92
  -1   3  -6  221.97    6.99
  -1   3  -6  224.54    6.97
   1  -3   6  231.04    6.92
   1  -3   6  223.89    6.95
   1  -3   6  238.57    6.99
   1  -3   6  227.57    6.92
  -2   3  -6  188.20    5.66
  -2   3  -6  188.33    5.48
  -2   3  -6  187.57    5.78
  -2   3  -6  180.73    5.74
   2  -3   6  164.57    5.72
   2  -3   6  193.36    5.56
   2  -3   6  185.90    5.68
  -3   3  -6   74.86    2.28
  -3   3  -6   71.90    2.48
   3  -3   6   73.91    2.38
   3  -3   6   73.94    2.63
   3  -3   6   74.57    2.54
   3  -3   6   75.58    2.45
  -4   3  -6  174.32    5.58
  -4   3  -6  175.29    5.24
  -4   3  -6  170.78    5.34
  -4   3  -6  177.55    5.46
   4  -3   6  165.91    5.20
   4  -3   6  173.12    5.60
   4  -3   6  177.23    5.43
   4  -3   6  177.21    5.47
  -5   3  -6    4.22    0.30
  -5   3  -6    4.18    0.45
  -5   3  -6    4.47    0.29
  -5   3  -6    4.55    0.33
   5  -3   6    4.53    0.35
   5  -3   6    4.60    0.39
   5  -3   6    4.13    0.28
  -6   3  -6   81.00    2.60
  -6   3  -6   83.54    2.69
  -6   3  -6   77.77    2.83
  -6   3  -6   82.96    2.94
   6  -3   6   83.22    2.81
   6  -3   6   80.95    2.94
   6  -3   6   78.33    2.88
  -7   3  -6    6.53    0.53
  -7   3  -6    6.99    0.44
   7  -3   6    5.70    0.56
   7  -3   6    5.83    0.50
  -8   3  -6    1.55    0.29
  -8   3  -6    2.23    0.36
   8  -3   6    1.98    0.31
   8  -3   6    1.58    0.48
   8  -3   6    1.89    0.38
  -9   3  -6    2.11    0.40
  -9   3  -6    2.51    0.41
  -9   3  -6    1.95    0.47
   9  -3   6    2.12    0.58
   9  -3   6    1.10    0.48
   8   2  -6    3.44    0.53
   8   2  -6    3.45    0.38
  -8  -2   6    2.64    0.41
   7   2  -6    7.56    0.54
   7   2  -6    7.16    0.47
  -7  -2   6    7.78    0.59
   6   2  -6    5.52    0.42
   6   2  -6    5.88    0.41
  -6  -2   6    5.98    0.49
   5   2  -6   97.03    3.16
  -5  -2   6   93.78    3.23
  -5  -2   6   92.91    3.30
   4   2  -6    2.92    0.28
  -4  -2   6    2.67    0.30
  -4  -2   6    2.81    0.28
   3   2  -6   54.35    1.64
   3   2  -6   53.68    1.93
  -3  -2   6   51.71    1.84
  -3  -2   6   52.23    1.98
   2   2  -6    5.39    0.27
   2   2  -6    5.49    0.28
   2   2  -6    5.37    0.39
   2   2  -6    5.21    0.26
  -2  -2   6    5.60    0.32
  -2  -2   6    4.96    0.39
  -2  -2   6    5.68    0.27
   1   2  -6  219.21    6.75
   1   2  -6  229.01    6.99
   1   2  -6  224.85    6.78
  -1  -2   6  233.78    6.75
  -1  -2   6  227.91    6.77
  -1  -2   6  231.19    6.76
  -1  -2   6  232.82    6.99
   0   2  -6    4.88    0.30
   0   2  -6    5.03    0.36
   0   2  -6    5.28    0.32
   0  -2   6    5.69    0.32
   0  -2   6    5.64    0.36
   0  -2   6    5.44    0.32
  -1   2  -6   24.95    1.06
  -1   2  -6   26.08    1.04
   1  -2   6   27.16    1.04
   1  -2   6   24.46    1.00
   1  -2   6   26.63    1.05
  -2   2  -6    6.04    0.38
  -2   2  -6    6.15    0.40
   2  -2   6    5.83    0.31
   2  -2   6    5.85    0.37
   2  -2   6    5.69    0.35
   2  -2   6    6.36    0.41
  -3   2  -6   32.81    1.25
  -3   2  -6   30.89    1.21
  -3   2  -6   31.66    1.31
  -3   2  -6   31.24    1.04
   3  -2   6   32.05    1.25
   3  -2   6   31.42    1.15
   3  -2   6   32.28    1.16
   3  -2   6   32.64    1.33
  -4   2  -6    0.21    0.10
  -4   2  -6    0.07    0.13
   4  -2   6    0.01    0.13
   4  -2   6    0.56    0.17
  -5   2  -6    1.42    0.29
  -5   2  -6    2.01    0.19
  -5   2  -6    1.66    0.22
  -5   2  -6    1.76    0.19
   5  -2   6    1.99    0.22
   5  -2   6    2.07    0.27
   5  -2   6    1.88    0.28
   5  -2   6    2.48    0.26
  -6   2  -6    8.51    0.50
  -6   2  -6    8.16    0.54
  -6   2  -6    8.43    0.46
  -6   2  -6    8.76    0.41
   6  -2   6    8.50    0.55
   6  -2   6    7.54    0.39
   6  -2   6    9.26    0.52
  -7   2  -6    3.68    0.31
  -7   2  -6    3.87    0.40
   7  -2   6    2.89    0.43
   7  -2   6    3.67    0.38
   7  -2   6    2.54    0.40
  -8   2  -6    9.58    0.66
  -8   2  -6   10.30    0.60
  -8   2  -6   10.47    0.58
   8  -2   6   10.16    0.64
   8  -2   6    8.92    0.70
   8  -2   6    9.35    0.66
  -9   2  -6    0.25    0.22
  -9   2  -6    0.23    0.50
  -9   2  -6    0.38    0.35
   9  -2   6   -0.17    0.48
   9  -2   6    0.53    0.37
   9  -2   6   -0.49    0.41
   8   1  -6    5.32    0.56
   8   1  -6    4.65    0.40
  -8  -1   6    4.56    0.50
   7   1  -6    3.91    0.36
   7   1  -6    3.50    0.44
  -7  -1   6    4.31    0.44
   6   1  -6    1.70    0.26
   6   1  -6    2.51    0.34
  -6  -1   6    1.86    0.33
   5   1  -6    1.26    0.26
   5   1  -6    1.04    0.21
  -5  -1   6    0.78    0.16
  -5  -1   6    0.87    0.17
   4   1  -6    1.59    0.21
   4   1  -6    1.06    0.23
  -4  -1   6    1.37    0.25
  -4  -1   6    1.46    0.29
   3   1  -6    2.50    0.26
   3   1  -6    3.10    0.22
  -3  -1   6    2.41    0.26
  -3  -1   6    2.36    0.25
   2   1  -6   55.59    1.95
   2   1  -6   53.95    1.73
  -2  -1   6   54.65    1.99
  -2  -1   6   55.13    1.86
   1   1  -6  145.30    4.35
   1   1  -6  142.10    4.54
   1   1  -6  139.22    4.31
  -1  -1   6  141.96    4.33
  -1  -1   6  152.03    4.58
  -1  -1   6  144.42    4.31
  -1  -1   6  150.77    4.41
   0   1  -6    3.24    0.26
   0   1  -6    3.31    0.21
   0   1  -6    2.84    0.21
   0  -1   6    3.64    0.28
   0  -1   6    3.18    0.22
   0  -1   6    3.25    0.21
  -1   1  -6  347.11   10.30
  -1   1  -6  351.44   10.26
  -1   1  -6  330.72   10.34
   1  -1   6  367.59   10.33
   1  -1   6  333.89   10.30
   1  -1   6  360.91   10.30
  -2   1  -6   64.15    2.23
  -2   1  -6   67.84    2.20
  -2   1  -6   63.77    2.21
   2  -1   6   64.74    2.19
   2  -1   6   65.90    2.17
   2  -1   6   68.19    2.25
  -3   1  -6   80.83    2.58
  -3   1  -6   77.50    2.62
  -3   1  -6   75.09    2.51
   3  -1   6   79.82    2.64
   3  -1   6   70.16    2.57
   3  -1   6   80.18    2.45
   3  -1   6   76.40    2.55
  -4   1  -6   23.18    1.03
  -4   1  -6   26.59    1.02
  -4   1  -6   21.97    0.90
   4  -1   6   23.12    0.94
   4  -1   6   23.40    0.98
   4  -1   6   22.76    1.03
  -5   1  -6   57.68    2.09
  -5   1  -6   53.77    1.86
  -5   1  -6   56.09    1.88
  -5   1  -6   58.18    2.03
   5  -1   6   56.04    2.08
   5  -1   6   57.46    2.01
   5  -1   6   57.02    2.02
  -6   1  -6   20.85    0.98
  -6   1  -6   19.43    0.84
  -6   1  -6   19.97    0.77
  -6   1  -6   20.06    0.96
   6  -1   6   21.29    0.92
   6  -1   6   20.41    0.97
   6  -1   6   20.02    0.95
  -7   1  -6    4.70    0.40
  -7   1  -6    4.55    0.33
   7  -1   6    4.61    0.46
   7  -1   6    4.25    0.39
  -8   1  -6    6.83    0.46
  -8   1  -6    6.05    0.50
   8  -1   6    6.57    0.52
   8  -1   6    6.39    0.55
   8  -1   6    7.15    0.53
  -9   1  -6   -0.09    0.30
  -9   1  -6    0.26    0.19
  -9   1  -6    0.69    0.48
   9  -1   6    0.34    0.35
   9  -1   6    0.89    0.45
  10  -1   6    0.05    0.48
   8   0  -6    8.61    0.71
   8   0  -6    7.97    0.46
   7   0  -6    2.18    0.46
   7   0  -6    2.47    0.30
  -7   0   6    2.48    0.36
   6   0  -6   34.04    1.27
   6   0  -6   33.74    1.38
  -6   0   6   33.75    1.55
  -6   0   6   32.59    1.44
   5   0  -6   16.36    0.72
   5   0  -6   14.94    0.75
  -5   0   6   14.58    0.84
  -5   0   6   14.75    0.80
   4   0  -6  123.94    3.88
   4   0  -6  123.62    3.87
  -4   0   6  118.77    4.00
  -4   0   6  121.48    4.01
   3   0  -6   73.66    2.34
   3   0  -6   72.56    2.42
  -3   0   6   69.77    2.50
  -3   0   6   70.49    2.46
   2   0  -6   43.02    1.41
   2   0  -6   41.86    1.54
  -2   0   6   43.34    1.54
  -2   0   6   41.46    1.60
   1   0  -6  121.85    3.84
   1   0  -6  131.68    3.88
   1   0  -6  125.90    4.08
  -1   0   6  139.68    4.04
  -1   0   6  130.44    4.13
  -1   0   6  131.48    3.84
   0   0  -6   87.14    2.75
   0   0  -6   84.20    2.70
   0   0   6   89.79    2.74
   0   0   6   90.89    2.71
   0   0   6   90.74    2.88
  -1   0  -6  162.07    4.88
  -1   0  -6  152.14    4.91
   1   0   6  165.15    4.98
   1   0   6  161.96    4.87
   1   0   6  170.59    4.94
  -2   0  -6  101.99    3.24
  -2   0  -6   99.12    3.28
   2   0   6  105.81    3.26
   2   0   6  103.26    3.23
   2   0   6  106.17    3.29
  -3   0  -6  146.78    4.70
  -3   0  -6  153.49    4.67
  -3   0  -6  148.41    4.63
   3   0   6  154.31    4.55
   3   0   6  153.25    4.71
   3   0   6  150.53    4.66
  -4   0  -6   18.42    0.85
  -4   0  -6   18.26    0.76
  -4   0  -6   19.50    0.83
   4   0   6   18.44    0.81
   4   0   6   18.79    0.85
   4   0   6   19.07    0.78
  -5   0  -6    0.87    0.19
   5   0   6    0.74    0.14
   5   0   6    0.91    0.20
   5   0   6    0.69    0.15
  -6   0  -6    8.46    0.40
  -6   0  -6    8.36    0.46
  -6   0  -6    9.98    0.55
  -6   0  -6    9.33    0.53
   6   0   6    8.80    0.50
   6   0   6    9.91    0.58
   6   0   6    8.92    0.52
  -7   0  -6    8.17    0.49
  -7   0  -6    8.18    0.38
  -7   0  -6    8.89    0.54
   7   0   6    8.75    0.53
   7   0   6    9.29    0.57
   7   0   6   10.23    0.55
  -8   0  -6    0.57    0.23
   8   0   6    0.93    0.24
   8   0   6    1.05    0.26
   8   0   6    0.65    0.27
  -9   0  -6   -0.03    0.17
  -9   0  -6    0.30    0.29
  -9   0  -6    0.24    0.30
   9   0   6   -0.07    0.30
   9   0   6   -0.15    0.31
   9   0   6   -0.26    0.36
 -10   0  -6   -0.02    0.21
 -10   0  -6    0.47    0.40
 -10   0  -6   -0.20    0.63
  10   0   6    0.10    0.43
  10   0   6   -0.04    0.48
  10   0   6    0.59    0.42
   8  -1  -6    9.19    0.81
  -8   1   6   11.50    0.79
   7  -1  -6    0.92    0.38
   7  -1  -6    1.29    0.28
  -7   1   6    1.10    0.27
   6  -1  -6    9.48    0.50
  -6   1   6    9.68    0.69
  -6   1   6    9.38    0.59
   5  -1  -6   11.73    0.66
   5  -1  -6   12.71    0.58
  -5   1   6   11.80    0.67
  -5   1   6   11.37    0.72
   4  -1  -6    6.25    0.39
   4  -1  -6    6.37    0.43
  -4   1   6    6.51    0.44
  -4   1   6    6.13    0.47
   3  -1  -6    5.14    0.36
   3  -1  -6    5.03    0.35
  -3   1   6    5.09    0.40
  -3   1   6    5.40    0.38
   2  -1  -6   57.34    1.80
   2  -1  -6   61.53    1.97
  -2   1   6   61.34    2.10
  -2   1   6   61.70    2.13
   1  -1  -6   40.51    1.34
  -1   1   6   40.88    1.51
  -1   1   6   41.29    1.29
   0  -1  -6  236.35    6.96
   0  -1  -6  219.14    6.99
   0   1   6  241.89    7.16
   0   1   6  243.02    6.97
   0   1   6  248.26    7.01
  -1  -1  -6  321.76   10.38
  -1  -1  -6  356.93   10.36
   1   1   6  367.34   10.49
   1   1   6  365.61   10.41
   1   1   6  361.21   10.36
  -2  -1  -6  159.53    5.01
  -2  -1  -6  167.35    4.99
   2   1   6  164.89    4.98
   2   1   6  166.96    5.02
  -3  -1  -6  774.27   22.47
  -3  -1  -6  746.27   22.48
   3   1   6  786.19   22.47
   3   1   6  787.40   22.50
  -4  -1  -6   46.97    1.67
  -4  -1  -6   45.71    1.66
   4   1   6   44.47    1.64
  -5  -1  -6  277.84    8.35
  -5  -1  -6  271.15    8.50
   5   1   6  278.27    8.34
  -6  -1  -6   10.10    0.46
  -6  -1  -6   10.33    0.58
  -6  -1  -6   10.42    0.59
   6   1   6   10.89    0.58
   6   1   6   12.21    0.61
  -7  -1  -6   28.45    1.02
  -7  -1  -6   30.64    1.26
  -7  -1  -6   29.41    1.22
   7   1   6   30.97    1.27
   7   1   6   31.42    1.25
  -8  -1  -6   17.41    0.84
  -8  -1  -6   15.98    0.83
   8   1   6   18.22    0.86
   8   1   6   18.82    0.87
   8   1   6   16.56    0.82
  -9  -1  -6    0.62    0.17
  -9  -1  -6    0.82    0.28
  -9  -1  -6    0.56    0.27
   9   1   6    0.61    0.28
   9   1   6    1.33    0.35
   9   1   6    0.24    0.32
 -10  -1  -6    0.78    0.52
 -10  -1  -6    0.37    0.36
  10   1   6   -0.14    0.38
  10   1   6    0.22    0.42
  10   1   6    0.88    0.57
   8  -2  -6    6.02    0.74
  -8   2   6    7.95    0.67
   7  -2  -6    1.61    0.39
   7  -2  -6    2.00    0.29
  -7   2   6    1.27    0.29
   6  -2  -6   61.22    2.34
   6  -2  -6   64.82    2.10
  -6   2   6   61.45    2.52
  -6   2   6   61.19    2.29
   5  -2  -6    1.47    0.22
   5  -2  -6    1.82    0.28
  -5   2   6    1.30    0.23
  -5   2   6    1.30    0.28
   4  -2  -6  139.07    4.27
   4  -2  -6  138.32    4.42
  -4   2   6  138.50    4.43
  -4   2   6  132.38    4.53
   3  -2  -6   19.85    0.86
  -3   2   6   18.85    0.88
  -3   2   6   18.79    0.93
   2  -2  -6  126.92    3.88
   2  -2  -6  136.83    4.11
  -2   2   6  133.96    4.21
  -2   2   6  131.17    4.22
   1  -2  -6  129.05    4.29
   1  -2  -6  146.84    4.35
   1  -2  -6  140.90    4.26
  -1   2   6  142.91    4.28
  -1   2   6  147.12    4.50
  -1   2   6  154.34    4.27
   0  -2  -6  230.60    6.80
   0  -2  -6  243.34    6.81
   0  -2  -6  223.02    6.81
   0   2   6  237.40    6.81
   0   2   6  224.57    6.80
   0   2   6  225.75    6.75
   0   2   6  234.71    6.99
  -1  -2  -6  134.19    4.11
  -1  -2  -6  135.58    4.10
   1   2   6  135.00    4.10
   1   2   6  137.99    4.23
   1   2   6  135.09    4.11
  -2  -2  -6   17.24    0.70
  -2  -2  -6   17.26    0.71
   2   2   6   16.26    0.69
   2   2   6   17.22    0.71
  -3  -2  -6   29.82    1.14
  -3  -2  -6   31.65    1.14
   3   2   6   28.72    1.12
   3   2   6   28.42    1.13
  -4  -2  -6    3.95    0.31
  -4  -2  -6    4.62    0.31
   4   2   6    4.70    0.32
   4   2   6    4.28    0.31
  -5  -2  -6   16.82    0.82
  -5  -2  -6   18.39    0.82
   5   2   6   17.90    0.82
   5   2   6   18.31    0.82
  -6  -2  -6   22.75    1.02
  -6  -2  -6   23.70    1.01
   6   2   6   24.07    1.02
   6   2   6   22.77    1.00
  -7  -2  -6    3.16    0.34
  -7  -2  -6    3.45    0.31
   7   2   6    3.86    0.36
  -8  -2  -6   13.09    0.68
  -8  -2  -6   13.06    0.72
   8   2   6   12.94    0.65
   8   2   6   13.69    0.72
  -9  -2  -6    5.88    0.52
  -9  -2  -6    5.96    0.45
  -9  -2  -6    5.39    0.47
   9   2   6    6.30    0.60
   9   2   6    5.32    0.46
   9   2   6    7.09    0.54
 -10  -2  -6    0.12    0.34
 -10  -2  -6    0.12    0.39
 -10  -2  -6    0.02    0.18
  10   2   6    0.05    0.34
  10   2   6    0.98    0.57
  10   2   6    0.57    0.39
   7  -3  -6    2.42    0.31
   7  -3  -6    3.34    0.61
  -7   3   6    2.29    0.42
   6  -3  -6   11.50    0.52
   6  -3  -6    8.99    0.69
  -6   3   6   10.04    0.75
  -6   3   6   10.75    0.60
   5  -3  -6    2.73    0.26
  -5   3   6    1.83    0.26
  -5   3   6    2.15    0.32
   4  -3  -6    1.95    0.44
  -4   3   6    1.40    0.24
  -4   3   6    1.52    0.23
   3  -3  -6    1.37    0.25
  -3   3   6    1.19    0.23
  -3   3   6    1.85    0.23
   2  -3  -6    4.26    0.22
   2  -3  -6    4.45    0.32
  -2   3   6    4.83    0.28
  -2   3   6    3.93    0.34
  -2   3   6    4.87    0.34
   1  -3  -6    0.33    0.07
   1  -3  -6    0.20    0.07
   1  -3  -6    0.32    0.11
   1  -3  -6    0.35    0.08
  -1   3   6    0.33    0.08
  -1   3   6    0.22    0.08
  -1   3   6    0.28    0.11
   0  -3  -6   95.34    3.06
   0  -3  -6  100.36    3.08
   0  -3  -6   99.50    3.12
   0   3   6  100.63    3.23
   0   3   6  100.67    3.07
   0   3   6   98.63    3.06
   0   3   6  105.51    3.09
  -1  -3  -6    0.49    0.09
   1   3   6    0.46    0.12
   1   3   6    0.58    0.11
  -2  -3  -6  358.45   10.72
  -2  -3  -6  374.14   10.74
   2   3   6  366.80   10.71
   2   3   6  361.01   10.72
   2   3   6  364.24   10.68
  -3  -3  -6   53.60    1.80
  -3  -3  -6   52.38    1.82
   3   3   6   51.62    1.78
  -4  -3  -6  125.41    3.95
  -4  -3  -6  125.84    4.02
   4   3   6  130.08    4.02
   4   3   6  124.68    3.95
  -5  -3  -6   69.39    2.35
  -5  -3  -6   69.11    2.43
   5   3   6   71.45    2.42
   5   3   6   68.84    2.34
  -6  -3  -6   40.17    1.54
  -6  -3  -6   40.24    1.60
   6   3   6   43.53    1.62
   6   3   6   40.40    1.54
  -7  -3  -6   20.59    0.92
  -7  -3  -6   18.53    1.19
   7   3   6   20.14    0.90
   7   3   6   22.94    0.99
  -8  -3  -6    1.05    0.19
  -8  -3  -6    1.22    0.21
   8   3   6    1.95    0.43
   8   3   6    1.08    0.20
  -9  -3  -6    7.76    0.54
  -9  -3  -6    8.40    0.59
  -9  -3  -6    8.25    0.53
   9   3   6    9.61    0.70
 -10  -3  -6    0.07    0.31
 -10  -3  -6    0.13    0.36
 -10  -3  -6    0.02    0.18
  10   3   6    0.21    0.38
  10   3   6    0.08    0.30
  10   3   6    0.64    0.42
   7  -4  -6   16.84    1.07
  -7   4   6   16.50    1.05
   6  -4  -6   11.07    0.79
   6  -4  -6   11.16    0.53
  -6   4   6    9.90    0.77
  -6   4   6   10.13    0.60
   5  -4  -6   23.84    1.18
  -5   4   6   23.35    1.26
  -5   4   6   23.74    1.05
   4  -4  -6  193.65    6.14
  -4   4   6  182.23    6.19
  -4   4   6  197.13    5.98
   3  -4  -6   18.97    0.92
  -3   4   6   19.17    0.86
  -3   4   6   17.27    0.94
  -3   4   6   16.95    0.79
   2  -4  -6  115.79    3.77
   2  -4  -6  122.13    3.55
   2  -4  -6  112.94    3.51
   2  -4  -6  111.94    3.52
  -2   4   6  120.35    3.53
  -2   4   6  115.15    3.73
  -2   4   6  112.29    3.61
   1  -4  -6   67.49    2.31
   1  -4  -6   65.81    2.16
   1  -4  -6   72.04    2.20
   1  -4  -6   67.94    2.18
  -1   4   6   68.09    2.16
  -1   4   6   70.46    2.18
  -1   4   6   67.81    2.32
  -1   4   6   65.67    2.21
   0  -4  -6  210.36    6.60
   0  -4  -6  213.54    6.62
   0  -4  -6  227.49    6.72
   0  -4  -6  226.43    6.64
   0   4   6  219.60    6.75
   0   4   6  231.70    6.66
   0   4   6  220.45    6.61
   0   4   6  230.07    6.65
  -1  -4  -6  124.40    3.84
  -1  -4  -6  120.70    3.80
  -1  -4  -6  123.29    3.80
   1   4   6  125.47    3.81
   1   4   6  122.14    3.79
   1   4   6  124.15    3.81
  -2  -4  -6  350.12   10.30
  -2  -4  -6  347.08   10.31
   2   4   6  348.92   10.32
   2   4   6  350.51   10.30
   2   4   6  350.68   10.29
  -3  -4  -6    2.70    0.23
  -3  -4  -6    3.01    0.26
   3   4   6    2.51    0.25
   3   4   6    3.07    0.23
  -4  -4  -6   23.13    0.99
  -4  -4  -6   23.43    0.96
   4   4   6   23.56    0.99
   4   4   6   23.82    0.95
  -5  -4  -6    2.30    0.22
  -5  -4  -6    1.92    0.26
   5   4   6    2.63    0.29
   5   4   6    2.18    0.24
  -6  -4  -6    7.27    0.43
  -6  -4  -6    6.44    0.47
   6   4   6    6.74    0.48
   6   4   6    7.33    0.43
  -7  -4  -6    3.72    0.50
  -7  -4  -6    5.05    0.35
   7   4   6    5.14    0.34
   7   4   6    4.64    0.42
  -8  -4  -6    6.63    0.37
  -8  -4  -6    5.66    0.41
   8   4   6    6.22    0.41
   8   4   6    6.28    0.53
  -9  -4  -6    2.14    0.30
  -9  -4  -6    1.62    0.31
  -9  -4  -6    1.91    0.24
  -9  -4  -6    1.91    0.37
   9   4   6    1.71    0.32
   9   4   6    1.98    0.36
 -10  -4  -6    4.48    0.63
 -10  -4  -6    2.48    0.49
 -10  -4  -6    3.61    0.39
  10   4   6    3.07    0.47
   6  -5  -6    6.85    0.77
   6  -5  -6    8.11    0.46
   6  -5  -6    8.48    0.46
  -6   5   6    8.14    0.51
  -6   5   6    7.86    0.66
   5  -5  -6    5.59    0.60
  -5   5   6    6.46    0.56
  -5   5   6    5.57    0.39
   4  -5  -6   24.34    0.89
   4  -5  -6   23.56    0.85
   4  -5  -6   22.41    1.20
  -4   5   6   22.78    0.99
  -4   5   6   22.68    1.23
   3  -5  -6    0.42    0.11
   3  -5  -6    0.15    0.22
   3  -5  -6    0.51    0.14
  -3   5   6    0.40    0.14
  -3   5   6    0.49    0.11
  -3   5   6    0.11    0.15
   2  -5  -6    2.99    0.32
   2  -5  -6    3.59    0.24
   2  -5  -6    3.34    0.23
   2  -5  -6    3.48    0.28
  -2   5   6    3.70    0.29
  -2   5   6    3.36    0.25
  -2   5   6    3.51    0.24
   1  -5  -6   72.83    2.36
   1  -5  -6   71.20    2.35
   1  -5  -6   69.31    2.31
   1  -5  -6   70.83    2.49
  -1   5   6   72.61    2.38
  -1   5   6   73.43    2.46
  -1   5   6   71.88    2.34
  -1   5   6   73.37    2.33
   0  -5  -6   35.49    1.52
   0  -5  -6   41.87    1.55
   0  -5  -6   42.85    1.47
   0  -5  -6   40.63    1.45
   0   5   6   42.31    1.46
   0   5   6   42.25    1.44
   0   5   6   42.76    1.49
  -1  -5  -6  187.87    5.73
  -1  -5  -6  193.66    5.80
  -1  -5  -6  181.72    5.70
  -1  -5  -6  190.05    5.72
   1   5   6  185.60    5.70
   1   5   6  192.04    5.75
   1   5   6  190.37    5.74
  -2  -5  -6  286.99    8.58
  -2  -5  -6  288.95    8.58
   2   5   6  286.36    8.59
   2   5   6  289.60    8.56
   2   5   6  286.14    8.59
  -3  -5  -6   20.91    0.89
  -3  -5  -6   21.49    0.91
   3   5   6   21.26    0.92
   3   5   6   21.43    0.91
   3   5   6   22.23    0.89
  -4  -5  -6  300.89    8.82
  -4  -5  -6  283.75    8.71
   4   5   6  295.69    8.80
   4   5   6  287.16    8.71
  -5  -5  -6   -0.01    0.10
  -5  -5  -6   -0.02    0.15
   5   5   6    0.07    0.11
   5   5   6   -0.07    0.15
  -6  -5  -6  203.07    6.35
  -6  -5  -6  206.44    6.52
   6   5   6  201.65    6.32
   6   5   6  217.53    6.51
  -7  -5  -6   14.98    0.71
  -7  -5  -6   14.53    0.68
  -7  -5  -6   13.77    0.79
   7   5   6   14.45    0.79
   7   5   6   14.26    0.71
  -8  -5  -6   23.65    1.02
  -8  -5  -6   23.88    0.95
   8   5   6   22.55    0.99
   8   5   6   24.05    1.12
  -9  -5  -6   16.77    1.04
  -9  -5  -6   18.02    0.75
  -9  -5  -6   17.54    0.83
   9   5   6   17.41    0.83
   9   5   6   19.24    0.97
 -10  -5  -6    0.49    0.20
 -10  -5  -6    0.29    0.40
 -10  -5  -6    0.11    0.29
  10   5   6    0.08    0.29
  10   5   6    0.72    0.77
   6  -6  -6    0.85    0.25
   6  -6  -6    0.44    0.57
  -6   6   6   -0.13    0.33
  -6   6   6    0.46    0.24
   5  -6  -6   39.46    1.80
   5  -6  -6   38.60    1.44
  -5   6   6   39.12    1.49
   4  -6  -6   18.62    0.75
   4  -6  -6   18.08    0.79
   4  -6  -6   17.59    1.03
  -4   6   6   19.78    0.73
  -4   6   6   18.44    0.84
   3  -6  -6  104.57    3.70
   3  -6  -6  110.65    3.42
   3  -6  -6  105.26    3.36
  -3   6   6  106.54    3.49
  -3   6   6  101.95    3.65
  -3   6   6  109.43    3.34
  -3   6   6  106.15    3.35
   2  -6  -6  105.60    3.43
   2  -6  -6  108.87    3.71
   2  -6  -6  111.67    3.49
   2  -6  -6  107.39    3.46
  -2   6   6  111.68    3.46
  -2   6   6  109.17    3.56
  -2   6   6  110.75    3.45
  -2   6   6  108.91    3.53
   1  -6  -6  125.98    4.19
   1  -6  -6  127.74    4.02
   1  -6  -6  122.64    3.98
   1  -6  -6  131.10    4.05
  -1   6   6  127.87    4.10
  -1   6   6  128.26    4.02
  -1   6   6  127.72    4.07
  -1   6   6  134.69    4.01
   0  -6  -6  118.12    3.71
   0  -6  -6  116.24    3.70
   0  -6  -6  112.22    3.66
   0  -6  -6  115.55    3.83
   0   6   6  119.28    3.71
   0   6   6  118.26    3.74
   0   6   6  118.51    3.69
  -1  -6  -6   37.14    1.38
  -1  -6  -6   37.59    1.46
  -1  -6  -6   37.00    1.38
  -1  -6  -6   37.72    1.40
   1   6   6   37.10    1.40
   1   6   6   36.78    1.41
   1   6   6   38.45    1.38
  -2  -6  -6   67.83    2.33
  -2  -6  -6   67.59    2.30
  -2  -6  -6   67.82    2.30
   2   6   6   68.54    2.33
   2   6   6   68.55    2.34
   2   6   6   70.08    2.30
  -3  -6  -6   11.83    0.60
  -3  -6  -6   12.32    0.62
   3   6   6   11.92    0.59
   3   6   6   12.09    0.63
   3   6   6   12.11    0.62
  -4  -6  -6   28.01    1.17
  -4  -6  -6   27.89    1.14
   4   6   6   27.88    1.13
   4   6   6   29.48    1.19
   4   6   6   29.92    1.21
  -5  -6  -6   18.28    0.83
  -5  -6  -6   19.22    0.89
   5   6   6   19.60    0.90
   5   6   6   18.71    0.83
  -6  -6  -6    0.46    0.14
  -6  -6  -6    0.25    0.18
  -6  -6  -6    0.39    0.14
   6   6   6    0.84    0.22
   6   6   6    0.12    0.14
  -7  -6  -6    1.05    0.18
  -7  -6  -6    0.89    0.18
  -7  -6  -6    0.63    0.22
  -8  -6  -6    9.15    0.51
  -8  -6  -6    8.93    0.52
   8   6   6    9.72    0.68
   8   6   6    8.77    0.51
  -9  -6  -6    0.13    0.22
  -9  -6  -6    0.53    0.21
  -9  -6  -6    0.26    0.37
   9   6   6    0.76    0.38
   9   6   6    0.24    0.21
 -10  -6  -6    0.17    0.48
 -10  -6  -6    0.14    0.32
  10   6   6   -0.38    0.29
  10   6   6    0.59    0.49
   5  -7  -6    4.67    0.47
   5  -7  -6    3.95    0.73
   5  -7  -6    4.64    0.36
   5  -7  -6    4.71    0.44
  -5   7   6    4.29    0.37
  -5   7   6    4.35    0.44
   4  -7  -6    2.87    0.48
   4  -7  -6    3.24    0.31
   4  -7  -6    2.80    0.40
   4  -7  -6    2.67    0.35
  -4   7   6    2.37    0.33
  -4   7   6    2.35    0.28
  -4   7   6    2.88    0.31
  -4   7   6    2.96    0.38
   3  -7  -6    0.62    0.17
   3  -7  -6    0.95    0.31
   3  -7  -6    0.97    0.21
  -3   7   6    0.83    0.18
  -3   7   6    0.48    0.18
  -3   7   6    0.89    0.18
   2  -7  -6    0.08    0.16
   2  -7  -6    0.45    0.14
   2  -7  -6    0.43    0.18
   2  -7  -6    0.13    0.27
  -2   7   6    0.22    0.15
  -2   7   6    0.21    0.15
  -2   7   6    0.27    0.16
   1  -7  -6    1.41    0.25
   1  -7  -6    1.09    0.25
   1  -7  -6    1.25    0.23
   1  -7  -6    1.37    0.32
  -1   7   6    1.58    0.21
  -1   7   6    1.88    0.25
  -1   7   6    1.10    0.24
  -1   7   6    1.59    0.23
   0  -7  -6   10.52    0.56
   0  -7  -6   10.34    0.57
   0  -7  -6   10.00    0.53
   0  -7  -6   10.18    0.63
   0   7   6   10.33    0.53
   0   7   6   10.88    0.56
   0   7   6   10.61    0.59
  -1  -7  -6   95.52    3.15
  -1  -7  -6   95.69    3.25
  -1  -7  -6   94.32    3.11
  -1  -7  -6   95.46    3.14
   1   7   6   95.17    3.15
   1   7   6   95.50    3.17
   1   7   6   95.43    3.12
  -2  -7  -6   23.33    1.00
  -2  -7  -6   24.21    1.01
  -2  -7  -6   22.94    1.01
   2   7   6   24.24    1.00
   2   7   6   24.67    1.03
   2   7   6   23.41    1.04
  -3  -7  -6  237.05    7.22
  -3  -7  -6  233.26    7.23
  -3  -7  -6  245.69    7.29
   3   7   6  235.21    7.27
   3   7   6  235.05    7.21
   3   7   6  236.34    7.30
  -4  -7  -6   87.57    2.94
  -4  -7  -6   87.75    2.91
  -4  -7  -6   82.81    2.94
   4   7   6   88.06    3.01
   4   7   6   85.45    2.88
   4   7   6   88.98    2.97
  -5  -7  -6   23.86    1.07
  -5  -7  -6   24.02    1.08
  -5  -7  -6   22.80    1.00
   5   7   6   22.99    0.99
   5   7   6   24.24    1.06
  -6  -7  -6   66.93    2.47
  -6  -7  -6   68.18    2.36
  -6  -7  -6   67.69    2.43
   6   7   6   69.67    2.49
   6   7   6   66.92    2.35
  -7  -7  -6    1.41    0.29
  -7  -7  -6    1.49    0.25
  -7  -7  -6    1.31    0.26
   7   7   6    1.37    0.26
   7   7   6    1.08    0.25
  -8  -7  -6   20.82    0.93
  -8  -7  -6   21.25    0.93
   8   7   6   20.07    0.90
   8   7   6   20.82    1.06
  -9  -7  -6    0.29    0.24
  -9  -7  -6    0.30    0.41
  -9  -7  -6    0.40    0.23
   9   7   6    0.73    0.24
 -10  -7  -6    6.66    0.79
 -10  -7  -6    5.60    0.45
  10   7   6    4.85    0.85
  10   7   6    4.22    0.48
   5  -8  -6    5.78    0.45
   5  -8  -6    5.12    0.57
   5  -8  -6    6.18    0.52
   5  -8  -6    4.08    0.87
  -5   8   6    4.59    0.41
  -5   8   6    5.40    0.42
   4  -8  -6    3.66    0.48
   4  -8  -6    4.02    0.39
   4  -8  -6    4.28    0.45
   4  -8  -6    3.06    0.67
  -4   8   6    2.78    0.35
  -4   8   6    4.29    0.45
  -4   8   6    3.14    0.41
  -4   8   6    3.63    0.35
   3  -8  -6   67.17    2.35
   3  -8  -6   65.04    2.61
   3  -8  -6   65.49    2.37
   3  -8  -6   66.22    2.29
  -3   8   6   68.05    2.30
  -3   8   6   66.48    2.30
  -3   8   6   64.40    2.52
   2  -8  -6    3.10    0.32
   2  -8  -6    2.30    0.44
   2  -8  -6    3.18    0.36
   2  -8  -6    3.39    0.29
  -2   8   6    3.18    0.34
  -2   8   6    2.66    0.30
  -2   8   6    2.61    0.30
   1  -8  -6   95.08    3.19
   1  -8  -6   98.75    3.26
   1  -8  -6   98.65    3.33
   1  -8  -6   93.57    3.39
   1  -8  -6   93.66    3.16
  -1   8   6   96.35    3.19
  -1   8   6   93.45    3.51
  -1   8   6   97.90    3.19
  -1   8   6   95.98    3.24
   0  -8  -6    2.52    0.30
   0  -8  -6    2.52    0.27
   0  -8  -6    2.37    0.34
   0  -8  -6    2.32    0.30
   0   8   6    2.11    0.29
   0   8   6    2.95    0.31
   0   8   6    3.09    0.32
  -1  -8  -6  197.98    6.27
  -1  -8  -6  200.33    6.32
  -1  -8  -6  203.95    6.33
  -1  -8  -6  202.29    6.46
   1   8   6  209.74    6.29
   1   8   6  201.81    6.32
   1   8   6  208.27    6.37
  -2  -8  -6    3.77    0.32
  -2  -8  -6    3.18    0.32
  -2  -8  -6    3.55    0.32
   2   8   6    3.52    0.33
   2   8   6    3.54    0.32
   2   8   6    3.11    0.33
  -3  -8  -6  134.80    4.42
  -3  -8  -6  134.04    4.37
  -3  -8  -6  139.68    4.41
   3   8   6  134.17    4.42
   3   8   6  139.06    4.47
   3   8   6  136.85    4.36
  -4  -8  -6    8.11    0.51
  -4  -8  -6    9.09    0.59
  -4  -8  -6    8.69    0.54
  -4  -8  -6    9.09    0.54
   4   8   6    9.16    0.58
   4   8   6    8.92    0.52
   4   8   6    8.75    0.55
  -5  -8  -6   11.73    0.72
  -5  -8  -6   11.61    0.63
  -5  -8  -6   12.59    0.70
  -5  -8  -6   12.24    0.69
   5   8   6   12.14    0.62
   5   8   6   12.22    0.68
   5   8   6   12.10    0.71
  -6  -8  -6   25.71    1.10
  -6  -8  -6   27.48    1.21
  -6  -8  -6   24.66    1.26
  -6  -8  -6   25.26    1.17
   6   8   6   28.33    1.23
   6   8   6   25.74    1.09
  -7  -8  -6    0.02    0.19
  -7  -8  -6    0.00    0.20
  -7  -8  -6    0.08    0.28
  -7  -8  -6    0.24    0.38
   7   8   6    0.67    0.29
   7   8   6    0.12    0.19
  -8  -8  -6    7.89    0.77
  -8  -8  -6    8.89    0.55
  -8  -8  -6    7.79    0.51
   8   8   6    7.65    0.47
  -9  -8  -6    2.66    0.68
  -9  -8  -6    2.24    0.39
   9   8   6    1.72    0.40
 -10  -8  -6    0.38    0.31
 -10  -8  -6    0.34    0.30
 -10  -8  -6    0.59    0.52
 -10  -8  -6   -0.21    0.57
  10   8   6    0.28    0.50
  10   8   6    0.14    0.30
   4  -9  -6    3.48    0.58
   4  -9  -6    4.62    0.52
   4  -9  -6    4.70    0.77
   4  -9  -6    4.94    0.49
  -4   9   6    4.94    0.52
  -4   9   6    4.22    0.54
  -4   9   6    3.43    0.43
  -4   9   6    4.90    0.40
   3  -9  -6    6.94    0.57
   3  -9  -6    7.56    0.56
   3  -9  -6    7.61    0.76
   3  -9  -6    8.18    0.52
  -3   9   6    8.14    0.56
  -3   9   6    7.11    0.54
  -3   9   6    7.68    0.47
  -3   9   6    7.12    0.48
   2  -9  -6   -0.37    0.24
   2  -9  -6    0.50    0.36
   2  -9  -6    0.47    0.26
  -2   9   6   -0.35    0.26
  -2   9   6    0.51    0.24
  -2   9   6   -0.07    0.19
   1  -9  -6    3.81    0.35
   1  -9  -6    4.53    0.48
   1  -9  -6    4.32    0.42
   1  -9  -6    3.18    0.40
   1  -9  -6    3.94    0.39
  -1   9   6    3.16    0.38
  -1   9   6    5.00    0.41
  -1   9   6    4.31    0.34
   0  -9  -6    9.29    0.74
   0  -9  -6   11.53    0.64
   0  -9  -6   11.63    0.63
   0  -9  -6   11.03    0.84
   0  -9  -6   10.92    0.63
   0   9   6   11.71    0.67
   0   9   6   11.72    0.63
   0   9   6   11.45    0.63
  -1  -9  -6   45.30    1.75
  -1  -9  -6   43.33    1.69
  -1  -9  -6   44.05    1.83
   1   9   6   43.96    1.72
   1   9   6   44.19    1.76
   1   9   6   45.36    1.70
  -2  -9  -6    9.10    0.56
  -2  -9  -6    9.23    0.57
  -2  -9  -6    8.77    0.55
   2   9   6    9.39    0.59
   2   9   6    8.82    0.54
  -3  -9  -6  183.08    5.84
  -3  -9  -6  185.98    5.89
  -3  -9  -6  184.31    5.84
   3   9   6  188.34    5.84
   3   9   6  185.22    5.92
  -4  -9  -6    3.38    0.35
  -4  -9  -6    2.93    0.33
  -4  -9  -6    2.20    0.47
  -4  -9  -6    2.59    0.30
   4   9   6    3.16    0.39
   4   9   6    3.20    0.30
   4   9   6    3.11    0.41
  -5  -9  -6  128.29    4.10
  -5  -9  -6  131.31    4.18
  -5  -9  -6  125.55    4.24
  -5  -9  -6  124.84    4.29
   5   9   6  108.98    4.77
   5   9   6  126.94    4.07
  -6  -9  -6   25.55    1.15
  -6  -9  -6   24.11    1.14
  -6  -9  -6   22.57    1.13
   6   9   6   21.01    1.29
   6   9   6   23.81    1.03
   6   9   6   24.71    1.18
  -7  -9  -6   39.54    1.90
  -7  -9  -6   36.58    1.98
  -7  -9  -6   39.88    1.64
  -7  -9  -6   40.06    1.68
   7   9   6   39.88    1.69
   7   9   6   41.16    1.54
  -8  -9  -6   14.42    0.86
  -8  -9  -6   13.33    0.70
  -8  -9  -6   12.63    0.83
  -8  -9  -6   12.32    0.71
   8   9   6   13.46    0.85
   8   9   6   11.65    0.64
  -9  -9  -6    5.37    0.51
  -9  -9  -6    5.88    0.52
  -9  -9  -6    6.27    0.76
  -9  -9  -6    5.68    0.76
   9   9   6    5.15    0.79
   9   9   6    4.87    0.46
 -10  -9  -6   11.83    0.74
 -10  -9  -6   13.01    0.76
 -10  -9  -6   13.29    1.06
 -10  -9  -6   14.88    1.21
  10   9   6   14.72    1.60
   3 -10  -6   25.75    1.44
   3 -10  -6   28.31    1.18
   3 -10  -6   29.11    1.39
   3 -10  -6   24.96    1.21
  -3  10   6   26.13    1.07
  -3  10   6   26.40    1.21
  -3  10   6   25.99    1.11
  -3  10   6   25.43    1.16
   2 -10  -6   22.66    1.03
   2 -10  -6   20.52    1.21
   2 -10  -6   21.09    1.03
   2 -10  -6   22.17    1.09
  -2  10   6   20.98    1.05
  -2  10   6   22.30    0.99
  -2  10   6   21.66    0.94
  -2  10   6   23.16    1.03
   1 -10  -6   58.86    2.42
   1 -10  -6   61.13    2.33
   1 -10  -6   60.68    2.21
   1 -10  -6   61.89    2.24
   1 -10  -6   58.93    2.24
  -1  10   6   60.25    2.24
  -1  10   6   61.54    2.21
  -1  10   6   60.28    2.15
  -1  10   6   57.50    2.18
   0 -10  -6   33.15    1.39
   0 -10  -6   32.35    1.36
   0 -10  -6   33.38    1.38
   0 -10  -6   31.08    1.50
   0 -10  -6   32.53    1.48
   0  10   6   33.45    1.37
  -1 -10  -6   51.12    2.19
  -1 -10  -6   55.24    2.07
  -1 -10  -6   58.89    2.13
  -1 -10  -6   54.34    2.21
  -1 -10  -6   56.00    2.09
   1  10   6   54.82    2.12
   1  10   6   57.31    2.06
  -2 -10  -6    1.38    0.26
  -2 -10  -6    1.61    0.30
  -2 -10  -6    1.12    0.21
  -2 -10  -6    2.03    0.31
   2  10   6    1.89    0.35
   2  10   6    1.44    0.24
  -3 -10  -6   77.22    2.75
  -3 -10  -6   79.49    2.81
  -3 -10  -6   80.69    2.78
   3  10   6   77.63    2.79
   3  10   6   75.04    2.81
   3  10   6   78.14    2.74
  -4 -10  -6    6.30    0.52
  -4 -10  -6    6.35    0.52
  -4 -10  -6    6.58    0.50
   4  10   6    6.85    0.54
   4  10   6    6.97    0.48
  -5 -10  -6    4.19    0.39
  -5 -10  -6    4.73    0.46
  -5 -10  -6    4.02    0.46
  -5 -10  -6    4.89    0.56
   5  10   6    3.93    0.40
   5  10   6    4.19    0.47
   5  10   6    4.44    0.46
  -6 -10  -6   10.91    0.71
  -6 -10  -6   10.33    0.69
  -6 -10  -6   10.29    0.62
   6  10   6   11.19    0.70
   6  10   6   10.23    0.61
  -7 -10  -6   -0.14    0.25
  -7 -10  -6    0.39    0.35
  -7 -10  -6    0.17    0.29
   7  10   6    0.28    0.41
   7  10   6    0.14    0.26
   7  10   6    0.23    0.32
  -8 -10  -6    2.19    0.39
  -8 -10  -6    3.24    0.44
  -8 -10  -6    4.15    0.64
   8  10   6    4.08    0.67
   8  10   6    3.06    0.44
  -9 -10  -6    1.73    0.37
  -9 -10  -6    2.14    0.47
  -9 -10  -6    2.29    0.52
   9  10   6    1.32    0.33
   9  10   6    1.26    0.60
 -10 -10  -6    2.21    0.39
 -10 -10  -6    2.47    0.42
 -10 -10  -6    2.45    0.71
  10  10   6    1.34    0.73
   3 -11  -6    1.78    0.71
   3 -11  -6    2.78    0.43
   3 -11  -6    1.65    0.47
  -3  11   6    2.03    0.38
   2 -11  -6    3.85    0.57
   2 -11  -6    2.10    0.40
   2 -11  -6    1.84    0.52
  -2  11   6    3.03    0.60
  -2  11   6    2.58    0.57
  -2  11   6    2.81    0.35
   1 -11  -6    0.22    0.33
   1 -11  -6    1.01    0.30
   1 -11  -6    1.33    0.38
   1 -11  -6    0.37    0.32
   1 -11  -6    0.90    0.44
  -1  11   6    0.62    0.33
  -1  11   6    0.19    0.30
  -1  11   6    0.58    0.22
  -1  11   6    0.50    0.34
   0 -11  -6    3.64    0.49
   0 -11  -6    3.96    0.46
   0 -11  -6    3.78    0.58
   0 -11  -6    4.17    0.52
   0 -11  -6    2.79    0.49
   0  11   6    3.13    0.46
   0  11   6    2.87    0.50
   0  11   6    4.10    0.44
  -1 -11  -6    4.22    0.46
  -1 -11  -6    3.81    0.48
  -1 -11  -6    3.34    0.51
  -1 -11  -6    4.14    0.44
  -1 -11  -6    3.19    0.52
   1  11   6    3.61    0.45
   1  11   6    3.45    0.48
  -2 -11  -6   20.12    0.96
  -2 -11  -6   18.54    0.95
  -2 -11  -6   20.57    0.99
  -2 -11  -6   17.01    1.02
   2  11   6   18.76    0.93
  -3 -11  -6   34.36    1.43
  -3 -11  -6   34.61    1.45
   3  11   6   32.14    1.47
   3  11   6   34.33    1.41
  -4 -11  -6    6.85    0.55
  -4 -11  -6    8.66    0.59
  -4 -11  -6    8.41    0.61
   4  11   6    7.92    0.57
   4  11   6    8.21    0.75
  -5 -11  -6   32.07    1.34
  -5 -11  -6   31.09    1.49
  -5 -11  -6   32.07    1.40
  -5 -11  -6   30.46    1.40
   5  11   6   32.47    1.33
   5  11   6   28.93    1.68
   5  11   6   32.25    1.60
  -6 -11  -6    1.80    0.39
  -6 -11  -6    1.46    0.37
  -6 -11  -6    1.59    0.34
  -6 -11  -6    2.36    0.38
   6  11   6    1.39    0.24
   6  11   6    1.57    0.55
   6  11   6    2.24    0.40
  -7 -11  -6   30.46    1.80
  -7 -11  -6   28.48    1.38
  -7 -11  -6   26.41    1.21
  -7 -11  -6   28.00    1.37
   7  11   6   30.25    1.39
   7  11   6   29.07    1.22
  -8 -11  -6    0.16    0.47
  -8 -11  -6    0.40    0.29
  -8 -11  -6    0.25    0.48
  -8 -11  -6    0.21    0.35
   8  11   6    0.39    0.51
   8  11   6    0.83    0.49
   8  11   6    0.01    0.34
  -9 -11  -6    5.73    0.87
  -9 -11  -6    4.84    0.88
  -9 -11  -6    5.33    0.58
  -9 -11  -6    6.76    0.64
   9  11   6    5.94    0.59
   9  11   6    4.77    0.95
   9  11   6    5.12    0.96
   1 -12  -6   -0.45    0.46
   1 -12  -6    0.17    0.38
   1 -12  -6   -0.09    0.62
   1 -12  -6    0.10    0.42
   1 -12  -6    0.12    0.41
  -1  12   6   -0.26    0.37
  -1  12   6    0.83    0.43
  -1  12   6   -0.02    0.42
  -1  12   6    0.31    0.25
   0 -12  -6   30.52    1.33
   0 -12  -6   32.38    1.40
   0 -12  -6   30.02    1.45
   0 -12  -6   29.67    1.52
   0 -12  -6   28.93    1.36
   0  12   6   28.67    1.38
   0  12   6   28.98    1.41
   0  12   6   27.92    1.33
  -1 -12  -6    0.77    0.40
  -1 -12  -6    0.66    0.34
  -1 -12  -6    0.45    0.43
  -1 -12  -6    0.41    0.34
   1  12   6    0.42    0.36
   1  12   6    0.65    0.36
   1  12   6    0.54    0.31
  -2 -12  -6   41.12    1.71
  -2 -12  -6   41.71    1.66
  -2 -12  -6   33.29    1.86
  -2 -12  -6   39.74    1.66
   2  12   6   41.28    1.74
   2  12   6   40.27    1.70
  -3 -12  -6    4.18    0.53
  -3 -12  -6    4.11    0.50
  -3 -12  -6    5.25    0.65
  -3 -12  -6    4.79    0.51
   3  12   6    4.73    0.53
   3  12   6    3.74    0.51
   3  12   6    5.51    0.57
  -4 -12  -6   25.40    1.16
  -4 -12  -6   25.71    1.42
  -4 -12  -6   23.40    1.32
  -4 -12  -6   26.74    1.23
   4  12   6   25.40    1.24
   4  12   6   25.76    1.27
   4  12   6   24.29    1.15
  -5 -12  -6   12.38    0.79
  -5 -12  -6   11.87    0.72
  -5 -12  -6   13.13    0.85
   5  12   6   12.60    0.72
   5  12   6   12.29    0.81
   5  12   6   10.98    0.82
  -6 -12  -6    4.00    0.68
  -6 -12  -6    4.25    0.49
  -6 -12  -6    4.39    0.66
   6  12   6    3.31    0.50
   6  12   6    5.17    0.66
   6  12   6    3.06    0.47
  -7 -12  -6    5.47    0.56
  -7 -12  -6    6.60    0.73
  -7 -12  -6    5.63    0.64
  -7 -12  -6    5.38    0.75
   7  12   6    7.35    0.78
   7  12   6    6.38    0.72
   7  12   6    5.40    0.58
  -8 -12  -6    0.92    0.56
  -8 -12  -6    1.00    0.44
  -8 -12  -6    0.44    0.35
  -8 -12  -6    1.02    0.56
   8  12   6    0.48    0.37
   8  12   6    0.63    0.53
  -9 -12  -6    1.69    0.44
  -9 -12  -6    1.22    0.47
  -9 -12  -6    0.56    0.94
   9  12   6    1.25    0.42
   9  12   6    0.63    0.64
   0 -13  -6   -0.02    0.44
   0 -13  -6    0.62    0.47
   0 -13  -6    0.71    0.45
   0 -13  -6   -0.17    0.61
   0 -13  -6    0.39    0.51
   0  13   6    1.11    0.46
   0  13   6   -0.11    0.49
  -1 -13  -6   10.06    0.79
  -1 -13  -6   11.23    0.89
  -1 -13  -6   10.11    0.92
  -1 -13  -6   12.06    0.88
  -1 -13  -6   13.00    0.81
   1  13   6   13.07    0.81
   1  13   6    9.33    0.82
   1  13   6   13.40    0.85
  -2 -13  -6    6.37    0.80
  -2 -13  -6    7.08    0.67
  -2 -13  -6    4.62    0.64
  -2 -13  -6    8.13    1.13
   2  13   6    6.30    0.67
   2  13   6    5.78    0.67
   2  13   6    5.48    0.65
  -3 -13  -6    0.87    0.49
  -3 -13  -6    1.62    0.42
  -3 -13  -6    0.87    0.40
  -3 -13  -6    0.94    0.32
   3  13   6    1.20    0.46
   3  13   6    0.76    0.39
  -4 -13  -6   37.32    1.60
  -4 -13  -6   37.01    1.78
  -4 -13  -6   38.23    1.68
  -4 -13  -6   39.28    1.75
   4  13   6   37.89    1.71
   4  13   6   38.98    1.67
   4  13   6   39.26    1.61
  -5 -13  -6    0.62    0.38
  -5 -13  -6    1.33    0.47
  -5 -13  -6    0.65    0.49
   5  13   6    0.82    0.41
   5  13   6    1.19    0.55
   5  13   6    0.67    0.34
  -6 -13  -6   14.83    0.99
  -6 -13  -6   15.26    0.88
  -6 -13  -6   17.22    1.02
  -6 -13  -6   16.16    1.05
   6  13   6   16.71    1.05
   6  13   6   15.80    0.88
   6  13   6   15.93    1.06
  -7 -13  -6    5.24    0.64
  -7 -13  -6    6.80    0.76
  -7 -13  -6    6.46    0.84
  -7 -13  -6    6.87    0.92
   7  13   6    4.68    0.94
   7  13   6    5.45    0.67
   7  13   6    5.46    0.88
  -8 -13  -6    6.16    0.99
  -8 -13  -6    6.25    0.81
  -8 -13  -6    6.72    1.35
   8  13   6    4.51    0.74
   8  13   6    6.38    1.08
  -2 -14  -6    9.61    0.94
  -2 -14  -6    9.20    0.90
  -2 -14  -6    9.68    0.84
   2  14   6    7.86    0.81
   2  14   6    7.38    0.90
  -3 -14  -6    0.04    0.59
  -3 -14  -6   -0.05    0.59
  -3 -14  -6   -0.14    0.41
  -3 -14  -6    0.41    0.49
   3  14   6    0.33    0.47
   3  14   6    0.05    0.62
   3  14   6    0.15    0.46
  -4 -14  -6    9.25    0.77
  -4 -14  -6    9.30    0.91
  -4 -14  -6    8.90    0.95
  -4 -14  -6   10.35    0.87
   4  14   6   10.59    0.87
   4  14   6    8.57    0.79
   4  14   6   10.91    0.94
  -5 -14  -6    4.00    0.92
  -5 -14  -6    5.13    0.82
  -5 -14  -6    4.95    0.84
   5  14   6    4.69    0.82
   5  14   6    3.73    0.52
   5  14   6    3.79    0.86
  -6 -14  -6    0.22    0.64
  -6 -14  -6    1.17    0.52
  -6 -14  -6    0.32    0.56
  -6 -14  -6    0.24    0.39
   6  14   6    0.24    0.56
   6  14   6    0.68    0.42
   6  14   6    1.01    0.69
   2  12  -7    4.05    0.72
   2  12  -7    4.88    0.74
   2  12  -7    3.54    0.76
   2  12  -7    2.72    0.56
  -2 -12   7    4.15    0.59
   1  12  -7   -0.14    0.47
   1  12  -7    0.46    0.53
   1  12  -7    0.21    0.55
   1  12  -7    0.67    0.53
   1  12  -7    0.50    0.51
  -1 -12   7    0.13    0.56
   5  11  -7   -0.08    0.41
   5  11  -7    0.01    0.61
   5  11  -7    0.50    0.53
   5  11  -7    0.39    0.46
   5  11  -7   -0.71    0.48
  -5 -11   7   -0.09    0.47
  -5 -11   7    0.37    0.30
  -5 -11   7   -0.59    0.50
   4  11  -7    0.83    0.49
   4  11  -7    0.15    0.44
   4  11  -7    1.44    0.60
   4  11  -7    0.39    0.39
   4  11  -7    0.71    0.42
  -4 -11   7    0.02    0.52
  -4 -11   7    0.22    0.46
  -4 -11   7    0.69    0.47
   3  11  -7    0.09    0.44
   3  11  -7    0.51    0.39
   3  11  -7    0.41    0.47
   3  11  -7    0.43    0.50
  -3 -11   7    0.30    0.46
  -3 -11   7   -0.19    0.50
  -3 -11   7    0.69    0.46
   2  11  -7    1.22    0.42
   2  11  -7    2.12    0.41
   2  11  -7    2.05    0.44
   2  11  -7    1.92    0.41
  -2 -11   7    1.91    0.43
  -2 -11   7    2.05    0.47
  -2 -11   7    1.23    0.46
   1  11  -7    1.25    0.42
   1  11  -7    0.62    0.41
   1  11  -7    0.35    0.40
   1  11  -7    0.85    0.41
   1  11  -7    1.76    0.80
  -1 -11   7   -0.01    0.49
  -1 -11   7    0.46    0.45
  -1 -11   7    0.93    0.47
   0  11  -7    0.13    0.47
   0  11  -7    0.71    0.47
   0  11  -7    0.35    0.46
   0  11  -7    0.17    0.38
   0  11  -7    0.09    0.58
   0 -11   7   -0.34    0.48
   0 -11   7    0.17    0.50
   0 -11   7    0.42    0.49
  -1  11  -7    1.30    0.43
  -1  11  -7    0.98    0.45
  -1  11  -7    0.26    0.42
  -1  11  -7    0.69    0.53
  -1  11  -7    0.16    0.46
   1 -11   7    0.03    0.54
   1 -11   7    0.56    0.57
  -2  11  -7    2.50    0.61
  -2  11  -7    1.72    0.42
  -2  11  -7    1.47    0.52
  -2  11  -7    3.06    0.71
   2 -11   7    0.98    0.66
   2 -11   7    1.75    0.50
   2 -11   7    1.63    0.56
   2 -11   7    3.07    0.68
   6  10  -7    2.22    0.63
   6  10  -7    1.37    0.42
   6  10  -7    0.94    0.39
  -6 -10   7    2.01    0.45
  -6 -10   7    1.19    0.43
  -6 -10   7    1.20    0.37
   5  10  -7    0.36    0.33
   5  10  -7    0.95    0.46
   5  10  -7    0.94    0.54
   5  10  -7    0.31    0.37
   5  10  -7    0.32    0.38
  -5 -10   7    0.12    0.40
  -5 -10   7    0.42    0.38
   4  10  -7    3.12    0.46
   4  10  -7    2.80    0.56
   4  10  -7    2.65    0.56
   4  10  -7    2.28    0.44
   4  10  -7    2.96    0.57
  -4 -10   7    2.80    0.60
  -4 -10   7    2.56    0.36
  -4 -10   7    3.73    0.69
  -4 -10   7    2.98    0.56
   3  10  -7    0.03    0.35
   3  10  -7   -0.08    0.35
   3  10  -7    0.29    0.40
   3  10  -7    0.53    0.34
   3  10  -7    0.01    0.31
  -3 -10   7    0.31    0.38
  -3 -10   7    0.50    0.37
   2  10  -7    0.30    0.32
   2  10  -7    0.48    0.32
   2  10  -7    0.42    0.31
   2  10  -7    0.33    0.29
  -2 -10   7    0.36    0.35
  -2 -10   7    0.33    0.35
  -2 -10   7    0.58    0.38
   1  10  -7    1.57    0.39
   1  10  -7    1.93    0.33
   1  10  -7    1.25    0.36
   1  10  -7    1.04    0.29
  -1 -10   7    1.81    0.46
  -1 -10   7    1.33    0.35
  -1 -10   7    1.22    0.43
   0  10  -7    1.76    0.38
   0  10  -7    2.03    0.39
   0  10  -7    1.93    0.36
   0  10  -7    2.71    0.48
   0  10  -7    1.43    0.34
   0 -10   7    1.71    0.40
   0 -10   7    1.00    0.42
  -1  10  -7    4.88    0.57
  -1  10  -7    4.96    0.61
  -1  10  -7    7.10    0.54
  -1  10  -7    5.19    0.64
  -1  10  -7    6.19    0.58
   1 -10   7    5.76    0.72
   1 -10   7    6.05    1.04
   1 -10   7    5.95    0.63
   1 -10   7    5.71    0.68
  -2  10  -7    3.74    0.58
  -2  10  -7    3.80    0.70
  -2  10  -7    4.58    0.52
  -2  10  -7    4.49    0.69
  -2  10  -7    3.85    0.57
   2 -10   7    3.68    0.78
   2 -10   7    4.51    0.71
   2 -10   7    3.16    0.75
   2 -10   7    3.23    0.65
  -3  10  -7    2.18    0.54
  -3  10  -7    2.78    0.57
  -3  10  -7    3.41    0.58
   3 -10   7    3.21    0.49
   3 -10   7    2.82    0.61
   3 -10   7    2.20    0.62
   3 -10   7    1.82    0.48
   6   9  -7    0.37    0.32
   6   9  -7   -0.21    0.34
   6   9  -7    0.08    0.38
  -6  -9   7    0.18    0.36
  -6  -9   7    0.66    0.38
  -6  -9   7    0.08    0.30
  -6  -9   7    0.10    0.26
   5   9  -7   23.95    1.03
   5   9  -7   22.93    1.21
   5   9  -7   23.53    1.08
   5   9  -7   23.90    1.16
   5   9  -7   22.80    0.98
  -5  -9   7   23.26    1.08
  -5  -9   7   23.72    0.95
  -5  -9   7   23.83    1.01
  -5  -9   7   25.92    1.26
   4   9  -7   12.61    0.80
   4   9  -7   10.86    0.59
   4   9  -7   11.01    0.71
   4   9  -7   10.54    0.65
   4   9  -7   11.15    0.70
  -4  -9   7   10.24    0.66
  -4  -9   7   10.77    0.65
  -4  -9   7   10.89    0.75
  -4  -9   7   10.75    0.51
   3   9  -7    2.58    0.38
   3   9  -7    3.44    0.50
   3   9  -7    2.35    0.50
   3   9  -7    1.97    0.43
   3   9  -7    2.68    0.45
  -3  -9   7    3.07    0.47
  -3  -9   7    2.78    0.46
   2   9  -7    4.17    0.42
   2   9  -7    4.14    0.46
   2   9  -7    4.08    0.45
   2   9  -7    4.71    0.49
   2   9  -7    3.63    0.49
  -2  -9   7    4.78    0.46
  -2  -9   7    3.39    0.49
   1   9  -7    1.66    0.31
   1   9  -7    2.08    0.40
   1   9  -7    2.14    0.41
  -1  -9   7    1.73    0.31
  -1  -9   7    2.71    0.54
   0   9  -7    2.74    0.41
   0   9  -7    3.76    0.44
   0   9  -7    3.77    0.48
   0   9  -7    4.22    0.46
   0  -9   7    3.19    0.55
   0  -9   7    4.55    0.53
   0  -9   7    3.85    0.69
  -1   9  -7   -0.48    0.34
  -1   9  -7    0.40    0.29
  -1   9  -7   -0.05    0.27
  -1   9  -7    0.15    0.28
  -1   9  -7   -0.28    0.34
   1  -9   7    0.08    0.36
   1  -9   7    0.13    0.41
   1  -9   7    0.34    0.37
   1  -9   7    0.26    0.31
  -2   9  -7    1.31    0.33
  -2   9  -7    0.92    0.37
  -2   9  -7    0.86    0.30
  -2   9  -7    1.57    0.29
   2  -9   7    0.83    0.41
   2  -9   7    1.37    0.35
   2  -9   7    1.41    0.36
   2  -9   7    1.34    0.42
  -3   9  -7    0.46    0.33
  -3   9  -7    0.21    0.42
  -3   9  -7    0.37    0.31
  -3   9  -7   -0.11    0.40
  -3   9  -7    0.86    0.64
   3  -9   7   -0.12    0.39
   3  -9   7    0.55    0.48
   3  -9   7    0.59    0.49
  -4   9  -7    2.29    0.52
  -4   9  -7    1.86    0.35
  -4   9  -7    1.76    0.35
  -4   9  -7    1.93    0.50
   4  -9   7    1.37    0.42
   4  -9   7    2.34    0.65
   4  -9   7    2.63    0.59
   7   8  -7    2.43    0.32
   7   8  -7    2.64    0.44
   7   8  -7    2.86    0.44
  -7  -8   7    3.64    0.57
  -7  -8   7    2.53    0.42
   6   8  -7    1.32    0.28
   6   8  -7    1.85    0.40
   6   8  -7    1.91    0.36
   6   8  -7    2.48    0.49
  -6  -8   7    1.56    0.29
  -6  -8   7    1.23    0.32
  -6  -8   7    1.99    0.37
   5   8  -7    3.39    0.55
   5   8  -7    3.72    0.41
   5   8  -7    4.03    0.52
   5   8  -7    3.09    0.41
  -5  -8   7    3.14    0.42
  -5  -8   7    3.88    0.36
  -5  -8   7    3.18    0.40
  -5  -8   7    4.37    0.52
   4   8  -7   13.96    0.71
   4   8  -7   14.39    0.79
   4   8  -7   15.10    0.75
   4   8  -7   13.45    0.68
   4   8  -7   14.61    0.87
  -4  -8   7   14.37    0.87
  -4  -8   7   14.31    0.63
  -4  -8   7   15.41    0.73
   3   8  -7   19.00    0.89
   3   8  -7   21.85    0.96
   3   8  -7   19.74    1.09
   3   8  -7   21.50    0.95
   3   8  -7   21.08    0.97
  -3  -8   7   20.22    0.94
  -3  -8   7   21.86    1.08
   2   8  -7    3.59    0.36
   2   8  -7    4.61    0.41
   2   8  -7    3.76    0.38
   2   8  -7    3.95    0.40
   2   8  -7    3.95    0.46
  -2  -8   7    4.63    0.42
   1   8  -7   25.82    1.18
   1   8  -7   25.89    1.28
   1   8  -7   26.53    1.16
   1   8  -7   29.16    1.12
   1   8  -7   27.89    1.20
  -1  -8   7   26.90    1.21
   0   8  -7    0.86    0.22
   0   8  -7    0.55    0.23
   0   8  -7    0.30    0.21
   0  -8   7    0.46    0.26
   0  -8   7    0.70    0.30
  -1   8  -7   45.54    1.60
  -1   8  -7   42.88    1.98
  -1   8  -7   41.95    1.79
  -1   8  -7   44.44    1.79
  -1   8  -7   42.58    1.79
   1  -8   7   43.32    1.83
   1  -8   7   45.81    1.73
   1  -8   7   46.42    1.80
   1  -8   7   44.76    1.83
  -2   8  -7    7.98    0.55
  -2   8  -7    6.92    0.59
  -2   8  -7    8.63    0.49
  -2   8  -7    7.04    0.60
  -2   8  -7    7.71    0.56
   2  -8   7    7.57    0.55
   2  -8   7    7.88    0.59
   2  -8   7    7.47    0.67
   2  -8   7    8.02    0.61
  -3   8  -7   25.61    1.02
  -3   8  -7   21.26    1.48
  -3   8  -7   21.95    1.06
  -3   8  -7   22.58    1.07
  -3   8  -7   23.80    1.20
   3  -8   7   23.00    1.17
   3  -8   7   26.39    1.12
   3  -8   7   22.21    1.21
  -4   8  -7    7.80    0.56
  -4   8  -7    7.44    0.57
  -4   8  -7    5.94    0.72
  -4   8  -7    8.80    0.67
   4  -8   7    8.22    0.64
   4  -8   7    8.77    0.74
   4  -8   7    8.29    0.61
   4  -8   7    6.68    0.78
  -5   8  -7    4.49    0.49
  -5   8  -7    3.99    0.79
   5  -8   7    5.33    0.85
   5  -8   7    4.83    0.70
   5  -8   7    3.83    0.88
   7   7  -7    7.34    0.65
  -7  -7   7    9.90    0.60
   6   7  -7    1.93    0.34
   6   7  -7    1.83    0.33
   6   7  -7    2.06    0.35
  -6  -7   7    2.74    0.35
  -6  -7   7    2.54    0.42
   5   7  -7   25.85    1.17
   5   7  -7   24.97    0.99
   5   7  -7   27.73    1.29
   5   7  -7   26.99    1.03
   5   7  -7   25.02    1.05
  -5  -7   7   24.80    1.35
  -5  -7   7   26.08    0.99
  -5  -7   7   25.88    1.07
  -5  -7   7   26.25    1.05
   4   7  -7    2.44    0.42
   4   7  -7    2.18    0.27
   4   7  -7    2.69    0.33
   4   7  -7    1.68    0.32
   4   7  -7    2.33    0.42
  -4  -7   7    2.01    0.33
  -4  -7   7    2.87    0.33
  -4  -7   7    2.55    0.27
   3   7  -7   25.51    1.05
   3   7  -7   24.89    1.21
   3   7  -7   23.98    1.06
   3   7  -7   24.47    1.01
   3   7  -7   25.59    1.05
  -3  -7   7   25.28    1.03
  -3  -7   7   23.81    0.88
  -3  -7   7   23.47    1.05
   2   7  -7    2.67    0.28
   2   7  -7    3.03    0.35
   2   7  -7    2.68    0.39
   2   7  -7    3.45    0.32
  -2  -7   7    3.22    0.34
  -2  -7   7    2.28    0.33
   1   7  -7   14.09    0.65
   1   7  -7   13.37    0.77
   1   7  -7   13.32    0.69
   1   7  -7   12.56    0.71
   1   7  -7   13.35    0.78
  -1  -7   7   13.07    0.71
  -1  -7   7   13.81    0.73
   0   7  -7    4.19    0.37
   0   7  -7    3.60    0.45
   0   7  -7    3.90    0.32
   0   7  -7    3.89    0.35
   0   7  -7    3.44    0.35
   0  -7   7    4.42    0.40
   0  -7   7    4.02    0.42
  -1   7  -7    1.82    0.31
  -1   7  -7    2.39    0.28
  -1   7  -7    1.64    0.27
  -1   7  -7    1.75    0.33
   1  -7   7    1.95    0.36
   1  -7   7    1.56    0.34
  -2   7  -7    0.46    0.23
  -2   7  -7    0.54    0.25
  -2   7  -7    0.21    0.19
  -2   7  -7    0.41    0.24
   2  -7   7    0.26    0.28
   2  -7   7    0.39    0.24
   2  -7   7    0.08    0.30
   2  -7   7    0.83    0.23
  -3   7  -7    4.62    0.43
  -3   7  -7    4.94    0.39
  -3   7  -7    4.74    0.50
  -3   7  -7    4.44    0.41
  -3   7  -7    4.89    0.49
   3  -7   7    4.74    0.49
   3  -7   7    4.71    0.45
   3  -7   7    5.45    0.50
   3  -7   7    5.28    0.55
  -4   7  -7   10.39    0.62
  -4   7  -7   11.19    0.65
  -4   7  -7   11.66    0.76
  -4   7  -7   10.54    0.72
  -4   7  -7   10.16    0.62
   4  -7   7   10.11    0.75
   4  -7   7   11.47    0.67
  -5   7  -7    1.83    0.40
  -5   7  -7    2.17    0.43
  -5   7  -7    1.40    0.44
   5  -7   7    2.10    0.52
   5  -7   7    2.43    0.49
   5  -7   7    2.16    0.49
  -6   7  -7    2.01    0.52
  -6   7  -7    2.23    0.43
  -6   7  -7    1.35    0.36
  -6   7  -7    1.36    0.51
   6  -7   7    2.61    0.65
   6  -7   7    2.34    0.60
   6  -7   7    2.21    0.47
   7   6  -7    0.19    0.31
  -7  -6   7   -0.03    0.22
   6   6  -7    0.43    0.30
  -6  -6   7    0.21    0.20
   5   6  -7    0.26    0.17
   5   6  -7    0.47    0.25
   5   6  -7    0.19    0.17
  -5  -6   7    0.04    0.25
  -5  -6   7    0.20    0.17
  -5  -6   7    0.16    0.18
   4   6  -7    1.35    0.26
   4   6  -7    0.91    0.26
   4   6  -7    1.17    0.21
   4   6  -7    0.89    0.16
  -4  -6   7    0.93    0.17
  -4  -6   7    1.25    0.24
  -4  -6   7    1.04    0.16
  -4  -6   7    1.21    0.27
   3   6  -7   15.90    0.73
   3   6  -7   15.01    0.71
   3   6  -7   14.98    0.69
   3   6  -7   15.22    0.72
  -3  -6   7   17.00    0.86
  -3  -6   7   14.96    0.69
  -3  -6   7   15.89    0.73
  -3  -6   7   15.06    0.63
   2   6  -7    1.20    0.25
   2   6  -7    1.36    0.22
   2   6  -7    1.06    0.24
   2   6  -7    1.35    0.27
   2   6  -7    1.57    0.31
  -2  -6   7    1.90    0.27
  -2  -6   7    2.08    0.40
  -2  -6   7    1.36    0.18
  -2  -6   7    1.26    0.27
   1   6  -7   15.59    0.78
   1   6  -7   16.25    0.87
   1   6  -7   15.53    0.75
   1   6  -7   15.40    0.77
   1   6  -7   16.94    0.70
  -1  -6   7   15.19    0.77
  -1  -6   7   16.38    0.86
  -1  -6   7   13.50    1.00
  -1  -6   7   15.45    0.78
   0   6  -7    3.04    0.32
   0   6  -7    2.51    0.30
   0   6  -7    3.86    0.32
   0   6  -7    2.64    0.27
   0   6  -7    3.26    0.36
   0  -6   7    3.52    0.33
   0  -6   7    3.94    0.37
   0  -6   7    2.77    0.30
   0  -6   7    3.12    0.35
  -1   6  -7   39.06    1.54
  -1   6  -7   38.99    1.61
  -1   6  -7   38.38    1.58
  -1   6  -7   41.01    1.39
  -1   6  -7   38.53    1.62
   1  -6   7   40.31    1.47
   1  -6   7   37.65    1.47
   1  -6   7   39.18    1.62
   1  -6   7   38.01    1.58
  -2   6  -7    5.46    0.60
  -2   6  -7    6.71    0.38
  -2   6  -7    5.81    0.46
  -2   6  -7    6.35    0.43
   2  -6   7    6.24    0.49
   2  -6   7    6.41    0.47
   2  -6   7    6.03    0.42
  -3   6  -7   26.49    1.59
  -3   6  -7   32.36    1.45
  -3   6  -7   34.43    1.22
  -3   6  -7   33.06    1.33
   3  -6   7   32.61    1.31
   3  -6   7   31.35    1.45
   3  -6   7   30.73    1.32
   3  -6   7   32.02    1.31
  -4   6  -7    0.15    0.20
  -4   6  -7    0.09    0.33
  -4   6  -7    0.30    0.23
   4  -6   7    0.45    0.27
   4  -6   7    0.30    0.31
   4  -6   7    0.29    0.31
  -5   6  -7   22.97    1.00
  -5   6  -7   24.00    1.18
  -5   6  -7   22.99    0.88
   5  -6   7   27.55    1.45
   5  -6   7   22.37    1.12
   5  -6   7   21.69    1.16
  -6   6  -7    0.13    0.32
  -6   6  -7   -0.03    0.44
  -6   6  -7    0.08    0.25
  -6   6  -7    0.22    0.31
   6  -6   7   -0.09    0.51
   6  -6   7    0.55    0.38
   6  -6   7    0.72    0.45
  -7   6  -7    3.26    0.57
  -7   6  -7    3.45    0.79
  -7   6  -7    3.34    0.40
  -7   6  -7    3.71    0.60
   7  -6   7    3.60    0.67
   7  -6   7    3.54    0.83
   8   5  -7    5.56    0.56
  -8  -5   7    6.49    0.54
   7   5  -7    0.54    0.29
  -7  -5   7    0.72    0.22
   6   5  -7   20.23    1.00
  -6  -5   7   20.33    0.99
  -5  -5   7    1.69    0.25
   4   5  -7   15.49    0.62
   4   5  -7   12.01    0.70
   4   5  -7   13.75    0.61
   4   5  -7   15.19    0.82
  -4  -5   7   13.98    0.67
  -4  -5   7   14.57    0.62
   3   5  -7    6.26    0.39
   3   5  -7    5.13    0.35
   3   5  -7    5.72    0.37
   3   5  -7    5.50    0.46
   3   5  -7    6.04    0.34
  -3  -5   7    5.60    0.46
  -3  -5   7    5.47    0.35
  -3  -5   7    6.54    0.46
  -3  -5   7    5.49    0.36
  -3  -5   7    5.82    0.34
   2   5  -7   53.46    1.88
   2   5  -7   53.05    1.89
   2   5  -7   53.99    2.10
   2   5  -7   54.46    1.83
   2   5  -7   52.86    1.86
  -2  -5   7   54.54    1.89
  -2  -5   7   51.16    1.71
  -2  -5   7   53.33    2.03
  -2  -5   7   54.57    2.10
  -2  -5   7   55.80    1.90
   1   5  -7   40.01    1.66
   1   5  -7   39.15    1.49
   1   5  -7   40.34    1.50
   1   5  -7   41.86    1.39
   1   5  -7   39.16    1.51
  -1  -5   7   39.51    1.62
  -1  -5   7   40.25    1.51
  -1  -5   7   40.65    1.61
  -1  -5   7   40.00    1.51
   0   5  -7   17.82    0.85
   0   5  -7   18.22    0.82
   0   5  -7   17.30    0.70
   0   5  -7   18.96    0.84
   0   5  -7   17.59    0.90
   0  -5   7   16.74    0.80
   0  -5   7   17.64    0.86
   0  -5   7   17.87    0.84
   0  -5   7   17.54    0.86
  -1   5  -7   19.48    0.87
  -1   5  -7   18.78    0.92
  -1   5  -7   17.85    0.91
  -1   5  -7   19.10    0.75
   1  -5   7   19.60    0.93
   1  -5   7   19.10    0.91
   1  -5   7   19.95    0.81
   1  -5   7   18.65    0.88
   1  -5   7   18.96    0.85
  -2   5  -7   17.05    0.80
  -2   5  -7   16.35    0.82
  -2   5  -7   17.82    0.71
  -2   5  -7   16.53    0.87
   2  -5   7   16.68    0.87
   2  -5   7   16.11    0.73
   2  -5   7   17.19    0.82
   2  -5   7   17.98    0.78
   2  -5   7   17.10    0.83
  -3   5  -7    5.17    0.45
  -3   5  -7    6.28    0.35
  -3   5  -7    5.48    0.41
  -3   5  -7    5.07    0.39
   3  -5   7    6.12    0.40
   3  -5   7    4.16    0.44
   3  -5   7    4.93    0.39
   3  -5   7    4.86    0.46
   3  -5   7    4.99    0.43
  -4   5  -7    2.32    0.46
  -4   5  -7    2.95    0.27
  -4   5  -7    2.95    0.31
   4  -5   7    3.18    0.36
   4  -5   7    2.58    0.37
  -5   5  -7    0.16    0.19
  -5   5  -7    0.35    0.27
   5  -5   7    0.28    0.27
   5  -5   7    0.42    0.30
   5  -5   7    0.13    0.31
  -6   5  -7    0.51    0.20
  -6   5  -7    0.68    0.27
  -6   5  -7    0.51    0.34
   6  -5   7    0.51    0.42
   6  -5   7    0.06    0.43
   6  -5   7    0.17    0.30
  -7   5  -7    0.67    0.29
  -7   5  -7    0.29    0.21
  -7   5  -7    0.37    0.41
  -7   5  -7    0.48    0.31
   7  -5   7    0.26    0.59
   7  -5   7    0.43    0.40
   7  -5   7    0.62    0.43
   8  -5   7    0.12    0.76
   8  -5   7    0.07    0.49
   8  -5   7   -0.39    0.53
   8   4  -7    0.44    0.36
   8   4  -7    0.09    0.39
  -8  -4   7    0.29    0.24
  -7  -4   7    2.36    0.38
   6   4  -7    2.00    0.36
  -6  -4   7    1.52    0.31
   5   4  -7    0.44    0.20
  -5  -4   7    0.17    0.16
   4   4  -7    5.11    0.28
   4   4  -7    5.46    0.45
  -4  -4   7    6.24    0.49
  -4  -4   7    5.83    0.40
   3   4  -7    2.70    0.24
   3   4  -7    2.78    0.22
   3   4  -7    2.98    0.21
   3   4  -7    3.17    0.32
  -3  -4   7    3.09    0.23
  -3  -4   7    3.10    0.31
  -3  -4   7    2.64    0.24
  -3  -4   7    2.68    0.22
   2   4  -7   50.97    1.76
   2   4  -7   49.57    1.76
   2   4  -7   54.04    2.02
   2   4  -7   50.84    1.79
  -2  -4   7   51.34    1.78
  -2  -4   7   53.19    1.95
  -2  -4   7   52.73    2.03
  -2  -4   7   52.70    1.78
   1   4  -7    8.36    0.45
   1   4  -7    7.74    0.53
   1   4  -7    7.82    0.44
   1   4  -7    8.40    0.47
  -1  -4   7    8.65    0.52
  -1  -4   7    8.06    0.46
  -1  -4   7    7.69    0.51
  -1  -4   7    8.66    0.46
   0   4  -7  207.45    6.12
   0   4  -7  198.06    6.17
   0   4  -7  193.33    6.28
   0  -4   7  196.07    6.22
   0  -4   7  196.11    6.13
   0  -4   7  201.91    6.22
   0  -4   7  205.79    6.18
  -1   4  -7   68.27    2.46
  -1   4  -7   70.88    2.51
  -1   4  -7   70.77    2.40
   1  -4   7   72.75    2.58
   1  -4   7   69.31    2.45
   1  -4   7   70.64    2.42
   1  -4   7   68.01    2.40
  -2   4  -7  126.99    4.23
  -2   4  -7  128.59    3.91
  -2   4  -7  131.40    4.13
  -2   4  -7  127.13    4.17
   2  -4   7  124.57    4.05
   2  -4   7  123.83    4.12
   2  -4   7  127.62    4.13
   2  -4   7  134.35    4.01
   2  -4   7  130.06    4.25
  -3   4  -7  107.16    3.54
  -3   4  -7  108.14    3.69
  -3   4  -7  109.31    3.54
   3  -4   7  101.71    3.38
   3  -4   7  108.88    3.57
   3  -4   7  107.01    3.70
   3  -4   7  109.68    3.47
  -4   4  -7   13.88    0.68
  -4   4  -7   14.29    0.54
  -4   4  -7   14.58    0.81
  -4   4  -7   13.40    0.71
   4  -4   7   13.28    0.57
   4  -4   7   13.46    0.70
   4  -4   7   15.24    0.74
   4  -4   7   13.25    0.78
  -5   4  -7   56.38    2.06
  -5   4  -7   56.07    1.94
  -5   4  -7   57.04    2.20
  -5   4  -7   54.67    1.83
   5  -4   7   52.56    2.33
   5  -4   7   57.45    2.09
   5  -4   7   52.19    2.16
  -6   4  -7    0.50    0.20
  -6   4  -7    0.33    0.18
  -6   4  -7    0.11    0.31
  -6   4  -7    0.15    0.22
   6  -4   7    0.33    0.33
   6  -4   7    0.39    0.26
   6  -4   7    0.27    0.68
  -7   4  -7   12.36    0.77
  -7   4  -7   11.40    0.67
  -7   4  -7   13.10    0.57
   7  -4   7   13.96    0.75
   7  -4   7   12.92    0.82
   7  -4   7   11.74    0.84
  -8   4  -7    0.34    0.44
  -8   4  -7    0.23    0.33
  -8   4  -7   -0.24    0.28
   8  -4   7    0.43    0.61
   8  -4   7    0.01    0.39
   8  -4   7   -0.14    0.48
   8   3  -7    8.18    0.57
   8   3  -7    7.06    0.63
  -8  -3   7    8.30    0.68
   7   3  -7    4.37    0.49
   7   3  -7    4.75    0.47
  -7  -3   7    5.21    0.48
   6   3  -7   45.11    1.62
   6   3  -7   42.09    1.66
  -6  -3   7   41.39    1.76
   5   3  -7    1.17    0.20
  -5  -3   7    0.58    0.17
  -5  -3   7    0.87    0.18
   4   3  -7  118.15    3.85
  -4  -3   7  110.71    3.92
  -4  -3   7  115.24    3.74
   3   3  -7    6.24    0.32
   3   3  -7    5.94    0.30
   3   3  -7    6.30    0.30
   3   3  -7    6.26    0.45
  -3  -3   7    6.04    0.38
  -3  -3   7    5.76    0.48
   2   3  -7   57.03    2.12
   2   3  -7   56.75    1.88
   2   3  -7   57.03    1.86
   2   3  -7   55.00    1.85
  -2  -3   7   56.57    1.88
  -2  -3   7   59.34    1.86
  -2  -3   7   55.76    2.13
  -2  -3   7   56.96    1.87
   1   3  -7   31.38    1.19
   1   3  -7   31.55    1.16
   1   3  -7   30.86    1.33
  -1  -3   7   31.53    1.17
  -1  -3   7   31.32    1.33
  -1  -3   7   33.38    1.18
   0   3  -7   57.03    2.01
   0   3  -7   57.61    1.97
   0   3  -7   56.33    2.11
   0  -3   7   57.33    1.98
   0  -3   7   59.58    2.01
   0  -3   7   59.16    2.10
  -1   3  -7    1.07    0.18
  -1   3  -7    1.12    0.20
  -1   3  -7    1.56    0.22
   1  -3   7    1.35    0.20
   1  -3   7    1.06    0.21
   1  -3   7    1.10    0.18
  -2   3  -7    1.49    0.23
  -2   3  -7    1.67    0.22
   2  -3   7    1.76    0.23
   2  -3   7    1.72    0.21
   2  -3   7    1.72    0.23
   2  -3   7    1.93    0.19
  -3   3  -7   24.06    0.78
  -3   3  -7   23.15    1.00
  -3   3  -7   22.22    1.07
   3  -3   7   23.78    1.09
   3  -3   7   22.99    0.92
   3  -3   7   22.74    1.01
   3  -3   7   23.77    0.93
  -4   3  -7   48.18    1.79
  -4   3  -7   45.98    1.87
  -4   3  -7   47.02    1.55
  -4   3  -7   47.17    1.72
   4  -3   7   49.20    1.81
   4  -3   7   47.45    1.90
   4  -3   7   47.78    1.73
  -5   3  -7   20.14    0.97
  -5   3  -7   17.91    0.80
  -5   3  -7   17.71    1.15
  -5   3  -7   19.34    0.75
   5  -3   7   19.66    0.91
   5  -3   7   17.43    0.71
   5  -3   7   18.61    0.96
   5  -3   7   18.96    0.89
  -6   3  -7    5.00    0.33
  -6   3  -7    4.62    0.38
  -6   3  -7    4.42    0.32
  -6   3  -7    4.81    0.46
   6  -3   7    5.12    0.48
   6  -3   7    3.88    0.40
   6  -3   7    5.18    0.49
  -7   3  -7    4.84    0.39
  -7   3  -7    5.04    0.53
  -7   3  -7    5.54    0.32
  -7   3  -7    4.99    0.43
   7  -3   7    3.95    0.57
   7  -3   7    4.77    0.49
   7  -3   7    3.89    0.50
  -8   3  -7    0.12    0.23
  -8   3  -7   -0.17    0.40
  -8   3  -7    0.24    0.31
   8  -3   7   -0.04    0.40
   8  -3   7   -0.34    0.34
   8  -3   7   -0.18    0.50
  -9   3  -7    0.51    0.29
  -9   3  -7   -0.36    0.53
   9  -3   7   -0.33    0.51
   9  -3   7    0.13    0.69
   9  -3   7    1.01    0.45
   8   2  -7    0.34    0.38
   8   2  -7    0.37    0.30
   7   2  -7    0.34    0.30
   7   2  -7    0.01    0.24
  -7  -2   7    0.31    0.21
   6   2  -7    7.36    0.48
   6   2  -7    6.35    0.49
  -6  -2   7    6.81    0.54
   5   2  -7    0.55    0.19
  -5  -2   7    0.45    0.16
  -5  -2   7    0.47    0.16
   4   2  -7   12.31    0.58
   4   2  -7   12.32    0.69
  -4  -2   7   11.60    0.73
  -4  -2   7   11.48    0.65
   3   2  -7    0.09    0.07
  -3  -2   7   -0.08    0.13
  -3  -2   7    0.03    0.12
   2   2  -7   47.39    1.55
   2   2  -7   49.39    1.83
   2   2  -7   48.88    1.58
   2   2  -7   45.70    1.53
  -2  -2   7   47.36    1.65
  -2  -2   7   48.61    1.53
  -2  -2   7   47.05    1.84
   1   2  -7    9.72    0.58
   1   2  -7    9.68    0.47
  -1  -2   7   10.17    0.45
  -1  -2   7   10.42    0.59
  -1  -2   7   10.15    0.47
   0   2  -7   41.35    1.48
   0   2  -7   40.01    1.59
   0  -2   7   40.74    1.47
   0  -2   7   41.97    1.58
   0  -2   7   42.07    1.45
  -1   2  -7    3.68    0.27
  -1   2  -7    3.26    0.29
  -1   2  -7    3.79    0.29
   1  -2   7    3.65    0.27
   1  -2   7    3.44    0.29
   1  -2   7    3.63    0.29
  -2   2  -7  126.60    4.13
  -2   2  -7  133.24    4.09
  -2   2  -7  128.73    4.16
   2  -2   7  131.62    4.09
   2  -2   7  131.62    4.17
   2  -2   7  123.21    4.07
  -3   2  -7    1.61    0.19
  -3   2  -7    1.18    0.23
  -3   2  -7    1.53    0.20
   3  -2   7    1.81    0.24
   3  -2   7    1.44    0.21
   3  -2   7    1.73    0.19
   3  -2   7    1.45    0.21
  -4   2  -7  109.93    3.75
  -4   2  -7  126.09    3.93
  -4   2  -7  121.73    3.83
   4  -2   7  123.01    3.92
   4  -2   7  122.89    3.81
   4  -2   7  120.00    3.77
   4  -2   7  119.66    4.02
  -5   2  -7   10.26    0.62
  -5   2  -7   10.44    0.56
  -5   2  -7   10.04    0.51
  -5   2  -7    9.60    0.46
   5  -2   7    9.28    0.48
   5  -2   7    9.90    0.57
  -6   2  -7   26.16    1.13
  -6   2  -7   26.68    1.01
  -6   2  -7   28.62    1.24
  -6   2  -7   25.84    1.02
   6  -2   7   25.82    1.16
   6  -2   7   27.20    1.13
   6  -2   7   26.07    1.21
  -7   2  -7    9.14    0.60
  -7   2  -7    8.66    0.42
  -7   2  -7    9.23    0.54
  -7   2  -7    9.19    0.49
   7  -2   7    7.73    0.83
   7  -2   7    8.28    0.59
   7  -2   7    7.88    0.61
  -8   2  -7    2.74    0.46
  -8   2  -7    1.25    0.32
  -8   2  -7    2.38    0.33
   8  -2   7    2.50    0.50
   8  -2   7    1.38    0.35
   8  -2   7    0.91    0.41
   8  -2   7    1.95    0.28
  -9   2  -7    7.31    0.49
  -9   2  -7    7.46    0.71
  -9   2  -7    7.36    0.65
   9  -2   7    5.41    0.76
   9  -2   7    6.47    0.73
   8   1  -7    0.22    0.43
   8   1  -7    0.67    0.29
  -8  -1   7   -0.21    0.24
   7   1  -7   18.90    0.85
   7   1  -7   20.06    0.95
  -7  -1   7   18.35    1.08
   6   1  -7    1.96    0.37
  -6  -1   7    2.66    0.35
  -6  -1   7    2.20    0.31
   5   1  -7   53.64    1.86
   5   1  -7   51.22    1.89
  -5  -1   7   51.80    2.04
  -5  -1   7   49.66    2.04
   4   1  -7   38.36    1.48
   4   1  -7   38.02    1.37
  -4  -1   7   36.48    1.51
  -4  -1   7   35.40    1.55
   3   1  -7  107.03    3.48
   3   1  -7  106.63    3.27
  -3  -1   7  105.52    3.44
  -3  -1   7  100.64    3.54
   2   1  -7  118.83    3.84
  -2  -1   7  114.97    3.87
  -2  -1   7  119.19    3.73
   1   1  -7   18.52    0.70
   1   1  -7   18.99    0.73
   1   1  -7   18.91    0.88
  -1  -1   7   19.34    0.90
  -1  -1   7   18.80    0.72
  -1  -1   7   20.23    0.70
   0   1  -7  180.60    5.83
   0   1  -7  190.48    5.68
   0   1  -7  184.28    5.62
   0  -1   7  188.89    5.62
   0  -1   7  191.66    5.84
   0  -1   7  191.84    5.66
  -1   1  -7    2.96    0.27
  -1   1  -7    3.25    0.23
  -1   1  -7    2.78    0.24
   1  -1   7    2.98    0.22
   1  -1   7    2.69    0.24
   1  -1   7    3.34    0.26
  -2   1  -7   18.97    0.81
  -2   1  -7   19.01    0.85
  -2   1  -7   17.89    0.83
   2  -1   7   17.77    0.79
   2  -1   7   18.76    0.81
   2  -1   7   18.51    0.84
  -3   1  -7    0.77    0.16
  -3   1  -7    0.66    0.14
   3  -1   7    0.94    0.15
   3  -1   7    0.95    0.19
   3  -1   7    0.91    0.18
  -4   1  -7    0.17    0.12
  -4   1  -7    0.24    0.13
  -4   1  -7    0.20    0.11
   4  -1   7    0.39    0.13
   4  -1   7    0.06    0.15
   4  -1   7   -0.08    0.13
  -5   1  -7    1.08    0.24
  -5   1  -7    1.39    0.19
  -5   1  -7    1.22    0.18
  -5   1  -7    1.46    0.26
   5  -1   7    1.75    0.26
   5  -1   7    1.48    0.25
   5  -1   7    1.70    0.27
  -6   1  -7    2.29    0.30
  -6   1  -7    2.20    0.23
  -6   1  -7    2.76    0.33
   6  -1   7    2.48    0.31
   6  -1   7    2.06    0.34
   6  -1   7    2.53    0.32
  -7   1  -7    0.69    0.14
  -7   1  -7    0.49    0.30
  -7   1  -7    0.43    0.15
  -7   1  -7    0.62    0.22
   7  -1   7    0.88    0.29
   7  -1   7    0.67    0.25
   7  -1   7    0.94    0.23
  -8   1  -7    3.34    0.52
  -8   1  -7    4.16    0.34
   8  -1   7    3.48    0.49
   8  -1   7    4.58    0.53
   8  -1   7    3.43    0.49
  -9   1  -7    0.71    0.37
  -9   1  -7    0.31    0.35
  -9   1  -7    0.58    0.21
   9  -1   7    0.53    0.46
   9  -1   7    0.53    0.35
   9  -1   7    0.04    0.39
   8   0  -7    0.22    0.49
   8   0  -7    0.82    0.29
  -8   0   7    0.81    0.25
   7   0  -7    1.66    0.34
   7   0  -7    2.28    0.52
  -7   0   7    2.05    0.37
   6   0  -7    0.31    0.21
   6   0  -7    0.21    0.28
  -6   0   7   -0.05    0.18
  -6   0   7    0.00    0.19
   5   0  -7    0.40    0.21
  -5   0   7    0.63    0.16
  -5   0   7    0.75    0.20
   4   0  -7    0.58    0.18
  -4   0   7    0.33    0.15
  -4   0   7    0.45    0.13
   3   0  -7   25.37    0.97
   3   0  -7   24.82    1.07
  -3   0   7   24.17    1.14
  -3   0   7   25.49    1.10
   2   0  -7    7.90    0.48
  -2   0   7    7.73    0.51
  -2   0   7    8.29    0.48
   1   0  -7   63.40    2.24
   1   0  -7   67.39    2.03
   1   0  -7   62.11    1.97
  -1   0   7   65.21    1.98
  -1   0   7   62.51    2.26
   0   0  -7   61.53    2.27
   0   0  -7   66.50    2.14
   0   0  -7   65.27    2.08
   0   0   7   68.28    2.13
   0   0   7   65.80    2.28
   0   0   7   68.35    2.09
  -1   0  -7  123.83    4.12
  -1   0  -7  123.14    4.03
  -1   0  -7  130.37    3.99
   1   0   7  136.08    4.05
   1   0   7  132.31    3.98
   1   0   7  135.18    4.13
  -2   0  -7  102.36    3.46
  -2   0  -7  110.27    3.41
  -2   0  -7   99.68    3.44
   2   0   7  110.89    3.47
   2   0   7  112.52    3.48
   2   0   7  112.47    3.41
  -3   0  -7  152.11    4.99
  -3   0  -7  158.75    4.95
  -3   0  -7  158.10    4.98
   3   0   7  168.51    4.78
   3   0   7  163.24    4.95
   3   0   7  155.18    4.93
   3   0   7  162.13    5.02
  -4   0  -7  183.57    5.65
  -4   0  -7  179.70    5.70
  -4   0  -7  178.26    5.57
   4   0   7  181.02    5.64
   4   0   7  189.69    5.54
   4   0   7  182.24    5.71
  -5   0  -7    8.43    0.43
  -5   0  -7    7.60    0.48
  -5   0  -7    8.50    0.51
   5   0   7    7.83    0.45
   5   0   7    7.40    0.46
  -6   0  -7   77.73    2.72
  -6   0  -7   76.23    2.59
  -6   0  -7   71.50    2.44
  -6   0  -7   68.76    2.37
   6   0   7   75.46    2.55
   6   0   7   75.35    2.58
   6   0   7   72.94    2.61
  -7   0  -7    0.44    0.21
  -7   0  -7    0.12    0.20
   7   0   7    0.60    0.25
   7   0   7    0.75    0.24
   7   0   7    0.47    0.21
  -8   0  -7   17.85    0.85
  -8   0  -7   18.18    0.90
   8   0   7   18.90    0.90
   8   0   7   18.03    0.90
   8   0   7   17.76    1.01
  -9   0  -7    2.97    0.50
  -9   0  -7    3.88    0.36
  -9   0  -7    3.03    0.52
   9   0   7    2.92    0.37
   9   0   7    3.50    0.55
   9   0   7    3.89    0.59
 -10   0  -7    0.53    0.43
 -10   0  -7    1.40    0.25
  10   0   7    0.95    0.46
  10   0   7    1.18    0.55
  10   0   7    0.90    0.49
   7  -1  -7   12.66    0.61
   7  -1  -7    9.84    0.78
  -7   1   7   11.66    0.84
   6  -1  -7    1.30    0.28
   6  -1  -7    0.91    0.30
  -6   1   7    0.68    0.19
  -6   1   7    0.84    0.20
   5  -1  -7   74.04    2.61
   5  -1  -7   76.49    2.52
  -5   1   7   74.35    2.71
  -5   1   7   72.57    2.79
   4  -1  -7    6.93    0.44
   4  -1  -7    8.16    0.50
  -4   1   7    5.99    0.45
  -4   1   7    6.88    0.51
   3  -1  -7  284.69    8.23
   3  -1  -7  279.69    8.30
  -3   1   7  268.31    8.40
  -3   1   7  265.10    8.38
   2  -1  -7   69.22    2.18
  -2   1   7   67.57    2.34
  -2   1   7   64.62    2.37
   1  -1  -7  182.44    5.40
   1  -1  -7  167.59    5.45
  -1   1   7  182.65    5.68
  -1   1   7  198.02    5.38
   0  -1  -7  212.77    6.31
   0  -1  -7  207.19    6.36
   0   1   7  215.54    6.55
   0   1   7  220.36    6.32
  -1  -1  -7   17.53    0.75
  -1  -1  -7   18.24    0.72
   1   1   7   18.58    0.72
   1   1   7   18.48    0.82
  -2  -1  -7   62.02    2.04
  -2  -1  -7   59.24    2.07
   2   1   7   59.72    2.01
   2   1   7   61.57    2.11
   2   1   7   62.49    2.09
  -3  -1  -7   37.73    1.38
  -3  -1  -7   36.59    1.41
   3   1   7   38.11    1.38
   3   1   7   35.80    1.41
  -4  -1  -7   16.09    0.76
  -4  -1  -7   16.73    0.76
   4   1   7   14.36    0.72
  -5  -1  -7    5.22    0.36
  -5  -1  -7    4.79    0.34
   5   1   7    4.37    0.34
  -6  -1  -7   12.07    0.64
  -6  -1  -7   11.31    0.62
  -6  -1  -7   10.60    0.51
   6   1   7   12.76    0.65
   6   1   7   11.62    0.63
  -7  -1  -7    0.28    0.20
  -7  -1  -7    0.36    0.13
  -7  -1  -7    0.17    0.20
  -7  -1  -7    0.16    0.12
   7   1   7    0.38    0.22
   7   1   7    0.38    0.18
   7   1   7    0.42    0.22
  -8  -1  -7    8.08    0.50
  -8  -1  -7    7.95    0.53
   8   1   7    8.66    0.56
   8   1   7    7.22    0.52
   8   1   7    7.91    0.53
  -9  -1  -7    2.99    0.47
  -9  -1  -7    2.77    0.32
  -9  -1  -7    2.58    0.39
   9   1   7    3.26    0.56
   9   1   7    3.02    0.48
   9   1   7    2.52    0.51
 -10  -1  -7    5.37    0.64
 -10  -1  -7    5.67    0.61
  10   1   7    5.98    0.63
  10   1   7    5.82    0.66
   7  -2  -7    0.30    0.44
  -7   2   7    0.20    0.31
   6  -2  -7    0.04    0.20
   6  -2  -7   -0.35    0.33
  -6   2   7    0.20    0.19
  -6   2   7    0.11    0.21
   5  -2  -7   -0.38    0.26
   5  -2  -7    0.25    0.16
  -5   2   7    0.14    0.17
  -5   2   7    0.04    0.17
   4  -2  -7   24.97    1.11
   4  -2  -7   26.34    1.04
  -4   2   7   24.51    1.22
  -4   2   7   24.62    1.14
   3  -2  -7    1.18    0.22
  -3   2   7    1.34    0.21
  -3   2   7    0.99    0.23
   2  -2  -7    2.58    0.14
   2  -2  -7    2.06    0.24
  -2   2   7    1.63    0.25
  -2   2   7    2.24    0.26
   1  -2  -7   81.99    2.53
   1  -2  -7   76.15    2.45
   1  -2  -7   75.35    2.46
  -1   2   7   85.93    2.46
  -1   2   7   79.66    2.70
   0  -2  -7    4.72    0.29
   0  -2  -7    4.90    0.27
   0   2   7    5.06    0.36
   0   2   7    5.29    0.29
   0   2   7    5.20    0.29
  -1  -2  -7  180.95    5.65
  -1  -2  -7  187.41    5.62
   1   2   7  186.72    5.78
   1   2   7  193.96    5.66
   1   2   7  190.98    5.63
  -2  -2  -7   22.11    0.88
  -2  -2  -7   22.04    0.90
   2   2   7   23.29    0.91
   2   2   7   22.28    0.88
  -3  -2  -7   28.42    1.13
  -3  -2  -7   29.30    1.13
   3   2   7   28.43    1.11
   3   2   7   28.94    1.14
  -4  -2  -7    6.94    0.43
  -4  -2  -7    7.10    0.45
   4   2   7    7.53    0.44
   4   2   7    7.80    0.45
  -5  -2  -7   91.86    3.10
  -5  -2  -7   92.70    3.07
   5   2   7   93.02    3.08
   5   2   7   90.32    3.06
  -6  -2  -7   32.58    1.33
  -6  -2  -7   32.67    1.35
   6   2   7   31.67    1.31
   6   2   7   33.89    1.34
  -7  -2  -7   26.32    1.13
  -7  -2  -7   25.28    1.15
   7   2   7   27.02    1.15
  -8  -2  -7   18.81    0.75
  -8  -2  -7   19.97    0.96
  -8  -2  -7   21.36    0.96
   8   2   7   19.13    0.91
   8   2   7   23.31    1.00
  -9  -2  -7    0.30    0.30
  -9  -2  -7    0.61    0.28
  -9  -2  -7    0.40    0.18
   9   2   7    0.12    0.26
   9   2   7    0.26    0.43
   9   2   7    0.79    0.35
 -10  -2  -7    4.92    0.42
 -10  -2  -7    4.55    0.59
 -10  -2  -7    4.60    0.62
  10   2   7    4.72    0.59
  10   2   7    3.74    0.63
   7  -3  -7    2.38    0.28
   7  -3  -7    3.26    0.54
  -7   3   7    2.75    0.41
   6  -3  -7   11.79    0.57
  -6   3   7   10.73    0.82
  -6   3   7   10.85    0.65
   5  -3  -7    6.82    0.75
   5  -3  -7    8.81    0.48
  -5   3   7    7.29    0.64
  -5   3   7    7.85    0.53
   4  -3  -7    6.37    0.49
  -4   3   7    5.73    0.48
  -4   3   7    5.45    0.43
   3  -3  -7   40.08    1.53
  -3   3   7   36.57    1.62
  -3   3   7   39.03    1.55
   2  -3  -7  193.99    5.82
   2  -3  -7  182.27    5.56
  -2   3   7  190.27    5.90
   1  -3  -7  192.26    5.73
   1  -3  -7  177.16    5.59
   1  -3  -7  189.22    5.60
   1  -3  -7  186.14    5.59
  -1   3   7  183.15    5.62
  -1   3   7  186.67    5.86
  -1   3   7  206.41    5.63
   0  -3  -7   46.98    1.55
   0  -3  -7   43.99    1.51
   0  -3  -7   44.67    1.53
   0   3   7   47.02    1.53
   0   3   7   45.37    1.68
   0   3   7   46.16    1.48
   0   3   7   44.91    1.51
  -1  -3  -7  163.50    4.99
  -1  -3  -7  161.86    5.00
   1   3   7  162.71    4.98
   1   3   7  163.79    4.99
   1   3   7  168.47    5.16
   1   3   7  170.28    4.94
  -2  -3  -7    6.03    0.35
  -2  -3  -7    5.96    0.35
   2   3   7    5.82    0.32
   2   3   7    6.15    0.35
   2   3   7    5.87    0.35
  -3  -3  -7   22.13    0.91
  -3  -3  -7   22.02    0.92
   3   3   7   22.25    0.92
   3   3   7   22.78    0.91
  -4  -3  -7   18.14    0.82
  -4  -3  -7   17.55    0.79
   4   3   7   18.15    0.79
   4   3   7   18.32    0.82
  -5  -3  -7    1.11    0.17
  -5  -3  -7    1.29    0.20
   5   3   7    1.16    0.19
  -6  -3  -7    0.52    0.16
  -6  -3  -7    0.74    0.14
   6   3   7    0.95    0.20
   6   3   7    0.77    0.13
  -7  -3  -7    3.44    0.38
  -7  -3  -7    3.71    0.33
   7   3   7    4.01    0.40
  -8  -3  -7    5.71    0.44
   8   3   7    5.54    0.40
  -9  -3  -7    1.18    0.34
  -9  -3  -7    0.59    0.26
  -9  -3  -7    0.50    0.15
  -9  -3  -7    0.37    0.17
   9   3   7    0.54    0.24
 -10  -3  -7    0.39    0.18
 -10  -3  -7    1.07    0.41
 -10  -3  -7    0.62    0.34
  10   3   7    1.01    0.35
  10   3   7    0.72    0.41
  10   3   7    0.66    0.45
   6  -4  -7    4.19    0.62
   6  -4  -7    4.21    0.36
  -6   4   7    3.75    0.46
  -6   4   7    3.67    0.38
   5  -4  -7    0.67    0.34
  -5   4   7    0.27    0.18
  -5   4   7    0.48    0.23
   4  -4  -7    4.46    0.43
  -4   4   7    3.79    0.39
  -4   4   7    3.33    0.32
   3  -4  -7    0.61    0.20
  -3   4   7    0.77    0.16
   2  -4  -7    1.09    0.21
   2  -4  -7    1.11    0.14
   2  -4  -7    0.83    0.17
   2  -4  -7    0.82    0.16
  -2   4   7    1.11    0.21
  -2   4   7    1.35    0.17
   1  -4  -7   31.90    1.24
   1  -4  -7   30.38    1.10
   1  -4  -7   31.62    1.12
   1  -4  -7   32.06    1.15
  -1   4   7   31.86    1.15
  -1   4   7   31.21    1.10
  -1   4   7   30.82    1.28
  -1   4   7   33.20    1.12
   0  -4  -7   34.97    1.26
   0  -4  -7   36.30    1.28
   0  -4  -7   36.63    1.33
   0  -4  -7   34.33    1.25
   0   4   7   35.90    1.28
   0   4   7   36.51    1.27
   0   4   7   36.07    1.41
   0   4   7   37.71    1.27
  -1  -4  -7  170.31    5.28
  -1  -4  -7  172.66    5.29
   1   4   7  178.19    5.28
   1   4   7  173.67    5.30
   1   4   7  178.08    5.29
  -2  -4  -7   35.74    1.29
  -2  -4  -7   34.55    1.28
   2   4   7   34.36    1.28
   2   4   7   34.90    1.25
   2   4   7   34.51    1.26
  -3  -4  -7  227.61    6.98
  -3  -4  -7  233.45    7.02
   3   4   7  233.07    7.02
   3   4   7  234.80    6.98
   3   4   7  229.76    6.97
  -4  -4  -7   22.65    0.96
  -4  -4  -7   23.59    1.00
   4   4   7   22.99    0.95
   4   4   7   23.36    0.99
  -5  -4  -7  156.85    5.08
  -5  -4  -7  159.68    4.99
   5   4   7  156.62    4.97
   5   4   7  166.84    5.09
  -6  -4  -7    7.37    0.45
  -6  -4  -7    7.24    0.49
   6   4   7    8.02    0.50
   6   4   7    7.28    0.44
  -7  -4  -7   90.95    3.23
  -7  -4  -7   91.71    3.12
   7   4   7   96.35    3.24
  -8  -4  -7    3.02    0.30
  -8  -4  -7    2.73    0.33
   8   4   7    2.58    0.30
   8   4   7    2.81    0.48
  -9  -4  -7    6.04    0.57
  -9  -4  -7    6.22    0.37
  -9  -4  -7    5.85    0.49
   9   4   7    5.54    0.43
   9   4   7    7.17    1.08
 -10  -4  -7    5.93    0.67
 -10  -4  -7    6.43    0.50
 -10  -4  -7    5.38    0.59
  10   4   7    6.00    0.76
   6  -5  -7   30.26    1.09
   6  -5  -7   25.89    1.41
  -6   5   7   28.15    1.20
  -6   5   7   23.82    1.92
   5  -5  -7   -0.26    0.41
  -5   5   7    0.42    0.20
  -5   5   7    0.27    0.22
  -4   5   7  112.25    3.74
   3  -5  -7   34.57    1.19
   3  -5  -7   32.88    1.44
  -3   5   7   33.27    1.37
  -3   5   7   32.66    1.30
   2  -5  -7  135.53    4.22
   2  -5  -7  133.95    4.20
   2  -5  -7  138.85    4.49
   2  -5  -7  142.41    4.25
  -2   5   7  143.03    4.22
  -2   5   7  135.65    4.31
  -2   5   7  137.21    4.44
   1  -5  -7  113.93    3.44
   1  -5  -7  109.22    3.59
   1  -5  -7  108.48    3.40
   1  -5  -7  107.17    3.42
  -1   5   7  111.74    3.40
  -1   5   7  108.07    3.45
  -1   5   7  110.50    3.42
  -1   5   7  105.59    3.58
   0  -5  -7   69.33    2.24
   0  -5  -7   65.92    2.21
   0  -5  -7   64.40    2.22
   0  -5  -7   68.48    2.33
   0   5   7   65.42    2.35
   0   5   7   68.52    2.24
   0   5   7   69.58    2.25
   0   5   7   67.72    2.21
  -1  -5  -7  116.34    3.71
  -1  -5  -7  121.14    3.90
  -1  -5  -7  118.46    3.73
  -1  -5  -7  117.34    3.72
   1   5   7  118.88    3.71
   1   5   7  116.95    3.73
   1   5   7  121.28    3.74
  -2  -5  -7    6.69    0.39
  -2  -5  -7    6.37    0.39
   2   5   7    6.49    0.38
   2   5   7    7.09    0.40
   2   5   7    6.15    0.40
  -3  -5  -7   47.26    1.68
  -3  -5  -7   46.84    1.70
   3   5   7   49.22    1.71
   3   5   7   45.90    1.70
   3   5   7   46.59    1.67
  -4  -5  -7    9.04    0.52
  -4  -5  -7    8.76    0.49
   4   5   7    8.94    0.48
   4   5   7    9.19    0.53
  -5  -5  -7    1.26    0.24
  -5  -5  -7    1.00    0.19
   5   5   7    1.42    0.23
   5   5   7    1.23    0.19
  -6  -5  -7   25.18    1.13
  -6  -5  -7   25.74    1.07
   6   5   7   24.97    1.04
   6   5   7   25.82    1.13
  -7  -5  -7    2.68    0.28
  -7  -5  -7    1.83    0.40
   7   5   7    2.05    0.41
  -8  -5  -7    0.45    0.17
  -8  -5  -7    0.44    0.19
   8   5   7   -0.01    0.32
   8   5   7    0.51    0.20
  -9  -5  -7   10.37    0.53
  -9  -5  -7   11.14    0.63
  -9  -5  -7   10.08    0.73
   9   5   7   10.30    0.59
   9   5   7   11.26    0.81
 -10  -5  -7    0.52    0.21
 -10  -5  -7    0.20    0.18
 -10  -5  -7   -0.52    0.43
 -10  -5  -7   -0.17    0.31
  10   5   7   -0.22    0.47
  10   5   7    0.11    0.27
   6  -6  -7   -0.06    0.26
   6  -6  -7   -0.19    0.29
   6  -6  -7   -0.32    0.65
  -6   6   7    0.33    0.25
   5  -6  -7    2.09    0.49
  -5   6   7    1.11    0.23
   4  -6  -7    0.23    0.37
  -4   6   7    0.15    0.19
   3  -6  -7   10.03    0.70
   3  -6  -7   11.56    0.55
   3  -6  -7   10.87    0.51
  -3   6   7    9.77    0.60
  -3   6   7   11.19    0.49
   2  -6  -7   12.04    0.57
   2  -6  -7   12.67    0.60
   2  -6  -7   12.19    0.57
   2  -6  -7   12.59    0.73
  -2   6   7   12.89    0.58
  -2   6   7   13.05    0.63
  -2   6   7   12.86    0.57
  -2   6   7   12.94    0.67
   1  -6  -7   16.58    0.71
   1  -6  -7   15.59    0.83
   1  -6  -7   17.02    0.74
   1  -6  -7   15.66    0.71
  -1   6   7   16.37    0.71
  -1   6   7   17.31    0.71
  -1   6   7   16.69    0.81
  -1   6   7   15.81    0.74
   0  -6  -7   23.49    1.06
   0  -6  -7   25.66    1.00
   0  -6  -7   23.00    0.96
   0   6   7   24.07    1.07
   0   6   7   24.87    0.99
   0   6   7   23.88    0.95
   0   6   7   24.39    1.00
  -1  -6  -7   44.75    1.71
  -1  -6  -7   46.56    1.65
  -1  -6  -7   46.13    1.65
  -1  -6  -7   43.79    1.62
   1   6   7   45.92    1.66
   1   6   7   46.19    1.67
   1   6   7   47.92    1.64
  -2  -6  -7   61.35    2.11
  -2  -6  -7   59.33    2.09
  -2  -6  -7   59.97    2.10
   2   6   7   61.38    2.11
   2   6   7   60.84    2.12
   2   6   7   61.31    2.08
  -3  -6  -7   52.19    1.85
  -3  -6  -7   51.29    1.86
   3   6   7   51.90    1.83
   3   6   7   51.81    1.87
   3   6   7   51.52    1.87
  -4  -6  -7   79.34    2.71
  -4  -6  -7   80.74    2.78
   4   6   7   81.47    2.71
   4   6   7   81.71    2.78
   4   6   7   83.36    2.80
  -5  -6  -7   60.18    2.12
  -5  -6  -7   58.95    2.18
   5   6   7   61.81    2.20
   5   6   7   59.43    2.09
  -6  -6  -7   14.26    0.80
  -6  -6  -7   15.66    0.76
   6   6   7   15.95    0.82
   6   6   7   14.66    0.72
  -7  -6  -7   43.62    1.61
  -7  -6  -7   42.97    1.61
  -7  -6  -7   40.54    1.72
   7   6   7   39.67    1.57
   7   6   7   44.42    1.74
  -8  -6  -7    0.01    0.19
  -8  -6  -7    0.31    0.28
  -8  -6  -7   -0.02    0.19
   8   6   7    0.26    0.19
   8   6   7    0.43    0.39
  -9  -6  -7   11.51    0.82
  -9  -6  -7   11.61    0.60
   9   6   7   10.30    0.61
   9   6   7   12.82    0.85
 -10  -6  -7    0.46    0.50
 -10  -6  -7    0.61    0.24
 -10  -6  -7    0.20    0.34
  10   6   7    0.24    0.49
  10   6   7    0.26    0.32
   5  -7  -7   14.62    0.75
   5  -7  -7   14.82    1.02
  -5   7   7   15.32    0.74
   4  -7  -7   31.22    1.14
   4  -7  -7   31.12    1.19
   4  -7  -7   29.68    1.47
  -4   7   7   29.89    1.25
   3  -7  -7   17.15    0.97
   3  -7  -7   17.84    0.77
  -3   7   7   18.25    0.87
  -3   7   7   17.89    1.03
  -3   7   7   18.01    0.77
  -3   7   7   18.15    0.75
   2  -7  -7  139.66    4.78
   2  -7  -7  145.26    4.50
   2  -7  -7  142.83    4.47
   2  -7  -7  146.70    4.54
  -2   7   7  141.81    4.51
  -2   7   7  147.07    4.49
  -2   7   7  140.49    4.61
   1  -7  -7   17.40    0.93
   1  -7  -7   17.38    0.80
   1  -7  -7   17.82    0.78
   1  -7  -7   17.91    0.81
  -1   7   7   19.14    0.80
  -1   7   7   18.81    0.80
  -1   7   7   17.70    0.86
  -1   7   7   18.77    0.84
   0  -7  -7  224.13    7.01
   0  -7  -7  222.79    6.84
   0  -7  -7  214.51    6.79
   0  -7  -7  219.83    6.83
   0   7   7  226.87    6.87
   0   7   7  227.71    6.82
   0   7   7  227.82    6.84
   0   7   7  224.28    6.93
  -1  -7  -7    0.65    0.16
  -1  -7  -7    0.60    0.15
  -1  -7  -7    0.43    0.18
   1   7   7    0.69    0.16
   1   7   7    0.53    0.16
  -2  -7  -7   97.53    3.18
  -2  -7  -7   95.19    3.20
  -2  -7  -7   94.49    3.17
   2   7   7   98.14    3.22
   2   7   7   96.84    3.22
   2   7   7   97.75    3.17
  -3  -7  -7    4.57    0.35
  -3  -7  -7    4.52    0.37
  -3  -7  -7    5.19    0.36
   3   7   7    4.65    0.35
   3   7   7    4.48    0.37
   3   7   7    4.83    0.38
  -4  -7  -7   36.87    1.44
  -4  -7  -7   36.96    1.49
   4   7   7   37.80    1.49
   4   7   7   37.94    1.51
   4   7   7   36.95    1.43
  -5  -7  -7    7.72    0.47
  -5  -7  -7    8.41    0.53
   5   7   7    8.44    0.48
   5   7   7    7.91    0.54
   5   7   7    7.93    0.53
  -6  -7  -7    0.14    0.21
  -6  -7  -7    0.47    0.21
   6   7   7    0.03    0.17
  -7  -7  -7    4.14    0.38
  -7  -7  -7    5.47    0.40
  -7  -7  -7    4.49    0.48
   7   7   7    4.35    0.35
   7   7   7    5.41    0.56
  -8  -7  -7    8.37    0.52
  -8  -7  -7    8.49    0.66
  -8  -7  -7    8.60    0.56
   8   7   7    9.38    0.70
   8   7   7    7.58    0.51
  -9  -7  -7    0.01    0.40
  -9  -7  -7    0.23    0.24
  -9  -7  -7    0.23    0.25
   9   7   7    0.29    0.46
   9   7   7    0.20    0.24
 -10  -7  -7    1.87    0.35
  10   7   7    1.62    0.31
   4  -8  -7    0.36    0.31
   4  -8  -7    0.65    0.24
   4  -8  -7    0.51    0.50
  -4   8   7    0.61    0.26
  -4   8   7    0.63    0.22
  -4   8   7    0.24    0.22
  -4   8   7    0.47    0.34
   3  -8  -7    2.33    0.40
   3  -8  -7    1.51    0.40
   3  -8  -7    1.76    0.41
   3  -8  -7    1.92    0.32
  -3   8   7    1.92    0.25
  -3   8   7    1.67    0.31
  -3   8   7    1.88    0.29
   2  -8  -7    0.61    0.20
   2  -8  -7    0.78    0.23
   2  -8  -7    0.38    0.33
   2  -8  -7    0.62    0.19
  -2   8   7    0.49    0.21
  -2   8   7    0.91    0.18
  -2   8   7    0.55    0.19
   1  -8  -7    0.80    0.20
   1  -8  -7    0.87    0.20
   1  -8  -7    0.87    0.30
  -1   8   7    0.70    0.20
  -1   8   7    0.64    0.19
  -1   8   7    0.75    0.26
  -1   8   7    0.82    0.18
   0  -8  -7   17.53    0.93
   0  -8  -7   17.31    0.82
   0  -8  -7   18.16    0.87
   0  -8  -7   19.04    0.86
   0   8   7   17.20    0.88
   0   8   7   19.48    0.85
   0   8   7   18.71    0.88
  -1  -8  -7   10.65    0.61
  -1  -8  -7   11.14    0.67
  -1  -8  -7   10.90    0.61
  -1  -8  -7   10.57    0.59
   1   8   7   11.27    0.63
   1   8   7    9.75    0.69
   1   8   7   10.99    0.60
  -2  -8  -7   43.55    1.69
  -2  -8  -7   44.63    1.71
  -2  -8  -7   46.14    1.71
   2   8   7   46.24    1.69
   2   8   7   45.07    1.72
   2   8   7   45.16    1.73
  -3  -8  -7    0.48    0.18
  -3  -8  -7    0.67    0.16
  -3  -8  -7    1.11    0.24
   3   8   7    1.13    0.25
   3   8   7    0.62    0.19
   3   8   7    0.66    0.21
  -4  -8  -7   59.08    2.12
  -4  -8  -7   58.74    2.14
  -4  -8  -7   57.09    2.15
   4   8   7   58.59    2.16
   4   8   7   59.55    2.10
   4   8   7   56.97    2.18
  -5  -8  -7   10.16    0.59
  -5  -8  -7   11.12    0.67
  -5  -8  -7   10.84    0.66
   5   8   7   10.53    0.66
   5   8   7   10.81    0.60
   5   8   7   11.44    0.68
  -6  -8  -7   82.09    2.96
  -6  -8  -7   82.19    3.13
  -6  -8  -7   83.93    2.84
   6   8   7   80.97    3.01
  -7  -8  -7    3.52    0.51
   7   8   7    5.40    0.38
   7   8   7    4.58    0.50
  -8  -8  -7   49.34    2.05
  -8  -8  -7   47.56    2.08
  -8  -8  -7   54.37    1.94
   8   8   7   51.43    1.90
   8   8   7   53.95    2.10
  -9  -8  -7    7.57    0.55
  -9  -8  -7    8.50    0.80
  -9  -8  -7    7.00    0.54
   9   8   7    6.93    0.79
   9   8   7    6.09    0.51
 -10  -8  -7    0.60    0.32
 -10  -8  -7    0.45    0.33
 -10  -8  -7   -0.05    0.54
  10   8   7    0.18    0.34
  10   8   7   -0.21    0.53
   4  -9  -7   12.74    1.02
   4  -9  -7   12.06    0.76
   4  -9  -7   12.47    0.75
   4  -9  -7   12.85    0.67
  -4   9   7   11.37    0.63
  -4   9   7   12.65    0.65
  -4   9   7   11.10    0.78
   3  -9  -7   59.20    2.26
   3  -9  -7   62.64    2.21
   3  -9  -7   60.98    2.15
   3  -9  -7   58.23    2.47
  -3   9   7   60.35    2.14
  -3   9   7   61.62    2.12
  -3   9   7   59.99    2.28
  -3   9   7   62.72    2.20
   2  -9  -7   47.73    1.91
   2  -9  -7   48.14    1.78
   2  -9  -7   49.48    1.81
   2  -9  -7   49.19    1.85
   2  -9  -7   46.59    2.05
  -2   9   7   48.79    1.78
  -2   9   7   49.30    1.87
  -2   9   7   49.51    1.84
  -2   9   7   48.21    1.79
   1  -9  -7   82.63    3.12
   1  -9  -7   83.25    2.90
   1  -9  -7   88.32    2.95
   1  -9  -7   84.31    2.88
   1  -9  -7   81.74    3.02
  -1   9   7   87.00    2.88
  -1   9   7   84.78    2.92
   0  -9  -7  144.83    4.67
   0  -9  -7  140.95    4.80
   0  -9  -7  142.19    4.62
   0  -9  -7  147.22    4.67
   0   9   7  134.11    4.93
   0   9   7  146.41    4.68
   0   9   7  149.51    4.64
  -1  -9  -7    8.14    0.52
  -1  -9  -7    7.00    0.50
  -1  -9  -7    7.94    0.58
  -1  -9  -7    8.11    0.53
   1   9   7    7.74    0.52
   1   9   7    7.97    0.51
  -2  -9  -7  144.97    4.80
  -2  -9  -7  150.21    4.84
  -2  -9  -7  150.12    4.86
   2   9   7  149.24    4.86
   2   9   7  154.26    4.82
  -3  -9  -7   27.66    1.38
  -3  -9  -7   31.22    1.30
  -3  -9  -7   31.18    1.31
   3   9   7   30.32    1.33
   3   9   7   30.83    1.26
  -4  -9  -7    8.87    0.60
  -4  -9  -7   10.18    0.58
  -4  -9  -7    8.60    0.58
  -4  -9  -7    8.09    0.64
   4   9   7    9.04    0.57
   4   9   7    9.06    0.62
   4   9   7    9.50    0.54
  -5  -9  -7    2.03    0.36
  -5  -9  -7    2.12    0.35
   5   9   7    1.92    0.44
   5   9   7    1.68    0.38
   5   9   7    2.15    0.30
  -6  -9  -7    0.38    0.27
  -6  -9  -7    0.36    0.18
  -6  -9  -7    0.05    0.27
  -6  -9  -7    0.23    0.25
   6   9   7    0.09    0.30
   6   9   7    0.20    0.25
   6   9   7    0.23    0.19
  -7  -9  -7    2.73    0.48
  -7  -9  -7    2.96    0.68
  -7  -9  -7    2.50    0.35
  -7  -9  -7    3.36    0.41
   7   9   7    3.50    0.52
   7   9   7    2.50    0.36
  -8  -9  -7    2.16    0.41
  -8  -9  -7    3.29    0.68
  -8  -9  -7    2.75    0.38
  -8  -9  -7    3.83    0.63
   8   9   7    2.74    0.38
   8   9   7    3.01    0.64
  -9  -9  -7    1.16    0.48
  -9  -9  -7    0.78    0.31
  -9  -9  -7    1.14    0.51
   9   9   7    0.73    0.29
   9   9   7    1.77    0.51
 -10  -9  -7    3.92    0.59
 -10  -9  -7    4.39    0.62
 -10  -9  -7    4.20    0.97
  10   9   7    4.50    0.62
  10   9   7    4.81    0.58
   3 -10  -7    1.15    0.34
   3 -10  -7    0.76    0.40
   3 -10  -7    0.01    0.59
   3 -10  -7    0.93    0.37
  -3  10   7    0.24    0.26
  -3  10   7    0.55    0.42
  -3  10   7    0.55    0.31
  -3  10   7    0.35    0.37
   2 -10  -7   10.29    0.68
   2 -10  -7    8.22    0.77
   2 -10  -7    9.77    0.63
   2 -10  -7   10.53    0.72
  -2  10   7   10.70    0.67
  -2  10   7    9.79    0.57
  -2  10   7    8.10    0.65
  -2  10   7   11.14    0.64
   1 -10  -7    2.32    0.43
   1 -10  -7    2.88    0.58
   1 -10  -7    2.60    0.38
   1 -10  -7    2.15    0.45
   1 -10  -7    2.40    0.46
  -1  10   7    2.21    0.39
  -1  10   7    3.04    0.32
  -1  10   7    2.36    0.44
  -1  10   7    2.30    0.44
   0 -10  -7   11.69    0.65
   0 -10  -7   11.48    0.68
   0 -10  -7   10.93    0.69
   0 -10  -7   10.81    0.76
   0  10   7   11.61    0.66
   0  10   7   12.18    0.69
  -1 -10  -7   11.82    0.68
  -1 -10  -7   11.55    0.80
  -1 -10  -7   10.77    0.66
  -1 -10  -7   12.41    0.69
  -1 -10  -7   10.95    0.76
   1  10   7   11.83    0.80
   1  10   7   11.79    0.67
  -2 -10  -7   11.73    0.68
  -2 -10  -7   10.96    0.73
  -2 -10  -7   11.37    0.66
  -2 -10  -7   12.92    0.71
   2  10   7   12.18    0.68
   2  10   7   10.85    0.71
  -3 -10  -7    3.87    0.41
  -3 -10  -7    2.93    0.38
  -3 -10  -7    3.56    0.41
   3  10   7    4.14    0.44
   3  10   7    3.20    0.38
  -4 -10  -7   25.30    1.12
  -4 -10  -7   25.31    1.16
  -4 -10  -7   24.24    1.17
   4  10   7   25.16    1.20
   4  10   7   25.28    1.11
   4  10   7   25.07    1.17
  -5 -10  -7   21.16    1.02
  -5 -10  -7   19.14    1.01
  -5 -10  -7   19.04    0.94
   5  10   7   21.26    1.15
   5  10   7   18.27    0.94
   5  10   7   20.79    1.03
  -6 -10  -7   25.51    1.17
  -6 -10  -7   23.14    1.08
   6  10   7   23.91    1.07
   6  10   7   25.17    1.25
  -7 -10  -7    4.37    0.43
  -7 -10  -7    4.33    0.60
  -7 -10  -7    5.25    0.59
   7  10   7    4.28    0.46
   7  10   7    5.55    0.99
  -8 -10  -7   17.99    0.92
  -8 -10  -7   16.42    0.82
  -8 -10  -7   16.45    0.99
  -8 -10  -7   14.53    0.97
   8  10   7   16.40    0.81
   8  10   7   16.36    1.02
   8  10   7   17.33    1.02
  -9 -10  -7   -0.06    0.56
  -9 -10  -7    0.10    0.36
  -9 -10  -7    0.39    0.53
   9  10   7    0.06    0.34
 -10 -10  -7    2.65    0.69
  10  10   7    1.79    0.68
   2 -11  -7    1.42    0.59
   2 -11  -7    1.94    0.43
   2 -11  -7    1.89    0.40
   2 -11  -7    2.51    0.58
  -2  11   7    1.48    0.41
  -2  11   7    1.50    0.26
  -2  11   7    1.88    0.42
  -2  11   7    1.63    0.35
   1 -11  -7   58.13    2.13
   1 -11  -7   56.29    2.25
   1 -11  -7   55.72    2.37
   1 -11  -7   57.10    2.14
   1 -11  -7   54.06    2.13
  -1  11   7   55.38    2.06
  -1  11   7   53.69    2.11
  -1  11   7   59.12    2.13
  -1  11   7   54.36    2.09
   0 -11  -7    0.48    0.38
   0 -11  -7    0.51    0.30
   0 -11  -7    0.33    0.31
   0 -11  -7    0.15    0.31
   0 -11  -7    0.49    0.45
   0  11   7    0.32    0.33
   0  11   7    0.57    0.31
   0  11   7    0.49    0.22
   0  11   7    0.53    0.31
  -1 -11  -7   66.08    2.64
  -1 -11  -7   67.93    2.47
  -1 -11  -7   67.86    2.65
  -1 -11  -7   65.06    2.47
  -1 -11  -7   71.22    2.53
   1  11   7   65.14    2.47
   1  11   7   68.00    2.45
   1  11   7   65.79    2.49
  -2 -11  -7    6.59    0.52
  -2 -11  -7    7.01    0.64
  -2 -11  -7    6.81    0.54
  -2 -11  -7    7.09    0.55
   2  11   7    5.50    0.65
   2  11   7    6.73    0.56
  -3 -11  -7   34.36    1.85
  -3 -11  -7   33.17    1.42
  -3 -11  -7   33.16    1.44
  -3 -11  -7   33.75    1.98
   3  11   7   35.08    1.42
  -4 -11  -7   33.27    1.41
  -4 -11  -7   31.36    1.35
  -4 -11  -7   30.19    1.38
   4  11   7   31.93    1.36
   4  11   7   31.77    1.40
  -5 -11  -7    1.07    0.34
  -5 -11  -7    0.59    0.25
  -5 -11  -7    0.63    0.30
   5  11   7    1.00    0.33
   5  11   7    0.62    0.40
   5  11   7    0.37    0.25
  -6 -11  -7    3.84    0.56
  -6 -11  -7    3.10    0.43
  -6 -11  -7    3.40    0.55
  -6 -11  -7    2.80    0.52
   6  11   7    3.88    0.57
   6  11   7    2.92    0.55
   6  11   7    3.84    0.44
  -7 -11  -7    3.79    0.61
  -7 -11  -7    4.10    0.54
  -7 -11  -7    3.01    0.46
  -7 -11  -7    3.03    0.63
   7  11   7    4.48    0.68
   7  11   7    3.17    0.48
   7  11   7    2.23    0.42
  -8 -11  -7    0.54    0.31
  -8 -11  -7    0.90    0.51
  -8 -11  -7    0.53    0.39
  -8 -11  -7    0.83    0.46
   8  11   7    0.36    0.50
   8  11   7    0.40    0.32
   8  11   7    0.69    0.78
  -9 -11  -7    1.69    0.43
  -9 -11  -7    0.95    0.37
  -9 -11  -7    2.10    0.60
  -9 -11  -7    1.40    0.62
   9  11   7    1.15    0.38
   9  11   7    1.78    0.73
   9  11   7    0.61    0.57
   1 -12  -7    0.73    0.66
   1 -12  -7    0.59    0.44
   1 -12  -7    0.62    0.40
   1 -12  -7    0.76    0.48
   1 -12  -7    0.63    0.49
  -1  12   7    0.23    0.45
  -1  12   7    0.42    0.26
  -1  12   7    0.28    0.41
  -1  12   7    0.80    0.44
   0 -12  -7    0.49    0.39
   0 -12  -7    1.22    0.38
   0 -12  -7    0.71    0.48
   0 -12  -7    0.39    0.40
   0  12   7    0.92    0.24
   0  12   7    0.72    0.38
   0  12   7    0.22    0.39
  -1 -12  -7    3.79    0.56
  -1 -12  -7    3.04    0.56
  -1 -12  -7    4.75    0.61
  -1 -12  -7    4.13    0.65
  -1 -12  -7    3.39    0.64
   1  12   7    4.54    0.56
   1  12   7    3.78    0.57
   1  12   7    4.16    0.57
  -2 -12  -7   -0.01    0.41
  -2 -12  -7    0.49    0.37
  -2 -12  -7    1.09    0.32
  -2 -12  -7    0.81    0.34
   2  12   7    0.74    0.38
   2  12   7    0.75    0.32
   2  12   7    0.20    0.39
  -3 -12  -7   19.34    1.01
  -3 -12  -7   19.68    0.98
  -3 -12  -7   16.97    0.93
  -3 -12  -7   15.04    1.05
   3  12   7   18.28    0.97
   3  12   7   18.61    0.95
   3  12   7   19.91    1.01
  -4 -12  -7    0.54    0.41
  -4 -12  -7    0.16    0.36
  -4 -12  -7    0.71    0.35
  -4 -12  -7    0.34    0.30
   4  12   7    0.03    0.35
   4  12   7   -0.02    0.34
   4  12   7    0.57    0.42
  -5 -12  -7   28.19    1.35
  -5 -12  -7   28.42    1.26
  -5 -12  -7   28.02    1.43
  -5 -12  -7   30.96    1.37
   5  12   7   29.51    1.35
   5  12   7   26.80    1.24
   5  12   7   31.72    1.42
  -6 -12  -7    0.20    0.46
  -6 -12  -7    0.22    0.30
  -6 -12  -7    0.97    0.45
  -6 -12  -7    0.03    0.42
   6  12   7    0.17    0.52
   6  12   7    0.14    0.44
   6  12   7    0.23    0.33
  -7 -12  -7   22.68    1.24
  -7 -12  -7   19.96    1.05
  -7 -12  -7   23.95    1.24
  -7 -12  -7   25.76    1.26
   7  12   7   24.39    1.26
   7  12   7   20.73    1.35
   7  12   7   21.33    1.06
  -8 -12  -7    4.72    0.70
  -8 -12  -7    4.81    0.91
  -8 -12  -7    3.74    0.58
  -8 -12  -7    4.00    0.61
   8  12   7    4.94    0.69
   8  12   7    3.59    0.65
   8  12   7    3.76    0.59
   0 -13  -7    3.98    0.59
   0 -13  -7    3.35    0.69
   0 -13  -7    3.66    0.85
   0 -13  -7    2.91    0.52
   0 -13  -7    4.46    0.68
   0  13   7    1.91    0.89
   0  13   7    4.63    0.71
  -1 -13  -7   37.51    1.82
  -1 -13  -7   44.13    1.73
  -1 -13  -7   39.82    1.72
  -1 -13  -7   35.57    1.65
  -1 -13  -7   40.01    1.84
   1  13   7   39.23    1.65
   1  13   7   40.79    1.70
   1  13   7   35.88    1.62
  -2 -13  -7   -0.04    0.54
  -2 -13  -7    0.79    0.42
  -2 -13  -7    0.19    0.46
  -2 -13  -7    0.24    0.41
   2  13   7   -0.41    0.41
   2  13   7    0.75    0.40
   2  13   7    0.19    0.46
  -3 -13  -7   34.16    1.48
  -3 -13  -7   29.74    1.55
  -3 -13  -7   33.29    1.44
  -3 -13  -7   28.70    1.36
   3  13   7   29.60    1.39
   3  13   7   31.81    1.56
   3  13   7   28.95    1.36
  -4 -13  -7    4.59    0.82
  -4 -13  -7    5.16    0.65
  -4 -13  -7    5.14    0.69
  -4 -13  -7    3.75    0.61
   4  13   7    4.80    0.69
   4  13   7    4.19    0.62
   4  13   7    5.06    0.68
  -5 -13  -7    0.71    0.46
  -5 -13  -7    0.99    0.38
  -5 -13  -7    1.82    0.51
  -5 -13  -7    1.93    0.51
   5  13   7    0.86    0.34
   5  13   7    0.92    0.42
   5  13   7    0.74    0.66
  -6 -13  -7    8.69    0.67
  -6 -13  -7    8.27    0.86
  -6 -13  -7    8.48    0.89
  -6 -13  -7    9.52    1.11
   6  13   7   10.32    0.90
   6  13   7    9.65    0.88
   6  13   7    7.51    0.69
  -7 -13  -7   -0.05    0.40
  -7 -13  -7    0.33    0.60
  -7 -13  -7    0.51    0.55
  -7 -13  -7    0.73    0.58
   7  13   7    0.75    0.61
   7  13   7    0.03    0.60
   7  13   7    0.32    0.44
  -3 -14  -7    5.35    0.88
  -3 -14  -7    4.63    0.84
  -3 -14  -7    4.31    0.73
  -3 -14  -7    5.01    0.80
   3  14   7    4.21    0.86
   3  14   7    4.26    0.80
   3  14   7    5.72    1.33
  -4 -14  -7    0.22    0.45
  -4 -14  -7   -0.24    0.68
  -4 -14  -7    1.64    0.53
   4  14   7    0.48    0.54
   4  14   7    0.59    0.58
   4  14   7    1.05    0.52
  -5 -14  -7   17.31    1.36
  -5 -14  -7   15.13    1.04
  -5 -14  -7   14.79    0.91
  -5 -14  -7   18.45    1.61
   5  14   7   13.14    0.93
   5  14   7   15.91    1.04
   5  14   7   15.71    1.08
  -6 -14  -7    1.89    0.66
  -6 -14  -7    1.26    0.42
  -6 -14  -7    2.29    0.58
   6  14   7    1.01    0.51
   6  14   7    0.95    0.54
   3  11  -8    3.63    0.61
   3  11  -8    2.30    0.52
   3  11  -8    2.56    0.51
  -3 -11   8    2.60    0.52
  -3 -11   8    2.37    0.55
   2  11  -8    1.90    0.45
   2  11  -8    2.44    0.46
   2  11  -8    1.17    0.48
   2  11  -8    1.29    0.46
  -2 -11   8    2.20    0.61
  -2 -11   8    1.37    0.52
  -2 -11   8    2.21    0.50
   1  11  -8    2.84    0.47
   1  11  -8    3.84    0.61
   1  11  -8    3.78    0.72
   1  11  -8    1.73    0.48
  -1 -11   8    2.61    0.58
  -1 -11   8    1.64    0.52
  -1 -11   8    2.74    0.56
   0  11  -8    0.16    0.51
   0  11  -8   -0.11    0.52
   0  11  -8    0.11    0.55
   0  11  -8    1.02    0.43
   0 -11   8    0.14    0.57
   0 -11   8   -0.02    0.58
   0 -11   8    0.34    0.57
  -1  11  -8    3.94    0.85
  -1  11  -8    3.23    0.76
  -1  11  -8    3.63    0.53
   1 -11   8    2.07    0.63
   5  10  -8    0.00    0.47
   5  10  -8    0.43    0.65
   5  10  -8    0.96    0.37
   5  10  -8    1.35    0.42
  -5 -10   8    0.47    0.30
  -5 -10   8   -0.02    0.42
  -5 -10   8    0.77    0.46
  -5 -10   8    1.40    0.52
   4  10  -8    3.71    0.64
   4  10  -8    3.16    0.69
   4  10  -8    4.78    0.61
   4  10  -8    3.38    0.51
  -4 -10   8    3.80    0.68
  -4 -10   8    4.17    0.66
   3  10  -8    0.17    0.35
   3  10  -8    0.62    0.40
   3  10  -8    0.68    0.45
   3  10  -8    0.58    0.39
   3  10  -8    0.12    0.41
  -3 -10   8    0.18    0.42
  -3 -10   8    0.35    0.47
  -3 -10   8    0.10    0.44
   2  10  -8    1.54    0.38
   2  10  -8    2.69    0.60
   2  10  -8    0.83    0.37
   2  10  -8    1.76    0.35
  -2 -10   8    1.60    0.41
  -2 -10   8    1.72    0.43
  -2 -10   8    0.84    0.46
   1  10  -8    0.58    0.37
   1  10  -8    0.61    0.39
   1  10  -8    0.84    0.34
  -1 -10   8    1.50    0.46
  -1 -10   8    0.76    0.43
  -1 -10   8    0.68    0.64
   0  10  -8    0.36    0.34
   0  10  -8    0.49    0.36
   0  10  -8    0.09    0.42
   0  10  -8    0.35    0.40
   0  10  -8   -0.22    0.39
   0 -10   8   -0.30    0.46
   0 -10   8   -0.33    0.41
   0 -10   8   -0.18    0.46
  -1  10  -8   -0.01    0.48
  -1  10  -8    0.29    0.37
  -1  10  -8    0.00    0.41
  -1  10  -8    0.12    0.41
  -1  10  -8   -0.11    0.40
   1 -10   8    0.54    0.57
   1 -10   8   -0.69    0.48
   1 -10   8   -0.39    0.43
  -2  10  -8    0.16    0.57
  -2  10  -8    0.51    0.53
  -2  10  -8    0.08    0.37
  -2  10  -8    0.16    0.43
  -2  10  -8    0.27    0.45
   2 -10   8    0.06    0.45
   2 -10   8    0.47    0.50
   2 -10   8   -0.41    0.57
   2 -10   8   -0.53    0.60
  -3  10  -8    0.19    0.44
  -3  10  -8    0.00    0.50
  -3  10  -8   -0.68    0.62
   3 -10   8   -0.45    0.73
   3 -10   8    0.28    0.66
   3 -10   8    1.06    0.70
   6   9  -8    0.39    0.35
   6   9  -8   -0.14    0.44
  -6  -9   8    0.01    0.39
  -6  -9   8    0.23    0.38
   5   9  -8    6.91    0.73
   5   9  -8    4.93    0.57
   5   9  -8    6.24    0.55
   5   9  -8    7.13    0.74
  -5  -9   8    5.94    0.67
  -5  -9   8    5.11    0.56
  -5  -9   8    6.27    0.47
  -5  -9   8    4.12    0.59
   4   9  -8    7.98    0.62
   4   9  -8    7.27    0.53
   4   9  -8    9.61    0.71
   4   9  -8    8.59    0.68
   4   9  -8    8.75    0.62
  -4  -9   8    9.07    0.47
  -4  -9   8    8.23    0.64
  -4  -9   8    8.49    0.64
  -4  -9   8    8.79    0.71
   3   9  -8    3.19    0.56
   3   9  -8    3.60    0.57
   3   9  -8    3.70    0.50
   3   9  -8    3.26    0.51
   3   9  -8    3.45    0.43
  -3  -9   8    2.96    0.53
  -3  -9   8    3.88    0.63
  -3  -9   8    2.48    0.53
   2   9  -8   26.34    1.18
   2   9  -8   29.08    1.24
   2   9  -8   27.64    1.23
   2   9  -8   30.70    1.18
   2   9  -8   24.82    1.32
  -2  -9   8   26.50    1.24
  -2  -9   8   27.58    1.24
  -2  -9   8   30.08    1.57
   1   9  -8    2.62    0.52
   1   9  -8    2.04    0.31
   1   9  -8    2.22    0.42
   1   9  -8    2.55    0.46
   1   9  -8    1.89    0.32
  -1  -9   8    1.86    0.37
  -1  -9   8    2.13    0.50
  -1  -9   8    1.82    0.38
   0   9  -8   22.65    0.91
   0   9  -8   20.60    1.01
   0   9  -8   21.92    1.07
   0   9  -8   19.14    1.02
   0   9  -8   18.32    1.03
   0  -9   8   18.72    1.21
   0  -9   8   20.32    1.10
   0  -9   8   20.72    1.09
  -1   9  -8    8.58    0.67
  -1   9  -8    8.13    0.66
  -1   9  -8    9.24    0.64
  -1   9  -8   10.15    0.57
  -1   9  -8    7.31    0.65
   1  -9   8    9.70    0.63
   1  -9   8    9.60    0.76
   1  -9   8    7.61    0.71
  -2   9  -8    2.66    0.43
  -2   9  -8    3.06    0.52
  -2   9  -8    3.63    0.51
  -2   9  -8    3.49    0.61
   2  -9   8    4.02    0.54
   2  -9   8    2.92    0.59
   2  -9   8    2.64    0.48
  -3   9  -8    8.40    0.69
  -3   9  -8    6.09    0.79
  -3   9  -8    7.08    0.64
  -3   9  -8    5.91    0.75
  -3   9  -8    6.92    0.62
   3  -9   8    7.34    0.68
   3  -9   8    7.77    0.91
   3  -9   8    7.18    0.70
   3  -9   8    7.39    0.80
  -4   9  -8    0.07    0.39
  -4   9  -8    0.47    0.59
  -4   9  -8    0.33    0.45
  -4   9  -8    0.42    0.59
  -4   9  -8    0.57    0.44
   4  -9   8    0.03    0.73
   4  -9   8    0.27    0.53
   4  -9   8   -0.38    0.63
   4  -9   8    0.55    0.45
   6   8  -8    1.99    0.29
   6   8  -8    1.36    0.30
   6   8  -8    1.94    0.44
   6   8  -8    2.40    0.56
  -6  -8   8    1.26    0.29
  -6  -8   8    2.98    0.58
  -6  -8   8    2.07    0.43
   5   8  -8    0.23    0.26
   5   8  -8    1.04    0.40
   5   8  -8    0.00    0.43
   5   8  -8    0.60    0.28
   5   8  -8    0.47    0.28
  -5  -8   8    0.60    0.24
  -5  -8   8    0.07    0.34
  -5  -8   8    0.45    0.30
  -5  -8   8    0.38    0.26
   4   8  -8    2.82    0.36
   4   8  -8    3.85    0.43
   4   8  -8    3.41    0.45
   4   8  -8    3.46    0.52
   4   8  -8    2.45    0.56
  -4  -8   8    4.58    0.54
  -4  -8   8    3.49    0.35
  -4  -8   8    3.57    0.44
  -4  -8   8    3.04    0.45
   3   8  -8    2.09    0.33
   3   8  -8    1.73    0.28
   3   8  -8    1.68    0.25
   3   8  -8    1.56    0.28
   3   8  -8    1.37    0.33
  -3  -8   8    1.72    0.28
  -3  -8   8    1.59    0.30
  -3  -8   8    2.29    0.49
  -3  -8   8    1.57    0.27
   2   8  -8    8.35    0.55
   2   8  -8    7.43    0.49
   2   8  -8    7.17    0.65
   2   8  -8    7.04    0.54
   2   8  -8    8.37    0.52
  -2  -8   8    8.18    0.56
  -2  -8   8    7.48    0.54
   1   8  -8    2.02    0.38
   1   8  -8    2.18    0.38
   1   8  -8    1.92    0.32
   1   8  -8    1.77    0.35
   1   8  -8    1.39    0.28
  -1  -8   8    1.87    0.32
  -1  -8   8    1.87    0.31
  -1  -8   8    2.21    0.41
   0   8  -8    0.27    0.23
   0   8  -8    0.60    0.28
   0   8  -8    0.24    0.27
   0   8  -8    0.38    0.27
   0   8  -8    0.29    0.24
   0  -8   8    0.17    0.32
   0  -8   8    0.32    0.30
  -1   8  -8    1.03    0.24
  -1   8  -8    0.99    0.33
  -1   8  -8    0.48    0.27
  -1   8  -8    1.05    0.26
  -1   8  -8    0.59    0.30
   1  -8   8    0.93    0.35
   1  -8   8    1.11    0.32
   1  -8   8    0.76    0.31
  -2   8  -8   10.98    0.74
  -2   8  -8   12.65    0.62
  -2   8  -8   10.76    0.73
  -2   8  -8   10.82    0.69
  -2   8  -8   12.54    0.69
   2  -8   8   10.53    0.70
   2  -8   8   11.37    0.80
   2  -8   8   12.20    0.72
  -3   8  -8   -0.14    0.32
  -3   8  -8    0.02    0.45
  -3   8  -8   -0.11    0.31
  -3   8  -8    0.33    0.40
   3  -8   8    0.00    0.34
   3  -8   8    0.13    0.46
   3  -8   8    0.58    0.38
  -4   8  -8    0.33    0.48
  -4   8  -8    0.17    0.51
  -4   8  -8   -0.01    0.31
  -4   8  -8    0.01    0.31
   4  -8   8    0.61    0.55
   4  -8   8    0.34    0.40
  -5   8  -8    0.26    0.62
  -5   8  -8    0.34    0.58
  -5   8  -8    0.42    0.37
   5  -8   8    0.04    0.51
   5  -8   8    0.58    0.64
   5  -8   8    0.17    0.65
   7   7  -8    7.11    0.68
  -7  -7   8    7.39    0.59
   6   7  -8    1.55    0.38
  -6  -7   8    1.35    0.25
   5   7  -8    7.49    0.46
   5   7  -8    6.66    0.41
   5   7  -8    7.34    0.63
   5   7  -8    7.51    0.63
   5   7  -8    7.44    0.47
  -5  -7   8    6.83    0.48
  -5  -7   8    6.80    0.43
  -5  -7   8    7.84    0.61
   4   7  -8   15.40    0.72
   4   7  -8   14.76    0.90
   4   7  -8   15.17    0.77
   4   7  -8   14.46    0.66
   4   7  -8   14.50    0.70
  -4  -7   8   13.60    0.68
  -4  -7   8   16.33    0.87
  -4  -7   8   14.82    0.67
   3   7  -8    0.70    0.23
   3   7  -8    0.80    0.30
   3   7  -8    1.16    0.22
   3   7  -8    0.82    0.20
   3   7  -8    0.78    0.26
  -3  -7   8    0.71    0.23
  -3  -7   8    0.94    0.27
  -3  -7   8    1.10    0.17
   2   7  -8   32.24    1.32
   2   7  -8   33.85    1.27
   2   7  -8   33.88    1.54
   2   7  -8   34.16    1.37
   2   7  -8   32.56    1.36
  -2  -7   8   35.16    1.37
   1   7  -8    0.81    0.26
   1   7  -8    0.85    0.21
   1   7  -8    0.65    0.21
   1   7  -8    0.62    0.21
  -1  -7   8    0.43    0.25
   0   7  -8   57.94    2.11
   0   7  -8   56.46    2.24
   0   7  -8   57.33    1.92
   0   7  -8   55.83    2.10
   0   7  -8   54.67    2.14
   0  -7   8   58.43    2.17
   0  -7   8   56.03    2.17
  -1   7  -8    1.09    0.27
  -1   7  -8    1.11    0.25
  -1   7  -8    1.40    0.20
  -1   7  -8    1.22    0.26
  -2   7  -8   17.87    0.98
  -2   7  -8   21.50    0.83
  -2   7  -8   19.56    0.97
  -2   7  -8   18.33    0.96
  -2   7  -8   19.53    0.97
   2  -7   8   19.95    0.96
   2  -7   8   21.09    0.93
   2  -7   8   19.85    0.97
   2  -7   8   18.75    1.08
  -3   7  -8    0.72    0.25
  -3   7  -8    0.39    0.24
  -3   7  -8    0.44    0.35
  -3   7  -8   -0.08    0.25
  -3   7  -8    0.09    0.33
   3  -7   8   -0.08    0.28
   3  -7   8    0.46    0.35
   3  -7   8    0.43    0.41
   3  -7   8    0.06    0.29
  -4   7  -8    7.75    0.55
  -4   7  -8    7.70    0.70
  -4   7  -8    6.57    0.66
  -4   7  -8    8.53    0.55
   4  -7   8    8.00    0.71
   4  -7   8    6.12    0.58
  -5   7  -8    5.22    0.76
  -5   7  -8    4.59    0.48
  -5   7  -8    3.82    0.70
   5  -7   8    5.38    0.79
   5  -7   8    5.80    0.74
  -6   7  -8    0.37    0.35
  -6   7  -8    1.12    0.57
  -6   7  -8    1.08    0.61
  -6   7  -8    1.11    0.39
   6  -7   8    1.70    0.47
   6  -7   8    0.56    0.61
   6  -7   8    1.07    0.69
   7   6  -8    0.80    0.39
  -7  -6   8    0.14    0.25
   6   6  -8    0.78    0.33
  -6  -6   8    0.99    0.23
   5   6  -8    6.19    0.57
   5   6  -8    5.94    0.34
  -5  -6   8    6.33    0.44
   4   6  -8    0.24    0.17
   4   6  -8    0.31    0.17
   4   6  -8   -0.06    0.28
   4   6  -8    0.51    0.28
  -4  -6   8    0.13    0.25
  -4  -6   8    0.19    0.18
  -4  -6   8    0.07    0.18
   3   6  -8   33.72    1.31
   3   6  -8   34.50    1.31
   3   6  -8   33.49    1.29
   3   6  -8   36.10    1.56
  -3  -6   8   33.91    1.30
  -3  -6   8   33.95    1.22
  -3  -6   8   36.16    1.34
   2   6  -8   22.85    0.96
   2   6  -8   22.18    1.12
   2   6  -8   22.09    0.95
  -2  -6   8   22.19    0.97
  -2  -6   8   22.63    1.14
  -2  -6   8   22.49    0.96
   1   6  -8    3.14    0.29
   1   6  -8    3.48    0.29
   1   6  -8    2.69    0.38
   1   6  -8    3.32    0.42
   1   6  -8    3.14    0.33
  -1  -6   8    3.11    0.34
  -1  -6   8    2.71    0.33
  -1  -6   8    2.40    0.32
   0   6  -8    5.74    0.41
   0   6  -8    4.99    0.42
   0   6  -8    5.90    0.33
   0   6  -8    5.39    0.48
   0  -6   8    5.77    0.45
   0  -6   8    4.82    0.41
   0  -6   8    6.11    0.43
   0  -6   8    5.51    0.45
  -1   6  -8    1.87    0.34
  -1   6  -8    2.79    0.31
  -1   6  -8    2.33    0.26
  -1   6  -8    2.69    0.33
   1  -6   8    2.68    0.31
   1  -6   8    2.36    0.36
   1  -6   8    2.56    0.38
  -2   6  -8   -0.08    0.27
  -2   6  -8    0.53    0.17
  -2   6  -8    0.27    0.19
   2  -6   8    0.23    0.24
   2  -6   8    0.40    0.26
   2  -6   8    0.23    0.24
   2  -6   8    0.26    0.22
   2  -6   8    0.35    0.19
  -3   6  -8    0.06    0.31
  -3   6  -8   -0.01    0.20
  -3   6  -8    0.33    0.25
  -3   6  -8    0.19    0.22
   3  -6   8    0.09    0.29
   3  -6   8    0.04    0.26
  -4   6  -8    0.40    0.36
  -4   6  -8    0.72    0.24
   4  -6   8    0.11    0.34
   4  -6   8    0.09    0.29
   4  -6   8    0.63    0.41
  -5   6  -8    1.24    0.26
  -5   6  -8    1.91    0.39
  -5   6  -8    2.17    0.41
   5  -6   8    1.73    0.42
   5  -6   8    1.52    0.37
   5  -6   8    1.46    0.42
  -6   6  -8    0.79    0.31
  -6   6  -8    1.57    0.50
  -6   6  -8    1.31    0.28
   6  -6   8    0.84    0.38
   6  -6   8    0.84    0.51
   6  -6   8    0.69    0.53
  -7   6  -8    0.38    0.57
  -7   6  -8    0.32    0.31
  -7   6  -8    0.53    0.43
   7  -6   8    0.65    0.68
   7  -6   8   -0.19    0.54
   7  -6   8   -0.53    0.73
   7   5  -8    0.23    0.36
  -7  -5   8   -0.04    0.24
   6   5  -8   11.74    0.74
  -6  -5   8   12.47    0.70
   5   5  -8   15.90    0.91
  -5  -5   8   17.86    0.85
   4   5  -8    5.15    0.30
   4   5  -8    5.21    0.32
   4   5  -8    4.99    0.49
   4   5  -8    5.48    0.33
  -4  -5   8    5.21    0.32
  -4  -5   8    4.87    0.38
   3   5  -8   76.62    2.42
   3   5  -8   70.77    2.37
   3   5  -8   71.58    2.74
   3   5  -8   71.38    2.38
  -3  -5   8   69.44    2.73
  -3  -5   8   74.73    2.39
  -3  -5   8   71.85    2.37
  -3  -5   8   70.19    2.36
   2   5  -8    6.27    0.41
   2   5  -8    6.49    0.75
   2   5  -8    5.77    0.39
  -2  -5   8    5.71    0.39
  -2  -5   8    7.22    0.52
  -2  -5   8    7.36    0.50
  -2  -5   8    5.98    0.39
  -2  -5   8    6.36    0.32
   1   5  -8   93.94    3.09
   1   5  -8   92.74    3.12
   1   5  -8   90.48    3.08
   1   5  -8   93.06    3.32
  -1  -5   8   93.40    3.30
  -1  -5   8   97.72    3.14
  -1  -5   8   93.65    3.10
   0   5  -8   46.16    1.69
   0   5  -8   45.36    1.74
   0   5  -8   45.48    1.84
   0   5  -8   45.60    1.70
   0  -5   8   45.15    1.79
   0  -5   8   43.88    1.70
   0  -5   8   44.41    1.95
   0  -5   8   45.25    1.73
  -1   5  -8   30.88    1.36
  -1   5  -8   32.61    1.29
  -1   5  -8   31.41    1.34
  -1   5  -8   32.14    1.09
   1  -5   8   30.04    1.28
   1  -5   8   31.07    1.33
   1  -5   8   30.75    1.32
  -2   5  -8   47.45    1.88
  -2   5  -8   52.20    1.64
  -2   5  -8   48.73    1.83
  -2   5  -8   40.65    2.30
   2  -5   8   46.18    1.75
   2  -5   8   47.40    1.84
   2  -5   8   53.79    1.75
   2  -5   8   49.36    1.93
  -3   5  -8    3.75    0.41
  -3   5  -8    3.76    0.37
  -3   5  -8    3.83    0.35
   3  -5   8    3.81    0.32
   3  -5   8    3.31    0.44
   3  -5   8    4.35    0.38
   3  -5   8    3.27    0.37
  -4   5  -8   13.11    0.67
  -4   5  -8   12.00    0.76
   4  -5   8   12.21    0.70
   4  -5   8   12.64    0.68
   4  -5   8   12.64    0.78
  -5   5  -8    1.23    0.23
  -5   5  -8    1.05    0.27
   5  -5   8    0.52    0.34
   5  -5   8    1.01    0.56
   5  -5   8    1.11    0.41
  -6   5  -8    3.65    0.39
  -6   5  -8    4.29    0.45
  -6   5  -8    3.34    0.44
  -6   5  -8    2.73    0.58
   6  -5   8    3.43    0.57
   6  -5   8    3.12    0.68
   6  -5   8    3.45    0.63
  -7   5  -8    0.28    0.36
  -7   5  -8    0.38    0.34
  -7   5  -8    0.15    0.46
  -7   5  -8    0.13    0.26
   7  -5   8    0.28    0.50
   7  -5   8    0.12    0.41
   7  -5   8    0.04    0.60
   7   4  -8   10.86    0.67
   7   4  -8    9.76    0.68
  -7  -4   8   10.60    0.72
   6   4  -8    2.01    0.30
  -6  -4   8    2.03    0.35
   5   4  -8   39.01    1.63
  -5  -4   8   40.10    1.60
   4   4  -8    0.08    0.14
  -4  -4   8    0.22    0.16
  -4  -4   8    0.00    0.16
   3   4  -8   48.77    1.72
   3   4  -8   53.87    1.76
   3   4  -8   51.66    2.05
   3   4  -8   51.43    1.74
  -3  -4   8   49.48    1.80
  -3  -4   8   51.87    2.12
  -3  -4   8   56.93    1.74
   2   4  -8    0.06    0.18
   2   4  -8   -0.01    0.12
   2   4  -8    0.18    0.12
  -2  -4   8    0.05    0.14
  -2  -4   8    0.26    0.13
  -2  -4   8   -0.03    0.16
   1   4  -8   52.58    1.90
   1   4  -8   53.98    1.87
   1   4  -8   50.44    1.88
   1   4  -8   52.40    2.08
  -1  -4   8   55.43    2.09
  -1  -4   8   53.98    1.89
  -1  -4   8   54.93    1.87
   0   4  -8   35.63    1.41
   0   4  -8   33.88    1.51
   0   4  -8   35.89    1.37
   0  -4   8   35.95    1.48
   0  -4   8   37.34    1.41
   0  -4   8   36.36    1.38
  -1   4  -8    4.39    0.33
  -1   4  -8    4.57    0.38
  -1   4  -8    3.95    0.33
   1  -4   8    4.22    0.36
   1  -4   8    4.36    0.36
  -2   4  -8    7.46    0.52
  -2   4  -8    7.59    0.51
  -2   4  -8    7.92    0.49
   2  -4   8    8.18    0.50
   2  -4   8    7.80    0.48
   2  -4   8    8.20    0.53
   2  -4   8    7.94    0.42
  -3   4  -8   10.35    0.58
  -3   4  -8    9.57    0.61
   3  -4   8    8.89    0.50
   3  -4   8   10.21    0.63
   3  -4   8   10.40    0.53
  -4   4  -8    0.16    0.21
  -4   4  -8    0.14    0.18
  -4   4  -8    0.01    0.45
   4  -4   8    0.11    0.22
   4  -4   8   -0.22    0.24
   4  -4   8   -0.02    0.20
   4  -4   8    0.03    0.23
  -5   4  -8    9.78    0.45
  -5   4  -8    9.58    0.66
  -5   4  -8   10.51    0.57
  -5   4  -8    9.85    0.53
   5  -4   8    8.01    0.63
   5  -4   8    8.00    0.43
   5  -4   8    9.80    0.60
   5  -4   8    9.38    0.61
  -6   4  -8    2.26    0.50
  -6   4  -8    3.57    0.35
  -6   4  -8    3.25    0.36
  -6   4  -8    2.67    0.39
   6  -4   8    3.10    0.56
  -7   4  -8    6.57    0.43
  -7   4  -8    5.10    0.63
  -7   4  -8    7.55    0.58
  -7   4  -8    7.36    0.47
   7  -4   8    5.51    0.69
   7  -4   8    6.26    0.63
   7  -4   8    6.70    0.75
  -8   4  -8    3.74    0.61
  -8   4  -8    4.89    0.74
   8  -4   8    5.37    0.75
   8  -4   8    4.57    0.93
   8  -4   8    4.87    0.82
   7   3  -8    1.09    0.31
  -7  -3   8    0.79    0.27
   6   3  -8    1.51    0.26
  -6  -3   8    1.12    0.24
   5   3  -8    0.34    0.21
   5   3  -8    0.39    0.22
  -5  -3   8    0.35    0.18
  -5  -3   8   -0.04    0.18
   4   3  -8   20.01    0.67
   4   3  -8   19.42    0.97
  -4  -3   8   19.21    1.05
  -4  -3   8   19.94    0.92
   3   3  -8   77.50    2.33
   3   3  -8   72.27    2.31
   3   3  -8   73.81    2.67
  -3  -3   8   72.84    2.73
  -3  -3   8   71.19    2.47
   2   3  -8    2.11    0.21
   2   3  -8    1.66    0.29
   2   3  -8    2.01    0.18
  -2  -3   8    2.17    0.26
  -2  -3   8    1.56    0.19
  -2  -3   8    2.05    0.22
   1   3  -8   97.39    3.43
   1   3  -8  101.54    3.22
  -1  -3   8  101.13    3.18
  -1  -3   8  102.00    3.21
  -1  -3   8   99.41    3.44
   0   3  -8    5.88    0.47
   0   3  -8    6.49    0.40
   0  -3   8    6.51    0.39
   0  -3   8    6.55    0.40
   0  -3   8    6.29    0.44
  -1   3  -8  110.60    3.83
  -1   3  -8  114.39    3.78
   1  -3   8  120.57    3.79
   1  -3   8  115.67    3.72
   1  -3   8  116.22    3.80
  -2   3  -8   15.40    0.74
  -2   3  -8   14.83    0.78
  -2   3  -8   14.41    0.76
   2  -3   8   14.49    0.76
   2  -3   8   15.65    0.74
   2  -3   8   15.07    0.73
  -3   3  -8   59.88    2.28
  -3   3  -8   61.99    2.18
  -3   3  -8   59.49    2.18
   3  -3   8   59.16    2.17
   3  -3   8   60.18    2.11
   3  -3   8   60.38    2.28
   3  -3   8   61.89    2.02
  -4   3  -8   16.12    0.77
  -4   3  -8   15.82    0.59
  -4   3  -8   15.21    0.74
  -4   3  -8   14.83    0.83
   4  -3   8   14.90    0.71
   4  -3   8   14.99    0.84
   4  -3   8   15.27    0.69
   4  -3   8   15.64    0.78
  -5   3  -8    9.37    0.55
  -5   3  -8    8.95    0.76
  -5   3  -8   10.17    0.45
  -5   3  -8   10.15    0.52
   5  -3   8    9.11    0.56
   5  -3   8    7.75    0.79
   5  -3   8    8.43    0.55
   5  -3   8    8.29    0.47
  -6   3  -8    4.41    0.60
  -6   3  -8    3.26    0.31
  -6   3  -8    3.70    0.45
  -6   3  -8    2.84    0.31
   6  -3   8    3.21    0.35
   6  -3   8    2.28    0.48
   6  -3   8    3.35    0.47
   6  -3   8    3.22    0.43
  -7   3  -8    0.32    0.25
  -7   3  -8    0.38    0.32
   7  -3   8    0.87    0.42
   7  -3   8    0.48    0.39
   7  -3   8    0.62    0.36
  -8   3  -8    0.07    0.45
  -8   3  -8    0.41    0.25
  -8   3  -8    0.51    0.35
   8  -3   8    0.60    0.43
   8  -3   8    0.42    0.55
   8  -3   8   -0.01    0.40
   7   2  -8    0.20    0.35
   7   2  -8    0.64    0.34
  -7  -2   8    0.65    0.24
   6   2  -8    8.05    0.56
   6   2  -8    9.24    0.58
  -6  -2   8    9.41    0.68
  -6  -2   8    9.65    0.66
   5   2  -8    1.27    0.23
   5   2  -8    1.68    0.30
  -5  -2   8    1.00    0.20
  -5  -2   8    1.07    0.20
   4   2  -8   31.41    1.15
   4   2  -8   30.86    1.32
  -4  -2   8   29.75    1.42
  -4  -2   8   30.23    1.30
   3   2  -8   24.39    1.11
   3   2  -8   23.78    0.81
  -3  -2   8   22.24    1.13
  -3  -2   8   23.80    1.02
   2   2  -8   44.61    1.51
   2   2  -8   46.30    1.55
   2   2  -8   47.39    1.57
   2   2  -8   48.21    1.85
  -2  -2   8   46.37    1.66
  -2  -2   8   47.06    1.88
  -2  -2   8   49.44    1.51
   1   2  -8   12.58    0.55
   1   2  -8   13.14    0.72
   1   2  -8   12.30    0.57
  -1  -2   8   13.67    0.56
  -1  -2   8   12.55    0.57
  -1  -2   8   12.65    0.72
   0   2  -8    6.37    0.47
   0   2  -8    6.68    0.39
   0   2  -8    6.17    0.36
   0  -2   8    6.31    0.37
   0  -2   8    6.02    0.43
   0  -2   8    6.25    0.35
  -1   2  -8   56.40    2.13
  -1   2  -8   58.83    2.01
  -1   2  -8   57.97    2.06
   1  -2   8   55.41    1.99
   1  -2   8   60.47    2.07
   1  -2   8   59.09    2.11
  -2   2  -8    0.79    0.15
  -2   2  -8    0.62    0.16
  -2   2  -8    0.78    0.18
   2  -2   8    0.80    0.18
  -3   2  -8    1.28    0.22
  -3   2  -8    1.19    0.20
  -3   2  -8    0.93    0.20
   3  -2   8    1.18    0.23
   3  -2   8    0.89    0.19
   3  -2   8    1.18    0.15
   3  -2   8    0.90    0.15
  -4   2  -8    0.93    0.17
  -4   2  -8    0.99    0.16
  -4   2  -8    0.96    0.22
   4  -2   8    0.87    0.18
   4  -2   8    1.23    0.25
   4  -2   8    1.28    0.29
   4  -2   8    1.25    0.24
  -5   2  -8    0.41    0.16
  -5   2  -8    0.39    0.22
  -5   2  -8    0.34    0.13
  -5   2  -8    0.48    0.17
   5  -2   8    0.57    0.20
   5  -2   8    0.51    0.24
   5  -2   8    0.23    0.21
   5  -2   8    0.71    0.21
  -6   2  -8    1.19    0.23
  -6   2  -8    1.36    0.26
   6  -2   8    1.34    0.24
   6  -2   8    1.07    0.22
   6  -2   8    1.00    0.28
   6  -2   8    0.91    0.26
  -7   2  -8    7.40    0.41
  -7   2  -8    7.51    0.45
  -7   2  -8    7.10    0.52
  -7   2  -8    6.14    0.56
   7  -2   8    7.93    0.53
   7  -2   8    6.53    0.45
   7  -2   8    6.84    0.58
   7  -2   8    7.35    0.58
  -8   2  -8    0.34    0.19
  -8   2  -8    0.91    0.32
  -8   2  -8    0.56    0.21
  -8   2  -8    0.27    0.38
   8  -2   8    0.56    0.42
   8  -2   8    0.48    0.45
   8  -2   8    0.64    0.53
  -9   2  -8    4.87    0.45
  -9   2  -8    5.17    0.74
  -9   2  -8    4.53    0.75
   9  -2   8    5.75    0.76
   7   1  -8    8.23    0.64
   7   1  -8    7.63    0.54
  -7  -1   8    7.69    0.65
   6   1  -8    0.46    0.23
   6   1  -8   -0.19    0.28
  -6  -1   8    0.15    0.22
  -6  -1   8    0.44    0.19
   5   1  -8   12.12    0.67
   5   1  -8   12.38    0.65
  -5  -1   8   11.66    0.75
  -5  -1   8   11.75    0.74
   4   1  -8   13.73    0.66
   4   1  -8   14.02    0.74
  -4  -1   8   14.09    0.77
  -4  -1   8   13.44    0.82
   3   1  -8    0.50    0.16
  -3  -1   8    0.07    0.13
  -3  -1   8    0.32    0.13
   2   1  -8   76.86    2.66
  -2  -1   8   72.37    2.67
  -2  -1   8   75.12    2.52
   1   1  -8   38.03    1.51
   1   1  -8   36.84    1.24
   1   1  -8   36.22    1.30
  -1  -1   8   37.63    1.28
  -1  -1   8   37.69    1.24
  -1  -1   8   37.41    1.52
   0   1  -8  164.60    5.01
   0   1  -8  159.28    5.25
   0   1  -8  168.03    5.08
   0  -1   8  169.18    5.06
   0  -1   8  167.49    5.27
   0  -1   8  166.16    5.00
  -1   1  -8  110.26    3.85
  -1   1  -8  116.13    3.77
  -1   1  -8  120.09    3.71
   1  -1   8  120.40    3.86
   1  -1   8  122.71    3.78
   1  -1   8  119.99    3.70
  -2   1  -8   32.78    1.33
  -2   1  -8   33.97    1.27
  -2   1  -8   33.15    1.35
   2  -1   8   34.94    1.34
   2  -1   8   32.70    1.31
   2  -1   8   32.74    1.26
  -3   1  -8  125.77    4.34
  -3   1  -8  141.83    4.30
  -3   1  -8  131.51    4.30
   3  -1   8  134.57    4.27
   3  -1   8  139.22    4.39
   3  -1   8  135.24    4.27
  -4   1  -8    1.92    0.28
  -4   1  -8    1.17    0.24
  -4   1  -8    1.82    0.22
   4  -1   8    1.30    0.24
   4  -1   8    1.59    0.27
   4  -1   8    1.70    0.23
   4  -1   8    1.44    0.19
  -5   1  -8   52.99    1.91
  -5   1  -8   56.23    2.11
  -5   1  -8   56.81    2.03
   5  -1   8   53.70    2.09
   5  -1   8   54.27    1.93
   5  -1   8   56.43    2.01
   5  -1   8   52.81    1.91
  -6   1  -8    1.16    0.22
  -6   1  -8    1.06    0.17
  -6   1  -8    0.79    0.22
  -6   1  -8    0.93    0.15
   6  -1   8    1.13    0.22
   6  -1   8    1.08    0.25
   6  -1   8    1.58    0.31
   6  -1   8    1.01    0.25
  -7   1  -8   10.43    0.54
  -7   1  -8   11.79    0.63
  -7   1  -8    9.86    0.76
  -7   1  -8   10.83    0.52
   7  -1   8   11.76    0.66
   7  -1   8   10.38    0.67
   7  -1   8   11.53    0.65
  -8   1  -8    0.67    0.32
  -8   1  -8    0.22    0.32
  -8   1  -8    0.59    0.18
  -8   1  -8    0.34    0.18
   8  -1   8    0.62    0.31
   8  -1   8    1.25    0.38
   8  -1   8    0.26    0.32
  -9   1  -8    0.25    0.22
  -9   1  -8    0.27    0.39
  -9   1  -8   -0.01    0.41
   9  -1   8    0.34    0.45
   9  -1   8    0.46    0.49
   9  -1   8   -0.12    0.40
   7   0  -8    1.47    0.41
   7   0  -8    1.45    0.28
  -7   0   8    1.20    0.27
   6   0  -8   31.97    1.26
  -6   0   8   30.05    1.49
  -6   0   8   30.39    1.44
   5   0  -8    0.87    0.25
   5   0  -8    1.05    0.20
  -5   0   8    0.68    0.21
  -5   0   8    0.70    0.17
   4   0  -8   86.68    2.92
   4   0  -8   87.68    2.83
  -4   0   8   82.98    3.03
  -4   0   8   84.47    3.05
   3   0  -8   19.19    0.88
  -3   0   8   17.64    0.95
  -3   0   8   18.32    0.90
   2   0  -8  148.22    4.72
  -2   0   8  149.49    4.67
  -2   0   8  143.36    4.77
   1   0  -8   16.43    0.64
   1   0  -8   16.50    0.81
   1   0  -8   15.49    0.59
  -1   0   8   15.02    0.81
  -1   0   8   17.32    0.61
   0   0  -8   25.44    1.13
   0   0  -8   25.75    0.95
   0   0  -8   27.45    1.02
   0   0   8   28.07    1.00
   0   0   8   25.63    1.14
   0   0   8   26.24    0.95
  -1   0  -8    4.28    0.29
  -1   0  -8    4.05    0.31
  -1   0  -8    4.75    0.37
   1   0   8    4.25    0.32
   1   0   8    4.43    0.35
   1   0   8    4.91    0.30
  -2   0  -8    0.64    0.14
  -2   0  -8    0.51    0.12
  -2   0  -8    0.83    0.16
   2   0   8    0.56    0.13
   2   0   8    0.70    0.15
   2   0   8    0.55    0.13
  -3   0  -8    1.78    0.23
  -3   0  -8    2.45    0.26
  -3   0  -8    2.16    0.23
   3   0   8    2.19    0.26
   3   0   8    2.02    0.23
   3   0   8    2.10    0.23
  -4   0  -8    0.44    0.12
  -4   0  -8    0.71    0.16
   4   0   8    0.25    0.15
   4   0   8    0.58    0.14
   4   0   8    0.50    0.17
   4   0   8    0.91    0.21
  -5   0  -8    0.99    0.18
  -5   0  -8    1.43    0.26
  -5   0  -8    0.93    0.21
   5   0   8    1.21    0.26
   5   0   8    1.15    0.20
   5   0   8    1.48    0.28
  -6   0  -8   30.43    1.28
  -6   0  -8   27.17    1.08
  -6   0  -8   28.39    1.32
   6   0   8   28.82    1.16
   6   0   8   28.83    1.22
   6   0   8   28.01    1.24
  -7   0  -8   17.43    0.87
  -7   0  -8   15.11    0.67
  -7   0  -8   15.66    0.73
  -7   0  -8   16.66    0.85
   7   0   8   15.01    0.80
   7   0   8   17.73    0.92
   7   0   8   16.33    0.83
  -8   0  -8    3.95    0.29
  -8   0  -8    3.44    0.46
  -8   0  -8    3.45    0.33
  -8   0  -8    3.44    0.47
   8   0   8    3.53    0.47
   8   0   8    2.92    0.47
   8   0   8    4.65    0.49
  -9   0  -8   17.77    0.95
  -9   0  -8   17.42    0.91
  -9   0  -8   19.34    0.89
   9   0   8   21.77    1.43
   9   0   8   17.56    0.94
   9   0   8   15.91    0.93
   7  -1  -8    0.54    0.43
  -7   1   8    0.05    0.31
   6  -1  -8   -0.06    0.34
   6  -1  -8    0.18    0.23
  -6   1   8    0.01    0.22
  -6   1   8    0.44    0.20
   5  -1  -8   10.61    0.66
   5  -1  -8   11.23    0.60
  -5   1   8   10.23    0.73
  -5   1   8   10.54    0.68
   4  -1  -8    9.29    0.54
   4  -1  -8    7.63    0.53
  -4   1   8    9.10    0.58
  -4   1   8    9.07    0.62
   3  -1  -8    5.96    0.39
   3  -1  -8    5.64    0.42
  -3   1   8    5.27    0.44
  -3   1   8    6.64    0.46
   2  -1  -8  142.55    4.50
   2  -1  -8  140.35    4.28
  -2   1   8  137.77    4.57
   1  -1  -8    5.48    0.29
   1  -1  -8    5.39    0.27
  -1   1   8    5.05    0.40
  -1   1   8    5.90    0.28
   0  -1  -8  185.55    5.70
   0  -1  -8  187.49    5.64
   0   1   8  191.66    5.64
   0   1   8  185.50    5.90
   0   1   8  197.57    5.69
  -1  -1  -8   44.83    1.65
  -1  -1  -8   47.96    1.60
   1   1   8   48.65    1.60
   1   1   8   46.98    1.75
  -2  -1  -8  202.83    6.01
  -2  -1  -8  189.27    6.06
   2   1   8  196.81    5.99
   2   1   8  204.39    6.14
  -3  -1  -8   83.31    2.71
  -3  -1  -8   80.29    2.75
   3   1   8   80.47    2.68
   3   1   8   81.45    2.75
  -4  -1  -8   60.51    2.12
  -4  -1  -8   58.78    2.15
   4   1   8   59.89    2.11
  -5  -1  -8  119.77    3.96
  -5  -1  -8  120.94    3.93
   5   1   8  119.87    3.91
  -6  -1  -8    7.58    0.53
  -6  -1  -8    8.78    0.54
  -6  -1  -8    7.95    0.43
   6   1   8    7.83    0.50
   6   1   8    9.17    0.51
   6   1   8    8.24    0.51
  -7  -1  -8   36.80    1.48
  -7  -1  -8   36.70    1.48
  -7  -1  -8   32.55    1.27
   7   1   8   37.34    1.45
   7   1   8   36.90    1.55
   7   1   8   36.19    1.48
  -8  -1  -8    0.18    0.29
  -8  -1  -8    0.09    0.30
  -8  -1  -8    0.08    0.16
  -8  -1  -8    0.03    0.16
   8   1   8    0.40    0.27
   8   1   8    0.06    0.30
   8   1   8    0.52    0.27
  -9  -1  -8    1.62    0.31
  -9  -1  -8    1.91    0.36
  -9  -1  -8    1.81    0.31
   9   1   8    1.43    0.39
   9   1   8    1.81    0.35
   9   1   8    2.02    0.36
 -10  -1  -8    1.83    0.46
  10   1   8    1.67    0.41
  10   1   8    2.31    0.48
   7  -2  -8    0.14    0.51
   7  -2  -8    0.32    0.29
  -7   2   8    0.64    0.26
  -7   2   8   -0.07    0.23
   6  -2  -8    3.75    0.38
   6  -2  -8    3.95    0.93
  -6   2   8    2.81    0.43
  -6   2   8    3.12    0.38
   5  -2  -8   15.95    0.84
   5  -2  -8   15.77    0.75
  -5   2   8   15.10    0.85
  -5   2   8   15.08    0.94
   4  -2  -8    8.57    0.51
   4  -2  -8    8.45    0.57
  -4   2   8    8.67    0.64
  -4   2   8    9.52    0.61
   3  -2  -8   41.88    1.57
   3  -2  -8   43.42    1.61
  -3   2   8   41.88    1.73
  -3   2   8   40.73    1.68
   2  -2  -8  101.20    3.16
   2  -2  -8   97.96    2.95
  -2   2   8   96.38    3.35
   1  -2  -8   28.11    1.02
   1  -2  -8   28.83    1.02
  -1   2   8   31.74    1.02
  -1   2   8   28.76    1.26
   0  -2  -8   64.78    2.20
   0  -2  -8   68.54    2.16
   0   2   8   66.36    2.39
   0   2   8   69.15    2.19
   0   2   8   71.60    2.18
  -1  -2  -8    1.14    0.17
  -1  -2  -8    1.53    0.18
   1   2   8    1.51    0.17
   1   2   8    1.33    0.17
   1   2   8    1.67    0.22
  -2  -2  -8   93.06    2.91
  -2  -2  -8   85.57    2.93
   2   2   8   91.84    2.95
   2   2   8   90.19    3.02
   2   2   8   91.16    2.90
  -3  -2  -8    4.00    0.32
  -3  -2  -8    4.19    0.32
   3   2   8    4.80    0.33
   3   2   8    4.58    0.32
  -4  -2  -8    0.59    0.12
  -4  -2  -8    0.90    0.15
   4   2   8    0.65    0.13
   4   2   8    0.60    0.14
  -5  -2  -8    0.21    0.15
  -5  -2  -8    0.75    0.15
   5   2   8    0.43    0.14
   5   2   8    0.49    0.13
  -6  -2  -8    1.28    0.25
   6   2   8    1.42    0.30
  -7  -2  -8    0.71    0.21
  -7  -2  -8    1.01    0.19
   7   2   8    1.60    0.37
  -8  -2  -8    7.09    0.52
  -8  -2  -8    6.52    0.75
  -8  -2  -8    5.86    0.34
   8   2   8    7.22    0.55
   8   2   8    6.28    0.45
  -9  -2  -8    0.52    0.30
  -9  -2  -8   -0.17    0.18
  -9  -2  -8    0.01    0.30
   9   2   8   -0.43    0.28
   9   2   8   -0.42    0.34
 -10  -2  -8    5.20    0.69
 -10  -2  -8    4.76    0.64
 -10  -2  -8    6.21    0.47
  10   2   8    4.91    0.66
  10   2   8    4.43    0.67
   6  -3  -8    2.78    0.60
  -6   3   8    2.32    0.39
  -6   3   8    2.19    0.33
   5  -3  -8    0.82    0.20
   5  -3  -8    0.76    0.37
  -5   3   8    0.88    0.21
  -5   3   8    1.22    0.23
   4  -3  -8    1.67    0.30
   4  -3  -8    1.37    0.25
  -4   3   8    0.74    0.19
  -4   3   8    1.09    0.19
   3  -3  -8   68.41    2.41
  -3   3   8   68.00    2.49
   2  -3  -8   60.41    1.89
   2  -3  -8   61.00    2.11
  -2   3   8   60.78    2.24
   1  -3  -8   60.48    1.94
   1  -3  -8   58.57    1.94
   1  -3  -8   61.56    2.05
   1  -3  -8   60.93    1.95
  -1   3   8   64.86    1.96
  -1   3   8   60.67    1.96
  -1   3   8   59.20    2.20
   0  -3  -8  140.85    4.19
   0  -3  -8  134.43    4.21
   0   3   8  144.46    4.21
   0   3   8  133.94    4.44
   0   3   8  136.41    4.19
   0   3   8  137.12    4.12
  -1  -3  -8   29.06    1.10
  -1  -3  -8   28.67    1.08
   1   3   8   29.21    1.23
   1   3   8   29.50    1.08
   1   3   8   29.90    1.09
  -2  -3  -8  203.77    6.17
  -2  -3  -8  202.59    6.18
   2   3   8  204.65    6.16
   2   3   8  204.17    6.18
  -3  -3  -8   18.49    0.82
  -3  -3  -8   18.32    0.82
   3   3   8   18.32    0.82
   3   3   8   19.93    0.76
   3   3   8   19.34    0.83
  -4  -3  -8  275.40    8.53
  -4  -3  -8  289.85    8.59
   4   3   8  282.96    8.53
   4   3   8  284.30    8.56
  -5  -3  -8    0.59    0.13
  -5  -3  -8    0.45    0.16
   5   3   8    0.48    0.15
  -6  -3  -8   33.29    1.42
  -6  -3  -8   35.88    1.41
   6   3   8   36.15    1.43
   6   3   8   33.75    1.38
  -7  -3  -8    6.83    0.46
  -7  -3  -8    6.31    0.52
   7   3   8    7.92    0.54
   7   3   8    6.53    0.44
  -8  -3  -8    7.57    0.57
  -8  -3  -8    7.14    0.60
   8   3   8    9.41    0.63
  -9  -3  -8    0.70    0.31
  -9  -3  -8    1.16    0.23
  -9  -3  -8    0.89    0.33
  -9  -3  -8    1.08    0.18
  -9  -3  -8    0.89    0.17
   9   3   8    1.45    0.38
 -10  -3  -8    0.20    0.37
 -10  -3  -8    0.83    0.23
 -10  -3  -8    0.47    0.43
  10   3   8    0.49    0.39
  10   3   8    0.63    0.55
  10   3   8    1.11    0.46
   6  -4  -8    1.03    0.51
   6  -4  -8    2.08    0.28
  -6   4   8    1.34    0.28
  -6   4   8    2.31    0.35
   5  -4  -8   52.47    2.15
   5  -4  -8   55.33    1.92
  -5   4   8   53.56    2.36
  -5   4   8   52.70    2.06
   4  -4  -8    6.54    0.56
  -4   4   8    6.83    0.49
   3  -4  -8   76.68    2.70
  -3   4   8   74.93    2.72
   2  -4  -8   60.89    2.14
   2  -4  -8   59.92    1.91
   2  -4  -8   59.73    1.91
  -2   4   8   58.88    2.21
  -2   4   8   59.81    2.02
   1  -4  -8   96.02    3.02
   1  -4  -8   95.76    3.02
   1  -4  -8  100.79    3.17
   1  -4  -8   95.91    3.01
  -1   4   8   95.98    2.99
  -1   4   8   95.34    3.03
  -1   4   8   93.30    3.27
  -1   4   8  101.59    3.03
   0  -4  -8  130.48    4.07
   0  -4  -8  137.31    4.15
   0  -4  -8  129.68    4.05
   0  -4  -8  129.02    4.07
   0   4   8  137.31    4.09
   0   4   8  134.95    4.04
   0   4   8  127.35    4.28
  -1  -4  -8   41.42    1.46
  -1  -4  -8   40.55    1.47
   1   4   8   40.30    1.46
   1   4   8   40.43    1.63
   1   4   8   42.48    1.47
   1   4   8   43.14    1.43
  -2  -4  -8  105.83    3.40
  -2  -4  -8  107.03    3.42
   2   4   8  109.42    3.34
   2   4   8  104.53    3.40
   2   4   8  107.45    3.39
  -3  -4  -8   -0.03    0.11
  -3  -4  -8    0.21    0.10
   3   4   8    0.15    0.10
   3   4   8    0.03    0.13
  -4  -4  -8   32.16    1.25
  -4  -4  -8   30.89    1.27
   4   4   8   32.14    1.27
   4   4   8   31.18    1.23
  -5  -4  -8   10.34    0.56
  -5  -4  -8   10.26    0.59
   5   4   8   10.62    0.59
   5   4   8    9.96    0.54
  -6  -4  -8    8.88    0.55
  -6  -4  -8    8.57    0.51
   6   4   8    8.52    0.49
   6   4   8   10.15    0.59
  -7  -4  -8   25.96    1.11
  -7  -4  -8   24.00    1.13
   7   4   8   26.69    1.15
   7   4   8   24.49    1.08
  -8  -4  -8    3.44    0.60
  -8  -4  -8    3.36    0.50
   8   4   8    4.67    0.54
   8   4   8    4.14    0.36
  -9  -4  -8    1.10    0.20
  -9  -4  -8    1.97    0.43
   9   4   8    0.63    0.24
   9   4   8    1.27    0.39
 -10  -4  -8    7.25    0.44
 -10  -4  -8    8.39    0.77
 -10  -4  -8    8.15    0.56
 -10  -4  -8    8.24    0.64
  10   4   8    7.19    1.10
   6  -5  -8    0.01    0.58
   6  -5  -8    0.19    0.28
  -6   5   8    0.00    0.24
   5  -5  -8   -0.17    0.45
  -5   5   8    0.19    0.21
   4  -5  -8   -0.19    0.34
   3  -5  -8   29.55    1.32
  -3   5   8   29.73    1.29
   2  -5  -8    0.70    0.13
   2  -5  -8    0.76    0.17
   2  -5  -8    0.75    0.22
   2  -5  -8    0.64    0.13
  -2   5   8    0.50    0.15
  -2   5   8    0.89    0.18
  -2   5   8    0.61    0.15
  -2   5   8    0.52    0.17
   1  -5  -8  113.27    3.54
   1  -5  -8  112.19    3.55
   1  -5  -8  113.86    3.72
   1  -5  -8  114.77    3.56
  -1   5   8  113.16    3.52
  -1   5   8  111.69    3.78
  -1   5   8  113.35    3.58
  -1   5   8  117.96    3.56
   0  -5  -8   42.96    1.56
   0  -5  -8   46.15    1.61
   0  -5  -8   46.06    1.68
   0  -5  -8   43.02    1.58
   0   5   8   47.88    1.61
   0   5   8   46.50    1.58
   0   5   8   43.75    1.75
   0   5   8   47.67    1.60
  -1  -5  -8  152.24    4.79
  -1  -5  -8  151.40    4.78
   1   5   8  158.11    4.81
   1   5   8  160.98    4.78
   1   5   8  152.12    4.77
  -2  -5  -8  120.25    3.83
  -2  -5  -8  119.92    3.84
   2   5   8  120.53    3.84
   2   5   8  123.12    3.82
   2   5   8  121.29    3.80
  -3  -5  -8  108.65    3.59
  -3  -5  -8  112.67    3.63
   3   5   8  115.55    3.60
   3   5   8  110.50    3.62
   3   5   8  114.66    3.64
  -4  -5  -8  189.07    5.91
  -4  -5  -8  189.05    5.85
   4   5   8  192.19    5.86
   4   5   8  185.25    5.82
   4   5   8  189.77    5.89
  -5  -5  -8   11.13    0.63
  -5  -5  -8   11.54    0.61
   5   5   8   10.81    0.57
   5   5   8   10.46    0.62
  -6  -5  -8   59.39    2.09
  -6  -5  -8   56.08    2.16
   6   5   8   56.63    2.06
   6   5   8   59.31    2.16
  -7  -5  -8    0.74    0.18
  -7  -5  -8    0.29    0.23
   7   5   8    0.72    0.35
   7   5   8    0.52    0.17
  -8  -5  -8    5.95    0.58
   8   5   8    6.32    0.44
   8   5   8    7.10    0.60
  -9  -5  -8    1.55    0.28
  -9  -5  -8    1.19    0.22
  -9  -5  -8    0.83    0.41
   9   5   8    0.98    0.26
   9   5   8    0.52    0.38
 -10  -5  -8    0.50    0.50
 -10  -5  -8    0.06    0.25
 -10  -5  -8    0.05    0.38
  10   5   8    0.20    0.29
  10   5   8    0.78    0.56
   5  -6  -8   12.85    0.91
  -5   6   8   13.10    0.71
   4  -6  -8    6.31    0.63
  -4   6   8    6.04    0.46
   3  -6  -8   41.33    1.42
  -3   6   8   38.98    1.53
  -3   6   8   40.25    1.63
   2  -6  -8    8.24    0.46
   2  -6  -8    9.04    0.48
   2  -6  -8    9.17    0.45
   2  -6  -8    9.43    0.62
  -2   6   8    9.38    0.57
  -2   6   8    9.18    0.46
  -2   6   8    8.36    0.51
  -2   6   8    9.69    0.46
   1  -6  -8   63.58    2.16
   1  -6  -8   63.26    2.35
   1  -6  -8   64.77    2.19
   1  -6  -8   67.96    2.21
  -1   6   8   61.46    2.33
  -1   6   8   66.29    2.16
  -1   6   8   66.51    2.18
  -1   6   8   65.12    2.21
   0  -6  -8    6.65    0.42
   0  -6  -8    7.22    0.43
   0  -6  -8    7.06    0.40
   0  -6  -8    7.22    0.49
   0   6   8    7.42    0.49
   0   6   8    7.35    0.43
   0   6   8    7.10    0.41
   0   6   8    7.10    0.43
  -1  -6  -8  116.67    3.76
  -1  -6  -8  107.80    3.64
  -1  -6  -8  112.42    3.68
  -1  -6  -8  115.93    3.69
   1   6   8  114.50    3.66
   1   6   8  118.44    3.71
   1   6   8  119.96    3.70
  -2  -6  -8    3.33    0.29
  -2  -6  -8    3.54    0.31
  -2  -6  -8    3.12    0.28
   2   6   8    3.15    0.31
   2   6   8    3.14    0.30
   2   6   8    3.25    0.29
  -3  -6  -8   42.38    1.60
  -3  -6  -8   42.76    1.61
   3   6   8   43.80    1.61
   3   6   8   42.26    1.62
   3   6   8   44.73    1.60
  -4  -6  -8   29.67    1.27
  -4  -6  -8   31.02    1.25
   4   6   8   30.91    1.23
   4   6   8   31.64    1.27
   4   6   8   32.08    1.29
  -5  -6  -8    1.21    0.22
  -5  -6  -8    1.29    0.21
   5   6   8    1.86    0.31
   5   6   8    1.22    0.18
  -6  -6  -8    4.21    0.34
  -6  -6  -8    3.52    0.41
   6   6   8    4.79    0.44
   6   6   8    4.20    0.34
  -7  -6  -8   19.81    1.01
  -7  -6  -8   21.28    0.96
   7   6   8   19.78    0.90
   7   6   8   21.23    1.08
  -8  -6  -8    1.25    0.32
  -8  -6  -8    1.78    0.33
  -8  -6  -8    1.68    0.32
   8   6   8    2.60    0.56
   8   6   8    1.73    0.32
  -9  -6  -8    7.78    0.51
  -9  -6  -8    7.73    0.72
  -9  -6  -8    8.62    0.54
   9   6   8    8.21    0.53
   9   6   8    9.69    0.78
 -10  -6  -8    2.76    0.52
 -10  -6  -8    2.15    0.42
 -10  -6  -8    1.99    0.36
  10   6   8    2.58    0.48
  10   6   8    3.07    0.57
   5  -7  -8    3.97    0.86
   5  -7  -8    3.82    0.51
  -5   7   8    3.19    0.40
   4  -7  -8    0.41    0.47
  -4   7   8    0.16    0.21
   3  -7  -8    0.41    0.21
   3  -7  -8    0.28    0.18
   3  -7  -8    0.72    0.37
  -3   7   8    0.13    0.17
  -3   7   8    0.20    0.20
   2  -7  -8    1.38    0.24
   2  -7  -8    0.72    0.30
   2  -7  -8    1.32    0.27
   2  -7  -8    1.71    0.36
  -2   7   8    1.18    0.22
  -2   7   8    1.00    0.19
  -2   7   8    1.17    0.17
  -2   7   8    1.20    0.20
   1  -7  -8   29.29    1.15
   1  -7  -8   27.51    1.28
   1  -7  -8   28.36    1.13
   1  -7  -8   28.00    1.11
  -1   7   8   29.70    1.18
  -1   7   8   28.52    1.26
  -1   7   8   30.08    1.13
  -1   7   8   27.19    1.23
   0  -7  -8   12.78    0.63
   0  -7  -8   11.67    0.60
   0  -7  -8   10.02    0.71
   0  -7  -8   11.91    0.69
   0   7   8   11.62    0.68
   0   7   8   11.47    0.60
   0   7   8   12.68    0.64
   0   7   8   12.11    0.60
  -1  -7  -8   94.18    3.06
  -1  -7  -8   87.72    3.02
  -1  -7  -8   88.91    3.04
  -1  -7  -8   90.14    3.14
   1   7   8   91.77    3.02
   1   7   8   94.97    3.07
   1   7   8   93.80    3.07
  -2  -7  -8    0.57    0.15
  -2  -7  -8    0.38    0.14
  -2  -7  -8    0.47    0.13
   2   7   8    0.64    0.18
   2   7   8    0.39    0.14
   2   7   8    0.61    0.16
  -3  -7  -8  102.12    3.39
  -3  -7  -8  100.23    3.40
  -3  -7  -8  102.50    3.38
   3   7   8  103.30    3.36
   3   7   8  104.80    3.41
   3   7   8  102.00    3.41
  -4  -7  -8    0.94    0.19
  -4  -7  -8    0.28    0.17
   4   7   8    0.64    0.14
   4   7   8    0.63    0.21
  -5  -7  -8  151.11    4.81
  -5  -7  -8  151.19    4.91
   5   7   8  155.04    4.92
   5   7   8  150.32    4.78
   5   7   8  147.48    5.14
  -6  -7  -8   10.37    0.61
   6   7   8   10.81    0.59
   6   7   8   11.76    0.70
  -7  -7  -8   16.66    0.84
  -7  -7  -8   16.17    0.90
   7   7   8   17.94    0.94
   7   7   8   15.35    0.77
  -8  -7  -8    7.83    0.64
  -8  -7  -8    6.04    0.54
  -8  -7  -8    7.07    0.47
   8   7   8    6.28    0.45
   8   7   8    7.25    0.66
  -9  -7  -8    1.28    0.42
  -9  -7  -8    1.94    0.43
  -9  -7  -8    1.42    0.26
   9   7   8    1.36    0.27
   9   7   8    2.56    0.86
 -10  -7  -8   -0.08    0.33
 -10  -7  -8    0.31    0.57
 -10  -7  -8    0.50    0.31
  10   7   8    0.42    0.63
  10   7   8    0.43    0.36
   4  -8  -8   15.48    0.76
   4  -8  -8   16.53    0.73
   4  -8  -8   16.79    0.84
   4  -8  -8   14.78    1.02
  -4   8   8   15.60    0.68
  -4   8   8   15.34    0.79
   3  -8  -8    6.95    0.73
   3  -8  -8    8.09    0.53
   3  -8  -8    8.01    0.48
  -3   8   8    7.56    0.53
  -3   8   8    7.60    0.51
  -3   8   8    7.46    0.47
   2  -8  -8   61.00    2.12
   2  -8  -8   60.99    2.10
   2  -8  -8   58.89    2.12
   2  -8  -8   57.42    2.36
  -2   8   8   60.98    2.24
  -2   8   8   62.37    2.10
   1  -8  -8   73.09    2.48
   1  -8  -8   71.58    2.47
   1  -8  -8   64.65    2.96
   1  -8  -8   71.28    2.44
  -1   8   8   72.16    2.50
  -1   8   8   75.47    2.46
  -1   8   8   72.19    2.45
  -1   8   8   71.67    2.58
   0  -8  -8   22.50    1.10
   0  -8  -8   22.58    1.01
   0  -8  -8   22.01    1.01
   0  -8  -8   21.86    0.98
   0   8   8   23.48    1.09
   0   8   8   23.75    0.99
   0   8   8   22.64    1.02
   0   8   8   24.00    1.01
  -1  -8  -8   42.50    1.73
  -1  -8  -8   40.83    1.60
  -1  -8  -8   42.88    1.64
   1   8   8   42.60    1.64
   1   8   8   43.72    1.65
   1   8   8   43.39    1.61
  -2  -8  -8    3.54    0.33
  -2  -8  -8    3.68    0.34
  -2  -8  -8    3.87    0.50
   2   8   8    2.70    0.33
   2   8   8    3.45    0.32
   2   8   8    3.79    0.36
  -3  -8  -8   24.50    1.30
  -3  -8  -8   25.40    1.13
  -3  -8  -8   25.96    1.13
   3   8   8   27.49    1.11
   3   8   8   26.48    1.14
  -4  -8  -8    0.22    0.19
  -4  -8  -8    0.08    0.28
  -4  -8  -8   -0.09    0.19
   4   8   8    0.12    0.18
   4   8   8    0.20    0.23
   4   8   8   -0.21    0.21
  -5  -8  -8   17.01    0.85
  -5  -8  -8   14.72    0.86
  -5  -8  -8   16.56    0.84
   5   8   8   16.25    0.78
   5   8   8   16.69    0.87
   5   8   8   16.96    0.87
  -6  -8  -8   14.63    0.74
  -6  -8  -8   14.26    0.83
   6   8   8   13.24    0.84
   6   8   8   15.93    0.85
  -7  -8  -8    8.78    0.54
  -7  -8  -8    8.51    0.61
  -7  -8  -8    9.70    0.82
   7   8   8    8.05    0.51
   7   8   8    8.53    0.65
  -8  -8  -8    7.39    0.53
  -8  -8  -8    7.90    0.55
  -8  -8  -8    9.77    0.76
   8   8   8    8.75    0.81
   8   8   8    7.65    0.52
  -9  -8  -8   11.11    0.88
  -9  -8  -8    8.99    0.59
  -9  -8  -8    8.71    0.59
   9   8   8    9.13    0.59
   9   8   8    9.49    0.89
 -10  -8  -8    0.55    0.35
  10   8   8    0.48    0.63
  10   8   8    0.29    0.37
   3  -9  -8   -0.01    0.33
   3  -9  -8    0.22    0.28
   3  -9  -8    0.52    0.34
   3  -9  -8   -0.07    0.55
  -3   9   8   -0.14    0.33
  -3   9   8    0.03    0.28
  -3   9   8    0.52    0.27
  -3   9   8    0.01    0.24
   2  -9  -8   12.13    0.81
   2  -9  -8   11.28    0.63
   2  -9  -8   11.94    0.62
   2  -9  -8   11.16    0.67
  -2   9   8   10.11    0.60
  -2   9   8   11.79    0.66
  -2   9   8   11.37    0.64
  -2   9   8   12.67    0.66
   1  -9  -8    4.90    0.41
   1  -9  -8    4.78    0.57
   1  -9  -8    5.00    0.43
   1  -9  -8    4.67    0.46
  -1   9   8    4.77    0.40
  -1   9   8    5.05    0.43
  -1   9   8    5.04    0.45
   0  -9  -8   19.55    1.07
   0  -9  -8   20.90    0.97
   0  -9  -8   22.04    0.98
   0  -9  -8   21.55    0.96
   0   9   8   21.39    1.03
   0   9   8   21.36    0.95
   0   9   8   21.22    1.01
  -1  -9  -8   50.10    1.88
  -1  -9  -8   50.34    1.89
  -1  -9  -8   52.12    1.92
  -1  -9  -8   48.99    2.01
   1   9   8   46.71    2.09
   1   9   8   53.05    1.88
  -2  -9  -8   56.39    2.13
  -2  -9  -8   57.57    2.16
  -2  -9  -8   57.57    2.14
   2   9   8   61.08    2.22
   2   9   8   59.71    2.13
  -3  -9  -8   74.50    2.63
  -3  -9  -8   72.73    2.62
  -3  -9  -8   73.99    2.66
   3   9   8   74.75    2.67
   3   9   8   75.16    2.60
  -4  -9  -8   16.62    0.82
  -4  -9  -8   14.72    0.77
  -4  -9  -8   16.04    0.83
   4   9   8   13.31    0.82
   4   9   8   15.22    0.76
   4   9   8   15.45    0.98
  -5  -9  -8  125.90    4.22
  -5  -9  -8  128.71    4.90
  -5  -9  -8  123.76    4.14
   5   9   8  123.50    4.11
   5   9   8  125.04    4.32
   5   9   8  127.80    4.25
  -6  -9  -8    0.19    0.30
   6   9   8    0.12    0.24
   6   9   8    0.14    0.27
   6   9   8    0.30    0.29
  -7  -9  -8   23.03    1.04
  -7  -9  -8   23.62    1.17
  -7  -9  -8   22.69    1.16
   7   9   8   23.32    1.03
  -8  -9  -8    7.15    0.75
  -8  -9  -8    5.62    0.52
  -8  -9  -8    6.47    0.92
   8   9   8    7.57    0.73
   8   9   8    5.91    0.47
  -9  -9  -8    2.01    0.34
  -9  -9  -8    2.64    0.52
   9   9   8    3.58    0.81
   9   9   8    2.19    0.32
 -10  -9  -8    1.57    0.44
 -10  -9  -8    1.61    0.66
 -10  -9  -8    0.94    0.42
  10   9   8    0.92    0.40
  -3  10   8    0.17    0.33
   2 -10  -8   18.25    1.05
   2 -10  -8   16.97    0.92
   2 -10  -8   17.38    0.86
   2 -10  -8   16.42    0.88
  -2  10   8   15.38    0.86
  -2  10   8   15.48    0.85
  -2  10   8   16.99    0.82
  -2  10   8   15.84    0.79
   1 -10  -8    0.97    0.30
   1 -10  -8    0.38    0.46
   1 -10  -8    1.06    0.35
   1 -10  -8    1.25    0.27
   1 -10  -8    0.48    0.30
  -1  10   8    0.42    0.28
  -1  10   8    1.01    0.32
  -1  10   8    0.84    0.32
   0 -10  -8   50.85    1.94
   0 -10  -8   50.77    1.92
   0 -10  -8   49.70    2.10
   0 -10  -8   49.30    2.07
   0 -10  -8   51.78    1.94
   0  10   8   54.91    1.94
   0  10   8   45.88    2.16
   0  10   8   52.56    1.94
   0  10   8   50.27    1.98
  -1 -10  -8    2.31    0.37
  -1 -10  -8    1.87    0.45
  -1 -10  -8    2.47    0.39
  -1 -10  -8    2.07    0.38
  -1 -10  -8    2.55    0.38
   1  10   8    2.38    0.41
   1  10   8    2.56    0.39
  -2 -10  -8   56.82    2.11
  -2 -10  -8   58.01    2.14
  -2 -10  -8   50.61    2.24
  -2 -10  -8   55.51    2.09
   2  10   8   57.87    2.09
   2  10   8   57.84    2.16
  -3 -10  -8    1.37    0.26
  -3 -10  -8    1.42    0.22
   3  10   8    1.18    0.21
  -4 -10  -8    0.67    0.25
  -4 -10  -8    0.72    0.20
   4  10   8    0.68    0.30
   4  10   8    0.97    0.30
  -5 -10  -8    0.57    0.28
  -5 -10  -8    1.10    0.28
  -5 -10  -8    1.04    0.20
  -5 -10  -8    0.87    0.29
   5  10   8    1.48    0.27
   5  10   8    0.52    0.25
  -6 -10  -8    0.61    0.29
  -6 -10  -8    0.80    0.22
  -6 -10  -8    0.93    0.33
  -6 -10  -8    1.04    0.59
   6  10   8    1.15    0.27
   6  10   8    0.83    0.36
  -7 -10  -8    1.04    0.36
  -7 -10  -8    0.83    0.40
  -7 -10  -8    0.99    0.25
  -7 -10  -8    1.18    0.33
   7  10   8    0.95    0.38
   7  10   8    0.45    0.39
   7  10   8    0.68    0.28
  -8 -10  -8    3.41    0.78
  -8 -10  -8    4.81    0.52
  -8 -10  -8    2.89    0.47
   8  10   8    4.54    0.73
   8  10   8    3.83    0.47
  -9 -10  -8   -0.37    0.39
  -9 -10  -8    0.52    0.64
  -9 -10  -8    0.96    0.57
  -9 -10  -8    0.01    0.35
   9  10   8    0.16    0.38
   9  10   8    0.48    0.63
   2 -11  -8   -0.14    0.43
   2 -11  -8    1.01    0.64
   2 -11  -8    1.19    0.47
   1 -11  -8    0.68    0.37
   1 -11  -8    1.38    0.43
   1 -11  -8    0.63    0.34
   1 -11  -8    0.74    0.55
   1 -11  -8    0.35    0.38
  -1  11   8    0.69    0.41
  -1  11   8    0.99    0.24
  -1  11   8    0.96    0.34
  -1  11   8    1.09    0.39
   0 -11  -8    8.09    0.62
   0 -11  -8    9.16    0.63
   0 -11  -8    7.43    0.72
   0 -11  -8    7.83    0.71
   0  11   8    8.24    0.68
   0  11   8    8.31    0.66
   0  11   8    8.42    0.57
   0  11   8    8.61    0.63
  -1 -11  -8    0.27    0.37
  -1 -11  -8    0.09    0.37
  -1 -11  -8   -0.21    0.33
  -1 -11  -8    0.12    0.31
  -1 -11  -8   -0.31    0.28
   1  11   8    0.06    0.33
   1  11   8   -0.07    0.31
   1  11   8    0.33    0.34
  -2 -11  -8   42.77    1.75
  -2 -11  -8   44.20    1.80
  -2 -11  -8   38.77    1.88
  -2 -11  -8   43.48    1.75
   2  11   8   43.86    1.77
   2  11   8   48.00    1.76
   2  11   8   45.59    1.82
  -3 -11  -8    0.42    0.36
  -3 -11  -8    0.26    0.24
  -3 -11  -8    0.06    0.36
   3  11   8    0.03    0.39
   3  11   8    0.19    0.25
   3  11   8   -0.10    0.57
  -4 -11  -8   58.70    2.22
  -4 -11  -8   60.15    2.29
  -4 -11  -8   61.62    2.27
   4  11   8   62.03    2.24
   4  11   8   58.22    2.27
   4  11   8   53.90    2.47
  -5 -11  -8    4.38    0.57
  -5 -11  -8    4.63    0.54
  -5 -11  -8    4.17    0.43
   5  11   8    4.01    0.46
   5  11   8    3.55    0.59
   5  11   8    3.91    0.56
  -6 -11  -8   21.09    1.02
  -6 -11  -8   19.22    1.10
  -6 -11  -8   21.88    1.15
   6  11   8   21.95    1.01
   6  11   8   22.41    1.16
   6  11   8   22.46    1.18
  -7 -11  -8    6.45    0.65
  -7 -11  -8    5.61    0.72
  -7 -11  -8    7.03    0.55
   7  11   8    7.28    0.72
   7  11   8    5.44    0.70
   7  11   8    5.59    0.58
  -8 -11  -8    0.84    0.33
  -8 -11  -8    1.43    0.57
  -8 -11  -8    1.52    0.54
  -8 -11  -8    1.03    0.38
   8  11   8    1.40    0.49
   8  11   8    1.42    0.53
   8  11   8    1.62    0.38
  -9 -11  -8    3.17    0.72
  -9 -11  -8    3.22    0.39
   9  11   8    2.59    0.39
   0 -12  -8   28.16    1.39
   0 -12  -8   31.48    1.50
   0 -12  -8   33.75    1.46
   0 -12  -8   34.88    1.42
   0 -12  -8   30.00    1.57
   0  12   8   32.04    1.38
   0  12   8   31.67    1.40
   0  12   8   31.98    1.38
   0  12   8   33.51    1.43
  -1 -12  -8   11.20    0.79
  -1 -12  -8   11.64    0.88
  -1 -12  -8   10.29    0.85
  -1 -12  -8   12.43    0.75
   1  12   8   10.05    0.79
   1  12   8   11.87    0.77
   1  12   8   10.65    0.73
  -2 -12  -8   41.94    1.96
  -2 -12  -8   42.03    1.78
  -2 -12  -8   46.33    1.83
  -2 -12  -8   48.22    1.89
   2  12   8   44.82    1.86
   2  12   8   46.80    1.85
   2  12   8   42.40    1.80
  -3 -12  -8   -0.61    0.48
  -3 -12  -8    0.15    0.30
  -3 -12  -8    0.18    0.35
  -3 -12  -8   -0.09    0.35
   3  12   8   -0.19    0.33
   3  12   8   -0.35    0.44
   3  12   8    0.29    0.33
  -4 -12  -8   25.53    1.20
  -4 -12  -8   21.80    1.31
  -4 -12  -8   23.04    1.12
  -4 -12  -8   26.69    1.46
   4  12   8   25.00    1.22
   4  12   8   24.74    1.19
   4  12   8   22.87    1.10
  -5 -12  -8    6.16    0.66
  -5 -12  -8    7.25    0.69
  -5 -12  -8    5.54    0.64
  -5 -12  -8    5.06    0.53
   5  12   8    6.88    0.66
   5  12   8    6.35    0.70
  -6 -12  -8    0.86    0.44
  -6 -12  -8    0.34    0.41
  -6 -12  -8    0.01    0.29
   6  12   8    0.13    0.47
   6  12   8    0.51    0.38
   6  12   8    0.25    0.43
  -7 -12  -8    6.63    0.81
  -7 -12  -8    5.19    0.59
  -7 -12  -8    6.76    0.83
  -7 -12  -8    7.38    0.71
   7  12   8    5.21    0.61
   7  12   8    5.22    0.81
   7  12   8    5.49    0.77
  -8 -12  -8    0.14    0.37
  -8 -12  -8    0.72    0.65
  -8 -12  -8    0.48    0.49
  -8 -12  -8    0.82    0.65
   8  12   8   -0.17    0.56
   8  12   8    0.84    0.55
   8  12   8    0.63    0.43
  -1 -13  -8    6.42    0.73
  -1 -13  -8    6.02    0.86
  -1 -13  -8    5.25    0.82
   1  13   8    6.30    1.12
   1  13   8    4.64    0.79
   1  13   8    4.70    0.73
  -2 -13  -8   21.10    1.14
  -2 -13  -8   25.52    1.26
  -2 -13  -8   20.10    1.29
  -2 -13  -8   24.26    1.20
   2  13   8   23.01    1.16
   2  13   8   22.57    1.17
   2  13   8   24.64    1.20
  -3 -13  -8    7.33    0.87
  -3 -13  -8    7.40    0.72
  -3 -13  -8   10.17    0.78
   3  13   8    8.54    0.75
   3  13   8    8.93    0.75
  -4 -13  -8   26.61    1.24
  -4 -13  -8   25.04    1.25
  -4 -13  -8   22.64    1.16
  -4 -13  -8   23.73    1.31
   4  13   8   26.16    1.30
   4  13   8   24.63    1.19
   4  13   8   24.32    1.23
  -5 -13  -8    0.34    0.36
  -5 -13  -8   -0.32    0.51
  -5 -13  -8    0.21    0.48
  -5 -13  -8    0.18    0.47
   5  13   8   -0.23    0.40
   5  13   8    0.09    0.45
   5  13   8   -0.52    0.51
  -6 -13  -8   27.64    1.28
  -6 -13  -8   26.66    1.38
  -6 -13  -8   33.47    1.86
  -6 -13  -8   26.60    1.44
   6  13   8   28.71    1.52
   6  13   8   27.43    1.26
   6  13   8   27.72    1.45
  -7 -13  -8    0.35    0.62
  -7 -13  -8    0.63    0.60
  -7 -13  -8    1.95    0.59
  -7 -13  -8    0.19    0.38
   7  13   8    1.85    0.64
   7  13   8    0.81    0.45
   7  13   8    1.06    0.58
  -4 -14  -8    1.07    0.44
   3  10  -9    7.02    0.61
   3  10  -9    7.17    0.86
   3  10  -9    7.37    0.78
  -3 -10   9    7.63    0.79
  -3 -10   9    6.98    0.74
   2  10  -9    0.45    0.40
   2  10  -9    0.41    0.49
   2  10  -9    0.65    0.46
   2  10  -9    0.26    0.53
   2  10  -9    0.40    0.41
  -2 -10   9   -0.13    0.50
  -2 -10   9   -0.53    0.47
  -2 -10   9    1.16    0.56
   1  10  -9   11.41    0.76
   1  10  -9   11.58    1.13
   1  10  -9   12.92    0.82
   1  10  -9   10.25    0.83
   1  10  -9   11.35    0.87
  -1 -10   9   12.74    0.88
   0  10  -9    1.99    0.45
   0  10  -9    1.14    0.49
   0  10  -9    1.34    0.45
   0  10  -9    1.21    0.47
   0 -10   9    0.57    0.48
   0 -10   9    0.74    0.51
   0 -10   9    1.92    0.52
  -1  10  -9    5.50    0.77
  -1  10  -9    4.77    0.76
  -1  10  -9    4.64    0.70
   1 -10   9    4.96    0.93
   1 -10   9    5.67    0.81
  -2  10  -9    0.78    0.46
   2 -10   9    0.44    0.64
   4   9  -9   -0.06    0.33
   4   9  -9    0.17    0.48
   4   9  -9    0.76    0.36
   4   9  -9    0.21    0.50
   4   9  -9   -0.01    0.39
  -4  -9   9   -0.10    0.43
  -4  -9   9   -0.18    0.38
  -4  -9   9    0.43    0.45
   3   9  -9    4.56    0.59
   3   9  -9    6.33    0.64
   3   9  -9    6.11    0.57
   3   9  -9    5.23    0.51
   3   9  -9    5.83    0.70
  -3  -9   9    5.13    0.71
  -3  -9   9    4.54    0.57
  -3  -9   9    4.27    0.62
   2   9  -9    5.33    0.52
   2   9  -9    4.90    0.59
   2   9  -9    6.49    0.55
   2   9  -9    5.92    0.56
   2   9  -9    5.56    0.66
  -2  -9   9    5.86    0.63
   1   9  -9    0.81    0.35
   1   9  -9    0.44    0.30
   1   9  -9    0.75    0.35
   1   9  -9   -0.04    0.42
   1   9  -9    0.47    0.33
  -1  -9   9    0.52    0.46
  -1  -9   9    1.22    0.42
  -1  -9   9    0.49    0.39
   0   9  -9    0.03    0.35
   0   9  -9    0.90    0.38
   0   9  -9    0.05    0.38
   0   9  -9    0.32    0.31
   0   9  -9   -0.04    0.36
   0  -9   9    0.00    0.37
   0  -9   9    0.20    0.52
   0  -9   9    0.39    0.44
  -1   9  -9    0.33    0.40
  -1   9  -9    0.45    0.31
  -1   9  -9    0.18    0.44
  -1   9  -9    0.37    0.60
  -1   9  -9   -0.13    0.42
   1  -9   9    0.18    0.42
   1  -9   9   -0.13    0.43
   1  -9   9    0.24    0.45
  -2   9  -9    0.09    0.50
  -2   9  -9    0.25    0.38
  -2   9  -9   -0.03    0.49
  -2   9  -9   -0.14    0.35
   2  -9   9   -0.25    0.44
   2  -9   9   -0.21    0.45
   2  -9   9    0.68    0.60
  -3   9  -9    0.85    0.42
  -3   9  -9    0.42    0.53
  -3   9  -9    0.15    0.56
   3  -9   9    1.49    0.53
   3  -9   9    0.70    0.71
   3  -9   9    0.74    0.57
   5   8  -9    0.63    0.33
   5   8  -9    0.10    0.31
   5   8  -9   -0.10    0.42
   5   8  -9    0.43    0.29
   5   8  -9   -0.17    0.48
  -5  -8   9    0.28    0.30
  -5  -8   9    0.23    0.28
  -5  -8   9    0.18    0.31
   4   8  -9    2.43    0.56
   4   8  -9    2.80    0.63
   4   8  -9    2.38    0.45
   4   8  -9    2.94    0.49
   4   8  -9    2.06    0.39
  -4  -8   9    2.47    0.40
  -4  -8   9    3.64    0.75
  -4  -8   9    2.74    0.50
  -4  -8   9    2.09    0.47
   3   8  -9    2.99    0.44
   3   8  -9    3.32    0.50
   3   8  -9    3.10    0.62
   3   8  -9    2.90    0.49
   3   8  -9    2.74    0.40
  -3  -8   9    3.31    0.41
  -3  -8   9    3.00    0.52
  -3  -8   9    2.42    0.33
   2   8  -9   11.03    0.78
   2   8  -9   10.19    0.61
   2   8  -9   11.05    0.67
   2   8  -9   10.26    0.65
   2   8  -9   11.98    0.62
  -2  -8   9   10.70    0.65
  -2  -8   9   10.60    0.76
  -2  -8   9    9.52    0.67
   1   8  -9   18.76    0.91
   1   8  -9   18.70    0.79
   1   8  -9   16.84    0.89
   1   8  -9   18.93    1.06
   1   8  -9   17.07    0.87
  -1  -8   9   18.05    1.00
  -1  -8   9   17.86    0.92
  -1  -8   9   16.68    0.88
   0   8  -9    7.58    0.47
   0   8  -9    6.03    0.55
   0   8  -9    7.21    0.65
   0   8  -9    5.49    0.54
   0   8  -9    7.47    0.55
   0  -8   9    5.83    0.54
   0  -8   9    6.79    0.60
   0  -8   9    7.71    0.66
  -1   8  -9   31.54    1.38
  -1   8  -9   33.41    1.18
  -1   8  -9   31.10    1.41
  -1   8  -9   31.48    1.43
  -1   8  -9   30.85    1.35
   1  -8   9   29.96    1.82
   1  -8   9   29.51    1.34
   1  -8   9   31.34    1.43
  -2   8  -9    0.06    0.33
  -2   8  -9    0.24    0.40
  -2   8  -9    0.29    0.29
  -2   8  -9    0.13    0.42
   2  -8   9   -0.05    0.44
   2  -8   9   -0.04    0.37
   2  -8   9    0.31    0.40
   2  -8   9    0.08    0.34
  -3   8  -9   15.84    0.95
  -3   8  -9   15.14    0.95
  -3   8  -9   14.90    0.84
  -3   8  -9   15.55    0.90
  -3   8  -9   15.43    0.86
   3  -8   9   15.43    0.86
   3  -8   9   12.92    1.01
   3  -8   9   15.54    0.90
  -4   8  -9    4.01    0.56
  -4   8  -9    2.08    0.56
  -4   8  -9    3.20    0.60
   4  -8   9    3.60    0.74
   4  -8   9    2.51    0.63
   4  -8   9    2.90    0.56
   6   7  -9    5.53    0.85
  -6  -7   9    5.10    0.50
   5   7  -9    1.98    0.40
   5   7  -9    1.78    0.35
   5   7  -9    1.46    0.39
   5   7  -9    1.96    0.45
   5   7  -9    1.63    0.25
  -5  -7   9    1.82    0.40
   4   7  -9    2.96    0.48
   4   7  -9    2.39    0.37
   4   7  -9    2.58    0.42
   4   7  -9    2.44    0.33
   4   7  -9    2.12    0.40
  -4  -7   9    2.56    0.36
  -4  -7   9    2.37    0.40
  -4  -7   9    2.06    0.27
   3   7  -9    5.21    0.44
   3   7  -9    4.83    0.39
   3   7  -9    5.55    0.60
   3   7  -9    6.19    0.48
  -3  -7   9    7.06    0.59
  -3  -7   9    6.07    0.46
  -3  -7   9    5.53    0.37
  -3  -7   9    5.55    0.46
   2   7  -9    0.31    0.24
   2   7  -9    0.11    0.24
   2   7  -9    0.29    0.23
   2   7  -9    0.29    0.33
   2   7  -9    0.39    0.25
  -2  -7   9    0.11    0.27
  -2  -7   9    0.13    0.29
  -2  -7   9    0.07    0.26
   1   7  -9    0.11    0.23
   1   7  -9   -0.01    0.25
   1   7  -9    0.19    0.24
   1   7  -9   -0.06    0.31
  -1  -7   9    0.02    0.29
  -1  -7   9    0.18    0.26
   0   7  -9    0.18    0.25
   0   7  -9    0.02    0.25
   0   7  -9    0.43    0.21
   0   7  -9    0.04    0.24
   0   7  -9    0.04    0.30
   0  -7   9   -0.14    0.28
   0  -7   9    0.12    0.29
   0  -7   9    0.53    0.29
  -1   7  -9    0.18    0.29
  -1   7  -9    0.16    0.30
  -1   7  -9    0.12    0.20
  -1   7  -9    0.30    0.26
  -1   7  -9    0.17    0.24
   1  -7   9   -0.51    0.33
   1  -7   9    0.11    0.31
  -2   7  -9    1.49    0.25
  -2   7  -9    0.91    0.32
  -2   7  -9    1.37    0.29
  -2   7  -9    0.93    0.32
   2  -7   9    1.28    0.31
   2  -7   9    0.83    0.32
   2  -7   9    0.86    0.40
  -3   7  -9    0.64    0.32
  -3   7  -9    0.85    0.36
  -3   7  -9    0.90    0.28
  -3   7  -9    0.99    0.39
  -3   7  -9    0.65    0.40
   3  -7   9    1.14    0.41
   3  -7   9    1.03    0.38
   3  -7   9    0.87    0.31
  -4   7  -9    0.11    0.44
  -4   7  -9    0.11    0.46
  -4   7  -9   -0.13    0.32
   4  -7   9    0.45    0.52
   4  -7   9    0.87    0.40
   4  -7   9    0.88    0.51
  -5   7  -9    0.20    0.55
  -5   7  -9    0.10    0.33
  -5   7  -9    0.42    0.52
  -5   7  -9    0.18    0.34
   5  -7   9    0.28    0.58
   5  -7   9    0.34    0.44
   5  -7   9    0.70    0.58
   6   6  -9    0.25    0.39
  -6  -6   9    0.30    0.26
   5   6  -9    0.75    0.37
   5   6  -9    1.39    0.40
   5   6  -9    1.06    0.19
  -5  -6   9    0.62    0.24
   4   6  -9    4.43    0.47
   4   6  -9    3.67    0.35
   4   6  -9    4.65    0.54
   4   6  -9    5.22    0.40
   4   6  -9    4.13    0.33
  -4  -6   9    4.52    0.35
  -4  -6   9    4.36    0.38
  -4  -6   9    4.57    0.35
   3   6  -9    2.33    0.29
   3   6  -9    2.83    0.36
   3   6  -9    2.67    0.30
   3   6  -9    3.37    0.47
  -3  -6   9    2.00    0.32
  -3  -6   9    2.13    0.30
  -3  -6   9    2.14    0.34
   2   6  -9   13.71    0.66
   2   6  -9   13.49    0.69
   2   6  -9   14.40    0.85
   2   6  -9   13.47    0.68
  -2  -6   9   11.66    0.74
  -2  -6   9   14.04    0.87
  -2  -6   9   14.11    0.69
   1   6  -9    0.68    0.27
   1   6  -9    0.21    0.21
   1   6  -9    0.14    0.20
   1   6  -9    0.19    0.21
  -1  -6   9    0.62    0.21
  -1  -6   9    0.22    0.22
   0   6  -9   31.60    1.34
   0   6  -9   30.35    1.28
   0   6  -9   31.34    1.28
   0   6  -9   30.78    1.42
   0  -6   9   29.93    1.37
   0  -6   9   31.44    1.42
   0  -6   9   30.77    1.31
  -1   6  -9    2.92    0.40
  -1   6  -9    2.98    0.35
  -1   6  -9    3.41    0.40
  -1   6  -9    2.82    0.43
   1  -6   9    2.50    0.42
   1  -6   9    3.30    0.36
  -2   6  -9   29.51    1.31
  -2   6  -9   31.19    1.08
  -2   6  -9   27.65    1.32
  -2   6  -9   29.50    1.26
   2  -6   9   28.94    1.15
   2  -6   9   30.84    1.37
   2  -6   9   27.63    1.18
  -3   6  -9   31.75    1.46
  -3   6  -9   30.68    1.33
   3  -6   9   29.93    1.44
   3  -6   9   30.60    1.17
   3  -6   9   29.84    1.31
   3  -6   9   32.58    1.27
  -4   6  -9    1.63    0.28
  -4   6  -9    1.94    0.37
   4  -6   9    1.32    0.45
   4  -6   9    1.57    0.32
   4  -6   9    1.69    0.37
  -5   6  -9    5.55    0.71
  -5   6  -9    4.85    0.50
  -5   6  -9    4.85    0.76
   5  -6   9    4.83    0.78
   5  -6   9    6.59    0.67
  -6   6  -9    0.37    0.33
  -6   6  -9    0.40    0.58
  -6   6  -9    0.23    0.36
   6  -6   9    0.37    0.59
   6  -6   9    0.65    0.48
   6  -6   9   -0.19    0.57
   6   5  -9   24.62    1.19
  -6  -5   9   25.25    1.17
   5   5  -9    0.87    0.30
  -5  -5   9    1.12    0.22
   4   5  -9   18.77    0.84
   4   5  -9   18.66    0.75
   4   5  -9   20.14    0.76
   4   5  -9   18.55    0.99
  -4  -5   9   18.04    1.08
  -4  -5   9   18.32    0.84
   3   5  -9    1.19    0.18
   3   5  -9    1.74    0.39
   3   5  -9    1.22    0.28
  -3  -5   9    1.26    0.27
  -3  -5   9    1.10    0.18
  -3  -5   9    0.98    0.22
   2   5  -9    2.08    0.27
   2   5  -9    1.88    0.35
   2   5  -9    1.85    0.40
   2   5  -9    2.46    0.26
  -2  -5   9    2.24    0.30
  -2  -5   9    2.71    0.32
  -2  -5   9    2.14    0.28
   1   5  -9    1.46    0.28
   1   5  -9    1.79    0.37
   1   5  -9    2.02    0.26
  -1  -5   9    1.75    0.31
  -1  -5   9    2.41    0.29
  -1  -5   9    2.24    0.30
   0   5  -9    0.45    0.17
   0   5  -9    0.06    0.19
   0   5  -9    0.23    0.18
   0   5  -9    0.26    0.23
   0  -5   9    0.16    0.20
   0  -5   9    0.21    0.20
   0  -5   9    0.16    0.20
  -1   5  -9    3.75    0.36
  -1   5  -9    3.68    0.34
  -1   5  -9    3.66    0.40
   1  -5   9    3.68    0.36
   1  -5   9    3.31    0.38
  -2   5  -9    0.84    0.26
  -2   5  -9    1.20    0.29
   2  -5   9    1.34    0.29
   2  -5   9    1.27    0.22
  -3   5  -9    0.29    0.30
   3  -5   9   -0.09    0.31
   3  -5   9    0.22    0.22
   3  -5   9    0.14    0.25
   3  -5   9   -0.02    0.29
  -4   5  -9   13.00    0.69
  -4   5  -9   12.40    0.79
   4  -5   9   12.95    0.69
   4  -5   9   11.67    0.58
   4  -5   9   13.40    0.73
  -5   5  -9    6.92    0.66
  -5   5  -9    8.65    0.56
  -5   5  -9    8.61    0.66
   5  -5   9    7.68    0.44
   5  -5   9    9.15    0.62
   5  -5   9    7.67    0.72
   5  -5   9    8.09    0.64
  -6   5  -9    0.71    0.31
  -6   5  -9    0.71    0.44
   6  -5   9    1.15    0.41
   6  -5   9    0.22    0.49
   6  -5   9    0.43    0.52
  -7   5  -9    1.57    0.50
  -7   5  -9    1.47    0.31
  -7   5  -9    0.91    0.37
   7  -5   9    1.03    0.64
   7  -5   9    1.01    0.46
   7  -5   9    0.61    0.56
   7   4  -9    0.49    0.41
   7   4  -9   -0.01    0.39
  -7  -4   9    0.38    0.27
   6   4  -9    0.39    0.29
   6   4  -9    0.67    0.32
  -6  -4   9    0.19    0.24
   5   4  -9    1.82    0.29
  -5  -4   9    1.91    0.31
  -5  -4   9    1.55    0.35
   4   4  -9    5.58    0.30
   4   4  -9    7.06    0.52
  -4  -4   9    5.40    0.50
  -4  -4   9    6.69    0.45
   3   4  -9    2.08    0.22
   3   4  -9    1.86    0.25
   3   4  -9    2.22    0.36
  -3  -4   9    1.59    0.32
  -3  -4   9    2.32    0.28
  -3  -4   9    2.65    0.22
   2   4  -9   29.83    1.16
   2   4  -9   30.53    1.19
   2   4  -9   31.10    1.41
  -2  -4   9   30.97    1.17
  -2  -4   9   32.10    1.16
  -2  -4   9   30.60    1.45
   1   4  -9   12.19    0.63
  -1  -4   9   13.40    0.63
  -1  -4   9   12.61    0.63
  -1  -4   9   12.54    0.74
   0   4  -9   57.85    2.40
   0   4  -9   62.75    2.23
   0  -4   9   62.55    2.34
   0  -4   9   60.96    2.24
   0  -4   9   64.89    2.23
  -1   4  -9    0.56    0.19
  -1   4  -9    0.50    0.20
   1  -4   9    0.70    0.21
   1  -4   9    0.33    0.18
   1  -4   9    0.34    0.20
  -2   4  -9   74.70    3.19
  -2   4  -9   85.02    2.98
   2  -4   9   84.80    2.91
   2  -4   9   88.86    3.01
  -3   4  -9    6.25    0.47
  -3   4  -9    6.26    0.44
  -3   4  -9    5.95    0.48
   3  -4   9    5.97    0.42
   3  -4   9    6.22    0.45
   3  -4   9    7.31    0.52
  -4   4  -9   48.93    1.80
  -4   4  -9   47.32    1.95
   4  -4   9   44.55    1.66
   4  -4   9   42.41    2.14
   4  -4   9   49.10    1.72
   4  -4   9   48.39    1.82
  -5   4  -9   23.00    1.00
  -5   4  -9   27.01    1.39
  -5   4  -9   23.51    1.15
  -5   4  -9   21.82    0.81
   5  -4   9   19.88    1.13
   5  -4   9   22.47    1.03
   5  -4   9   20.82    0.88
   5  -4   9   24.24    1.12
  -6   4  -9    2.65    0.44
  -6   4  -9    2.19    0.41
  -6   4  -9    2.58    0.44
  -6   4  -9    2.45    0.37
   6  -4   9    2.38    0.54
   6  -4   9    2.08    0.34
  -7   4  -9    5.00    0.56
  -7   4  -9    4.57    0.68
  -7   4  -9    5.31    0.47
   7  -4   9    5.35    0.75
   7  -4   9    5.73    0.82
   7  -4   9    5.63    0.67
   7   3  -9    4.55    0.55
   7   3  -9    2.84    0.58
  -7  -3   9    4.09    0.48
   6   3  -9    2.17    0.46
   6   3  -9    2.69    0.44
  -6  -3   9    2.56    0.42
   5   3  -9    4.98    0.48
   5   3  -9    5.14    0.41
  -5  -3   9    4.64    0.48
  -5  -3   9    5.64    0.47
   4   3  -9   10.94    0.52
   4   3  -9   10.49    0.65
  -4  -3   9    9.70    0.71
  -4  -3   9    9.81    0.59
   3   3  -9    0.24    0.13
   3   3  -9   -0.18    0.37
  -3  -3   9    0.19    0.18
  -3  -3   9    0.47    0.16
   2   3  -9   16.00    0.65
   2   3  -9   15.76    0.90
   2   3  -9   15.13    0.67
   2   3  -9   15.77    0.67
  -2  -3   9   14.57    0.65
  -2  -3   9   15.74    0.88
  -2  -3   9   16.18    0.64
   1   3  -9    1.26    0.19
   1   3  -9    1.12    0.22
   1   3  -9    1.56    0.31
  -1  -3   9    1.78    0.21
  -1  -3   9    1.78    0.22
  -1  -3   9    1.15    0.23
   0   3  -9    3.65    0.28
   0   3  -9    3.61    0.30
   0   3  -9    3.45    0.37
   0  -3   9    3.31    0.29
   0  -3   9    3.17    0.30
   0  -3   9    3.57    0.37
  -1   3  -9    0.18    0.15
  -1   3  -9    0.10    0.14
  -1   3  -9    0.19    0.18
   1  -3   9    0.23    0.17
   1  -3   9    0.12    0.17
   1  -3   9   -0.01    0.15
  -2   3  -9    1.68    0.28
  -2   3  -9    1.35    0.29
  -2   3  -9    1.30    0.24
   2  -3   9    1.35    0.27
   2  -3   9    1.08    0.18
  -3   3  -9    8.56    0.51
  -3   3  -9    7.61    0.53
  -3   3  -9    7.06    0.57
   3  -3   9    7.93    0.50
   3  -3   9    7.25    0.48
   3  -3   9    8.33    0.55
  -4   3  -9    0.41    0.18
  -4   3  -9    0.58    0.22
  -4   3  -9    0.68    0.14
  -4   3  -9    0.62    0.19
   4  -3   9    0.74    0.24
   4  -3   9    0.99    0.23
   4  -3   9    0.74    0.21
   4  -3   9    0.50    0.25
  -5   3  -9    0.37    0.20
  -5   3  -9    0.38    0.20
  -5   3  -9    0.29    0.17
   5  -3   9   -0.17    0.29
   5  -3   9    0.26    0.27
   5  -3   9    0.02    0.24
   5  -3   9    0.52    0.25
  -6   3  -9    6.77    0.50
  -6   3  -9    6.06    0.44
  -6   3  -9    7.13    0.59
  -6   3  -9    7.65    0.41
   6  -3   9    6.11    0.45
   6  -3   9    6.73    0.56
   6  -3   9    5.81    0.55
   6  -3   9    6.02    0.61
  -7   3  -9    3.21    0.41
  -7   3  -9    2.81    0.40
  -7   3  -9    3.35    0.39
  -7   3  -9    2.25    0.32
   7  -3   9    2.90    0.55
   7  -3   9    3.33    0.66
   7  -3   9    2.95    0.61
   7  -3   9    2.85    0.60
  -8   3  -9    1.16    0.28
  -8   3  -9    0.94    0.26
  -8   3  -9    0.78    0.39
   8  -3   9    0.67    0.61
   8  -3   9    1.03    0.45
   8  -3   9    0.60    0.50
   7   2  -9    0.24    0.41
   7   2  -9    0.61    0.35
  -7  -2   9   -0.08    0.30
   6   2  -9    0.39    0.29
   6   2  -9   -0.04    0.31
  -6  -2   9   -0.22    0.21
  -6  -2   9    0.11    0.23
   5   2  -9    1.62    0.36
   5   2  -9    2.45    0.34
  -5  -2   9    2.25    0.37
  -5  -2   9    2.16    0.30
   4   2  -9    0.70    0.18
  -4  -2   9    0.68    0.18
  -4  -2   9    0.60    0.18
   3   2  -9    6.58    0.29
   3   2  -9    6.46    0.51
  -3  -2   9    6.69    0.45
  -3  -2   9    5.72    0.51
   2   2  -9    0.13    0.12
   2   2  -9    0.17    0.18
   2   2  -9    0.26    0.09
   2   2  -9   -0.08    0.10
  -2  -2   9    0.22    0.16
  -2  -2   9    0.12    0.09
   1   2  -9   72.67    2.65
   1   2  -9   73.71    2.38
   1   2  -9   69.97    2.31
  -1  -2   9   71.11    2.64
  -1  -2   9   73.20    2.36
  -1  -2   9   71.41    2.30
   0   2  -9   41.88    1.49
   0   2  -9   40.43    1.69
   0   2  -9   41.67    1.54
   0  -2   9   43.71    1.49
   0  -2   9   41.16    1.69
   0  -2   9   41.85    1.52
  -1   2  -9   81.84    2.71
  -1   2  -9   81.30    2.79
  -1   2  -9   78.98    2.89
   1  -2   9   82.11    2.71
   1  -2   9   83.71    2.88
   1  -2   9   83.17    2.78
  -2   2  -9   57.34    2.03
  -2   2  -9   57.61    2.14
  -2   2  -9   54.92    2.08
   2  -2   9   59.35    2.12
   2  -2   9   55.61    2.01
   2  -2   9   56.42    2.10
  -3   2  -9   15.75    0.76
  -3   2  -9   14.92    0.81
  -3   2  -9   15.68    0.79
   3  -2   9   15.12    0.75
   3  -2   9   15.36    0.82
   3  -2   9   15.08    0.75
  -4   2  -9   65.45    2.25
  -4   2  -9   61.59    2.36
  -4   2  -9   61.45    2.21
   4  -2   9   62.41    2.35
   4  -2   9   64.90    2.08
   4  -2   9   58.29    2.16
   4  -2   9   57.11    2.25
  -5   2  -9    0.35    0.24
  -5   2  -9    0.35    0.18
  -5   2  -9    0.27    0.20
   5  -2   9    0.75    0.24
   5  -2   9    0.53    0.25
   5  -2   9    0.20    0.23
   5  -2   9    0.62    0.23
  -6   2  -9   21.73    0.85
  -6   2  -9   22.61    1.09
  -6   2  -9   22.17    0.92
  -6   2  -9   21.88    1.08
   6  -2   9   22.20    0.99
   6  -2   9   21.67    1.00
   6  -2   9   21.33    1.07
   6  -2   9   18.62    0.87
  -7   2  -9    0.40    0.22
  -7   2  -9    0.33    0.28
  -7   2  -9    0.27    0.19
  -7   2  -9    0.19    0.35
   7  -2   9    0.42    0.38
   7  -2   9    0.91    0.32
   7  -2   9    0.63    0.43
  -8   2  -9    6.47    0.70
  -8   2  -9    7.83    0.48
  -8   2  -9    7.47    0.67
  -8   2  -9    6.88    0.45
   8  -2   9    5.71    0.72
   8  -2   9    6.00    0.54
   8  -2   9    6.87    0.69
   8  -2   9    7.80    0.75
   7   1  -9    9.00    0.76
   7   1  -9    7.12    0.63
   6   1  -9    0.78    0.34
   6   1  -9    0.33    0.28
  -6  -1   9    0.19    0.21
  -6  -1   9    0.13    0.24
   5   1  -9   26.51    1.09
  -5  -1   9   25.09    1.31
  -5  -1   9   26.60    1.29
   4   1  -9    0.40    0.21
   4   1  -9    0.45    0.20
  -4  -1   9    0.46    0.18
   3   1  -9   51.04    1.92
  -3  -1   9   44.89    1.95
  -3  -1   9   48.92    1.85
   2   1  -9   29.70    1.29
  -2  -1   9   28.32    1.33
   1   1  -9   10.44    0.46
   1   1  -9   10.78    0.66
   1   1  -9   10.51    0.50
  -1  -1   9   10.42    0.66
  -1  -1   9   10.64    0.49
  -1  -1   9   11.51    0.47
   0   1  -9    5.08    0.41
   0   1  -9    5.55    0.33
   0   1  -9    5.29    0.35
   0  -1   9    5.07    0.39
   0  -1   9    5.48    0.32
   0  -1   9    5.57    0.34
  -1   1  -9    0.60    0.12
  -1   1  -9    0.44    0.13
  -1   1  -9    0.26    0.15
   1  -1   9    0.46    0.12
   1  -1   9    0.52    0.13
   1  -1   9    0.29    0.14
  -2   1  -9    0.18    0.12
  -2   1  -9    0.15    0.15
  -2   1  -9    0.53    0.15
   2  -1   9    0.30    0.15
   2  -1   9    0.41    0.15
   2  -1   9    0.35    0.15
  -3   1  -9    1.64    0.25
  -3   1  -9    1.22    0.19
   3  -1   9    2.05    0.24
   3  -1   9    1.89    0.28
   3  -1   9    1.50    0.24
  -4   1  -9    0.81    0.22
  -4   1  -9    0.27    0.17
   4  -1   9    0.54    0.17
   4  -1   9    0.59    0.17
   4  -1   9    0.39    0.19
  -5   1  -9   11.84    0.64
  -5   1  -9   11.71    0.73
  -5   1  -9   11.11    0.58
   5  -1   9   12.17    0.65
   5  -1   9   11.16    0.67
   5  -1   9   10.90    0.59
   5  -1   9   11.79    0.59
  -6   1  -9    9.70    0.62
  -6   1  -9    9.75    0.58
  -6   1  -9    8.29    0.49
  -6   1  -9    8.96    0.46
   6  -1   9    9.45    0.58
   6  -1   9    9.46    0.57
   6  -1   9    9.08    0.53
   6  -1   9    8.88    0.61
  -7   1  -9    1.48    0.29
  -7   1  -9    1.60    0.27
  -7   1  -9    1.50    0.29
  -7   1  -9    1.78    0.30
   7  -1   9    2.09    0.47
   7  -1   9    1.60    0.32
   7  -1   9    0.98    0.34
   7  -1   9    1.55    0.28
  -8   1  -9    1.89    0.34
  -8   1  -9    1.82    0.35
   8  -1   9    2.27    0.47
   8  -1   9    1.57    0.39
   8  -1   9    2.74    0.45
  -9   1  -9   -0.28    0.41
  -9   1  -9    0.27    0.43
  -9   1  -9   -0.14    0.24
   9  -1   9    0.25    0.47
   9  -1   9    0.36    0.41
   9  -1   9   -0.24    0.49
   9  -1   9    0.11    0.55
   6   0  -9   -0.57    0.38
  -6   0   9    0.10    0.21
  -6   0   9    0.01    0.21
   5   0  -9    2.62    0.36
   5   0  -9    2.43    0.33
  -5   0   9    1.62    0.35
  -5   0   9    2.49    0.33
   4   0  -9    1.48    0.30
   4   0  -9    1.97    0.31
  -4   0   9    1.45    0.28
  -4   0   9    1.77    0.33
   3   0  -9   22.80    0.89
   3   0  -9   22.75    1.04
  -3   0   9   22.17    1.13
  -3   0   9   22.23    1.06
   2   0  -9    2.06    0.28
  -2   0   9    1.65    0.25
   1   0  -9  104.39    3.25
   1   0  -9  104.14    3.55
   1   0  -9  104.10    3.20
  -1   0   9  109.67    3.21
  -1   0   9  103.26    3.58
   0   0  -9    0.37    0.15
   0   0   9    0.25    0.09
   0   0   9    0.19    0.10
   0   0   9    0.27    0.14
  -1   0  -9  225.35    6.69
  -1   0  -9  216.52    6.78
  -1   0  -9  212.91    6.92
   1   0   9  219.31    6.90
   1   0   9  228.65    6.77
   1   0   9  232.45    6.70
  -2   0  -9   72.49    2.66
  -2   0  -9   79.21    2.55
  -2   0  -9   71.06    2.60
   2   0   9   80.69    2.56
   2   0   9   76.65    2.67
   2   0   9   78.93    2.63
  -3   0  -9  170.35    5.41
  -3   0  -9  171.24    5.32
  -3   0  -9  165.60    5.41
   3   0   9  173.98    5.33
   3   0   9  170.18    5.39
   3   0   9  173.45    5.42
  -4   0  -9   91.98    3.03
  -4   0  -9   88.58    3.11
  -4   0  -9   89.64    3.09
   4   0   9   86.76    3.03
   4   0   9   92.51    2.83
   4   0   9   88.06    3.10
   4   0   9   90.83    3.03
  -5   0  -9   20.64    0.97
  -5   0  -9   20.04    0.91
  -5   0  -9   18.80    0.85
   5   0   9   19.15    0.82
   5   0   9   17.16    1.00
   5   0   9   19.12    0.88
   5   0   9   19.17    0.94
  -6   0  -9   34.47    1.33
  -6   0  -9   38.41    1.48
   6   0   9   36.16    1.46
   6   0   9   32.32    1.60
   6   0   9   36.13    1.38
  -7   0  -9    0.30    0.26
  -7   0  -9    0.31    0.26
  -7   0  -9    0.29    0.18
  -7   0  -9    0.11    0.16
   7   0   9   -0.09    0.30
   7   0   9    0.52    0.26
   7   0   9    0.60    0.26
  -8   0  -9    4.39    0.54
  -8   0  -9    5.58    0.37
  -8   0  -9    4.83    0.36
  -8   0  -9    4.99    0.54
   8   0   9    5.49    0.68
   8   0   9    3.81    0.55
   8   0   9    4.98    0.53
  -9   0  -9    0.55    0.41
  -9   0  -9    0.65    0.21
  -9   0  -9    0.87    0.40
   9   0   9    0.74    0.47
   9   0   9    0.50    0.42
   9   0   9    0.49    0.46
   6  -1  -9   10.07    0.71
   6  -1  -9    8.86    0.69
  -6   1   9    9.82    0.67
  -6   1   9    9.29    0.75
   5  -1  -9   17.73    0.89
   5  -1  -9   19.04    0.87
  -5   1   9   16.52    1.01
  -5   1   9   17.98    1.00
   4  -1  -9    9.69    0.57
   4  -1  -9    9.38    0.57
  -4   1   9    9.67    0.66
  -4   1   9    8.91    0.62
   3  -1  -9    7.51    0.49
   3  -1  -9    6.99    0.43
  -3   1   9    6.12    0.53
  -3   1   9    6.56    0.50
   2  -1  -9   13.35    0.70
  -2   1   9   11.99    0.73
   1  -1  -9   70.45    2.22
   1  -1  -9   72.63    2.27
   1  -1  -9   69.21    2.53
  -1   1   9   75.94    2.24
  -1   1   9   68.14    2.57
   0  -1  -9    0.40    0.09
   0  -1  -9    0.30    0.11
   0   1   9    0.20    0.12
   0   1   9    0.43    0.10
   0   1   9    0.32    0.10
  -1  -1  -9   20.31    0.89
  -1  -1  -9   20.71    0.83
   1   1   9   20.33    0.98
   1   1   9   20.91    0.83
   1   1   9   21.65    0.88
  -2  -1  -9    6.75    0.40
  -2  -1  -9    5.93    0.41
   2   1   9    6.01    0.44
   2   1   9    7.96    0.43
   2   1   9    7.35    0.44
  -3  -1  -9    1.88    0.25
  -3  -1  -9    1.77    0.25
   3   1   9    2.09    0.24
   3   1   9    2.54    0.24
   3   1   9    1.99    0.27
  -4  -1  -9    8.49    0.50
  -4  -1  -9    7.78    0.51
   4   1   9    8.30    0.49
   4   1   9    6.47    0.49
   4   1   9    8.29    0.51
  -5  -1  -9    2.20    0.28
  -5  -1  -9    2.23    0.27
  -5  -1  -9    3.11    0.33
   5   1   9    2.87    0.27
   5   1   9    3.12    0.31
   5   1   9    3.10    0.31
  -6  -1  -9    0.45    0.20
  -6  -1  -9    0.35    0.22
   6   1   9    0.41    0.21
   6   1   9    0.38    0.20
  -7  -1  -9    4.95    0.33
  -7  -1  -9    4.01    0.49
  -7  -1  -9    5.21    0.44
   7   1   9    4.48    0.41
   7   1   9    5.53    0.48
   7   1   9    4.29    0.44
  -8  -1  -9    0.06    0.32
  -8  -1  -9    0.27    0.28
  -8  -1  -9   -0.01    0.18
  -8  -1  -9   -0.04    0.19
   8   1   9   -0.09    0.28
   8   1   9    0.28    0.33
   8   1   9    0.36    0.37
  -9  -1  -9    0.38    0.37
  -9  -1  -9    0.16    0.20
  -9  -1  -9    0.35    0.21
  -9  -1  -9    0.14    0.40
   9   1   9    0.27    0.41
   9   1   9    0.14    0.40
   9   1   9    0.30    0.38
   6  -2  -9    1.39    0.28
   6  -2  -9    1.54    0.44
  -6   2   9    1.14    0.26
  -6   2   9    1.08    0.24
   5  -2  -9    1.89    0.34
   5  -2  -9    1.90    0.46
  -5   2   9    1.67    0.37
  -5   2   9    1.46    0.31
   4  -2  -9    1.45    0.29
   4  -2  -9    1.19    0.22
  -4   2   9    1.09    0.22
  -4   2   9    1.52    0.32
   3  -2  -9    1.46    0.27
   3  -2  -9    1.77    0.27
  -3   2   9    1.46    0.24
   2  -2  -9    1.07    0.12
  -2   2   9    0.96    0.19
   1  -2  -9    0.18    0.10
   1  -2  -9    0.06    0.10
  -1   2   9   -0.03    0.10
   0  -2  -9   43.38    1.54
   0  -2  -9   44.36    1.49
   0   2   9   46.44    1.50
   0   2   9   42.87    1.74
  -1  -2  -9   50.84    1.88
  -1  -2  -9   55.84    1.84
   1   2   9   51.01    2.01
   1   2   9   57.01    1.84
   1   2   9   57.93    1.90
  -2  -2  -9   59.08    2.01
  -2  -2  -9   55.65    2.06
   2   2   9   59.94    2.01
   2   2   9   61.95    2.08
   2   2   9   59.11    2.16
  -3  -2  -9  166.47    5.14
  -3  -2  -9  166.44    5.20
   3   2   9  163.26    5.25
   3   2   9  164.50    5.18
   3   2   9  164.24    5.12
  -4  -2  -9    2.36    0.26
  -4  -2  -9    1.75    0.27
   4   2   9    2.46    0.26
   4   2   9    1.98    0.25
  -5  -2  -9   77.85    2.71
  -5  -2  -9   74.01    2.68
   5   2   9   78.45    2.68
  -6  -2  -9    0.10    0.26
  -6  -2  -9    0.27    0.18
  -7  -2  -9    9.43    0.51
  -7  -2  -9   10.23    0.63
  -7  -2  -9   10.46    0.62
   7   2   9   10.62    0.65
   7   2   9   10.50    0.61
  -8  -2  -9    3.62    0.50
  -8  -2  -9    3.61    0.45
  -8  -2  -9    3.74    0.31
   8   2   9    4.55    0.44
   8   2   9    5.37    0.58
  -9  -2  -9    1.53    0.23
  -9  -2  -9    1.40    0.30
  -9  -2  -9    1.42    0.33
  -9  -2  -9    1.18    0.38
   9   2   9    1.20    0.35
   9   2   9    1.17    0.41
   9   2   9    0.88    0.39
 -10  -2  -9    0.35    0.45
 -10  -2  -9    0.73    0.22
  10   2   9    1.15    0.44
  10   2   9    0.55    0.49
  10   2   9    1.32    0.60
   6  -3  -9   36.67    1.71
   6  -3  -9   45.83    1.76
  -6   3   9   38.11    1.71
  -6   3   9   39.03    1.92
   5  -3  -9    5.75    0.46
  -5   3   9    6.84    0.59
  -5   3   9    5.78    0.45
   4  -3  -9  105.40    3.46
   4  -3  -9  101.49    3.53
  -4   3   9  103.68    3.65
   3  -3  -9   30.96    1.28
  -3   3   9   30.87    1.39
   2  -3  -9   28.55    0.97
   2  -3  -9   29.48    1.15
  -2   3   9   28.25    1.30
   1  -3  -9   25.78    0.93
   1  -3  -9   25.80    0.93
   1  -3  -9   26.43    1.01
   1  -3  -9   24.43    0.93
  -1   3   9   27.76    0.94
  -1   3   9   24.16    1.16
   0  -3  -9   63.15    2.16
   0  -3  -9   65.26    2.13
   0   3   9   69.40    2.15
   0   3   9   62.87    2.39
   0   3   9   68.32    2.15
  -1  -3  -9   28.92    1.14
  -1  -3  -9   30.61    1.12
   1   3   9   30.47    1.12
   1   3   9   28.85    1.29
   1   3   9   31.28    1.15
  -2  -3  -9   13.36    0.65
  -2  -3  -9   12.79    0.61
   2   3   9   12.79    0.61
   2   3   9   13.32    0.64
   2   3   9   13.47    0.74
  -3  -3  -9    5.63    0.38
  -3  -3  -9    5.26    0.36
   3   3   9    5.43    0.37
   3   3   9    4.96    0.36
  -4  -3  -9    3.56    0.33
  -4  -3  -9    3.72    0.32
   4   3   9    4.15    0.32
   4   3   9    3.60    0.31
  -5  -3  -9    2.50    0.28
  -5  -3  -9    1.72    0.31
   5   3   9    2.39    0.31
   5   3   9    1.63    0.25
  -6  -3  -9    5.30    0.40
  -6  -3  -9    5.43    0.44
   6   3   9    5.12    0.38
  -7  -3  -9    8.19    0.58
  -7  -3  -9    8.02    0.58
   7   3   9    7.83    0.51
   7   3   9    9.01    0.61
  -8  -3  -9    4.45    0.44
  -8  -3  -9    3.87    0.52
   8   3   9    5.67    0.59
  -9  -3  -9    4.72    0.62
  -9  -3  -9    3.94    0.34
  -9  -3  -9    4.77    0.51
   9   3   9    4.18    0.50
 -10  -3  -9   -0.16    0.41
 -10  -3  -9   -0.04    0.23
 -10  -3  -9    0.20    0.46
 -10  -3  -9    0.04    0.22
  10   3   9   -0.34    0.54
  10   3   9   -0.31    0.40
   5  -4  -9    0.02    0.42
   5  -4  -9    0.29    0.31
  -5   4   9    0.46    0.22
   4  -4  -9    1.22    0.33
  -4   4   9    1.14    0.21
  -3   4   9    0.45    0.17
   2  -4  -9    8.61    0.55
   2  -4  -9   10.07    0.42
  -2   4   9   10.13    0.63
   1  -4  -9    1.67    0.19
   1  -4  -9    1.89    0.28
   1  -4  -9    1.76    0.20
  -1   4   9    1.72    0.27
  -1   4   9    2.19    0.22
   0  -4  -9  119.92    3.77
   0  -4  -9  118.60    3.80
   0  -4  -9  125.28    3.92
   0   4   9  127.41    3.80
   0   4   9  121.44    3.77
   0   4   9  118.10    4.03
   0   4   9  121.05    3.71
  -1  -4  -9   16.25    0.73
  -1  -4  -9   16.06    0.71
   1   4   9   16.76    0.66
   1   4   9   17.58    0.73
   1   4   9   16.14    0.85
   1   4   9   16.28    0.71
  -2  -4  -9  161.65    5.08
  -2  -4  -9  162.34    5.07
   2   4   9  163.83    5.06
   2   4   9  170.92    4.97
   2   4   9  161.07    5.06
  -3  -4  -9  101.99    3.37
  -3  -4  -9  100.83    3.36
   3   4   9  104.68    3.27
   3   4   9  105.15    3.37
   3   4   9  105.02    3.38
  -4  -4  -9   40.00    1.57
  -4  -4  -9   41.74    1.58
   4   4   9   42.26    1.51
   4   4   9   42.57    1.58
   4   4   9   40.00    1.54
  -5  -4  -9   78.05    2.74
  -5  -4  -9   79.05    2.70
   5   4   9   73.08    2.72
   5   4   9   81.89    2.74
  -6  -4  -9   10.80    0.58
  -6  -4  -9    9.21    0.61
   6   4   9    9.51    0.55
   6   4   9    9.59    0.85
  -7  -4  -9   38.27    1.56
  -7  -4  -9   36.26    1.56
   7   4   9   39.70    1.60
  -8  -4  -9    3.05    0.52
  -8  -4  -9    2.49    0.39
   8   4   9    2.24    0.35
  -9  -4  -9    4.73    0.63
  -9  -4  -9    5.39    0.53
   9   4   9    5.14    0.69
 -10  -4  -9    2.37    0.38
 -10  -4  -9    2.55    0.43
 -10  -4  -9    1.96    0.34
 -10  -4  -9    2.81    0.36
  10   4   9    2.58    0.52
  10   4   9    1.71    0.41
   5  -5  -9    2.98    0.41
   5  -5  -9    3.38    0.52
  -5   5   9    2.86    0.37
   4  -5  -9   33.47    1.49
  -4   5   9   32.86    1.45
   3  -5  -9    2.07    0.34
  -3   5   9    2.44    0.29
   2  -5  -9  113.35    3.77
   2  -5  -9  115.91    3.49
   2  -5  -9  111.63    3.50
   2  -5  -9  114.64    3.49
  -2   5   9  110.76    3.85
  -2   5   9  111.76    3.60
   1  -5  -9    3.44    0.25
   1  -5  -9    3.27    0.35
   1  -5  -9    3.26    0.27
   1  -5  -9    3.68    0.28
  -1   5   9    3.54    0.27
  -1   5   9    3.21    0.27
  -1   5   9    3.47    0.35
   0  -5  -9   29.69    1.13
   0  -5  -9   30.27    1.15
   0  -5  -9   30.36    1.21
   0  -5  -9   29.80    1.14
   0   5   9   29.84    1.12
   0   5   9   30.90    1.12
   0   5   9   27.84    1.30
   0   5   9   31.84    1.16
  -1  -5  -9    4.43    0.32
  -1  -5  -9    4.73    0.33
   1   5   9    3.71    0.30
   1   5   9    4.35    0.38
   1   5   9    5.00    0.32
   1   5   9    4.23    0.32
  -2  -5  -9    0.15    0.14
  -2  -5  -9   -0.12    0.13
   2   5   9   -0.04    0.14
   2   5   9    0.40    0.14
  -3  -5  -9    1.56    0.23
  -3  -5  -9    2.10    0.25
   3   5   9    2.08    0.27
   3   5   9    2.02    0.26
   3   5   9    2.14    0.26
  -4  -5  -9    0.35    0.16
   4   5   9    0.25    0.14
   4   5   9    0.27    0.16
   4   5   9    0.07    0.16
  -5  -5  -9    0.00    0.19
  -5  -5  -9    0.22    0.16
   5   5   9   -0.06    0.15
   5   5   9   -0.12    0.18
  -6  -5  -9    4.56    0.45
  -6  -5  -9    5.41    0.46
   6   5   9    5.28    0.38
   6   5   9    5.09    0.45
  -7  -5  -9   11.10    0.61
  -7  -5  -9    9.46    0.67
   7   5   9    9.84    0.56
   7   5   9   10.58    0.69
  -8  -5  -9    3.30    0.37
  -8  -5  -9    2.71    0.54
   8   5   9    2.58    0.36
   8   5   9    3.82    0.57
  -9  -5  -9    1.82    0.36
  -9  -5  -9    2.31    0.47
  -9  -5  -9    1.29    0.29
   9   5   9    2.49    0.45
   9   5   9    1.97    0.30
 -10  -5  -9    0.31    0.28
 -10  -5  -9   -0.25    0.40
 -10  -5  -9   -0.23    0.52
  10   5   9   -0.43    0.57
  10   5   9    0.15    0.33
   5  -6  -9    1.46    0.59
  -5   6   9    2.04    0.37
   4  -6  -9    0.37    0.45
  -4   6   9    0.42    0.22
   3  -6  -9    0.04    0.38
  -3   6   9    0.39    0.20
   2  -6  -9    4.05    0.29
   2  -6  -9    4.05    0.31
   2  -6  -9    3.56    0.43
   2  -6  -9    4.24    0.31
  -2   6   9    4.40    0.35
  -2   6   9    4.14    0.38
  -2   6   9    4.21    0.30
   1  -6  -9    0.20    0.15
   1  -6  -9    0.02    0.14
   1  -6  -9    0.09    0.16
   1  -6  -9   -0.10    0.23
  -1   6   9    0.36    0.15
  -1   6   9    0.07    0.16
  -1   6   9   -0.01    0.16
   0  -6  -9   29.79    1.17
   0  -6  -9   30.06    1.26
   0  -6  -9   29.48    1.17
   0  -6  -9   29.15    1.15
   0   6   9   29.56    1.33
   0   6   9   31.45    1.18
   0   6   9   30.29    1.15
   0   6   9   30.47    1.16
  -1  -6  -9   31.92    1.26
  -1  -6  -9   32.74    1.27
  -1  -6  -9   31.22    1.25
   1   6   9   32.19    1.41
   1   6   9   33.91    1.26
   1   6   9   32.57    1.24
   1   6   9   32.90    1.27
  -2  -6  -9   99.27    3.35
  -2  -6  -9  104.89    3.37
   2   6   9  104.36    3.33
   2   6   9  103.70    3.38
   2   6   9  102.57    3.34
  -3  -6  -9   27.80    1.16
  -3  -6  -9   28.38    1.16
   3   6   9   27.56    1.17
   3   6   9   28.56    1.14
   3   6   9   29.50    1.15
  -4  -6  -9  122.05    4.01
  -4  -6  -9  122.28    4.05
   4   6   9  123.96    4.30
   4   6   9  121.99    3.97
   4   6   9  128.47    4.02
  -5  -6  -9    1.08    0.22
  -5  -6  -9    1.07    0.24
   5   6   9    1.24    0.20
   5   6   9    1.09    0.21
  -6  -6  -9   62.74    2.32
   6   6   9   66.24    2.37
   6   6   9   62.33    2.25
  -7  -6  -9    2.12    0.32
  -7  -6  -9    2.57    0.36
   7   6   9    2.37    0.32
   7   6   9    2.42    0.37
  -8  -6  -9   18.08    0.88
  -8  -6  -9   17.04    0.96
   8   6   9   20.23    1.13
   8   6   9   17.58    0.85
  -9  -6  -9   10.62    0.64
  -9  -6  -9   10.77    0.60
  -9  -6  -9   11.03    0.85
   9   6   9    9.52    0.61
   9   6   9   12.26    0.88
 -10  -6  -9   -0.24    0.53
 -10  -6  -9    0.13    0.30
 -10  -6  -9   -0.55    0.40
  10   6   9    0.32    0.59
  10   6   9    0.41    0.37
   4  -7  -9    3.84    0.73
  -4   7   9    5.18    0.45
   3  -7  -9   44.04    1.73
   3  -7  -9   48.04    1.99
   3  -7  -9   50.49    1.67
  -3   7   9   47.89    1.91
   2  -7  -9   37.90    1.36
   2  -7  -9   39.65    1.41
   2  -7  -9   35.85    1.36
  -2   7   9   37.93    1.34
  -2   7   9   36.87    1.44
  -2   7   9   36.97    1.34
  -2   7   9   37.94    1.59
   1  -7  -9   27.82    1.26
   1  -7  -9   27.90    1.10
   1  -7  -9   25.40    1.26
   1  -7  -9   27.87    1.09
  -1   7   9   26.84    1.24
  -1   7   9   28.32    1.10
  -1   7   9   28.22    1.08
  -1   7   9   27.16    1.13
   0  -7  -9   87.91    3.57
   0  -7  -9   93.38    3.22
   0  -7  -9   91.91    3.05
   0  -7  -9   93.10    3.08
   0   7   9   94.25    3.09
   0   7   9   92.14    3.26
   0   7   9   94.80    3.05
   0   7   9   96.75    3.09
  -1  -7  -9    9.59    0.55
  -1  -7  -9    9.86    0.60
  -1  -7  -9    9.85    0.54
  -1  -7  -9   10.23    0.59
   1   7   9    9.93    0.53
   1   7   9    9.72    0.55
   1   7   9    9.71    0.64
   1   7   9    9.59    0.59
  -2  -7  -9   45.11    1.75
  -2  -7  -9   46.61    1.72
  -2  -7  -9   45.20    1.70
   2   7   9   46.80    1.70
   2   7   9   44.14    1.74
   2   7   9   46.29    1.68
  -3  -7  -9    2.03    0.28
  -3  -7  -9    1.98    0.29
  -3  -7  -9    1.56    0.29
   3   7   9    1.47    0.30
   3   7   9    1.66    0.32
  -4  -7  -9    0.42    0.20
   4   7   9    0.37    0.21
  -5  -7  -9    0.70    0.21
  -5  -7  -9    0.93    0.19
   5   7   9    0.83    0.17
   5   7   9    0.56    0.21
   5   7   9    0.61    0.23
  -6  -7  -9    0.65    0.18
  -6  -7  -9    0.64    0.26
   6   7   9    0.88    0.28
   6   7   9    1.00    0.28
  -7  -7  -9    6.59    0.47
  -7  -7  -9    6.65    0.61
   7   7   9    5.72    0.45
   7   7   9    8.07    0.65
  -8  -7  -9    0.96    0.25
  -8  -7  -9    0.81    0.24
   8   7   9    1.47    0.43
   8   7   9    0.54    0.23
  -9  -7  -9    1.56    0.49
  -9  -7  -9    2.52    0.43
  -9  -7  -9    2.41    0.37
   9   7   9    2.00    0.49
   9   7   9    1.48    0.28
 -10  -7  -9    4.54    0.59
 -10  -7  -9    5.60    0.53
 -10  -7  -9    5.74    0.95
  10   7   9    4.41    0.57
   3  -8  -9    2.29    0.36
   3  -8  -9    1.63    0.26
   3  -8  -9    1.83    0.49
  -3   8   9    2.46    0.35
  -3   8   9    1.91    0.32
   2  -8  -9    0.83    0.37
   2  -8  -9    0.97    0.24
   2  -8  -9    1.60    0.32
   2  -8  -9    1.31    0.24
  -2   8   9    1.21    0.21
  -2   8   9    1.22    0.22
   1  -8  -9   26.51    1.12
   1  -8  -9   28.25    1.10
   1  -8  -9   23.99    1.38
   1  -8  -9   26.28    1.10
  -1   8   9   26.22    1.06
  -1   8   9   26.60    1.14
  -1   8   9   27.73    1.23
   0  -8  -9    8.47    0.64
   0  -8  -9    9.72    0.56
   0  -8  -9    9.76    0.56
   0   8   9    9.61    0.62
   0   8   9    9.24    0.56
   0   8   9    9.16    0.65
   0   8   9   10.15    0.55
  -1  -8  -9   63.37    2.37
  -1  -8  -9   65.19    2.28
  -1  -8  -9   60.99    2.34
  -1  -8  -9   60.77    2.23
   1   8   9   64.80    2.29
   1   8   9   64.80    2.23
   1   8   9   64.92    2.28
  -2  -8  -9   77.80    2.77
  -2  -8  -9   78.41    2.79
  -2  -8  -9   80.26    2.78
   2   8   9   81.70    2.79
   2   8   9   81.84    2.81
   2   8   9   83.08    2.76
  -3  -8  -9  101.90    3.48
  -3  -8  -9  102.38    3.51
  -3  -8  -9  104.87    3.49
   3   8   9  104.15    3.49
   3   8   9  107.19    3.46
  -4  -8  -9  106.45    3.61
  -4  -8  -9  104.57    3.60
  -4  -8  -9  104.58    3.61
   4   8   9  111.08    3.56
   4   8   9  107.93    3.62
  -5  -8  -9    8.38    0.52
  -5  -8  -9    8.43    0.57
   5   8   9    8.34    0.60
   5   8   9    8.77    0.50
   5   8   9    8.94    0.57
  -6  -8  -9   60.16    2.27
  -6  -8  -9   61.08    2.18
   6   8   9   57.46    2.13
   6   8   9   55.62    2.45
   6   8   9   62.07    2.32
  -7  -8  -9    0.29    0.22
  -7  -8  -9    0.11    0.33
   7   8   9    0.11    0.33
   7   8   9   -0.23    0.23
  -8  -8  -9   16.32    0.82
  -8  -8  -9   16.03    0.97
   8   8   9   15.03    0.79
   8   8   9   16.64    1.00
  -9  -8  -9    4.21    0.86
  -9  -8  -9    2.97    0.51
   9   8   9    4.91    0.88
   9   8   9    3.41    0.48
 -10  -8  -9    5.73    0.62
  10   8   9    7.51    1.11
  10   8   9    4.80    0.60
   3  -9  -9   22.92    1.11
   3  -9  -9   22.74    1.00
   3  -9  -9   22.89    0.97
   3  -9  -9   22.80    1.30
  -3   9   9   22.04    1.06
  -3   9   9   21.24    0.93
  -3   9   9   23.24    1.06
   2  -9  -9    2.23    0.45
   2  -9  -9    2.52    0.39
   2  -9  -9    2.16    0.47
   2  -9  -9    2.37    0.42
  -2   9   9    1.76    0.35
  -2   9   9    2.06    0.45
  -2   9   9    1.79    0.28
  -2   9   9    1.85    0.27
   1  -9  -9   37.64    1.45
   1  -9  -9   37.66    1.46
   1  -9  -9   38.10    1.67
   1  -9  -9   35.38    1.45
  -1   9   9   37.19    1.57
  -1   9   9   36.50    1.44
  -1   9   9   38.03    1.44
   0  -9  -9    2.41    0.38
   0  -9  -9    3.01    0.39
   0  -9  -9    1.96    0.36
   0  -9  -9    2.54    0.36
   0   9   9    2.37    0.33
   0   9   9    3.04    0.39
   0   9   9    2.46    0.39
   0   9   9    2.46    0.38
  -1  -9  -9   21.85    1.28
  -1  -9  -9   23.24    1.04
  -1  -9  -9   22.17    1.02
  -1  -9  -9   24.37    1.05
   1   9   9   22.44    1.06
   1   9   9   24.03    1.02
   1   9   9   20.87    1.20
  -2  -9  -9    9.67    0.59
  -2  -9  -9    9.42    0.59
  -2  -9  -9    9.34    0.61
   2   9   9   10.15    0.59
  -3  -9  -9    2.27    0.38
  -3  -9  -9    2.53    0.33
  -3  -9  -9    2.85    0.38
   3   9   9    2.91    0.37
   3   9   9    2.75    0.35
  -4  -9  -9    3.73    0.40
  -4  -9  -9    2.65    0.34
  -4  -9  -9    2.71    0.40
   4   9   9    2.95    0.36
  -5  -9  -9   14.28    0.74
  -5  -9  -9   14.14    0.80
  -5  -9  -9   13.92    0.80
   5   9   9   15.16    0.74
   5   9   9   14.31    0.80
   5   9   9   13.06    0.79
  -6  -9  -9    0.55    0.31
  -6  -9  -9    0.32    0.32
   6   9   9    0.37    0.22
   6   9   9    0.54    0.30
   6   9   9    0.81    0.31
  -7  -9  -9    2.80    0.44
  -7  -9  -9    2.55    0.57
   7   9   9    3.54    0.58
   7   9   9    3.05    0.39
  -8  -9  -9    0.50    0.30
  -8  -9  -9    0.90    0.33
  -8  -9  -9    0.48    0.45
   8   9   9   -0.02    0.29
   8   9   9    0.84    0.43
  -9  -9  -9    0.35    0.34
  -9  -9  -9    0.88    0.50
  -9  -9  -9    1.04    0.52
   9   9   9    0.91    0.56
   9   9   9    0.41    0.32
   2 -10  -9    2.06    0.37
   2 -10  -9    2.25    0.59
   2 -10  -9    2.55    0.52
   2 -10  -9    2.08    0.48
  -2  10   9    1.85    0.37
  -2  10   9    2.22    0.38
  -2  10   9    1.58    0.34
  -2  10   9    2.31    0.48
   1 -10  -9    1.49    0.32
   1 -10  -9    1.34    0.37
   1 -10  -9    2.05    0.33
   1 -10  -9    1.52    0.30
   1 -10  -9    1.47    0.47
  -1  10   9    0.86    0.42
  -1  10   9    1.29    0.36
  -1  10   9    1.32    0.32
  -1  10   9    1.55    0.33
   0 -10  -9   -0.13    0.39
   0 -10  -9   -0.18    0.30
   0 -10  -9    0.19    0.28
   0  10   9    0.22    0.21
   0  10   9    0.66    0.29
   0  10   9   -0.06    0.28
   0  10   9    0.11    0.32
  -1 -10  -9   26.98    1.16
  -1 -10  -9   26.45    1.18
  -1 -10  -9   25.15    1.14
  -1 -10  -9   25.41    1.27
   1  10   9   26.61    1.15
   1  10   9   26.58    1.17
  -2 -10  -9   -0.35    0.27
  -2 -10  -9    0.20    0.29
  -2 -10  -9    0.17    0.23
   2  10   9    0.07    0.24
   2  10   9   -0.02    0.28
   2  10   9    0.27    0.30
  -3 -10  -9   59.48    2.21
  -3 -10  -9   58.86    2.22
  -3 -10  -9   59.68    2.25
   3  10   9   60.01    2.17
   3  10   9   58.86    2.23
  -4 -10  -9    0.74    0.20
   4  10   9    0.72    0.33
   4  10   9    0.85    0.26
  -5 -10  -9   30.20    1.29
  -5 -10  -9   26.62    1.27
  -5 -10  -9   27.13    1.34
  -5 -10  -9   27.32    1.21
   5  10   9   26.95    1.26
   5  10   9   28.21    1.19
  -6 -10  -9    2.07    0.39
  -6 -10  -9    3.56    0.49
  -6 -10  -9    3.84    0.55
  -6 -10  -9    2.47    0.58
   6  10   9    3.24    0.43
   6  10   9    2.60    0.36
  -7 -10  -9   25.59    1.23
  -7 -10  -9   24.67    1.32
  -7 -10  -9   22.79    1.09
  -7 -10  -9   23.35    1.22
   7  10   9   24.64    1.22
   7  10   9   25.19    1.23
   7  10   9   23.38    1.06
  -8 -10  -9    8.95    0.65
  -8 -10  -9    9.74    0.73
  -8 -10  -9   10.57    0.88
  -8 -10  -9    9.83    0.87
   8  10   9    9.91    0.98
   8  10   9    9.72    0.64
  -9 -10  -9    0.67    0.37
  -9 -10  -9    0.71    0.65
  -9 -10  -9    0.97    0.62
  -9 -10  -9    1.00    0.39
   9  10   9    1.19    0.66
   9  10   9    1.03    0.38
   1 -11  -9   27.86    1.37
   1 -11  -9   29.63    1.50
   1 -11  -9   27.70    1.28
   1 -11  -9   30.39    1.31
   1 -11  -9   28.21    1.59
  -1  11   9   28.64    1.24
  -1  11   9   29.75    1.31
  -1  11   9   30.58    1.27
  -1  11   9   28.62    1.32
   0 -11  -9    5.18    0.59
   0 -11  -9    6.15    0.72
   0 -11  -9    6.66    0.63
   0 -11  -9    5.31    0.58
   0 -11  -9    5.61    0.70
   0  11   9    5.63    0.59
   0  11   9    5.80    0.58
   0  11   9    6.35    0.49
  -1 -11  -9   29.08    1.25
  -1 -11  -9   26.99    1.23
  -1 -11  -9   31.07    1.30
  -1 -11  -9   28.72    1.40
  -1 -11  -9   25.01    1.34
   1  11   9   27.38    1.22
   1  11   9   27.35    1.24
   1  11   9   27.31    1.23
  -2 -11  -9    0.74    0.31
  -2 -11  -9    1.39    0.40
  -2 -11  -9    0.37    0.28
  -2 -11  -9    0.82    0.34
   2  11   9    0.93    0.34
   2  11   9    1.05    0.34
   2  11   9    0.68    0.31
  -3 -11  -9   14.72    0.82
  -3 -11  -9   14.06    0.93
  -3 -11  -9   16.68    0.88
   3  11   9   15.31    0.81
   3  11   9   15.26    0.87
   3  11   9   16.26    0.87
  -4 -11  -9    1.66    0.40
  -4 -11  -9    1.21    0.35
  -4 -11  -9    0.97    0.36
  -4 -11  -9    0.84    0.28
   4  11   9    1.23    0.36
   4  11   9    0.82    0.27
   4  11   9    0.79    0.32
  -5 -11  -9    8.30    1.07
  -5 -11  -9    7.13    0.61
  -5 -11  -9    5.84    0.75
  -5 -11  -9    6.15    0.52
   5  11   9    7.20    0.54
   5  11   9    6.34    0.61
   5  11   9    7.06    0.68
  -6 -11  -9   10.20    1.13
  -6 -11  -9    7.43    0.57
  -6 -11  -9    7.30    0.69
  -6 -11  -9    6.83    0.89
   6  11   9    6.81    0.59
   6  11   9    9.09    0.77
   6  11   9    8.33    0.71
  -7 -11  -9    0.70    0.32
  -7 -11  -9   -0.09    0.42
  -7 -11  -9    1.05    0.50
  -7 -11  -9    0.47    0.46
   7  11   9    0.43    0.75
   7  11   9    0.85    0.35
   7  11   9    0.29    0.45
  -8 -11  -9    2.97    0.56
  -8 -11  -9    3.20    0.65
  -8 -11  -9    3.39    0.61
  -8 -11  -9    4.92    0.88
   8  11   9    3.83    0.81
   8  11   9    4.43    0.92
   8  11   9    3.31    0.56
   0 -12  -9    3.83    0.86
   0 -12  -9    6.21    0.66
   0 -12  -9    4.47    0.74
   0 -12  -9    4.77    0.70
   0 -12  -9    5.30    0.66
   0  12   9    5.89    0.70
   0  12   9    6.52    0.68
   0  12   9    6.37    0.70
   0  12   9    6.35    0.47
  -1 -12  -9    3.19    0.75
  -1 -12  -9    5.13    0.70
  -1 -12  -9    3.34    0.61
  -1 -12  -9    4.35    0.62
   1  12   9    3.72    0.61
   1  12   9    4.19    0.64
   1  12   9    4.16    0.65
  -2 -12  -9    8.74    0.84
  -2 -12  -9   10.66    0.75
  -2 -12  -9   10.76    0.74
  -2 -12  -9    9.50    0.68
   2  12   9    9.54    0.71
   2  12   9    7.56    0.68
   2  12   9    9.52    0.74
  -3 -12  -9   17.54    0.94
  -3 -12  -9   19.47    1.02
  -3 -12  -9   19.05    1.04
  -3 -12  -9   16.34    1.12
   3  12   9   18.53    0.96
   3  12   9   18.69    1.01
   3  12   9   18.21    1.08
  -4 -12  -9   12.15    0.80
  -4 -12  -9   11.01    0.89
  -4 -12  -9   10.52    0.70
   4  12   9   11.14    0.74
   4  12   9   12.13    0.83
   4  12   9   10.95    0.80
  -5 -12  -9   39.37    1.72
  -5 -12  -9   39.44    1.63
  -5 -12  -9   41.77    1.73
  -5 -12  -9   38.14    1.80
   5  12   9   37.41    1.66
   5  12   9   37.36    1.85
   5  12   9   39.57    1.60
  -6 -12  -9    0.47    0.34
  -6 -12  -9    0.48    0.44
   6  12   9    0.68    0.53
   6  12   9    1.05    0.50
   6  12   9    0.36    0.35
  -7 -12  -9   15.64    0.90
  -7 -12  -9   16.73    1.10
  -7 -12  -9   17.86    1.11
  -7 -12  -9   20.72    1.13
   7  12   9   16.42    0.93
   7  12   9   19.56    1.15
   7  12   9   18.12    1.11
  -8 -12  -9    0.48    0.70
  -8 -12  -9    1.24    0.70
  -8 -12  -9    0.60    0.54
  -8 -12  -9    0.28    0.40
   8  12   9    1.12    0.65
   8  12   9    1.79    0.64
   8  12   9    1.07    0.47
  -2 -13  -9    1.10    0.62
  -2 -13  -9    0.13    0.52
  -2 -13  -9    0.15    0.50
  -2 -13  -9    0.42    0.42
   2  13   9    0.62    0.45
   2  13   9    0.26    0.52
  -3 -13  -9    0.98    0.48
  -3 -13  -9    1.53    0.65
  -3 -13  -9    1.01    0.48
   3  13   9    1.48    0.47
   3  13   9    1.43    0.52
   3  13   9    0.40    0.52
  -4 -13  -9   -0.14    0.48
  -4 -13  -9    0.41    0.60
  -4 -13  -9   -0.46    0.49
  -4 -13  -9    0.24    0.39
   4  13   9    0.24    0.54
   4  13   9    0.05    0.38
   4  13   9   -0.32    0.45
  -5 -13  -9    0.87    0.38
  -5 -13  -9    0.33    0.68
  -5 -13  -9    0.86    0.55
  -5 -13  -9   -0.30    0.57
   5  13   9    0.58    0.47
   5  13   9    0.84    0.54
   5  13   9    1.12    0.55
  -6 -13  -9    0.34    0.37
  -6 -13  -9    0.65    0.60
  -6 -13  -9    1.15    0.55
  -6 -13  -9    1.51    0.58
   6  13   9    0.63    0.56
   6  13   9    1.02    0.47
   6  13   9    1.70    0.77
   3   9 -10    0.97    0.39
   3   9 -10    0.31    0.54
   3   9 -10    0.80    0.43
  -3  -9  10    0.26    0.44
  -3  -9  10    0.51    0.46
   2   9 -10    3.36    0.59
   2   9 -10    3.01    0.54
   2   9 -10    2.47    0.42
  -2  -9  10    2.62    0.48
  -2  -9  10    1.70    0.47
  -2  -9  10    2.17    0.45
   1   9 -10    0.73    0.40
   1   9 -10    0.81    0.39
   1   9 -10    1.16    0.38
   1   9 -10    0.63    0.45
  -1  -9  10    0.66    0.44
  -1  -9  10    1.13    0.52
  -1  -9  10    1.07    0.50
   0   9 -10    3.00    0.63
   0   9 -10    2.10    0.65
   0   9 -10    2.75    0.42
   0   9 -10    3.46    0.63
   0  -9  10    2.60    0.49
   0  -9  10    3.50    0.67
   0  -9  10    3.07    0.54
  -1   9 -10   -0.38    0.46
  -1   9 -10    0.16    0.49
  -1   9 -10   -0.32    0.48
  -1   9 -10   -0.47    0.41
  -1   9 -10    0.47    0.34
   1  -9  10   -0.15    0.51
   1  -9  10   -0.07    0.57
  -2   9 -10    1.60    0.54
  -2   9 -10    2.21    0.50
  -2   9 -10    1.70    0.41
  -2   9 -10    1.04    0.54
  -2   9 -10    3.27    0.75
   2  -9  10    2.45    0.66
   2  -9  10    2.07    0.70
   4   8 -10    0.48    0.37
   4   8 -10   -0.20    0.32
   4   8 -10   -0.35    0.33
   4   8 -10    0.28    0.50
  -4  -8  10    0.01    0.33
  -4  -8  10    0.12    0.37
   3   8 -10    1.04    0.48
   3   8 -10    0.38    0.32
   3   8 -10    0.32    0.36
   3   8 -10    0.34    0.32
  -3  -8  10    0.33    0.34
  -3  -8  10    0.34    0.37
   2   8 -10    0.18    0.32
   2   8 -10    0.13    0.35
   2   8 -10    0.45    0.46
   2   8 -10    0.50    0.30
  -2  -8  10    0.78    0.37
  -2  -8  10   -0.04    0.35
  -2  -8  10    1.24    0.42
   1   8 -10   -0.01    0.33
   1   8 -10   -0.09    0.33
   1   8 -10    0.11    0.32
   1   8 -10    0.02    0.43
  -1  -8  10    0.05    0.38
  -1  -8  10    0.01    0.36
  -1  -8  10   -0.12    0.41
   0   8 -10   -0.47    0.35
   0   8 -10    0.36    0.43
   0   8 -10   -0.44    0.35
   0   8 -10   -0.31    0.36
   0  -8  10    0.49    0.59
   0  -8  10    0.15    0.42
   0  -8  10   -0.03    0.38
  -1   8 -10    3.10    0.58
  -1   8 -10    3.08    0.57
  -1   8 -10    2.68    0.52
  -1   8 -10    3.08    0.65
   1  -8  10    3.65    0.59
   1  -8  10    3.30    0.69
  -2   8 -10    1.59    0.44
  -2   8 -10    2.66    0.49
  -2   8 -10    2.20    0.35
  -2   8 -10    1.10    0.40
   2  -8  10    1.99    0.44
   2  -8  10    1.77    0.51
  -3   8 -10    0.21    0.54
  -3   8 -10    0.34    0.40
  -3   8 -10    0.28    0.54
   3  -8  10   -0.01    0.49
   3  -8  10    0.09    0.63
   3  -8  10   -0.21    0.55
  -4   8 -10    3.59    0.66
  -4   8 -10    3.72    0.64
   4  -8  10    4.01    0.72
   4  -8  10    4.57    0.90
   4  -8  10    4.26    0.83
   5   7 -10    0.92    0.27
   5   7 -10    1.05    0.49
   5   7 -10    1.49    0.50
  -5  -7  10    1.11    0.31
   4   7 -10    0.08    0.39
   4   7 -10   -0.15    0.43
   4   7 -10    0.19    0.31
   4   7 -10    0.12    0.27
  -4  -7  10    0.08    0.27
  -4  -7  10    0.45    0.30
  -4  -7  10    0.15    0.28
   3   7 -10    7.11    0.51
   3   7 -10    8.12    0.75
   3   7 -10    7.78    0.49
   3   7 -10    7.81    0.56
  -3  -7  10    8.01    0.54
  -3  -7  10    6.42    0.50
   2   7 -10    0.85    0.28
   2   7 -10    0.94    0.26
   2   7 -10    0.93    0.38
  -2  -7  10    0.44    0.29
  -2  -7  10    1.28    0.31
   1   7 -10    3.49    0.46
   1   7 -10    4.37    0.44
   1   7 -10    3.96    0.59
   1   7 -10    3.85    0.46
  -1  -7  10    3.77    0.50
  -1  -7  10    4.74    0.46
   0   7 -10    3.32    0.47
   0   7 -10    5.10    0.60
   0   7 -10    4.24    0.46
   0   7 -10    4.87    0.45
   0  -7  10    4.27    0.48
   0  -7  10    4.20    0.53
  -1   7 -10    0.71    0.31
  -1   7 -10    0.99    0.29
  -1   7 -10    1.15    0.32
   1  -7  10    0.55    0.39
   1  -7  10    1.26    0.31
  -2   7 -10    2.08    0.46
  -2   7 -10    1.42    0.37
  -2   7 -10    1.43    0.36
  -2   7 -10    0.92    0.38
   2  -7  10    1.19    0.37
   2  -7  10    1.40    0.42
  -3   7 -10    0.60    0.38
  -3   7 -10    0.31    0.45
  -3   7 -10    0.60    0.46
   3  -7  10    0.61    0.54
   3  -7  10    0.47    0.38
   3  -7  10    0.57    0.40
  -4   7 -10   -0.12    0.39
  -4   7 -10    0.11    0.53
  -4   7 -10    0.23    0.50
  -4   7 -10    0.10    0.38
   4  -7  10    0.62    0.63
   4  -7  10    0.02    0.42
   4  -7  10    0.23    0.49
  -5   7 -10    5.87    0.82
  -5   7 -10    4.44    0.91
  -5   7 -10    5.84    0.65
   5  -7  10    5.77    1.06
   5  -7  10    6.48    0.83
   5  -7  10    5.32    0.91
   5   6 -10    5.50    0.70
  -5  -6  10    4.78    0.48
   4   6 -10    0.59    0.39
   4   6 -10    0.55    0.22
   4   6 -10    0.30    0.28
  -4  -6  10    0.50    0.25
   3   6 -10    1.89    0.41
   3   6 -10    2.00    0.37
   3   6 -10    2.30    0.32
   3   6 -10    2.61    0.33
  -3  -6  10    2.22    0.37
  -3  -6  10    2.20    0.39
   2   6 -10    0.18    0.24
   2   6 -10    0.25    0.34
   2   6 -10    0.36    0.21
   2   6 -10    0.37    0.23
  -2  -6  10    0.46    0.23
  -2  -6  10    0.48    0.27
  -2  -6  10    0.01    0.26
   1   6 -10    5.46    0.43
   1   6 -10    5.10    0.42
   1   6 -10    5.22    0.55
   1   6 -10    5.15    0.45
  -1  -6  10    5.77    0.45
  -1  -6  10    5.61    0.50
  -1  -6  10    4.09    0.45
   0   6 -10   11.84    0.66
   0   6 -10   11.52    0.75
   0   6 -10   11.26    0.66
   0   6 -10   12.24    0.70
   0  -6  10   12.42    0.67
   0  -6  10   12.39    0.70
   0  -6  10   11.32    0.73
  -1   6 -10    5.47    0.56
  -1   6 -10    6.74    0.47
  -1   6 -10    6.08    0.49
  -1   6 -10    5.64    0.52
   1  -6  10    5.70    0.47
   1  -6  10    6.44    0.57
   1  -6  10    5.78    0.48
  -2   6 -10    3.19    0.48
  -2   6 -10    3.06    0.48
   2  -6  10    2.90    0.39
   2  -6  10    3.42    0.54
   2  -6  10    2.98    0.51
  -3   6 -10   14.07    0.79
  -3   6 -10   13.74    0.85
   3  -6  10   13.35    0.66
   3  -6  10   13.41    0.76
   3  -6  10   13.01    0.84
   3  -6  10   14.21    0.72
  -4   6 -10    5.10    0.56
  -4   6 -10    4.05    0.68
  -4   6 -10    4.65    0.49
   4  -6  10    5.22    0.59
   4  -6  10    5.00    0.61
   4  -6  10    4.70    0.75
  -5   6 -10    1.01    0.51
  -5   6 -10    1.57    0.37
  -5   6 -10    0.71    0.40
   5  -6  10    1.13    0.57
   5  -6  10    0.97    0.43
  -6   6 -10    3.12    0.68
  -6   6 -10    3.22    0.59
  -6   6 -10    2.33    0.66
   6  -6  10    1.60    0.65
   6  -6  10    2.40    0.67
   6  -6  10    4.26    0.85
   6   5 -10    5.59    0.54
   6   5 -10    5.39    0.71
  -6  -5  10    5.92    0.53
   5   5 -10    5.24    0.62
  -5  -5  10    5.86    0.48
   4   5 -10    8.56    0.43
   4   5 -10    9.16    0.69
  -4  -5  10    9.51    0.69
  -4  -5  10    8.97    0.54
   3   5 -10   18.23    0.76
   3   5 -10   18.11    0.79
   3   5 -10   18.34    1.01
  -3  -5  10   19.26    0.76
  -3  -5  10   18.52    1.08
  -3  -5  10   16.98    0.79
   2   5 -10    4.72    0.52
   2   5 -10    3.97    0.38
   2   5 -10    4.47    0.34
  -2  -5  10    5.12    0.48
  -2  -5  10    4.57    0.37
  -2  -5  10    4.58    0.39
   1   5 -10   69.34    2.68
   1   5 -10   67.12    2.39
   1   5 -10   67.74    2.43
  -1  -5  10   68.80    2.69
  -1  -5  10   73.15    2.45
   0   5 -10    0.50    0.21
   0   5 -10    0.19    0.22
   0   5 -10    0.73    0.28
   0  -5  10    0.38    0.24
   0  -5  10    0.66    0.23
  -1   5 -10   54.96    2.19
  -1   5 -10   55.49    2.13
   1  -5  10   53.71    2.15
   1  -5  10   58.19    2.15
  -2   5 -10    9.94    0.66
  -2   5 -10    8.45    0.63
   2  -5  10    9.59    0.65
   2  -5  10    9.51    0.57
  -3   5 -10    9.18    0.62
  -3   5 -10    8.45    0.65
   3  -5  10    9.78    0.55
   3  -5  10    8.52    0.72
   3  -5  10   10.14    0.60
  -4   5 -10    6.11    0.49
  -4   5 -10    4.99    0.57
   4  -5  10    5.00    0.65
   4  -5  10    5.88    0.52
   4  -5  10    5.56    0.53
   4  -5  10    5.86    0.43
  -5   5 -10    0.70    0.39
  -5   5 -10    1.12    0.34
  -5   5 -10    0.67    0.31
   5  -5  10    1.17    0.38
   5  -5  10    0.72    0.43
   5  -5  10    0.28    0.45
   5  -5  10    1.07    0.28
  -6   5 -10    0.80    0.52
  -6   5 -10    1.96    0.34
  -6   5 -10    1.56    0.41
   6  -5  10    1.86    0.53
   6  -5  10    1.52    0.54
   6  -5  10    1.51    0.45
   6   4 -10    2.05    0.50
   6   4 -10    2.57    0.40
  -6  -4  10    2.69    0.46
  -5  -4  10    1.81    0.35
  -5  -4  10    1.98    0.39
   4   4 -10    5.77    0.32
   4   4 -10    6.86    0.59
  -4  -4  10    6.66    0.47
  -4  -4  10    6.93    0.59
   3   4 -10   16.44    0.66
   3   4 -10   17.55    0.71
   3   4 -10   16.44    0.68
   3   4 -10   17.28    0.94
  -3  -4  10   16.18    0.98
  -3  -4  10   13.76    0.74
  -3  -4  10   16.86    0.64
   2   4 -10    2.08    0.24
   2   4 -10    2.31    0.41
   2   4 -10    1.93    0.29
   2   4 -10    1.99    0.26
  -2  -4  10    1.89    0.34
  -2  -4  10    1.93    0.29
  -2  -4  10    1.75    0.29
   1   4 -10    1.55    0.34
   1   4 -10    2.14    0.36
   1   4 -10    1.54    0.26
   1   4 -10    2.31    0.26
  -1  -4  10    1.59    0.30
  -1  -4  10    1.72    0.31
  -1  -4  10    2.11    0.27
   0   4 -10    1.90    0.26
   0   4 -10    1.73    0.29
   0   4 -10    2.10    0.38
   0  -4  10    2.51    0.29
   0  -4  10    2.13    0.31
   0  -4  10    1.95    0.31
  -1   4 -10    0.44    0.21
  -1   4 -10    0.66    0.17
   1  -4  10    0.57    0.20
   1  -4  10    0.37    0.21
   1  -4  10    0.46    0.23
  -2   4 -10    0.54    0.22
  -2   4 -10    0.55    0.17
   2  -4  10    0.66    0.22
   2  -4  10    0.38    0.27
  -3   4 -10    1.17    0.24
  -3   4 -10    0.78    0.24
  -3   4 -10    1.11    0.22
   3  -4  10    1.26    0.25
   3  -4  10    0.85    0.29
  -4   4 -10    2.35    0.40
  -4   4 -10    1.48    0.34
  -4   4 -10    1.80    0.38
   4  -4  10    1.33    0.33
   4  -4  10    1.79    0.27
   4  -4  10    1.62    0.27
  -5   4 -10   13.05    0.71
  -5   4 -10   10.84    0.77
  -5   4 -10   11.84    0.68
   5  -4  10   13.01    0.69
   5  -4  10   11.97    0.60
   5  -4  10   13.52    0.72
   5  -4  10   10.44    0.80
  -6   4 -10    0.67    0.51
  -6   4 -10    1.24    0.41
   6  -4  10    0.80    0.30
   6  -4  10    1.05    0.44
   6  -4  10    1.68    0.64
   6  -4  10    0.46    0.47
  -7   4 -10    1.07    0.33
  -7   4 -10    0.27    0.37
  -7   4 -10    0.05    0.51
  -7   4 -10    1.12    0.32
   7  -4  10    0.72    0.48
   7  -4  10    0.49    0.52
   7  -4  10    1.29    0.59
   6   3 -10    4.31    0.52
   6   3 -10    3.13    0.56
  -6  -3  10    4.27    0.46
   5   3 -10    0.75    0.26
   5   3 -10    0.18    0.31
  -5  -3  10    0.36    0.25
  -5  -3  10    0.10    0.21
   4   3 -10    8.59    0.62
  -4  -3  10    8.97    0.67
  -4  -3  10    9.31    0.58
   3   3 -10    2.07    0.37
   3   3 -10    1.34    0.21
  -3  -3  10    1.74    0.31
  -3  -3  10    1.87    0.31
   2   3 -10   18.33    0.74
   2   3 -10   17.24    0.70
   2   3 -10   17.21    0.98
   2   3 -10   18.31    0.76
  -2  -3  10   16.89    0.72
  -2  -3  10   17.66    1.01
  -2  -3  10   19.34    0.71
   1   3 -10   17.68    0.79
   1   3 -10   17.16    0.96
   1   3 -10   18.35    0.76
  -1  -3  10   18.30    0.75
  -1  -3  10   18.55    0.79
  -1  -3  10   17.40    0.98
   0   3 -10   10.20    0.52
   0   3 -10    9.66    0.56
   0   3 -10    9.48    0.65
   0  -3  10    9.88    0.55
   0  -3  10   10.36    0.66
  -1   3 -10   26.18    1.08
  -1   3 -10   23.26    1.34
   1  -3  10   25.45    1.21
   1  -3  10   27.92    1.17
   1  -3  10   26.23    1.08
  -2   3 -10   10.26    0.63
  -2   3 -10   12.06    0.62
   2  -3  10   10.64    0.65
   2  -3  10   11.58    0.66
  -3   3 -10   21.07    1.27
  -3   3 -10   25.49    1.05
  -3   3 -10   21.56    1.17
   3  -3  10   23.34    1.12
   3  -3  10   22.95    1.04
  -4   3 -10    0.52    0.22
  -4   3 -10    0.72    0.28
  -4   3 -10    0.47    0.39
   4  -3  10    0.93    0.25
   4  -3  10    0.64    0.46
   4  -3  10    0.71    0.22
   4  -3  10    0.58    0.33
  -5   3 -10    6.45    0.46
  -5   3 -10    5.84    0.55
  -5   3 -10    6.09    0.49
   5  -3  10    5.88    0.56
   5  -3  10    6.56    0.46
   5  -3  10    5.55    0.46
   5  -3  10    5.74    0.49
  -6   3 -10    0.72    0.35
  -6   3 -10    0.92    0.22
  -6   3 -10    0.40    0.28
  -6   3 -10    0.70    0.27
   6  -3  10    0.55    0.31
   6  -3  10    0.97    0.42
   6  -3  10    0.91    0.31
   6  -3  10    0.81    0.38
  -7   3 -10    4.06    0.60
  -7   3 -10    4.39    0.44
  -7   3 -10    3.59    0.46
   7  -3  10    3.31    0.68
   7  -3  10    3.20    0.63
   7  -3  10    4.41    0.72
   7  -3  10    3.59    0.53
  -8   3 -10    0.63    0.53
  -8   3 -10    0.27    0.53
  -8   3 -10    0.67    0.31
  -8   3 -10    0.28    0.33
   8  -3  10    0.22    0.67
   8  -3  10    0.68    0.47
   8  -3  10    0.41    0.49
   6   2 -10   12.80    0.77
   6   2 -10   12.91    0.78
  -6  -2  10   14.50    0.88
   5   2 -10    0.19    0.28
   5   2 -10    0.49    0.28
  -5  -2  10    0.13    0.21
  -5  -2  10    0.07    0.23
   4   2 -10   39.44    1.68
  -4  -2  10   41.43    1.66
  -4  -2  10   39.68    1.82
   3   2 -10    1.31    0.17
   3   2 -10    1.55    0.28
  -3  -2  10    1.80    0.30
   2   2 -10   28.00    1.02
   2   2 -10   29.07    1.05
   2   2 -10   28.07    1.31
   2   2 -10   27.57    1.02
  -2  -2  10   29.33    0.97
  -2  -2  10   27.14    1.35
   1   2 -10   22.81    0.88
   1   2 -10   20.75    1.21
   1   2 -10   23.69    0.95
  -1  -2  10   23.28    0.92
  -1  -2  10   23.95    1.17
  -1  -2  10   24.09    0.88
   0   2 -10    9.42    0.53
   0   2 -10    8.57    0.75
   0   2 -10    9.79    0.49
   0  -2  10   10.56    0.50
   0  -2  10    9.44    0.63
   0  -2  10   10.22    0.53
  -1   2 -10   14.21    0.67
  -1   2 -10   13.85    0.79
  -1   2 -10   13.72    0.71
   1  -2  10   14.03    0.72
   1  -2  10   13.81    0.79
   1  -2  10   13.85    0.69
  -2   2 -10    3.81    0.32
  -2   2 -10    3.50    0.35
  -2   2 -10    3.42    0.38
   2  -2  10    3.45    0.36
   2  -2  10    4.21    0.33
   2  -2  10    3.20    0.35
  -3   2 -10    0.05    0.22
  -3   2 -10    0.58    0.19
   3  -2  10    0.25    0.22
   3  -2  10    0.23    0.21
  -4   2 -10    9.20    0.57
  -4   2 -10   10.35    0.58
  -4   2 -10    9.29    0.60
   4  -2  10    8.68    0.55
   4  -2  10    8.66    0.61
   4  -2  10    8.88    0.55
  -5   2 -10    1.90    0.28
  -5   2 -10    2.06    0.25
  -5   2 -10    1.75    0.25
   5  -2  10    1.44    0.38
   5  -2  10    1.72    0.37
   5  -2  10    1.59    0.26
  -6   2 -10    5.43    0.55
  -6   2 -10    6.11    0.44
  -6   2 -10    6.85    0.38
  -6   2 -10    6.04    0.52
   6  -2  10    5.30    0.57
   6  -2  10    6.27    0.53
   6  -2  10    6.82    0.52
   6  -2  10    7.19    0.49
  -7   2 -10    6.28    0.57
  -7   2 -10    4.94    0.61
  -7   2 -10    5.73    0.40
  -7   2 -10    5.42    0.46
   7  -2  10    5.50    0.51
   7  -2  10    5.62    0.65
   7  -2  10    5.36    0.60
  -8   2 -10    1.26    0.43
  -8   2 -10    1.16    0.29
  -8   2 -10    1.79    0.40
  -8   2 -10    1.10    0.51
   8  -2  10    0.96    0.57
   8  -2  10    1.64    0.40
   8  -2  10    0.52    0.53
   8  -2  10    0.66    0.45
   6   1 -10    2.84    0.50
   6   1 -10    3.08    0.68
  -6  -1  10    2.48    0.49
  -6  -1  10    2.43    0.44
   5   1 -10    7.09    0.54
   5   1 -10    6.95    0.52
  -5  -1  10    7.35    0.57
  -5  -1  10    7.95    0.61
   4   1 -10   31.79    1.38
  -4  -1  10   30.23    1.49
  -4  -1  10   31.51    1.40
   3   1 -10    7.96    0.56
  -3  -1  10    7.27    0.57
   2   1 -10  109.43    4.02
  -2  -1  10  108.81    3.83
   1   1 -10    7.73    0.59
   1   1 -10    6.74    0.39
   1   1 -10    7.02    0.36
  -1  -1  10    6.71    0.37
  -1  -1  10    6.91    0.51
  -1  -1  10    7.28    0.35
   0   1 -10   90.29    2.93
   0   1 -10   81.62    3.11
   0   1 -10   88.11    2.82
   0  -1  10   93.69    2.85
   0  -1  10   89.49    2.89
   0  -1  10   89.20    3.16
  -1   1 -10   32.17    1.29
  -1   1 -10   28.93    1.36
  -1   1 -10   31.86    1.21
   1  -1  10   33.30    1.22
   1  -1  10   32.24    1.27
   1  -1  10   32.98    1.41
  -2   1 -10   52.72    1.88
  -2   1 -10   51.20    2.02
  -2   1 -10   52.77    1.99
   2  -1  10   52.83    1.89
   2  -1  10   53.14    2.04
   2  -1  10   54.79    1.98
  -3   1 -10   22.38    0.95
  -3   1 -10   18.85    0.99
  -3   1 -10   21.07    0.99
   3  -1  10   21.29    1.01
   3  -1  10   20.51    0.99
  -4   1 -10   22.00    0.98
  -4   1 -10   20.70    0.94
  -4   1 -10   19.59    1.00
   4  -1  10   19.77    0.94
   4  -1  10   19.12    0.99
   4  -1  10   19.65    0.91
  -5   1 -10   13.43    0.77
  -5   1 -10   12.52    0.67
   5  -1  10   12.26    0.65
   5  -1  10   12.97    0.61
   5  -1  10   12.95    0.69
  -6   1 -10    2.42    0.43
  -6   1 -10    2.27    0.42
  -6   1 -10    2.62    0.28
  -6   1 -10    2.00    0.34
   6  -1  10    1.78    0.30
   6  -1  10    1.89    0.41
   6  -1  10    1.85    0.41
   6  -1  10    2.03    0.39
  -7   1 -10    3.99    0.53
  -7   1 -10    4.34    0.40
  -7   1 -10    4.60    0.35
   7  -1  10    4.60    0.55
   7  -1  10    4.77    0.47
   7  -1  10    3.85    0.55
   7  -1  10    3.67    0.57
  -8   1 -10    1.33    0.22
  -8   1 -10    1.23    0.28
  -8   1 -10    0.82    0.39
  -8   1 -10    1.44    0.38
   8  -1  10    1.64    0.42
   8  -1  10    1.64    0.42
   8  -1  10    0.72    0.48
   8  -1  10    0.79    0.38
   9  -1  10    0.21    0.51
   6   0 -10    3.18    0.59
   6   0 -10    3.47    0.49
  -6   0  10    2.31    0.42
  -6   0  10    2.41    0.45
   5   0 -10    6.72    0.53
   5   0 -10    7.28    0.55
  -5   0  10    7.27    0.58
  -5   0  10    7.33    0.61
   4   0 -10   22.46    0.96
   4   0 -10   24.02    1.10
  -4   0  10   21.20    1.15
  -4   0  10   23.56    1.17
   3   0 -10    4.87    0.42
  -3   0  10    4.95    0.45
  -2   0  10   35.96    1.59
   1   0 -10    5.93    0.48
   1   0 -10    6.50    0.33
   1   0 -10    7.26    0.37
  -1   0  10    7.34    0.34
  -1   0  10    5.68    0.50
   0   0 -10   24.56    0.93
   0   0 -10   26.30    1.01
   0   0 -10   23.51    1.13
   0   0  10   25.29    0.93
   0   0  10   24.35    1.18
   0   0  10   24.89    0.98
  -1   0 -10   11.63    0.54
  -1   0 -10   10.83    0.59
  -1   0 -10   10.03    0.63
   1   0  10   11.20    0.54
   1   0  10   12.25    0.60
   1   0  10   10.53    0.64
  -2   0 -10    1.12    0.24
  -2   0 -10    1.04    0.18
  -2   0 -10    0.74    0.19
   2   0  10    0.97    0.21
   2   0  10    1.02    0.22
   2   0  10    0.81    0.17
  -3   0 -10    2.29    0.29
  -3   0 -10    1.72    0.29
  -3   0 -10    2.57    0.29
   3   0  10    2.32    0.30
   3   0  10    2.29    0.30
   3   0  10    2.39    0.28
  -4   0 -10   31.44    1.68
  -4   0 -10   35.19    1.43
  -4   0 -10   36.91    1.41
   4   0  10   34.99    1.46
   4   0  10   34.92    1.45
   4   0  10   34.54    1.39
  -5   0 -10    8.19    0.53
  -5   0 -10    7.14    0.46
  -5   0 -10    7.09    0.51
   5   0  10    7.08    0.48
   5   0  10    7.15    0.41
   5   0  10    6.52    0.52
   5   0  10    6.66    0.46
  -6   0 -10    8.10    0.58
  -6   0 -10    7.00    0.45
  -6   0 -10    7.99    0.57
   6   0  10    7.50    0.49
   6   0  10    6.88    0.49
   6   0  10    7.88    0.55
   6   0  10    8.16    0.55
  -7   0 -10    2.25    0.33
  -7   0 -10    2.93    0.52
  -7   0 -10    2.24    0.35
  -7   0 -10    2.62    0.30
   7   0  10    2.19    0.48
   7   0  10    2.30    0.44
   7   0  10    3.45    0.52
   7   0  10    2.69    0.50
  -8   0 -10    5.12    0.59
  -8   0 -10    4.12    0.42
  -8   0 -10    4.48    0.61
  -8   0 -10    5.19    0.39
   8   0  10    4.84    0.63
   8   0  10    5.68    0.64
   8   0  10    5.11    0.52
   8   0  10    5.06    0.61
  -9   0 -10    1.25    0.43
  -9   0 -10    1.68    0.32
  -9   0 -10    1.42    0.25
  -9   0 -10    1.34    0.44
   9   0  10    2.31    0.44
   9   0  10    1.48    0.54
   9   0  10    1.96    0.47
   9   0  10    0.99    0.50
   6  -1 -10    0.60    0.33
   6  -1 -10    1.22    0.45
  -6   1  10    0.53    0.26
   5  -1 -10    0.27    0.28
   5  -1 -10    0.76    0.34
  -5   1  10    0.99    0.29
  -5   1  10    0.48    0.22
   4  -1 -10    9.66    0.59
   4  -1 -10    9.48    0.59
  -4   1  10   10.16    0.69
   3  -1 -10    2.93    0.45
  -3   1  10    3.02    0.38
   2  -1 -10   16.62    0.88
  -2   1  10   15.28    0.90
   1  -1 -10   18.70    0.73
   1  -1 -10   19.72    0.99
   1  -1 -10   19.78    0.77
  -1   1  10   21.34    0.74
  -1   1  10   19.22    1.03
   0  -1 -10   98.03    3.10
   0  -1 -10   93.35    3.32
   0  -1 -10   97.90    3.03
   0   1  10   97.67    3.07
   0   1  10  100.16    3.03
   0   1  10   92.18    3.34
  -1  -1 -10    1.15    0.20
  -1  -1 -10    1.31    0.22
   1   1  10    1.38    0.22
   1   1  10    1.72    0.20
   1   1  10    1.50    0.24
  -2  -1 -10   45.71    1.80
  -2  -1 -10   50.47    1.74
   2   1  10   50.11    1.74
   2   1  10   47.92    1.90
   2   1  10   51.43    1.83
  -3  -1 -10    0.46    0.17
  -3  -1 -10    0.24    0.15
   3   1  10    0.29    0.17
   3   1  10    0.31    0.16
   3   1  10    0.30    0.16
  -4  -1 -10   21.54    1.00
  -4  -1 -10   22.04    0.95
  -4  -1 -10   20.29    0.96
   4   1  10   21.20    0.98
   4   1  10   21.19    1.01
   4   1  10   17.19    1.04
  -5  -1 -10    4.25    0.36
  -5  -1 -10    4.07    0.40
  -5  -1 -10    3.24    0.38
   5   1  10    4.04    0.34
   5   1  10    3.93    0.38
   5   1  10    3.67    0.38
  -6  -1 -10   21.99    1.04
  -6  -1 -10   20.40    0.92
  -6  -1 -10   20.40    1.00
   6   1  10   20.16    1.03
   6   1  10   22.72    0.92
  -7  -1 -10    0.72    0.26
  -7  -1 -10    0.58    0.20
  -7  -1 -10    0.44    0.30
   7   1  10    0.72    0.29
   7   1  10    0.67    0.28
   7   1  10    0.66    0.42
  -8  -1 -10    4.51    0.38
  -8  -1 -10    4.60    0.36
  -8  -1 -10    4.04    0.56
   8   1  10    5.06    0.65
   8   1  10    3.21    0.56
   8   1  10    3.38    0.54
  -9  -1 -10    2.06    0.44
  -9  -1 -10    1.71    0.27
  -9  -1 -10    1.72    0.39
   9   1  10    1.90    0.46
   9   1  10    1.28    0.42
   5  -2 -10    5.15    0.58
  -5   2  10    4.94    0.55
  -5   2  10    4.50    0.45
   4  -2 -10    2.34    0.36
   4  -2 -10    2.08    0.40
  -4   2  10    2.27    0.33
   3  -2 -10   38.84    1.76
   3  -2 -10   44.90    1.56
  -3   2  10   39.83    1.76
   2  -2 -10    5.06    0.50
   2  -2 -10    5.65    0.26
  -2   2  10    5.61    0.48
   1  -2 -10   33.03    1.20
   1  -2 -10   35.00    1.19
  -1   2  10   36.20    1.17
  -1   2  10   30.82    1.47
   0  -2 -10   23.05    0.89
   0  -2 -10   23.38    0.94
   0   2  10   23.72    0.89
   0   2  10   23.13    1.13
   0   2  10   23.90    0.91
  -1  -2 -10    1.09    0.19
  -1  -2 -10    1.35    0.22
   1   2  10    1.53    0.27
   1   2  10    1.48    0.20
  -2  -2 -10    7.48    0.49
  -2  -2 -10    8.28    0.46
   2   2  10    7.93    0.44
   2   2  10    7.98    0.56
  -3  -2 -10   12.79    0.69
  -3  -2 -10   13.89    0.67
   3   2  10   14.28    0.67
   3   2  10   13.28    0.75
  -4  -2 -10    2.89    0.32
   4   2  10    2.69    0.51
   4   2  10    3.15    0.32
  -5  -2 -10   53.83    2.05
   5   2  10   56.34    2.05
  -6  -2 -10   32.09    1.37
  -6  -2 -10   32.91    1.40
   6   2  10   31.94    1.56
  -7  -2 -10    0.43    0.26
  -7  -2 -10    0.56    0.19
   7   2  10    0.60    0.28
   7   2  10    0.46    0.33
   7   2  10    0.31    0.25
  -8  -2 -10   14.88    0.71
  -8  -2 -10   16.26    0.88
  -8  -2 -10   15.66    0.85
   8   2  10   16.46    0.90
   8   2  10   16.90    0.86
   8   2  10   14.56    0.78
  -9  -2 -10   -0.21    0.41
  -9  -2 -10    0.33    0.37
  -9  -2 -10    0.38    0.21
  -9  -2 -10    0.41    0.24
   9   2  10    0.23    0.42
   9   2  10    0.65    0.44
   9   2  10    0.00    0.40
   5  -3 -10    1.92    0.43
   5  -3 -10    1.77    0.42
  -5   3  10    2.65    0.36
   4  -3 -10    2.36    0.35
   4  -3 -10    2.79    0.36
  -4   3  10    1.68    0.34
   3  -3 -10   23.62    1.07
   3  -3 -10   23.08    1.02
  -3   3  10   22.76    1.17
   2  -3 -10    2.26    0.18
   2  -3 -10    2.43    0.31
  -2   3  10    2.49    0.32
   1  -3 -10  153.41    4.54
   1  -3 -10  145.71    4.53
   1  -3 -10  153.25    4.52
  -1   3  10  144.42    4.92
   0  -3 -10   69.85    2.29
   0  -3 -10   67.55    2.32
   0   3  10   72.63    2.31
   0   3  10   75.57    2.31
   0   3  10   67.50    2.58
  -1  -3 -10  128.03    3.99
  -1  -3 -10  122.98    4.04
   1   3  10  133.07    4.04
   1   3  10  123.56    4.24
   1   3  10  131.55    4.00
  -2  -3 -10  104.45    3.54
  -2  -3 -10  109.41    3.49
   2   3  10  104.70    3.68
   2   3  10  112.93    3.55
   2   3  10  113.31    3.50
  -3  -3 -10   48.58    1.79
  -3  -3 -10   49.71    1.85
   3   3  10   51.28    1.85
   3   3  10   49.89    1.80
   3   3  10   49.03    1.94
  -4  -3 -10   70.98    2.50
  -4  -3 -10   72.12    2.53
   4   3  10   72.84    2.33
   4   3  10   73.43    2.53
   4   3  10   66.48    2.93
  -5  -3 -10    0.58    0.20
   5   3  10    0.52    0.19
   5   3  10    0.83    0.19
  -6  -3 -10   43.10    1.91
  -6  -3 -10   47.63    1.84
   6   3  10   49.32    1.84
   6   3  10   46.64    1.82
  -7  -3 -10    0.95    0.29
  -7  -3 -10    0.78    0.24
   7   3  10    1.20    0.28
  -8  -3 -10    6.20    0.52
  -8  -3 -10    4.84    0.59
   8   3  10    5.02    0.50
   8   3  10    6.40    0.65
  -9  -3 -10    0.71    0.36
  -9  -3 -10    0.10    0.23
  -9  -3 -10    0.83    0.42
   9   3  10    0.51    0.33
   9   3  10    0.41    0.41
  10   3  10    0.93    0.65
  10   3  10    0.60    0.47
   5  -4 -10    9.39    0.81
   5  -4 -10    9.73    0.63
  -5   4  10   10.28    0.68
   4  -4 -10    0.76    0.26
   4  -4 -10    0.88    0.38
  -4   4  10    0.68    0.22
   3  -4 -10   36.11    1.49
  -3   4  10   36.30    1.61
   2  -4 -10    0.75    0.17
  -2   4  10    0.39    0.19
   1  -4 -10   20.48    0.82
   1  -4 -10   20.78    0.83
   1  -4 -10   22.27    0.92
   1  -4 -10   20.65    0.81
  -1   4  10   21.98    0.82
  -1   4  10   20.32    1.06
   0  -4 -10    0.78    0.18
   0  -4 -10    0.45    0.14
   0  -4 -10    0.53    0.14
   0   4  10    0.36    0.12
   0   4  10    0.51    0.15
  -1  -4 -10    3.44    0.30
  -1  -4 -10    2.45    0.27
   1   4  10    2.91    0.29
   1   4  10    2.58    0.27
   1   4  10    3.69    0.35
  -2  -4 -10    3.78    0.32
  -2  -4 -10    3.90    0.32
   2   4  10    3.63    0.31
   2   4  10    3.45    0.35
   2   4  10    3.59    0.32
  -3  -4 -10    2.85    0.29
   3   4  10    2.19    0.28
   3   4  10    2.44    0.27
  -4  -4 -10    3.32    0.34
  -4  -4 -10    3.83    0.33
   4   4  10    3.09    0.31
   4   4  10    3.44    0.29
  -5  -4 -10   37.27    1.48
  -5  -4 -10   33.35    1.60
   5   4  10   35.82    1.45
   5   4  10   37.35    1.47
  -6  -4 -10    0.75    0.22
  -6  -4 -10    0.87    0.35
   6   4  10    0.85    0.18
   6   4  10    1.22    0.24
  -7  -4 -10   10.05    0.69
  -7  -4 -10   10.08    0.61
   7   4  10   11.54    0.70
   7   4  10    8.90    0.57
  -8  -4 -10   15.06    0.83
  -8  -4 -10   17.71    0.93
   8   4  10   17.09    0.93
   8   4  10   14.40    0.79
  -9  -4 -10    1.46    0.33
  -9  -4 -10    1.36    0.46
   9   4  10    2.02    0.48
 -10  -4 -10    2.81    0.45
 -10  -4 -10    2.89    0.42
 -10  -4 -10    2.89    0.67
   4  -5 -10    1.87    0.44
  -4   5  10    1.08    0.26
   3  -5 -10   15.60    0.85
  -3   5  10   14.56    0.87
   2  -5 -10    3.48    0.26
   2  -5 -10    3.61    0.42
  -2   5  10    4.07    0.38
   1  -5 -10   45.70    1.60
   1  -5 -10   45.42    1.94
   1  -5 -10   47.41    1.61
   1  -5 -10   48.09    1.60
  -1   5  10   46.53    1.90
  -1   5  10   44.38    1.60
  -1   5  10   48.00    1.60
   0  -5 -10   -0.07    0.15
   0  -5 -10    0.33    0.14
   0  -5 -10    0.20    0.18
   0  -5 -10    0.18    0.15
   0   5  10    0.12    0.16
   0   5  10    0.01    0.15
   0   5  10    0.11    0.14
   0   5  10    0.15    0.14
  -1  -5 -10   78.02    2.63
  -1  -5 -10   75.61    2.59
   1   5  10   78.16    2.58
   1   5  10   74.72    2.82
   1   5  10   81.53    2.62
   1   5  10   80.65    2.51
  -2  -5 -10    0.07    0.14
  -2  -5 -10   -0.11    0.15
   2   5  10   -0.02    0.15
   2   5  10   -0.09    0.16
   2   5  10    0.08    0.16
   2   5  10   -0.02    0.15
  -3  -5 -10   74.79    2.56
  -3  -5 -10   73.67    2.55
   3   5  10   75.71    2.44
   3   5  10   71.90    2.52
  -4  -5 -10   -0.05    0.29
  -4  -5 -10    0.34    0.20
   4   5  10   -0.10    0.18
  -5  -5 -10   57.88    2.20
  -5  -5 -10   58.72    2.16
   5   5  10   58.24    2.14
   5   5  10   61.75    2.12
   5   5  10   61.00    2.21
  -6  -5 -10   14.06    0.88
  -6  -5 -10   14.88    0.77
   6   5  10   15.01    0.82
   6   5  10   14.28    0.74
  -7  -5 -10    4.91    0.55
  -7  -5 -10    5.70    0.45
   7   5  10    6.75    0.74
   7   5  10    4.52    0.41
  -8  -5 -10    7.67    0.84
  -8  -5 -10    7.87    0.54
   8   5  10    6.95    0.50
   8   5  10    8.05    0.70
  -9  -5 -10   -0.12    0.31
  -9  -5 -10   -0.21    0.46
   9   5  10    0.03    0.31
   9   5  10    0.40    0.54
 -10  -5 -10    0.27    0.47
 -10  -5 -10    0.84    0.32
 -10  -5 -10    1.55    0.96
  10   5  10    0.11    0.64
   4  -6 -10   28.05    1.40
  -4   6  10   29.60    1.35
   3  -6 -10    7.39    0.65
  -3   6  10    8.03    0.58
   2  -6 -10   51.83    2.16
   2  -6 -10   61.49    1.95
   2  -6 -10   59.58    1.94
   2  -6 -10   58.54    2.21
  -2   6  10   60.21    2.05
  -2   6  10   58.05    2.30
   1  -6 -10   28.29    1.09
   1  -6 -10   27.99    1.07
   1  -6 -10   29.70    1.12
   1  -6 -10   29.09    1.25
  -1   6  10   27.42    1.31
  -1   6  10   28.04    1.11
   0  -6 -10   31.91    1.24
   0  -6 -10   31.68    1.21
   0  -6 -10   32.91    1.32
   0  -6 -10   32.31    1.22
   0   6  10   32.91    1.20
   0   6  10   32.43    1.20
   0   6  10   31.32    1.43
   0   6  10   26.71    1.41
  -1  -6 -10   36.38    1.45
  -1  -6 -10   38.22    1.45
  -1  -6 -10   38.19    1.50
   1   6  10   38.21    1.42
   1   6  10   36.37    1.62
   1   6  10   41.14    1.42
   1   6  10   38.66    1.50
  -2  -6 -10    4.64    0.36
  -2  -6 -10    3.85    0.49
   2   6  10    4.11    0.37
   2   6  10    4.13    0.34
   2   6  10    5.37    0.36
  -3  -6 -10   14.93    0.73
  -3  -6 -10   13.67    0.89
   3   6  10   14.87    0.74
   3   6  10   14.69    0.72
   3   6  10   15.09    0.71
  -4  -6 -10    0.51    0.18
  -4  -6 -10    0.46    0.16
   4   6  10    0.74    0.20
   4   6  10    0.82    0.18
  -5  -6 -10    0.44    0.21
  -5  -6 -10    0.47    0.17
   5   6  10    0.10    0.18
   5   6  10    0.45    0.22
   5   6  10    0.85    0.22
  -6  -6 -10   19.67    0.97
  -6  -6 -10   19.17    0.91
   6   6  10   20.24    0.97
   6   6  10   16.99    1.02
  -7  -6 -10   11.27    0.84
  -7  -6 -10   10.26    0.61
   7   6  10   10.83    0.73
   7   6  10    9.36    0.57
  -8  -6 -10    1.97    0.39
   8   6  10    1.75    0.40
  -9  -6 -10    7.10    0.84
  -9  -6 -10    7.88    0.61
   9   6  10    8.69    0.87
   9   6  10    6.81    0.54
 -10  -6 -10    0.02    0.35
 -10  -6 -10    0.16    0.40
  10   6  10    0.31    0.42
  10   6  10    1.23    0.62
   3  -7 -10   -0.17    0.46
  -3   7  10    0.16    0.23
   2  -7 -10   22.97    1.21
   2  -7 -10   25.38    0.98
   2  -7 -10   26.09    1.00
   2  -7 -10   24.04    0.98
  -2   7  10   25.61    0.96
  -2   7  10   26.04    1.07
  -2   7  10   25.07    1.22
   1  -7 -10    7.63    0.61
   1  -7 -10    7.37    0.45
   1  -7 -10    7.44    0.46
   1  -7 -10    7.23    0.45
  -1   7  10    7.41    0.45
  -1   7  10    7.45    0.54
  -1   7  10    7.30    0.46
  -1   7  10    8.12    0.43
   0  -7 -10   71.53    2.47
   0  -7 -10   70.45    2.43
   0  -7 -10   70.84    2.58
   0  -7 -10   70.26    2.45
   0   7  10   74.73    2.45
   0   7  10   74.32    2.47
   0   7  10   74.46    2.43
   0   7  10   68.42    2.66
  -1  -7 -10   59.98    2.17
  -1  -7 -10   62.54    2.18
  -1  -7 -10   60.47    2.16
   1   7  10   61.67    2.18
   1   7  10   57.34    2.34
   1   7  10   63.16    2.14
   1   7  10   64.64    2.15
  -2  -7 -10   28.39    1.20
  -2  -7 -10   28.33    1.19
  -2  -7 -10   29.07    1.20
   2   7  10   28.53    1.21
   2   7  10   30.10    1.19
   2   7  10   29.76    1.18
  -3  -7 -10   97.08    3.27
  -3  -7 -10   95.44    3.25
   3   7  10   99.51    3.23
   3   7  10   95.43    3.38
   3   7  10   96.93    3.21
  -4  -7 -10    4.44    0.38
  -4  -7 -10    5.04    0.41
   4   7  10    4.11    0.37
   4   7  10    4.81    0.42
  -5  -7 -10   21.55    1.02
  -5  -7 -10   20.84    0.98
   5   7  10   20.96    1.06
   5   7  10   21.37    0.96
   5   7  10   22.48    1.00
  -6  -7 -10    1.08    0.21
  -6  -7 -10    1.14    0.32
   6   7  10    0.82    0.22
  -7  -7 -10   33.61    1.41
  -7  -7 -10   35.04    1.65
   7   7  10   37.19    1.55
   7   7  10   32.82    1.37
  -8  -7 -10    2.24    0.42
  -8  -7 -10    2.45    0.47
   8   7  10    3.15    0.70
   8   7  10    2.36    0.41
  -9  -7 -10    0.73    0.31
   9   7  10    1.49    0.54
   9   7  10    0.83    0.30
  10   7  10    2.87    0.42
   3  -8 -10    0.86    0.54
  -3   8  10    0.33    0.25
   2  -8 -10   32.38    1.21
   2  -8 -10   31.01    1.46
   2  -8 -10   30.34    1.21
   2  -8 -10   32.40    1.23
  -2   8  10   32.23    1.45
  -2   8  10   31.02    1.16
  -2   8  10   29.90    1.19
   1  -8 -10    0.27    0.23
   1  -8 -10    0.39    0.25
   1  -8 -10    0.67    0.37
   1  -8 -10    0.28    0.23
  -1   8  10    0.38    0.29
  -1   8  10    0.04    0.22
  -1   8  10    0.30    0.22
   0  -8 -10   44.52    1.65
   0  -8 -10   42.95    1.61
   0  -8 -10   43.49    1.63
   0  -8 -10   42.17    1.75
   0   8  10   41.62    1.79
   0   8  10   43.28    1.59
  -1  -8 -10   12.37    0.65
  -1  -8 -10   12.05    0.66
  -1  -8 -10   12.18    0.67
   1   8  10   11.63    0.73
   1   8  10   11.97    0.64
   1   8  10   13.29    0.67
  -2  -8 -10    4.18    0.37
  -2  -8 -10    4.08    0.37
  -2  -8 -10    3.84    0.37
   2   8  10    4.24    0.38
   2   8  10    4.31    0.40
  -3  -8 -10   12.04    0.66
  -3  -8 -10   12.43    0.70
  -3  -8 -10   12.78    0.69
   3   8  10   12.71    0.69
   3   8  10   12.89    0.66
  -4  -8 -10    5.26    0.42
  -4  -8 -10    5.93    0.48
  -4  -8 -10    6.16    0.47
   4   8  10    5.83    0.48
   4   8  10    5.58    0.40
  -5  -8 -10    0.34    0.20
  -5  -8 -10    0.19    0.29
   5   8  10    0.08    0.29
   5   8  10    0.49    0.21
   5   8  10    0.82    0.28
  -6  -8 -10   11.01    0.71
  -6  -8 -10   10.43    0.62
   6   8  10    9.91    0.69
   6   8  10    9.82    0.69
   6   8  10   10.29    0.60
  -7  -8 -10    5.30    0.63
  -7  -8 -10    4.56    0.45
   7   8  10    4.62    0.67
   7   8  10    3.81    0.43
   7   8  10    4.15    0.63
  -8  -8 -10    1.94    0.32
  -8  -8 -10    1.96    0.31
  -8  -8 -10    2.71    0.47
   8   8  10    2.77    0.46
   8   8  10    2.10    0.43
  -9  -8 -10    7.03    0.59
  -9  -8 -10    7.77    0.59
  -9  -8 -10    7.81    0.94
   9   8  10    5.80    0.97
   9   8  10    6.00    0.56
   2  -9 -10   13.48    0.72
   2  -9 -10   14.09    0.69
   2  -9 -10   12.81    0.71
   2  -9 -10   13.35    0.96
  -2   9  10   12.09    0.66
  -2   9  10   12.92    0.75
  -2   9  10   13.82    0.78
   1  -9 -10    0.17    0.43
   1  -9 -10    0.36    0.28
   1  -9 -10    0.45    0.28
   1  -9 -10    0.73    0.28
  -1   9  10    0.06    0.27
  -1   9  10    0.24    0.31
  -1   9  10    0.33    0.46
  -1   9  10   -0.13    0.23
   0  -9 -10   39.73    1.60
   0  -9 -10   39.46    1.57
   0  -9 -10   38.95    1.71
   0  -9 -10   41.10    1.60
   0   9  10   42.45    1.74
   0   9  10   42.15    1.55
   0   9  10   39.94    1.56
   0   9  10   39.98    1.73
  -1  -9 -10    0.53    0.25
  -1  -9 -10    0.15    0.23
  -1  -9 -10    0.33    0.26
   1   9  10    0.53    0.24
   1   9  10    0.20    0.27
   1   9  10    0.59    0.27
   1   9  10    0.91    0.20
  -2  -9 -10   27.65    1.24
  -2  -9 -10   29.80    1.25
  -2  -9 -10   29.28    1.24
   2   9  10   29.00    1.21
   2   9  10   30.03    1.27
  -3  -9 -10    6.74    0.49
  -3  -9 -10    5.40    0.44
  -3  -9 -10    4.89    0.49
   3   9  10    5.21    0.46
   3   9  10    5.71    0.50
  -4  -9 -10   22.44    1.08
  -4  -9 -10   22.17    1.03
  -4  -9 -10   22.65    1.07
   4   9  10   23.75    1.02
  -5  -9 -10    2.76    0.35
  -5  -9 -10    3.15    0.46
  -5  -9 -10    2.50    0.37
   5   9  10    2.74    0.47
   5   9  10    2.83    0.48
  -6  -9 -10   11.01    0.71
  -6  -9 -10   10.29    0.74
  -6  -9 -10   10.07    0.61
   6   9  10    9.10    0.57
   6   9  10   10.62    0.71
   6   9  10   10.30    0.74
  -7  -9 -10    5.58    0.68
  -7  -9 -10    5.18    0.49
   7   9  10    6.18    0.70
   7   9  10    4.88    0.49
  -8  -9 -10    1.18    0.47
  -8  -9 -10    1.86    0.32
  -8  -9 -10    2.15    0.50
   8   9  10    2.43    0.86
   8   9  10    1.94    0.46
  -9  -9 -10   -0.18    0.63
  -9  -9 -10    0.19    0.39
  -9  -9 -10    0.98    0.40
   9   9  10    0.40    0.60
   9   9  10    0.87    0.39
   1 -10 -10   20.17    1.00
   1 -10 -10   20.89    1.19
   1 -10 -10   21.00    1.01
   1 -10 -10   21.82    1.10
  -1  10  10   22.30    0.98
  -1  10  10   20.41    1.01
  -1  10  10   20.44    0.97
  -1  10  10   21.57    1.08
   0 -10 -10   26.30    1.17
   0 -10 -10   26.85    1.18
   0 -10 -10   25.57    1.17
   0 -10 -10   25.64    1.31
   0  10  10   26.77    1.13
   0  10  10   24.69    1.25
   0  10  10   26.09    1.14
   0  10  10   27.13    1.17
  -1 -10 -10    7.08    0.57
  -1 -10 -10    8.47    0.61
  -1 -10 -10    8.20    0.57
   1  10  10    7.72    0.59
   1  10  10    7.99    0.57
   1  10  10    7.98    0.58
  -2 -10 -10   32.53    1.40
  -2 -10 -10   32.85    1.40
  -2 -10 -10   32.98    1.38
   2  10  10   34.22    1.36
   2  10  10   31.65    1.39
  -3 -10 -10    3.78    0.43
  -3 -10 -10    4.25    0.46
  -3 -10 -10    3.71    0.49
   3  10  10    3.40    0.51
   3  10  10    4.62    0.56
   3  10  10    3.08    0.45
  -4 -10 -10   20.93    1.01
  -4 -10 -10   20.20    0.98
   4  10  10   19.41    0.94
   4  10  10   21.03    1.01
   4  10  10   21.72    1.18
  -5 -10 -10   17.00    0.95
  -5 -10 -10   17.12    0.89
  -5 -10 -10   19.74    0.97
   5  10  10   18.21    0.88
   5  10  10   18.70    0.98
  -6 -10 -10    3.35    0.60
  -6 -10 -10    2.66    0.44
  -6 -10 -10    3.95    0.56
  -6 -10 -10    3.01    0.61
   6  10  10    2.65    0.58
   6  10  10    2.89    0.61
   6  10  10    3.73    0.46
  -7 -10 -10    1.62    0.30
  -7 -10 -10    2.03    0.45
  -7 -10 -10    2.50    0.56
   7  10  10    1.49    0.43
   7  10  10    0.94    0.44
   7  10  10    1.54    0.33
  -8 -10 -10   10.15    0.72
  -8 -10 -10    8.66    0.95
  -8 -10 -10    9.42    0.67
  -8 -10 -10   10.02    0.91
   8  10  10    7.52    0.65
   8  10  10    9.19    0.87
  -9 -10 -10    1.50    0.66
  -9 -10 -10   -0.17    0.40
  -9 -10 -10    0.62    0.45
  -9 -10 -10   -0.31    0.69
   9  10  10    0.59    0.72
   9  10  10    1.32    0.68
   0 -11 -10   15.36    0.86
   0 -11 -10   14.00    0.81
   0 -11 -10   13.15    0.97
   0 -11 -10   13.71    1.00
   0 -11 -10   11.74    0.80
   0  11  10   12.15    0.85
   0  11  10   15.12    0.82
   0  11  10   12.86    0.79
   0  11  10   14.21    0.82
  -1 -11 -10   16.78    0.93
  -1 -11 -10   15.57    1.01
  -1 -11 -10   16.52    0.89
  -1 -11 -10   17.95    0.95
   1  11  10   17.35    0.92
   1  11  10   14.66    0.89
   1  11  10   15.64    0.87
   1  11  10   16.05    0.88
  -2 -11 -10   24.13    1.11
  -2 -11 -10   21.09    1.24
  -2 -11 -10   23.65    1.15
  -2 -11 -10   21.46    1.08
   2  11  10   22.73    1.11
   2  11  10   24.10    1.08
   2  11  10   23.16    1.11
  -3 -11 -10    7.44    0.77
  -3 -11 -10    8.79    0.61
  -3 -11 -10    9.96    0.67
   3  11  10    8.49    0.63
   3  11  10    8.54    0.66
   3  11  10    9.07    0.85
  -4 -11 -10   44.21    1.78
  -4 -11 -10   46.71    1.84
  -4 -11 -10   46.96    1.86
  -4 -11 -10   39.99    2.01
   4  11  10   45.38    1.84
   4  11  10   45.62    1.84
   4  11  10   45.12    1.76
  -5 -11 -10    0.66    0.42
  -5 -11 -10    0.06    0.28
  -5 -11 -10    0.31    0.40
  -5 -11 -10    0.45    0.40
   5  11  10   -0.26    0.34
   5  11  10    0.28    0.40
   5  11  10    0.12    0.43
  -6 -11 -10   23.68    1.24
  -6 -11 -10   22.52    1.09
  -6 -11 -10   27.65    1.31
   6  11  10   23.27    1.18
   6  11  10   23.34    1.12
   6  11  10   23.85    1.35
  -7 -11 -10    0.49    0.50
  -7 -11 -10    0.22    0.54
  -7 -11 -10    0.05    0.43
  -7 -11 -10   -0.27    0.33
   7  11  10    0.52    0.37
   7  11  10    0.75    0.52
   7  11  10   -0.46    0.53
  -8 -11 -10    5.66    0.63
  -8 -11 -10    8.01    0.99
  -8 -11 -10    6.35    0.76
  -8 -11 -10    5.98    1.00
   8  11  10    6.89    1.00
   8  11  10    7.39    0.86
  -1 -12 -10    7.24    0.82
  -1 -12 -10    5.45    0.89
  -1 -12 -10    7.26    0.72
  -1 -12 -10    5.52    0.69
   1  12  10    7.14    0.56
   1  12  10    6.07    0.72
   1  12  10    7.12    0.70
  -2 -12 -10    6.05    0.64
  -2 -12 -10    7.04    0.86
   2  12  10    7.66    0.69
   2  12  10    5.83    0.65
   2  12  10    6.07    0.69
  -3 -12 -10    0.31    0.57
  -3 -12 -10   -0.03    0.43
  -3 -12 -10    0.42    0.38
  -3 -12 -10    0.45    0.45
   3  12  10    0.24    0.41
   3  12  10    0.73    0.37
   3  12  10    0.59    0.47
  -4 -12 -10    4.16    0.58
  -4 -12 -10    3.97    0.82
  -4 -12 -10    2.82    0.54
  -4 -12 -10    4.43    0.68
   4  12  10    3.86    0.67
   4  12  10    4.00    0.62
   4  12  10    4.36    0.69
  -5 -12 -10    3.76    0.79
  -5 -12 -10    4.22    0.71
  -5 -12 -10    6.55    0.72
  -5 -12 -10    5.53    0.58
   5  12  10    5.26    0.76
   5  12  10    4.86    0.63
   5  12  10    6.03    0.74
  -6 -12 -10    0.67    0.50
  -6 -12 -10    0.02    0.51
  -6 -12 -10    0.60    0.41
  -6 -12 -10    0.85    0.55
   6  12  10    0.49    0.44
   6  12  10    0.25    0.58
   6  12  10    0.05    0.56
  -7 -12 -10    6.63    0.67
  -7 -12 -10    7.36    0.92
  -7 -12 -10    8.43    0.89
  -7 -12 -10    6.25    0.93
   7  12  10    7.68    0.95
   7  12  10    7.13    0.94
   7  12  10    7.26    0.72
  -4 -13 -10    8.29    0.84
  -4 -13 -10    6.18    0.69
   4  13  10    7.79    0.89
  -5 -13 -10    5.51    0.69
  -5 -13 -10    7.25    1.33
   5  13  10    7.19    0.87
   3   8 -11    0.36    0.59
   3   8 -11   -0.03    0.43
   3   8 -11    0.05    0.35
   3   8 -11   -0.11    0.38
  -3  -8  11   -0.20    0.40
  -3  -8  11    0.24    0.44
   2   8 -11    6.32    0.58
   2   8 -11    4.97    0.91
   2   8 -11    5.93    0.55
   2   8 -11    5.14    0.65
  -2  -8  11    6.34    0.65
   1   8 -11    1.94    0.36
   1   8 -11    1.59    0.39
   1   8 -11    1.16    0.40
   1   8 -11    1.59    0.54
  -1  -8  11    2.17    0.42
  -1  -8  11    1.18    0.46
   0   8 -11    3.98    0.54
   0   8 -11    5.41    1.01
   0   8 -11    2.93    0.64
   0   8 -11    3.57    0.61
   0  -8  11    3.49    0.52
   0  -8  11    3.85    0.65
  -1   8 -11    1.60    0.50
  -1   8 -11    2.36    0.46
  -1   8 -11    1.70    0.50
   1  -8  11    1.96    0.53
   1  -8  11    2.12    0.48
  -2   8 -11    3.28    0.54
  -2   8 -11    3.55    0.81
   2  -8  11    3.26    0.57
   2  -8  11    2.29    0.60
   4   7 -11    0.81    0.53
   4   7 -11    0.76    0.36
   4   7 -11    0.30    0.31
  -4  -7  11    0.03    0.36
  -4  -7  11    0.59    0.30
   3   7 -11    0.47    0.37
   3   7 -11   -0.31    0.49
   3   7 -11    0.02    0.31
  -3  -7  11    0.40    0.32
  -3  -7  11   -0.07    0.35
   2   7 -11    1.17    0.46
   2   7 -11    1.10    0.32
   2   7 -11    0.74    0.34
   2   7 -11    1.35    0.30
  -2  -7  11    1.76    0.37
  -2  -7  11    1.45    0.33
   1   7 -11    1.17    0.43
   1   7 -11    0.87    0.34
   1   7 -11    1.18    0.31
   1   7 -11    1.07    0.32
  -1  -7  11    1.32    0.38
  -1  -7  11    1.50    0.36
   0   7 -11    0.14    0.34
   0   7 -11    0.38    0.33
   0   7 -11    0.13    0.33
   0   7 -11    0.48    0.42
   0  -7  11   -0.05    0.29
   0  -7  11    0.15    0.36
   0  -7  11    0.04    0.41
  -1   7 -11    0.57    0.37
  -1   7 -11    0.17    0.36
  -1   7 -11    0.88    0.43
   1  -7  11    0.62    0.29
   1  -7  11   -0.19    0.63
   1  -7  11   -0.12    0.38
  -2   7 -11    0.09    0.41
  -2   7 -11   -0.11    0.43
  -2   7 -11    0.41    0.42
   2  -7  11    0.31    0.49
   2  -7  11    0.27    0.43
  -3   7 -11    0.58    0.48
  -3   7 -11    0.23    0.50
  -3   7 -11    0.12    0.42
  -3   7 -11    0.01    0.34
   3  -7  11   -0.07    0.62
   3  -7  11    0.42    0.43
  -4   7 -11    0.67    0.62
  -4   7 -11    1.32    0.45
  -4   7 -11    0.84    0.64
  -4   7 -11    1.47    0.41
   4  -7  11    0.83    0.55
   4  -7  11    1.34    0.60
   4  -7  11    1.56    0.67
   4   6 -11    7.25    0.45
   4   6 -11    7.94    0.78
   4   6 -11    6.94    0.45
   4   6 -11    8.65    0.53
   3   6 -11    7.53    0.47
   3   6 -11    7.40    0.55
   3   6 -11    6.87    0.73
  -3  -6  11    7.37    0.62
  -3  -6  11    7.04    0.51
  -3  -6  11    7.48    0.48
   2   6 -11   24.15    1.04
   2   6 -11   25.96    1.33
   2   6 -11   23.94    1.06
  -2  -6  11   24.17    1.06
  -2  -6  11   25.56    1.03
  -2  -6  11   24.76    1.33
   1   6 -11    0.50    0.27
   1   6 -11    0.27    0.38
   1   6 -11    0.23    0.28
  -1  -6  11    0.13    0.29
  -1  -6  11    0.19    0.27
  -1  -6  11    0.26    0.31
   0   6 -11   22.19    1.22
   0   6 -11   24.20    1.08
   0   6 -11   24.46    1.12
   0  -6  11   25.53    1.14
   0  -6  11   23.60    1.06
   0  -6  11   24.29    1.23
  -1   6 -11   -0.04    0.36
  -1   6 -11    0.02    0.33
   1  -6  11    0.63    0.28
   1  -6  11    0.68    0.38
   1  -6  11    0.15    0.36
  -2   6 -11   14.67    0.81
  -2   6 -11   16.85    0.93
  -2   6 -11   16.11    0.94
   2  -6  11   15.01    0.81
   2  -6  11   15.12    0.81
   2  -6  11   14.47    1.33
  -3   6 -11    2.81    0.58
  -3   6 -11    2.17    0.45
   3  -6  11    1.67    0.46
   3  -6  11    2.90    0.45
  -4   6 -11    1.87    0.41
  -4   6 -11    1.18    0.32
  -4   6 -11    2.21    0.51
   4  -6  11    1.33    0.40
   4  -6  11    2.40    0.44
   4  -6  11    2.84    0.62
   4  -6  11    3.00    0.56
  -5   6 -11    4.54    0.68
  -5   6 -11    4.02    0.70
  -5   6 -11    4.28    0.89
   5  -6  11    5.45    0.79
   5  -6  11    4.67    0.82
   5   5 -11    0.36    0.46
  -5  -5  11    0.87    0.31
   4   5 -11    1.61    0.42
   4   5 -11    1.29    0.22
  -4  -5  11    1.24    0.32
   3   5 -11    0.52    0.35
   3   5 -11    0.06    0.26
   3   5 -11    0.18    0.17
   3   5 -11    0.17    0.23
  -3  -5  11    0.30    0.25
  -3  -5  11    0.11    0.25
   2   5 -11    0.79    0.36
   2   5 -11    0.02    0.23
   2   5 -11    0.21    0.19
   2   5 -11    0.28    0.25
  -2  -5  11    0.00    0.27
  -2  -5  11    0.12    0.23
  -2  -5  11    0.16    0.24
   1   5 -11    1.11    0.25
   1   5 -11    1.57    0.35
   1   5 -11    0.72    0.22
  -1  -5  11    0.94    0.24
  -1  -5  11    0.92    0.27
  -1  -5  11    1.61    0.34
   0   5 -11    0.16    0.34
   0   5 -11    0.44    0.26
   0   5 -11    0.15    0.21
   0   5 -11    0.39    0.24
   0  -5  11    0.50    0.29
   0  -5  11    0.47    0.26
   0  -5  11    0.25    0.26
  -1   5 -11    0.51    0.21
  -1   5 -11    0.72    0.33
  -1   5 -11    0.19    0.27
   1  -5  11    0.33    0.33
   1  -5  11    0.56    0.28
  -2   5 -11    1.93    0.38
  -2   5 -11    2.31    0.53
  -2   5 -11    1.96    0.36
   2  -5  11    2.07    0.36
   2  -5  11    1.90    0.41
   2  -5  11    2.03    0.45
  -3   5 -11    0.25    0.34
  -3   5 -11   -0.34    0.35
  -3   5 -11   -0.15    0.24
   3  -5  11   -0.16    0.34
   3  -5  11   -0.11    0.39
   3  -5  11   -0.22    0.29
  -4   5 -11    1.58    0.31
   4  -5  11    1.88    0.36
   4  -5  11    1.43    0.47
   4  -5  11    1.70    0.32
  -5   5 -11    0.34    0.35
  -5   5 -11    0.40    0.50
  -5   5 -11    0.17    0.32
   5  -5  11    0.20    0.45
   5  -5  11    0.71    0.33
   5  -5  11    0.16    0.55
  -6   5 -11    3.70    0.84
  -6   5 -11    2.82    0.42
   6  -5  11    3.89    0.85
   6  -5  11    3.10    0.53
   6  -5  11    2.52    0.65
   5   4 -11    0.44    0.38
  -5  -4  11    0.12    0.24
  -5  -4  11   -0.07    0.29
   4   4 -11    0.45    0.39
   4   4 -11    0.08    0.17
  -4  -4  11    0.40    0.23
   3   4 -11   11.68    0.56
   3   4 -11   12.42    0.59
   3   4 -11   13.79    0.85
  -3  -4  11   12.07    0.85
   2   4 -11    3.52    0.32
   2   4 -11    3.88    0.37
   2   4 -11    3.92    0.51
   2   4 -11    3.82    0.30
  -2  -4  11    3.68    0.42
  -2  -4  11    3.91    0.37
  -2  -4  11    3.10    0.30
   1   4 -11    8.23    0.48
   1   4 -11    8.51    0.62
   1   4 -11    8.02    0.48
   1   4 -11    8.80    0.52
  -1  -4  11    8.71    0.63
  -1  -4  11    8.38    0.52
   0   4 -11   15.71    0.92
   0   4 -11   16.71    0.79
   0   4 -11   17.30    0.84
   0  -4  11   17.72    0.83
   0  -4  11   18.20    0.98
  -1   4 -11    3.73    0.36
  -1   4 -11    3.22    0.41
  -1   4 -11    3.96    0.44
   1  -4  11    2.98    0.42
   1  -4  11    3.35    0.38
   1  -4  11    3.27    0.37
  -2   4 -11   14.96    0.76
  -2   4 -11   14.23    0.81
  -2   4 -11   15.41    0.85
   2  -4  11   14.98    0.83
   2  -4  11   15.05    0.83
  -3   4 -11    0.52    0.29
  -3   4 -11    0.45    0.32
  -3   4 -11    0.63    0.28
   3  -4  11    0.82    0.37
   3  -4  11    0.29    0.28
  -4   4 -11    7.67    0.57
  -4   4 -11    6.94    0.52
  -4   4 -11    5.59    0.58
   4  -4  11    6.24    0.56
   4  -4  11    5.83    0.65
   4  -4  11    6.15    0.51
  -5   4 -11    0.26    0.35
  -5   4 -11    0.20    0.32
  -5   4 -11   -0.41    0.43
   5  -4  11   -0.03    0.36
   5  -4  11    0.31    0.38
   5  -4  11   -0.01    0.43
   5  -4  11    0.11    0.33
  -6   4 -11    0.58    0.48
  -6   4 -11    1.19    0.35
  -6   4 -11    1.33    0.42
   6  -4  11    1.70    0.34
   6  -4  11    0.72    0.52
   6  -4  11    0.99    0.43
   6  -4  11    1.41    0.47
   5   3 -11    3.50    0.59
  -5  -3  11    4.65    0.43
  -5  -3  11    4.57    0.51
   4   3 -11   -0.23    0.34
  -4  -3  11   -0.04    0.22
   3   3 -11    4.39    0.49
   3   3 -11    4.15    0.28
  -3  -3  11    4.28    0.46
   2   3 -11    1.38    0.30
   2   3 -11    1.28    0.25
   2   3 -11    1.74    0.26
   2   3 -11    1.37    0.23
  -2  -3  11    2.07    0.33
  -2  -3  11    1.25    0.27
   1   3 -11    1.26    0.29
   1   3 -11    1.37    0.28
   1   3 -11    1.26    0.24
  -1  -3  11    1.75    0.29
  -1  -3  11    1.31    0.30
  -1  -3  11    1.46    0.25
   0   3 -11    2.29    0.43
   0   3 -11    2.39    0.33
   0   3 -11    2.54    0.28
   0  -3  11    2.93    0.36
   0  -3  11    2.21    0.29
   0  -3  11    2.71    0.33
  -1   3 -11    0.35    0.21
  -1   3 -11    0.69    0.19
  -1   3 -11    0.33    0.27
   1  -3  11    0.54    0.21
   1  -3  11    0.68    0.24
  -2   3 -11    0.65    0.20
  -2   3 -11    0.36    0.26
  -2   3 -11    0.32    0.27
   2  -3  11    0.14    0.27
   2  -3  11    0.46    0.22
  -3   3 -11    3.88    0.38
  -3   3 -11    2.82    0.42
  -3   3 -11    2.61    0.43
   3  -3  11    3.53    0.39
   3  -3  11    2.51    0.44
  -4   3 -11    0.82    0.27
  -4   3 -11    0.42    0.31
  -4   3 -11    0.99    0.27
   4  -3  11    1.33    0.29
   4  -3  11    0.70    0.26
  -5   3 -11    0.60    0.40
  -5   3 -11    0.76    0.27
  -5   3 -11    1.20    0.32
   5  -3  11    1.46    0.33
   5  -3  11    1.07    0.30
   5  -3  11    0.74    0.41
  -6   3 -11    1.27    0.36
  -6   3 -11    1.03    0.32
  -6   3 -11    1.06    0.43
  -6   3 -11    2.03    0.40
   6  -3  11    0.87    0.51
   6  -3  11    1.17    0.41
   6  -3  11    1.49    0.34
   6  -3  11    1.80    0.36
  -7   3 -11    1.52    0.43
  -7   3 -11    1.19    0.34
  -7   3 -11    2.37    0.47
  -7   3 -11    0.61    0.49
   7  -3  11    0.58    0.59
   7  -3  11    2.49    0.53
   7  -3  11    1.63    0.48
   7  -3  11    1.75    0.52
   5   2 -11    0.51    0.34
  -5  -2  11    0.98    0.27
   4   2 -11    4.81    0.51
  -4  -2  11    4.68    0.50
   3   2 -11   19.16    0.69
   3   2 -11   19.61    1.01
  -3  -2  11   18.04    1.06
   2   2 -11    3.71    0.28
   2   2 -11    3.83    0.31
   2   2 -11    4.09    0.45
   2   2 -11    3.87    0.39
  -2  -2  11    4.16    0.29
  -2  -2  11    4.02    0.39
   1   2 -11   63.14    2.11
   1   2 -11   61.59    2.41
   1   2 -11   58.21    2.00
  -1  -2  11   61.03    2.45
  -1  -2  11   62.92    2.08
   0   2 -11   -0.16    0.24
   0   2 -11    0.14    0.15
   0  -2  11    0.20    0.18
   0  -2  11    0.21    0.15
   0  -2  11    0.28    0.19
  -1   2 -11   65.58    2.54
  -1   2 -11   64.95    2.37
  -1   2 -11   66.41    2.28
   1  -2  11   66.50    2.55
   1  -2  11   67.73    2.36
   1  -2  11   67.87    2.28
  -2   2 -11   26.91    1.22
  -2   2 -11   26.70    1.08
  -2   2 -11   25.29    1.16
   2  -2  11   21.58    1.17
   2  -2  11   24.47    1.19
   2  -2  11   26.79    1.16
  -3   2 -11   20.24    0.99
  -3   2 -11   18.97    0.89
  -3   2 -11   18.27    0.96
   3  -2  11   19.41    0.98
   3  -2  11   20.04    0.99
  -4   2 -11   14.36    0.87
  -4   2 -11   18.01    0.88
  -4   2 -11   17.21    0.84
   4  -2  11   17.59    0.91
   4  -2  11   16.41    0.86
  -5   2 -11    2.71    0.32
  -5   2 -11    2.16    0.29
  -5   2 -11    2.00    0.33
  -5   2 -11    2.33    0.41
   5  -2  11    2.73    0.35
   5  -2  11    1.57    0.37
   5  -2  11    2.28    0.41
   5  -2  11    1.78    0.36
  -6   2 -11   10.89    0.63
  -6   2 -11   11.50    0.77
  -6   2 -11   11.45    0.52
  -6   2 -11   12.36    0.71
   6  -2  11   10.43    0.68
   6  -2  11    9.22    0.73
   6  -2  11   11.93    0.68
   6  -2  11   11.08    0.63
  -7   2 -11    1.49    0.41
  -7   2 -11    1.09    0.35
  -7   2 -11    1.26    0.48
   7  -2  11    2.14    0.49
   7  -2  11    1.96    0.39
   7  -2  11    1.45    0.39
  -8   2 -11    0.04    0.52
  -8   2 -11   -0.05    0.35
  -8   2 -11    0.24    0.61
  -8   2 -11   -0.07    0.29
   8  -2  11    0.22    0.45
   8  -2  11   -0.36    0.58
   8  -2  11    0.23    0.63
   8  -2  11    0.20    0.53
   5   1 -11    7.74    0.63
  -5  -1  11    9.02    0.92
  -5  -1  11    8.39    0.68
   4   1 -11    0.59    0.29
  -4  -1  11    0.67    0.21
   3   1 -11    5.65    0.51
  -3  -1  11    4.93    0.47
   2   1 -11    0.66    0.25
  -2  -1  11    0.75    0.25
   1   1 -11    1.28    0.21
   1   1 -11    1.11    0.23
   1   1 -11    1.06    0.23
  -1  -1  11    1.18    0.22
   0   1 -11    0.75    0.22
   0   1 -11    0.89    0.17
   0  -1  11    0.87    0.17
   0  -1  11    0.95    0.18
   0  -1  11    1.12    0.25
  -1   1 -11    5.31    0.36
  -1   1 -11    4.85    0.46
   1  -1  11    5.36    0.36
   1  -1  11    5.41    0.48
   1  -1  11    5.13    0.39
  -2   1 -11    0.01    0.21
  -2   1 -11    0.01    0.18
  -2   1 -11   -0.02    0.19
   2  -1  11    0.04    0.18
   2  -1  11   -0.07    0.20
   2  -1  11   -0.01    0.19
  -3   1 -11    7.14    0.54
  -3   1 -11    6.57    0.51
  -3   1 -11    8.23    0.48
   3  -1  11    8.17    0.53
   3  -1  11    8.54    0.54
  -4   1 -11    2.34    0.39
  -4   1 -11    1.63    0.38
  -4   1 -11    1.77    0.35
   4  -1  11    1.90    0.41
   4  -1  11    2.30    0.35
  -5   1 -11    7.56    0.53
  -5   1 -11    6.61    0.53
   5  -1  11    5.56    0.49
   5  -1  11    6.28    0.49
   5  -1  11    4.79    0.68
  -6   1 -11   -0.02    0.31
  -6   1 -11    0.02    0.33
  -6   1 -11    0.46    0.18
   6  -1  11    0.19    0.31
   6  -1  11   -0.30    0.38
   6  -1  11    0.45    0.30
   6  -1  11    0.35    0.31
  -7   1 -11    4.92    0.56
  -7   1 -11    6.24    1.08
  -7   1 -11    6.21    0.40
  -7   1 -11    5.39    0.62
   7  -1  11    5.92    0.67
   7  -1  11    6.03    0.61
   7  -1  11    5.94    0.53
   7  -1  11    6.36    0.92
  -8   1 -11    3.13    0.50
  -8   1 -11    3.86    0.74
  -8   1 -11    3.65    0.40
   8  -1  11    3.94    0.58
   8  -1  11    3.67    0.79
   8  -1  11    3.73    0.76
   5   0 -11    0.58    0.38
   5   0 -11    0.48    0.33
  -5   0  11    0.81    0.27
  -5   0  11    0.29    0.22
   4   0 -11    2.96    0.45
  -4   0  11    3.63    0.40
   3   0 -11    2.05    0.38
  -3   0  11    1.90    0.32
   2   0 -11   13.11    0.76
  -2   0  11   11.59    0.77
   1   0 -11   12.65    0.54
   1   0 -11   13.68    0.77
   1   0 -11   13.18    0.59
  -1   0  11   13.83    0.55
  -1   0  11   12.33    0.80
   0   0 -11   25.16    1.24
   0   0 -11   26.85    1.01
   0   0 -11   27.78    1.08
   0   0  11   28.59    1.07
   0   0  11   25.11    1.27
   0   0  11   28.05    1.01
  -1   0 -11   43.23    1.85
  -1   0 -11   45.94    1.71
  -1   0 -11   46.52    1.62
   1   0  11   49.38    1.71
   1   0  11   44.07    1.87
  -2   0 -11   23.83    0.97
  -2   0 -11   20.28    1.22
   2   0  11   22.43    1.10
   2   0  11   22.82    0.95
   2   0  11   23.90    1.11
  -3   0 -11   80.51    2.62
  -3   0 -11   71.09    2.68
   3   0  11   76.24    2.71
   3   0  11   72.84    2.73
  -4   0 -11    4.71    0.43
  -4   0 -11    4.54    0.42
   4   0  11    4.97    0.39
   4   0  11    3.71    0.41
  -5   0 -11   25.08    1.26
  -5   0 -11   27.45    1.23
   5   0  11   24.37    1.16
   5   0  11   27.33    1.42
   5   0  11   25.12    1.20
  -6   0 -11    9.35    0.64
  -6   0 -11    8.18    0.53
  -6   0 -11    8.97    0.61
   6   0  11    7.69    0.62
   6   0  11    8.94    0.61
   6   0  11    7.69    0.52
   6   0  11    7.91    0.56
  -7   0 -11    2.38    0.54
  -7   0 -11    2.66    0.39
  -7   0 -11    3.09    0.42
  -7   0 -11    3.36    0.34
   7   0  11    2.41    0.55
   7   0  11    2.70    0.55
   7   0  11    2.60    0.38
   7   0  11    3.34    0.47
  -8   0 -11    1.32    0.23
  -8   0 -11    1.18    0.30
  -8   0 -11    1.80    0.45
  -8   0 -11    0.37    0.45
   8   0  11    1.30    0.48
   8   0  11    1.12    0.41
   8   0  11    1.80    0.38
   8   0  11    0.44    0.41
   5  -1 -11    0.13    0.40
   5  -1 -11    0.36    0.33
  -5   1  11    0.55    0.25
   4  -1 -11    7.99    0.56
   4  -1 -11    8.52    0.59
  -4   1  11    7.80    0.63
   3  -1 -11    6.14    0.50
  -3   1  11    5.92    0.51
   2  -1 -11   12.46    0.75
  -2   1  11   11.41    0.77
   1  -1 -11    0.14    0.21
   1  -1 -11    0.05    0.13
   1  -1 -11    0.25    0.13
  -1   1  11    0.27    0.16
  -1   1  11    0.07    0.13
   0  -1 -11   17.67    0.95
   0  -1 -11   18.11    0.74
   0  -1 -11   19.25    0.81
   0   1  11   18.48    1.00
   0   1  11   19.43    0.76
   0   1  11   19.27    0.79
  -1  -1 -11    7.55    0.41
  -1  -1 -11    6.37    0.43
  -1  -1 -11    5.65    0.52
   1   1  11    7.48    0.44
   1   1  11    7.60    0.41
   1   1  11    6.09    0.51
  -2  -1 -11    0.59    0.18
  -2  -1 -11    0.48    0.16
   2   1  11    0.52    0.16
   2   1  11    0.75    0.17
   2   1  11    0.16    0.18
  -3  -1 -11    1.37    0.24
  -3  -1 -11    1.66    0.24
   3   1  11    1.47    0.27
   3   1  11    1.73    0.30
   3   1  11    1.78    0.24
  -4  -1 -11   10.75    0.75
  -4  -1 -11   11.28    0.66
  -4  -1 -11   11.78    0.63
   4   1  11    9.90    0.67
   4   1  11   12.00    0.66
  -5  -1 -11    2.02    0.40
  -5  -1 -11    2.83    0.38
  -5  -1 -11    2.33    0.35
   5   1  11    2.84    0.39
   5   1  11    3.01    0.39
   5   1  11    2.52    0.34
  -6  -1 -11   -0.12    0.23
  -6  -1 -11    0.29    0.25
  -6  -1 -11    0.07    0.27
   6   1  11    0.34    0.28
   6   1  11    0.18    0.26
   6   1  11    0.60    0.31
   6   1  11    0.35    0.25
  -7  -1 -11    0.02    0.34
  -7  -1 -11    0.44    0.24
  -7  -1 -11    0.89    0.33
   7   1  11    0.53    0.31
   7   1  11    1.08    0.34
   7   1  11    0.03    0.33
   7   1  11    0.37    0.33
  -8  -1 -11    0.59    0.27
  -8  -1 -11    0.30    0.21
  -8  -1 -11    0.23    0.42
  -8  -1 -11    0.34    0.38
   8   1  11    0.36    0.42
   8   1  11    0.34    0.38
   8   1  11    0.97    0.43
  -9  -1 -11    2.29    0.48
  -9  -1 -11    1.68    0.32
  -9  -1 -11    1.69    0.50
   9   1  11    2.15    0.47
   9   1  11    1.87    0.53
   9   1  11    1.22    0.50
   5  -2 -11    9.34    0.64
   5  -2 -11    8.48    0.99
  -5   2  11    8.35    0.69
   4  -2 -11   10.07    0.67
   4  -2 -11   11.60    0.68
  -4   2  11   10.89    0.74
   3  -2 -11    7.32    0.56
  -3   2  11    8.00    0.61
   2  -2 -11   95.35    2.89
   2  -2 -11   99.74    3.36
  -2   2  11   91.31    3.45
   1  -2 -11    4.14    0.28
   1  -2 -11    4.14    0.42
  -1   2  11    3.50    0.36
  -1   2  11    3.97    0.28
   0  -2 -11  106.20    3.32
   0  -2 -11  107.93    3.39
   0   2  11   98.07    3.66
   0   2  11  110.69    3.33
   0   2  11  105.99    3.33
  -1  -2 -11   11.03    0.60
  -1  -2 -11   11.21    0.55
   1   2  11   12.18    0.56
   1   2  11   11.87    0.59
   1   2  11   11.49    0.72
  -2  -2 -11   98.43    3.41
  -2  -2 -11  105.43    3.33
   2   2  11  101.49    3.57
   2   2  11  101.90    3.73
   2   2  11  105.43    3.40
  -3  -2 -11   36.49    1.88
  -3  -2 -11   46.00    1.64
   3   2  11   45.76    1.70
   3   2  11   46.43    1.65
   3   2  11   43.05    1.79
  -4  -2 -11   45.21    1.76
  -4  -2 -11   44.23    1.69
   4   2  11   41.94    1.78
   4   2  11   43.87    1.72
  -5  -2 -11   45.47    1.83
  -5  -2 -11   47.59    1.80
   5   2  11   44.12    1.79
   5   2  11   46.87    1.77
   5   2  11   47.26    1.57
   5   2  11   43.78    1.84
  -6  -2 -11   -0.11    0.28
  -6  -2 -11   -0.10    0.22
  -6  -2 -11   -0.03    0.26
   6   2  11    0.59    0.25
   6   2  11    0.13    0.24
   6   2  11    0.41    0.26
  -7  -2 -11   17.64    0.91
  -7  -2 -11   17.09    0.90
  -7  -2 -11   16.51    0.82
   7   2  11   18.17    0.81
   7   2  11   16.25    0.88
   7   2  11   17.88    1.01
  -8  -2 -11    0.62    0.26
  -8  -2 -11    0.81    0.40
  -8  -2 -11    0.54    0.37
   8   2  11    0.62    0.38
   8   2  11    0.82    0.34
   8   2  11    0.78    0.38
  -9  -2 -11    0.06    0.43
  -9  -2 -11    0.62    0.23
  -9  -2 -11    0.41    0.29
  -9  -2 -11    1.10    0.45
   9   2  11    0.50    0.47
   9   2  11    0.63    0.50
   9   2  11    0.21    0.42
   5  -3 -11    0.26    0.50
   4  -3 -11   15.21    0.83
   4  -3 -11   15.74    0.87
  -4   3  11   15.81    0.94
   3  -3 -11    1.74    0.28
   3  -3 -11    1.29    0.27
  -3   3  11    1.05    0.23
   2  -3 -11   14.57    0.55
  -2   3  11   14.17    0.86
   1  -3 -11    1.09    0.21
   1  -3 -11    1.44    0.20
  -1   3  11    1.30    0.17
   0  -3 -11    8.29    0.45
   0  -3 -11    8.99    0.49
   0   3  11    8.25    0.60
   0   3  11    8.72    0.46
  -1  -3 -11    3.70    0.29
  -1  -3 -11    3.14    0.31
   1   3  11    3.47    0.37
   1   3  11    4.22    0.31
  -2  -3 -11   -0.04    0.17
  -2  -3 -11    0.19    0.16
   2   3  11   -0.03    0.16
   2   3  11    0.57    0.17
   2   3  11   -0.08    0.19
  -3  -3 -11    1.27    0.27
  -3  -3 -11    1.59    0.30
   3   3  11    1.29    0.27
   3   3  11    1.15    0.18
   3   3  11    1.37    0.25
  -4  -3 -11    2.34    0.34
  -4  -3 -11    2.52    0.34
   4   3  11    2.57    0.31
   4   3  11    2.65    0.31
  -5  -3 -11    5.42    0.43
  -5  -3 -11    5.20    0.47
   5   3  11    4.65    0.40
  -6  -3 -11    5.26    0.44
  -6  -3 -11    5.06    0.50
   6   3  11    6.14    0.63
  -7  -3 -11    0.28    0.31
  -7  -3 -11    0.18    0.31
   7   3  11    0.71    0.32
  -8  -3 -11    0.78    0.28
  -8  -3 -11    0.87    0.42
  -8  -3 -11    1.34    0.32
   8   3  11    1.17    0.37
   8   3  11    0.26    0.36
  -9  -3 -11    0.55    0.43
  -9  -3 -11    1.13    0.28
  -9  -3 -11    1.06    0.50
   9   3  11    0.31    0.43
   9   3  11    0.65    0.39
   4  -4 -11    4.67    0.49
  -4   4  11    3.37    0.45
   3  -4 -11    5.76    0.51
  -3   4  11    4.61    0.46
   2  -4 -11   17.00    0.64
   2  -4 -11   16.78    0.81
  -2   4  11   16.85    0.97
   1  -4 -11   13.42    0.58
   1  -4 -11   12.46    0.54
   1  -4 -11   12.59    0.56
  -1   4  11   11.06    0.76
   0  -4 -11   55.36    1.94
   0  -4 -11   56.04    1.91
   0   4  11   52.59    2.21
   0   4  11   57.34    1.90
   0   4  11   59.14    1.92
  -1  -4 -11    5.47    0.38
  -1  -4 -11    6.27    0.42
   1   4  11    6.36    0.49
   1   4  11    6.30    0.40
  -2  -4 -11  109.76    3.55
   2   4  11  105.96    3.79
   2   4  11  112.80    3.60
   2   4  11  109.98    3.54
  -3  -4 -11    2.45    0.31
  -3  -4 -11    3.22    0.33
   3   4  11    3.48    0.33
   3   4  11    3.11    0.33
   3   4  11    3.39    0.32
  -4  -4 -11   78.66    2.75
  -4  -4 -11   79.79    2.79
   4   4  11   79.32    2.77
  -5  -4 -11   12.80    0.71
  -5  -4 -11   12.67    0.70
   5   4  11   12.53    0.62
   5   4  11   12.59    0.67
  -6  -4 -11    9.26    0.57
  -6  -4 -11    8.18    0.60
   6   4  11    9.09    0.64
  -7  -4 -11    6.02    0.52
  -7  -4 -11    8.18    0.68
   7   4  11    8.38    0.64
   7   4  11    7.59    0.52
  -8  -4 -11    0.20    0.44
  -8  -4 -11    0.36    0.34
   8   4  11    0.24    0.39
  -9  -4 -11    1.62    0.40
  -9  -4 -11    2.25    0.54
   9   4  11    2.53    0.54
   9   4  11    1.44    0.38
   4  -5 -11    0.76    0.33
   4  -5 -11    0.90    0.48
  -4   5  11    0.75    0.26
   3  -5 -11   16.53    0.93
  -3   5  11   18.43    1.01
   2  -5 -11    3.07    0.25
   2  -5 -11    3.21    0.44
  -2   5  11    2.94    0.37
   1  -5 -11   15.92    0.77
   1  -5 -11   15.92    0.66
   1  -5 -11   15.88    0.67
   1  -5 -11   14.08    0.65
  -1   5  11   15.32    0.66
  -1   5  11   13.99    0.86
   0  -5 -11   11.42    0.54
   0  -5 -11   10.21    0.64
   0  -5 -11   10.24    0.54
   0   5  11   10.14    0.71
   0   5  11   10.61    0.49
   0   5  11   11.06    0.58
   0   5  11   10.75    0.52
  -1  -5 -11    5.02    0.36
   1   5  11    4.28    0.34
   1   5  11    4.61    0.45
   1   5  11    4.70    0.38
  -2  -5 -11   13.15    0.67
  -2  -5 -11   12.33    0.64
   2   5  11   12.50    0.65
   2   5  11   12.41    0.65
   2   5  11   13.27    0.80
  -3  -5 -11    1.98    0.30
  -3  -5 -11    1.51    0.28
   3   5  11    1.70    0.31
   3   5  11    1.70    0.27
   3   5  11    1.25    0.23
  -4  -5 -11    0.26    0.18
   4   5  11    0.22    0.20
  -5  -5 -11    2.91    0.34
  -5  -5 -11    3.37    0.42
   5   5  11    3.06    0.33
   5   5  11    2.85    0.35
  -6  -5 -11    2.72    0.47
  -6  -5 -11    2.53    0.36
   6   5  11    2.58    0.46
   6   5  11    2.23    0.41
  -7  -5 -11    4.40    0.43
  -7  -5 -11    3.85    0.56
   7   5  11    5.17    0.58
   7   5  11    4.52    0.42
  -8  -5 -11    4.55    0.69
  -8  -5 -11    4.33    0.50
   8   5  11    3.89    0.46
   8   5  11    5.45    0.75
  -9  -5 -11    0.81    0.37
  -9  -5 -11    1.14    0.51
   9   5  11    1.23    0.50
   9   5  11    0.73    0.32
   3  -6 -11    3.72    0.62
  -3   6  11    3.73    0.42
   2  -6 -11    0.26    0.19
   2  -6 -11    0.64    0.34
  -2   6  11    0.53    0.22
   1  -6 -11   52.48    1.77
   1  -6 -11   52.96    1.94
   1  -6 -11   51.30    1.78
   1  -6 -11   50.08    1.78
  -1   6  11   50.51    1.78
  -1   6  11   50.16    2.10
  -1   6  11   52.26    1.76
   0  -6 -11   15.68    0.71
   0  -6 -11   15.35    0.71
   0  -6 -11   14.35    0.75
   0  -6 -11   15.04    0.69
   0   6  11   15.00    0.68
   0   6  11   14.60    0.87
   0   6  11   15.22    0.71
   0   6  11   14.84    0.66
  -1  -6 -11   63.13    2.21
  -1  -6 -11   63.30    2.23
  -1  -6 -11   63.99    2.25
   1   6  11   66.31    2.18
   1   6  11   63.82    2.50
   1   6  11   67.31    2.25
   1   6  11   62.12    2.19
  -2  -6 -11   66.39    2.30
  -2  -6 -11   60.88    2.31
   2   6  11   61.59    2.48
   2   6  11   66.99    2.18
   2   6  11   62.60    2.30
   2   6  11   65.93    2.24
  -3  -6 -11   27.66    1.19
  -3  -6 -11   26.86    1.17
   3   6  11   28.93    1.12
   3   6  11   29.93    1.18
  -4  -6 -11   90.68    3.11
  -4  -6 -11   90.02    3.10
   4   6  11   91.78    3.00
   4   6  11   91.00    3.08
  -5  -6 -11    5.54    0.51
  -5  -6 -11    4.80    0.42
   5   6  11    6.01    0.43
   5   6  11    5.44    0.45
  -6  -6 -11   37.95    1.61
  -6  -6 -11   39.95    1.58
   6   6  11   39.82    1.55
   6   6  11   39.25    1.61
   6   6  11   37.66    1.54
  -7  -6 -11    2.79    0.42
  -7  -6 -11    2.32    0.38
   7   6  11    1.94    0.36
   7   6  11    1.72    0.29
  -8  -6 -11    6.42    0.51
   8   6  11    6.55    1.01
   8   6  11    4.47    0.49
  -9  -6 -11    1.42    0.59
  -9  -6 -11    0.29    0.37
   9   6  11    0.97    0.55
   9   6  11    0.60    0.33
   3  -7 -11    6.80    0.78
  -3   7  11    6.69    0.53
   2  -7 -11    0.31    0.23
   2  -7 -11    0.08    0.22
   2  -7 -11    0.57    0.41
  -2   7  11    0.19    0.23
   1  -7 -11   18.50    0.78
   1  -7 -11   17.82    0.93
   1  -7 -11   16.83    0.76
   1  -7 -11   17.10    0.77
  -1   7  11   17.16    0.96
  -1   7  11   17.62    0.75
  -1   7  11   16.66    0.78
   0  -7 -11    3.65    0.36
   0  -7 -11    3.44    0.37
   0  -7 -11    2.30    0.43
   0  -7 -11    3.58    0.35
   0   7  11    3.13    0.35
   0   7  11    3.34    0.36
   0   7  11    2.98    0.37
  -1  -7 -11    0.04    0.19
  -1  -7 -11    0.10    0.22
   1   7  11    0.29    0.20
   1   7  11    0.22    0.21
   1   7  11    0.05    0.19
  -2  -7 -11    2.61    0.35
  -2  -7 -11    2.53    0.32
  -2  -7 -11    1.79    0.31
   2   7  11    1.76    0.31
   2   7  11    1.78    0.33
   2   7  11    2.36    0.32
  -3  -7 -11    2.94    0.32
  -3  -7 -11    2.54    0.36
   3   7  11    2.24    0.34
   3   7  11    2.70    0.34
  -4  -7 -11    1.20    0.23
  -4  -7 -11    1.42    0.24
   4   7  11    1.77    0.34
   4   7  11    0.94    0.23
  -5  -7 -11    9.70    0.65
  -5  -7 -11   10.92    0.62
   5   7  11   10.25    0.63
   5   7  11   10.86    0.60
  -6  -7 -11    4.33    0.55
  -6  -7 -11    5.72    0.45
   6   7  11    6.01    0.55
   6   7  11    4.73    0.49
   6   7  11    4.66    0.43
  -7  -7 -11    6.17    0.65
  -7  -7 -11    6.27    0.49
   7   7  11    5.72    0.61
   7   7  11    5.94    0.66
   7   7  11    4.80    0.46
  -8  -7 -11    1.88    0.32
  -8  -7 -11    2.72    0.50
   8   7  11    2.82    0.49
   8   7  11    2.16    0.33
  -9  -7 -11    2.55    0.55
   9   7  11    1.85    0.33
   2  -8 -11    0.23    0.26
   2  -8 -11    0.30    0.26
   2  -8 -11    0.42    0.49
  -2   8  11    0.53    0.31
  -2   8  11    0.36    0.26
  -2   8  11    0.68    0.26
   1  -8 -11   19.33    0.84
   1  -8 -11   19.58    0.87
   1  -8 -11   19.52    1.03
   1  -8 -11   19.66    0.87
  -1   8  11   18.21    0.83
  -1   8  11   18.81    0.88
  -1   8  11   19.22    1.04
  -1   8  11   17.82    0.80
   0  -8 -11   -0.15    0.26
   0  -8 -11   -0.34    0.33
   0  -8 -11   -0.18    0.24
   0  -8 -11    0.17    0.24
   0   8  11    0.08    0.20
   0   8  11    0.01    0.26
   0   8  11   -0.05    0.23
  -1  -8 -11   49.05    1.87
  -1  -8 -11   49.15    1.86
  -1  -8 -11   49.10    1.87
   1   8  11   51.76    1.88
   1   8  11   51.36    1.84
   1   8  11   51.92    1.84
   1   8  11   51.09    2.10
  -2  -8 -11    0.22    0.24
  -2  -8 -11   -0.16    0.21
  -2  -8 -11    0.27    0.23
   2   8  11    0.25    0.25
   2   8  11    0.09    0.22
   2   8  11    0.52    0.21
   2   8  11    0.35    0.24
  -3  -8 -11   52.37    1.97
  -3  -8 -11   52.16    1.99
  -3  -8 -11   51.64    1.96
   3   8  11   51.51    1.98
   3   8  11   54.65    1.95
   3   8  11   53.42    1.94
  -4  -8 -11   18.11    0.89
  -4  -8 -11   16.89    0.84
  -4  -8 -11   17.10    0.87
   4   8  11   16.85    0.85
   4   8  11   16.72    0.82
  -5  -8 -11   38.19    1.53
  -5  -8 -11   35.20    1.62
   5   8  11   37.05    1.63
   5   8  11   37.20    1.49
   5   8  11   38.85    1.54
  -6  -8 -11   28.46    1.28
  -6  -8 -11   27.76    1.20
   6   8  11   26.59    1.27
   6   8  11   25.18    1.14
   6   8  11   27.40    1.25
  -7  -8 -11    0.71    0.39
  -7  -8 -11    0.30    0.27
   7   8  11    0.96    0.44
   7   8  11    0.49    0.32
  -8  -8 -11    7.26    0.59
  -8  -8 -11    7.83    0.83
   8   8  11    8.82    0.88
   8   8  11    7.97    0.79
   8   8  11    6.01    0.56
  -9  -8 -11   -0.14    0.39
  -9  -8 -11    0.02    0.41
  -9  -8 -11   -0.11    0.60
   9   8  11    0.31    0.62
   9   8  11   -0.09    0.35
   1  -9 -11    4.00    0.69
   1  -9 -11    5.80    0.53
   1  -9 -11    6.11    0.51
   1  -9 -11    4.46    0.49
  -1   9  11    6.10    0.52
  -1   9  11    5.53    0.48
  -1   9  11    4.99    0.46
  -1   9  11    5.87    0.50
   0  -9 -11    7.66    0.55
   0  -9 -11    6.35    0.51
   0  -9 -11    4.83    0.64
   0  -9 -11    7.15    0.52
   0   9  11    6.14    0.54
   0   9  11    6.38    0.51
   0   9  11    5.82    0.52
  -1  -9 -11   14.40    0.78
  -1  -9 -11   15.15    0.77
  -1  -9 -11   15.22    0.78
   1   9  11   14.30    0.77
   1   9  11   15.41    0.75
   1   9  11   14.45    0.75
   1   9  11   14.07    0.87
  -2  -9 -11    0.78    0.28
  -2  -9 -11    0.33    0.24
  -2  -9 -11    0.52    0.29
   2   9  11    0.89    0.30
   2   9  11    0.85    0.31
   2   9  11    0.73    0.27
   2   9  11    0.64    0.22
  -3  -9 -11    1.07    0.25
  -3  -9 -11    1.15    0.28
  -3  -9 -11    0.71    0.28
   3   9  11    0.98    0.27
   3   9  11    1.35    0.30
  -4  -9 -11    0.94    0.30
  -4  -9 -11    1.05    0.33
   4   9  11    0.98    0.26
   4   9  11    0.83    0.31
   4   9  11    0.83    0.32
  -5  -9 -11    0.57    0.33
  -5  -9 -11    0.86    0.31
   5   9  11    0.38    0.35
   5   9  11    0.71    0.27
   5   9  11    0.65    0.36
  -6  -9 -11   -0.05    0.28
  -6  -9 -11    0.45    0.40
   6   9  11    0.04    0.50
   6   9  11   -0.23    0.29
   6   9  11   -0.19    0.45
  -7  -9 -11    1.24    0.41
  -7  -9 -11    1.27    0.31
   7   9  11    2.20    0.46
   7   9  11    1.47    0.34
   7   9  11    2.06    0.43
  -8  -9 -11    0.66    0.34
  -8  -9 -11    0.99    0.41
  -8  -9 -11    1.54    0.61
   8   9  11    1.15    0.55
   8   9  11    1.58    0.53
   8   9  11    0.68    0.34
   9   9  11    2.06    0.71
   0 -10 -11   21.11    1.04
   0 -10 -11   20.90    1.00
   0 -10 -11   18.49    1.15
   0 -10 -11   22.78    1.01
   0  10  11   21.19    0.99
   0  10  11   21.03    1.10
   0  10  11   21.13    1.03
   0  10  11   21.26    0.97
  -1 -10 -11   16.86    0.86
  -1 -10 -11   15.57    0.83
  -1 -10 -11   15.09    0.81
   1  10  11   15.14    0.83
   1  10  11   14.11    0.81
   1  10  11   14.76    0.80
   1  10  11   15.76    0.92
  -2 -10 -11   24.76    1.14
  -2 -10 -11   24.89    1.13
  -2 -10 -11   23.41    1.10
   2  10  11   24.66    1.11
   2  10  11   24.35    1.27
   2  10  11   23.95    1.14
  -3 -10 -11   44.81    1.77
  -3 -10 -11   43.99    1.78
  -3 -10 -11   43.82    1.76
   3  10  11   43.69    1.78
   3  10  11   45.54    1.74
  -4 -10 -11   10.63    0.74
  -4 -10 -11   10.51    0.66
  -4 -10 -11   12.47    0.75
   4  10  11   11.53    0.75
   4  10  11   11.13    0.70
  -5 -10 -11   47.78    1.95
  -5 -10 -11   50.47    1.96
  -5 -10 -11   46.17    1.86
   5  10  11   48.84    1.86
   5  10  11   48.24    1.92
  -6 -10 -11   -0.07    0.43
  -6 -10 -11   -0.30    0.45
  -6 -10 -11    0.00    0.31
   6  10  11    0.29    0.45
   6  10  11    0.60    0.45
   6  10  11   -0.09    0.31
  -7 -10 -11   15.39    0.98
  -7 -10 -11   13.29    0.81
  -7 -10 -11   15.38    0.94
  -7 -10 -11   16.33    1.03
   7  10  11   13.19    0.92
   7  10  11   15.21    0.98
   7  10  11   12.20    0.79
  -8 -10 -11    2.53    0.42
  -8 -10 -11    2.95    0.60
  -8 -10 -11    3.18    0.65
   8  10  11    2.02    0.37
   8  10  11    3.46    0.63
   8  10  11    2.28    0.56
  -1 -11 -11    2.54    0.58
  -1 -11 -11    4.03    0.59
  -1 -11 -11    4.81    0.68
   1  11  11    3.43    0.65
   1  11  11    2.66    0.60
   1  11  11    3.97    0.60
   1  11  11    3.59    0.41
  -2 -11 -11    0.96    0.35
  -2 -11 -11    1.48    0.41
   2  11  11    0.50    0.40
   2  11  11    0.82    0.37
   2  11  11    0.63    0.26
  -3 -11 -11    1.71    0.50
  -3 -11 -11    0.97    0.39
   3  11  11    1.47    0.43
   3  11  11    1.29    0.42
  -4 -11 -11    0.02    0.32
  -4 -11 -11    0.17    0.43
  -4 -11 -11    0.03    0.39
   4  11  11   -0.15    0.38
   4  11  11    0.31    0.43
   4  11  11    0.29    0.40
  -5 -11 -11    0.10    0.45
  -5 -11 -11    0.36    0.49
  -5 -11 -11    0.31    0.36
  -5 -11 -11    0.46    0.46
   5  11  11    0.01    0.47
   5  11  11    0.97    0.44
   5  11  11    0.53    0.37
  -6 -11 -11    4.12    0.72
  -6 -11 -11    3.89    0.76
  -6 -11 -11    4.24    0.73
  -6 -11 -11    2.70    0.55
   6  11  11    4.10    0.53
   6  11  11    3.57    0.58
   6  11  11    4.11    0.74
  -7 -11 -11    0.97    0.53
  -7 -11 -11    1.35    0.59
  -7 -11 -11    0.57    0.36
  -7 -11 -11    0.41    0.61
   7  11  11    1.59    0.52
   7  11  11    0.47    0.41
   7  11  11    0.83    0.59
  -3 -12 -11    5.79    0.64
  -3 -12 -11    6.04    1.43
  -3 -12 -11    6.08    0.72
  -3 -12 -11    6.96    0.79
   3  12  11    4.90    0.70
   3  12  11    6.20    0.74
   3  12  11    7.26    1.21
  -4 -12 -11   12.21    0.84
  -4 -12 -11   12.22    0.89
   4  12  11   10.55    0.85
   4  12  11    9.24    0.79
   4  12  11   10.90    0.91
  -5 -12 -11    9.49    1.48
  -5 -12 -11    8.17    0.81
  -5 -12 -11    8.37    0.81
   5  12  11    7.44    0.96
   5  12  11    8.18    0.84
  -6 -12 -11    7.95    0.91
  -6 -12 -11    9.65    0.90
  -6 -12 -11    6.66    0.69
   6  12  11    7.63    0.89
   6  12  11    7.40    0.74
   2   7 -12   -0.21    0.56
   2   7 -12    0.19    0.38
   2   7 -12    0.45    0.40
  -2  -7  12    0.20    0.39
  -2  -7  12    0.82    0.44
   1   7 -12    1.43    0.38
   1   7 -12    1.07    0.53
   1   7 -12    1.54    0.40
  -1  -7  12    2.35    0.47
   0   7 -12    0.93    0.51
   0   7 -12    0.53    0.39
   0   7 -12    0.65    0.41
   0  -7  12    0.68    0.41
   0  -7  12   -0.04    0.34
   0  -7  12    0.64    0.47
  -1   7 -12    6.29    0.65
  -1   7 -12    4.68    0.59
  -1   7 -12    5.08    0.84
   1  -7  12    5.22    1.06
   1  -7  12    4.96    0.55
   1  -7  12    4.99    0.67
  -2   7 -12   -0.08    0.49
  -2   7 -12    0.09    0.52
  -2   7 -12    0.12    0.51
  -2   7 -12    0.47    0.37
   2  -7  12    0.91    0.62
   2  -7  12    0.47    0.62
   3   6 -12    0.41    0.53
   3   6 -12    1.05    0.26
   3   6 -12    0.87    0.36
   3   6 -12    1.04    0.31
  -3  -6  12    0.76    0.28
  -3  -6  12    0.79    0.28
  -3  -6  12    0.26    0.34
   2   6 -12    2.09    0.50
   2   6 -12    1.65    0.33
   2   6 -12    2.37    0.35
   2   6 -12    1.97    0.41
  -2  -6  12    2.14    0.37
  -2  -6  12    3.14    0.46
  -2  -6  12    2.13    0.46
   1   6 -12    0.86    0.32
   1   6 -12    0.58    0.34
   1   6 -12    0.62    0.27
   1   6 -12    0.58    0.45
  -1  -6  12    0.61    0.33
  -1  -6  12    0.25    0.37
  -1  -6  12    0.01    0.30
   0   6 -12    2.48    0.52
   0   6 -12    2.77    0.46
   0   6 -12    3.32    0.45
   0   6 -12    2.52    0.48
   0  -6  12    3.01    0.42
   0  -6  12    3.72    0.61
   0  -6  12    3.19    0.46
  -1   6 -12    1.20    0.45
  -1   6 -12    0.81    0.29
  -1   6 -12    0.97    0.36
  -1   6 -12    0.91    0.38
   1  -6  12    1.51    0.39
   1  -6  12    1.58    0.33
  -2   6 -12    1.82    0.33
  -2   6 -12    1.94    0.45
  -2   6 -12    1.38    0.41
   2  -6  12    1.79    0.50
   2  -6  12    1.14    0.39
   2  -6  12    1.41    0.34
  -3   6 -12    7.73    0.67
  -3   6 -12    8.84    0.76
  -3   6 -12    6.49    0.79
   3  -6  12    7.32    0.90
   3  -6  12    8.11    0.60
   3  -6  12    9.39    0.74
  -4   6 -12    0.39    0.45
  -4   6 -12    0.37    0.48
  -4   6 -12    0.14    0.55
   4  -6  12    0.53    0.36
   4  -6  12    0.02    0.65
   4   5 -12    0.48    0.50
   4   5 -12    0.15    0.25
   3   5 -12    2.28    0.32
   3   5 -12    2.03    0.32
   3   5 -12    2.34    0.38
   3   5 -12    1.62    0.46
  -3  -5  12    2.68    0.58
   2   5 -12    3.54    0.37
   2   5 -12    3.84    0.41
   2   5 -12    3.72    0.47
   2   5 -12    3.54    0.70
  -2  -5  12    2.83    0.39
  -2  -5  12    4.11    0.51
  -2  -5  12    3.13    0.49
   1   5 -12    1.31    0.30
   1   5 -12    1.81    0.43
   1   5 -12    1.44    0.28
  -1  -5  12    2.28    0.41
  -1  -5  12    1.57    0.29
  -1  -5  12    1.66    0.32
   0   5 -12    2.03    0.42
   0   5 -12    2.59    0.40
   0   5 -12    3.28    0.65
   0   5 -12    2.22    0.46
   0  -5  12    1.79    0.35
   0  -5  12    2.67    0.44
   0  -5  12    2.98    0.45
  -1   5 -12    3.85    0.51
  -1   5 -12    4.53    0.46
   1  -5  12    4.18    0.52
   1  -5  12    4.29    0.51
   1  -5  12    4.08    0.57
  -2   5 -12    1.02    0.33
  -2   5 -12    1.44    0.41
  -2   5 -12    1.35    0.38
   2  -5  12    0.68    0.41
   2  -5  12    1.23    0.34
   2  -5  12    0.65    0.31
  -3   5 -12    2.98    0.63
  -3   5 -12    4.59    0.64
   3  -5  12    3.41    0.48
   3  -5  12    4.14    0.59
   3  -5  12    4.52    0.51
  -4   5 -12    0.09    0.39
  -4   5 -12    0.25    0.39
  -4   5 -12    0.28    0.46
   4  -5  12    0.32    0.36
   4  -5  12   -0.48    0.43
   4  -5  12   -0.23    0.61
  -5   5 -12    2.95    0.48
  -5   5 -12    2.77    0.55
  -5   5 -12    4.02    0.65
   5  -5  12    2.73    0.53
   5  -5  12    2.78    0.54
   5  -5  12    1.85    0.68
   4   4 -12    1.47    0.27
   4   4 -12    1.22    0.45
  -4  -4  12    1.45    0.28
   3   4 -12    3.30    0.33
   3   4 -12    2.97    0.62
  -3  -4  12    2.04    0.40
   2   4 -12    0.91    0.20
   2   4 -12    0.88    0.26
   2   4 -12    0.70    0.40
   2   4 -12    1.16    0.24
  -2  -4  12    0.80    0.26
  -2  -4  12    1.21    0.28
   1   4 -12    4.24    0.37
   1   4 -12    3.95    0.41
   1   4 -12    4.29    0.38
   1   4 -12    3.59    0.54
  -1  -4  12    3.78    0.37
  -1  -4  12    4.64    0.45
  -1  -4  12    3.62    0.44
   0   4 -12   12.15    0.82
   0   4 -12   13.25    0.71
   0   4 -12   12.80    0.66
   0  -4  12   12.83    0.71
   0  -4  12   13.03    0.65
   0  -4  12   14.03    0.85
  -1   4 -12    0.06    0.24
  -1   4 -12    0.53    0.34
  -1   4 -12   -0.11    0.29
   1  -4  12    0.07    0.26
   1  -4  12    0.05    0.31
   1  -4  12   -0.06    0.26
  -2   4 -12    2.48    0.41
  -2   4 -12    3.08    0.51
  -2   4 -12    2.08    0.46
   2  -4  12    2.74    0.42
   2  -4  12    2.24    0.35
   2  -4  12    2.13    0.37
  -3   4 -12    2.93    0.46
  -3   4 -12    2.38    0.53
  -3   4 -12    2.82    0.38
   3  -4  12    2.48    0.34
   3  -4  12    2.37    0.45
   3  -4  12    2.76    0.46
  -4   4 -12    0.51    0.36
  -4   4 -12   -0.13    0.39
   4  -4  12   -0.08    0.34
   4  -4  12   -0.11    0.33
   4  -4  12    0.57    0.51
  -5   4 -12    0.34    0.46
  -5   4 -12    0.90    0.36
  -5   4 -12    1.69    0.39
   5  -4  12    1.15    0.39
   5  -4  12    1.18    0.53
  -6   4 -12    0.10    0.49
  -6   4 -12    0.05    0.40
  -6   4 -12    0.20    0.53
   6  -4  12    0.42    0.45
   6  -4  12    0.13    0.40
   6  -4  12    0.15    0.55
   6  -4  12    0.25    0.69
   4   3 -12   11.92    0.81
  -4  -3  12   10.12    0.73
   3   3 -12   -0.07    0.34
   3   3 -12    0.44    0.19
  -3  -3  12    0.21    0.25
   2   3 -12   16.61    0.75
   2   3 -12   16.40    0.72
   2   3 -12   16.42    0.98
  -2  -3  12   17.63    0.67
  -2  -3  12   17.15    1.02
   1   3 -12    0.23    0.18
   1   3 -12    0.13    0.33
   1   3 -12    0.32    0.23
  -1  -3  12    0.17    0.20
  -1  -3  12   -0.21    0.24
   0   3 -12   24.79    1.08
   0   3 -12   25.03    1.01
   0   3 -12   23.99    1.24
   0  -3  12   25.08    1.07
   0  -3  12   26.84    1.32
   0  -3  12   22.69    1.08
  -1   3 -12    0.54    0.32
  -1   3 -12   -0.16    0.24
  -1   3 -12    0.01    0.22
   1  -3  12    0.21    0.26
   1  -3  12    0.25    0.27
   1  -3  12    0.23    0.22
  -2   3 -12   13.88    0.85
  -2   3 -12   13.72    0.79
  -2   3 -12   14.40    0.74
   2  -3  12   13.73    0.72
   2  -3  12   15.34    0.85
   2  -3  12   15.11    0.82
  -3   3 -12    2.63    0.48
  -3   3 -12    3.76    0.45
  -3   3 -12    2.29    0.51
   3  -3  12    3.06    0.42
   3  -3  12    3.31    0.45
   3  -3  12    2.95    0.44
  -4   3 -12    8.45    0.62
  -4   3 -12    8.23    0.60
  -4   3 -12    7.94    0.67
   4  -3  12    8.74    0.60
   4  -3  12    7.95    0.70
   4  -3  12    8.88    0.59
  -5   3 -12    5.38    0.67
  -5   3 -12    4.10    0.53
   5  -3  12    4.90    0.54
   5  -3  12    3.57    0.57
   5  -3  12    4.42    0.68
  -6   3 -12    0.02    0.48
  -6   3 -12    0.97    0.39
  -6   3 -12   -0.24    0.45
   6  -3  12    0.71    0.38
   6  -3  12    0.19    0.57
   6  -3  12    0.46    0.41
   6  -3  12    0.53    0.45
   4   2 -12    4.10    0.56
  -4  -2  12    3.35    0.53
   3   2 -12    0.35    0.35
  -3  -2  12    0.61    0.24
   2   2 -12   10.31    0.56
   2   2 -12   11.51    0.77
   2   2 -12   11.20    0.52
  -2  -2  12   11.22    0.77
   1   2 -12   14.81    0.71
   1   2 -12   15.12    0.65
   1   2 -12   15.32    0.90
  -1  -2  12   14.50    0.91
  -1  -2  12   15.58    0.69
  -1  -2  12   15.74    0.64
   0   2 -12    4.77    0.51
   0   2 -12    5.84    0.42
   0   2 -12    6.36    0.40
   0  -2  12    4.98    0.42
   0  -2  12    6.04    0.48
  -1   2 -12    3.64    0.40
  -1   2 -12    4.10    0.48
  -1   2 -12    4.23    0.37
   1  -2  12    4.20    0.43
   1  -2  12    3.43    0.40
  -2   2 -12   20.15    0.99
  -2   2 -12   20.33    1.06
  -2   2 -12   20.12    0.92
   2  -2  12   19.51    1.05
   2  -2  12   21.08    0.92
   2  -2  12   21.07    0.98
  -3   2 -12   -0.18    0.31
  -3   2 -12    0.15    0.29
  -3   2 -12    0.03    0.27
   3  -2  12    0.00    0.26
   3  -2  12   -0.20    0.31
  -4   2 -12   10.70    0.74
  -4   2 -12   12.06    0.73
  -4   2 -12   12.04    0.76
   4  -2  12   12.10    0.66
   4  -2  12   12.25    0.72
   4  -2  12   10.41    0.76
  -5   2 -12    1.85    0.40
  -5   2 -12    1.75    0.32
  -5   2 -12    2.18    0.40
   5  -2  12    1.67    0.35
   5  -2  12    1.30    0.30
   5  -2  12    1.51    0.40
  -6   2 -12    2.85    0.48
  -6   2 -12    2.37    0.46
   6  -2  12    3.41    0.54
   6  -2  12    2.79    0.47
   6  -2  12    2.57    0.54
   6  -2  12    3.55    0.62
  -7   2 -12    2.04    0.48
  -7   2 -12    1.60    0.37
  -7   2 -12    0.85    0.50
   7  -2  12    0.80    0.58
   7  -2  12    1.31    0.52
   7  -2  12    2.69    0.55
   7  -2  12    2.79    0.60
   4   1 -12    0.98    0.36
   3   1 -12    3.91    0.52
  -3  -1  12    4.39    0.44
   2   1 -12   14.95    0.86
   2   1 -12   14.11    0.59
  -2  -1  12   13.25    0.87
   1   1 -12    6.93    0.58
   1   1 -12    7.61    0.39
  -1  -1  12    5.84    0.40
  -1  -1  12    7.48    0.38
  -1  -1  12    7.64    0.59
   0   1 -12   37.30    1.43
   0   1 -12   37.78    1.34
   0   1 -12   34.59    1.60
   0  -1  12   37.37    1.40
   0  -1  12   39.81    1.36
   0  -1  12   37.29    1.69
  -1   1 -12    1.02    0.20
   1  -1  12    0.98    0.23
   1  -1  12    1.51    0.32
  -2   1 -12   41.24    1.50
  -2   1 -12   37.18    1.56
  -2   1 -12   37.40    1.65
   2  -1  12   40.04    1.58
   2  -1  12   38.04    1.69
  -3   1 -12    0.44    0.25
  -3   1 -12    0.31    0.23
  -3   1 -12   -0.10    0.29
   3  -1  12    0.04    0.29
   3  -1  12    0.31    0.23
   3  -1  12    0.09    0.34
  -4   1 -12   11.71    0.67
  -4   1 -12    9.76    0.68
  -4   1 -12   11.59    0.68
   4  -1  12   11.68    0.72
   4  -1  12   10.26    0.64
  -5   1 -12    2.24    0.44
  -5   1 -12    2.50    0.52
  -5   1 -12    2.53    0.39
   5  -1  12    3.33    0.56
   5  -1  12    2.60    0.49
   5  -1  12    2.70    0.42
  -6   1 -12    1.77    0.33
  -6   1 -12    1.66    0.31
  -6   1 -12    1.25    0.43
  -6   1 -12    1.76    0.37
   6  -1  12    1.59    0.35
   6  -1  12    2.11    0.38
   6  -1  12    1.92    0.46
  -7   1 -12    0.46    0.45
  -7   1 -12    0.58    0.34
  -7   1 -12    0.74    0.24
  -7   1 -12    0.17    0.44
   7  -1  12    1.10    0.47
   7  -1  12    0.33    0.41
   7  -1  12    0.39    0.46
   7  -1  12    0.47    0.45
   4   0 -12    0.24    0.33
  -4   0  12    0.01    0.30
   3   0 -12    2.76    0.47
  -3   0  12    2.33    0.34
  -2   0  12    0.14    0.20
   1   0 -12    7.21    0.60
   1   0 -12    8.38    0.39
   1   0 -12    7.19    0.43
  -1   0  12    7.19    0.58
  -1   0  12    7.96    0.41
   0   0 -12    5.92    0.51
   0   0 -12    5.11    0.42
   0   0 -12    5.98    0.38
   0   0  12    6.22    0.39
   0   0  12    6.25    0.52
  -1   0 -12    5.97    0.39
  -1   0 -12    5.98    0.50
  -1   0 -12    5.77    0.44
   1   0  12    6.08    0.48
   1   0  12    5.40    0.41
   1   0  12    6.34    0.39
  -2   0 -12    0.74    0.21
  -2   0 -12    1.14    0.26
  -2   0 -12    0.90    0.24
   2   0  12    0.64    0.21
   2   0  12    0.77    0.22
  -3   0 -12    4.00    0.43
  -3   0 -12    2.85    0.39
   3   0  12    3.21    0.38
   3   0  12    2.60    0.42
  -4   0 -12   10.66    0.64
  -4   0 -12   10.15    0.64
  -4   0 -12    9.66    0.65
   4   0  12    9.57    0.64
   4   0  12    9.94    0.63
  -5   0 -12    0.25    0.30
  -5   0 -12    0.60    0.26
  -5   0 -12    0.38    0.31
   5   0  12    0.36    0.26
   5   0  12    0.38    0.41
   5   0  12    0.04    0.27
  -6   0 -12    4.25    0.57
  -6   0 -12    4.83    0.58
  -6   0 -12    5.07    0.47
   6   0  12    4.65    0.45
   6   0  12    5.34    0.48
   6   0  12    4.12    0.56
  -7   0 -12    0.05    0.38
  -7   0 -12    0.14    0.41
  -7   0 -12    0.07    0.30
  -7   0 -12    0.36    0.22
   7   0  12   -0.33    0.46
   7   0  12   -0.48    0.40
   7   0  12    0.69    0.37
   7   0  12    0.59    0.36
  -8   0 -12    0.45    0.51
  -8   0 -12    0.38    0.51
  -8   0 -12    0.54    0.36
  -8   0 -12    0.74    0.26
   8   0  12    0.54    0.53
   8   0  12    1.01    0.43
   8   0  12    0.35    0.58
   8   0  12    1.51    0.49
   4  -1 -12    0.38    0.35
   3  -1 -12   11.66    0.72
  -3   1  12   11.26    0.80
   1  -1 -12   18.22    1.00
   1  -1 -12   20.29    0.79
   1  -1 -12   19.57    0.78
  -1   1  12   18.60    1.06
   0  -1 -12    2.56    0.35
   0  -1 -12    2.63    0.26
   0   1  12    2.18    0.27
   0   1  12    2.84    0.28
   0   1  12    2.59    0.35
  -1  -1 -12   31.78    1.28
  -1  -1 -12   31.43    1.19
  -1  -1 -12   30.93    1.42
   1   1  12   31.62    1.24
   1   1  12   32.89    1.20
   1   1  12   30.29    1.46
  -2  -1 -12   16.85    0.86
  -2  -1 -12   17.29    0.94
   2   1  12   18.04    0.86
   2   1  12   17.30    0.97
   2   1  12   18.44    0.90
  -3  -1 -12   11.77    0.74
  -3  -1 -12   12.01    0.69
  -3  -1 -12   10.55    0.63
   3   1  12   11.30    0.70
   3   1  12   12.86    0.70
  -4  -1 -12   19.43    0.98
  -4  -1 -12   21.01    1.01
  -4  -1 -12   19.57    0.92
   4   1  12   18.91    0.96
   4   1  12   18.79    1.01
  -5  -1 -12    4.74    0.49
  -5  -1 -12    2.89    0.61
  -5  -1 -12    3.36    0.45
   5   1  12    3.91    0.41
   5   1  12    4.54    0.50
   5   1  12    4.74    0.47
  -6  -1 -12    7.30    0.65
  -6  -1 -12    7.92    0.54
  -6  -1 -12    8.34    0.61
   6   1  12    8.19    0.56
   6   1  12    7.21    0.60
   6   1  12    8.21    0.63
   6   1  12    7.70    0.50
  -7  -1 -12    0.89    0.28
  -7  -1 -12    0.40    0.39
  -7  -1 -12    0.66    0.40
   7   1  12    1.47    0.42
   7   1  12    1.22    0.33
   7   1  12    0.17    0.37
   7   1  12    0.74    0.37
  -8  -1 -12    2.40    0.48
  -8  -1 -12    1.78    0.33
  -8  -1 -12    2.75    0.38
  -8  -1 -12    2.15    0.44
   8   1  12    2.70    0.54
   8   1  12    1.97    0.47
   8   1  12    1.72    0.44
   8   1  12    1.08    0.48
   4  -2 -12    2.30    0.50
   3  -2 -12   12.38    0.76
  -3   2  12   13.36    0.85
   2  -2 -12    3.87    0.44
   2  -2 -12    3.60    0.26
  -2   2  12    3.58    0.43
   1  -2 -12    3.24    0.27
   1  -2 -12    3.15    0.43
  -1   2  12    3.39    0.37
   0  -2 -12    4.63    0.32
   0  -2 -12    4.42    0.41
   0   2  12    4.26    0.43
   0   2  12    4.62    0.32
   0   2  12    4.07    0.34
  -1  -2 -12    1.76    0.29
  -1  -2 -12    1.51    0.27
   1   2  12    2.08    0.28
   1   2  12    1.21    0.27
   1   2  12    1.57    0.27
  -2  -2 -12    0.55    0.19
  -2  -2 -12    0.46    0.20
   2   2  12    0.65    0.21
   2   2  12    0.45    0.19
   2   2  12    0.48    0.19
  -3  -2 -12   11.71    0.69
  -3  -2 -12   12.71    0.64
   3   2  12   12.80    0.70
   3   2  12   12.51    0.78
  -4  -2 -12    3.30    0.39
  -4  -2 -12    3.96    0.41
   4   2  12    3.30    0.38
   4   2  12    3.10    0.39
  -5  -2 -12   12.72    0.75
  -5  -2 -12   13.60    0.77
  -5  -2 -12   13.07    0.78
   5   2  12   14.12    0.78
   5   2  12   14.04    0.80
  -6  -2 -12    5.07    0.52
  -6  -2 -12    5.60    0.49
  -6  -2 -12    5.01    0.56
   6   2  12    6.26    0.50
   6   2  12    4.57    0.52
  -7  -2 -12   11.35    0.67
  -7  -2 -12   11.71    0.75
  -7  -2 -12   12.28    0.78
   7   2  12   12.84    0.76
   7   2  12   12.80    0.68
   7   2  12   11.23    0.76
  -8  -2 -12    5.36    0.51
  -8  -2 -12    6.01    0.73
   8   2  12    4.53    0.67
   8   2  12    4.54    0.64
   4  -3 -12    0.23    0.37
  -4   3  12    0.08    0.42
   3  -3 -12   13.62    0.80
  -3   3  12   13.37    0.88
   2  -3 -12    0.36    0.28
   2  -3 -12    0.74    0.14
  -2   3  12    1.02    0.20
   1  -3 -12   14.47    0.60
   1  -3 -12   12.62    0.69
   1  -3 -12   14.21    0.59
  -1   3  12   12.98    0.83
   0  -3 -12    1.27    0.25
   0   3  12    0.92    0.22
   0   3  12    1.27    0.19
   0   3  12    1.08    0.17
  -1  -3 -12   44.26    1.59
  -1  -3 -12   44.41    1.66
   1   3  12   46.04    1.60
   1   3  12   41.60    1.87
   1   3  12   45.85    1.63
  -2  -3 -12    3.83    0.36
  -2  -3 -12    4.56    0.37
   2   3  12    4.05    0.44
   2   3  12    3.70    0.34
  -3  -3 -12   30.09    1.28
  -3  -3 -12   28.64    1.18
   3   3  12   28.11    1.38
  -4  -3 -12    8.16    0.54
  -4  -3 -12    7.62    0.53
   4   3  12    7.50    0.58
  -5  -3 -12   13.52    0.76
  -5  -3 -12   11.63    0.72
   5   3  12   13.68    0.81
  -6  -3 -12    5.99    0.60
  -6  -3 -12    6.01    0.52
   6   3  12    7.74    0.60
  -7  -3 -12    0.25    0.34
  -7  -3 -12    0.45    0.38
   7   3  12   -0.04    0.31
   7   3  12    0.22    0.34
   7   3  12    0.27    0.42
  -8  -3 -12    2.19    0.47
  -8  -3 -12    2.72    0.58
  -8  -3 -12    2.30    0.51
   8   3  12    1.74    0.37
   8   3  12    1.95    0.40
  -9  -3 -12    0.48    0.53
  -9  -3 -12    0.43    0.35
  -9  -3 -12    0.88    0.50
   9   3  12    1.53    0.49
   9   3  12    1.47    0.67
   9   3  12    0.72    0.46
   3  -4 -12    5.93    0.59
   3  -4 -12    6.81    0.81
  -3   4  12    6.05    0.55
   2  -4 -12   12.48    0.48
  -2   4  12   10.57    0.78
   1  -4 -12   25.41    0.97
   1  -4 -12   23.57    0.89
  -1   4  12   22.09    1.21
   0  -4 -12    3.56    0.33
   0  -4 -12    3.48    0.32
   0   4  12    4.03    0.41
   0   4  12    3.77    0.33
  -1  -4 -12   -0.15    0.18
  -1  -4 -12   -0.04    0.19
   1   4  12    0.24    0.17
   1   4  12   -0.12    0.19
   1   4  12    0.03    0.17
  -2  -4 -12    1.40    0.31
   2   4  12    0.97    0.19
   2   4  12    0.82    0.18
  -3  -4 -12    5.51    0.42
  -3  -4 -12    6.25    0.46
   3   4  12    5.39    0.49
   3   4  12    5.22    0.41
  -4  -4 -12    0.11    0.21
  -4  -4 -12    0.53    0.22
   4   4  12   -0.05    0.21
   4   4  12    0.50    0.21
  -5  -4 -12    2.18    0.28
  -5  -4 -12    1.79    0.37
   5   4  12    1.52    0.24
  -6  -4 -12    1.99    0.40
  -6  -4 -12    2.61    0.52
   6   4  12    1.73    0.39
   6   4  12    1.76    0.34
  -7  -4 -12   18.53    0.94
  -7  -4 -12   17.98    1.00
   7   4  12   18.73    1.00
  -8  -4 -12    0.47    0.34
  -8  -4 -12    0.83    0.44
   8   4  12    0.26    0.46
  -9  -4 -12    2.46    0.59
  -9  -4 -12    2.01    0.43
  -9  -4 -12    1.76    0.34
   9   4  12    3.30    0.64
   9   4  12    2.21    0.49
   9   4  12    1.27    0.49
   3  -5 -12    0.08    0.43
  -3   5  12    0.10    0.24
   2  -5 -12   18.72    0.71
   2  -5 -12   18.86    0.92
  -2   5  12   18.25    1.06
   1  -5 -12   14.20    0.64
   1  -5 -12   14.74    0.63
   1  -5 -12   13.90    0.66
  -1   5  12   13.86    0.89
   0  -5 -12   22.88    0.93
   0  -5 -12   22.79    0.95
   0  -5 -12   22.73    0.92
   0   5  12   22.42    0.90
   0   5  12   20.27    1.15
   0   5  12   23.59    0.93
  -1  -5 -12   10.09    0.55
  -1  -5 -12   10.00    0.54
   1   5  12    9.62    0.53
   1   5  12    9.28    0.66
  -2  -5 -12   36.85    1.46
  -2  -5 -12   35.84    1.40
   2   5  12   34.71    1.64
   2   5  12   37.93    1.44
  -3  -5 -12   14.27    0.71
  -3  -5 -12   14.60    0.75
   3   5  12   13.42    0.84
   3   5  12   12.88    0.70
  -4  -5 -12   17.57    0.86
  -4  -5 -12   17.37    0.88
   4   5  12   17.90    0.86
  -5  -5 -12   21.39    1.04
  -5  -5 -12   23.53    1.07
   5   5  12   21.75    1.03
   5   5  12   22.04    0.94
  -6  -5 -12    4.31    0.55
  -6  -5 -12    4.11    0.44
   6   5  12    4.23    0.56
   6   5  12    4.61    0.46
   6   5  12    4.51    0.43
  -7  -5 -12   13.93    0.88
  -7  -5 -12   15.02    0.83
   7   5  12   14.95    0.91
   7   5  12   14.37    0.78
  -8  -5 -12    0.22    0.49
  -8  -5 -12    0.27    0.39
   8   5  12    0.31    0.36
   8   5  12    0.06    0.48
  -9  -5 -12    2.91    0.48
  -9  -5 -12    2.41    0.61
   9   5  12    3.44    0.68
   2  -6 -12   17.81    0.94
   2  -6 -12   15.91    0.68
  -2   6  12   16.65    1.00
   1  -6 -12   10.39    0.54
   1  -6 -12    8.74    0.49
   1  -6 -12    9.93    0.55
   1  -6 -12    9.29    0.61
  -1   6  12    8.64    0.51
  -1   6  12    9.26    0.66
   0  -6 -12   14.82    0.70
   0  -6 -12   14.80    0.69
   0  -6 -12   15.17    0.69
   0   6  12   14.45    0.65
   0   6  12   14.81    0.90
   0   6  12   13.47    0.63
  -1  -6 -12   19.42    0.89
  -1  -6 -12   20.45    0.89
  -1  -6 -12   20.95    0.89
   1   6  12   19.89    0.86
   1   6  12   19.12    1.09
  -2  -6 -12    6.95    0.49
  -2  -6 -12    6.79    0.48
   2   6  12    6.95    0.55
   2   6  12    6.61    0.62
   2   6  12    6.35    0.45
  -3  -6 -12    1.45    0.25
  -3  -6 -12    1.38    0.33
   3   6  12    1.84    0.25
   3   6  12    2.02    0.31
   3   6  12    1.99    0.27
  -4  -6 -12   25.68    1.14
  -4  -6 -12   26.02    1.13
   4   6  12   26.51    1.28
   4   6  12   25.35    1.11
   4   6  12   24.63    1.03
  -5  -6 -12    8.15    0.61
  -5  -6 -12    7.41    0.52
   5   6  12    7.53    0.52
   5   6  12    7.57    0.52
  -6  -6 -12    1.83    0.38
  -6  -6 -12    1.55    0.34
   6   6  12    1.35    0.33
   6   6  12    1.02    0.30
  -7  -6 -12    2.02    0.34
  -7  -6 -12    2.81    0.47
   7   6  12    1.36    0.39
  -8  -6 -12    3.27    0.53
  -8  -6 -12    3.59    0.80
   8   6  12    2.35    0.51
   8   6  12    4.04    0.81
  -9  -6 -12    5.60    1.01
  -9  -6 -12    3.38    0.49
   9   6  12    3.48    0.60
   2  -7 -12   23.43    0.91
   2  -7 -12   21.81    1.21
  -2   7  12   24.73    1.26
   1  -7 -12    0.38    0.24
   1  -7 -12    0.22    0.25
   1  -7 -12   -0.19    0.23
   1  -7 -12   -0.24    0.37
  -1   7  12    0.11    0.26
  -1   7  12    0.08    0.22
  -1   7  12    0.15    0.25
   0  -7 -12   35.47    1.39
   0  -7 -12   36.81    1.41
   0  -7 -12   38.09    1.40
   0   7  12   34.84    1.34
   0   7  12   35.50    1.68
   0   7  12   38.19    1.40
   0   7  12   36.94    1.36
  -1  -7 -12    2.21    0.38
  -1  -7 -12    2.52    0.35
  -1  -7 -12    2.39    0.37
   1   7  12    2.34    0.33
   1   7  12    2.89    0.32
   1   7  12    2.34    0.36
   1   7  12    2.24    0.28
  -2  -7 -12   60.51    2.19
  -2  -7 -12   57.78    2.15
  -2  -7 -12   61.30    2.18
   2   7  12   62.48    2.07
   2   7  12   55.87    2.40
   2   7  12   59.67    2.17
   2   7  12   61.18    2.13
  -3  -7 -12    3.62    0.40
  -3  -7 -12    4.60    0.43
   3   7  12    3.79    0.40
   3   7  12    3.05    0.37
   3   7  12    3.50    0.45
   3   7  12    3.35    0.37
  -4  -7 -12   25.21    1.14
  -4  -7 -12   24.94    1.14
   4   7  12   24.94    1.10
   4   7  12   24.52    1.14
   4   7  12   26.34    1.07
  -5  -7 -12   12.65    0.71
  -5  -7 -12   11.45    1.00
   5   7  12   12.07    0.70
   5   7  12   12.59    0.75
   5   7  12   12.29    0.67
  -6  -7 -12    4.46    0.46
  -6  -7 -12    4.45    0.60
   6   7  12    4.65    0.52
   6   7  12    4.34    0.45
  -7  -7 -12    2.91    0.46
  -7  -7 -12    3.37    0.69
   7   7  12    3.20    0.46
   7   7  12    4.28    0.59
  -8  -7 -12   -0.07    0.50
  -8  -7 -12   -0.02    0.37
   8   7  12    0.14    0.47
   8   7  12    0.20    0.39
  -9  -7 -12    3.17    0.71
   9   7  12    2.65    0.71
   9   7  12    1.67    0.46
   1  -8 -12    1.83    0.30
   1  -8 -12    2.09    0.43
   1  -8 -12    1.16    0.44
  -1   8  12    1.61    0.30
  -1   8  12    1.75    0.38
  -1   8  12    1.49    0.34
   0  -8 -12    5.71    0.46
   0  -8 -12    4.75    0.47
   0  -8 -12    5.62    0.51
   0   8  12    6.04    0.49
   0   8  12    4.97    0.42
   0   8  12    5.91    0.47
   0   8  12    5.70    0.49
  -1  -8 -12   -0.21    0.28
  -1  -8 -12    0.31    0.26
  -1  -8 -12    0.14    0.26
   1   8  12    0.02    0.21
   1   8  12   -0.23    0.29
   1   8  12   -0.39    0.26
   1   8  12    0.18    0.27
  -2  -8 -12    3.32    0.42
  -2  -8 -12    4.16    0.43
  -2  -8 -12    3.86    0.44
   2   8  12    3.57    0.44
   2   8  12    4.90    0.48
   2   8  12    3.89    0.42
  -3  -8 -12    0.79    0.27
  -3  -8 -12    0.86    0.28
  -3  -8 -12    0.61    0.25
   3   8  12    0.61    0.32
   3   8  12    0.61    0.26
  -4  -8 -12    3.30    0.46
  -4  -8 -12    2.73    0.41
  -4  -8 -12    2.86    0.49
   4   8  12    2.34    0.44
   4   8  12    3.35    0.47
   4   8  12    2.66    0.43
  -5  -8 -12    2.84    0.65
  -5  -8 -12    2.52    0.40
   5   8  12    2.99    0.45
   5   8  12    3.53    0.51
  -6  -8 -12    8.85    0.61
   6   8  12    8.90    0.67
   6   8  12    9.24    0.61
   6   8  12    9.28    0.74
  -7  -8 -12    0.43    0.45
  -7  -8 -12   -0.39    0.31
   7   8  12    0.03    0.35
   7   8  12   -0.55    0.42
  -8  -8 -12    2.74    0.53
  -8  -8 -12    3.34    0.56
   8   8  12    3.83    0.64
   8   8  12    3.61    0.77
   0  -9 -12    9.12    0.78
   0  -9 -12    5.73    0.55
   0  -9 -12    8.33    0.57
   0   9  12    7.03    0.55
   0   9  12    7.14    0.53
   0   9  12    6.82    0.58
  -1  -9 -12   11.69    0.70
  -1  -9 -12   12.74    0.74
   1   9  12   11.93    0.73
   1   9  12   11.74    0.68
   1   9  12   12.54    0.80
   1   9  12   11.22    0.66
  -2  -9 -12   31.06    1.32
  -2  -9 -12   31.22    1.32
  -2  -9 -12   31.22    1.32
   2   9  12   28.51    1.48
   2   9  12   31.04    1.28
   2   9  12   31.36    1.32
   2   9  12   30.99    1.27
  -3  -9 -12   10.74    0.70
  -3  -9 -12   11.42    0.65
  -3  -9 -12   11.52    0.68
   3   9  12    9.57    0.64
   3   9  12    9.79    0.68
   3   9  12   10.92    0.67
  -4  -9 -12   31.66    1.36
  -4  -9 -12   33.59    1.39
  -4  -9 -12   32.48    1.62
   4   9  12   31.24    1.33
   4   9  12   30.74    1.34
   4   9  12   31.93    1.41
  -5  -9 -12    0.90    0.38
  -5  -9 -12    0.45    0.28
  -5  -9 -12    1.54    0.35
   5   9  12    0.91    0.35
   5   9  12    0.42    0.29
   5   9  12    1.58    0.38
  -6  -9 -12   14.77    0.83
  -6  -9 -12   16.94    0.97
   6   9  12   17.03    0.97
  -7  -9 -12    0.04    0.47
  -7  -9 -12    0.13    0.33
   7   9  12    0.29    0.49
   7   9  12    0.22    0.45
   7   9  12    0.00    0.35
  -8  -9 -12    5.30    0.64
  -8  -9 -12    7.08    1.02
   8   9  12    4.99    0.63
   8   9  12    6.20    0.97
   8   9  12    5.65    0.84
  -1 -10 -12    2.89    0.54
  -1 -10 -12    1.72    0.36
  -1 -10 -12    2.62    0.61
   1  10  12    2.73    0.60
   1  10  12    1.74    0.29
   1  10  12    2.24    0.53
   1  10  12    1.06    0.36
  -2 -10 -12    3.49    0.62
  -2 -10 -12    2.49    0.51
  -2 -10 -12    3.48    0.54
   2  10  12    2.49    0.41
   2  10  12    2.79    0.54
   2  10  12    2.84    0.36
  -3 -10 -12   -0.17    0.31
  -3 -10 -12    0.55    0.38
  -3 -10 -12    0.25    0.36
   3  10  12    0.21    0.34
   3  10  12    0.23    0.40
  -4 -10 -12    1.91    0.39
  -4 -10 -12    1.33    0.40
   4  10  12    1.49    0.38
  -5 -10 -12    7.76    0.99
  -5 -10 -12    8.38    0.70
  -5 -10 -12    6.19    0.54
   5  10  12    5.73    0.55
   5  10  12    7.97    0.75
  -6 -10 -12    0.89    0.48
  -6 -10 -12   -0.12    0.34
  -6 -10 -12    0.40    0.48
   6  10  12    0.36    0.50
   6  10  12    0.19    0.38
   6  10  12    0.52    0.48
  -7 -10 -12   10.47    0.72
  -7 -10 -12   10.48    0.94
  -7 -10 -12   11.95    0.97
   7  10  12    8.43    0.72
   7  10  12   11.29    0.93
   7  10  12   10.48    0.89
  -2 -11 -12    4.25    0.61
   2  11  12    3.41    0.70
  -3 -11 -12   16.41    0.97
  -3 -11 -12   16.69    0.93
  -3 -11 -12   13.61    0.83
   3  11  12   13.79    0.85
   3  11  12   14.28    0.91
   3  11  12   15.40    0.87
  -4 -11 -12    4.91    0.73
  -4 -11 -12    6.18    0.69
  -4 -11 -12    3.67    0.60
   4  11  12    4.03    0.75
   4  11  12    5.19    0.64
   4  11  12    6.53    0.69
  -5 -11 -12    4.95    0.62
  -5 -11 -12    6.83    0.78
   5  11  12    5.73    0.62
   5  11  12    6.90    0.74
  -6 -11 -12   16.10    1.03
  -6 -11 -12   16.65    0.88
   6  11  12   14.49    0.88
   6  11  12   17.01    1.02
   1   6 -13    3.57    0.57
   1   6 -13    5.75    0.55
   1   6 -13    4.67    0.64
   1   6 -13    4.93    0.88
  -1  -6  13    4.19    0.69
  -1  -6  13    5.23    0.56
  -1  -6  13    3.74    0.57
   0   6 -13    3.45    0.57
   0   6 -13    5.01    0.58
   0   6 -13    5.44    0.65
   0  -6  13    4.74    0.64
   0  -6  13    4.08    0.72
  -1   6 -13    0.49    0.47
  -1   6 -13   -0.14    0.54
  -1   6 -13    0.11    0.43
  -1   6 -13    0.08    0.47
   1  -6  13   -0.43    0.52
   1  -6  13    0.20    0.36
   1  -6  13    0.57    0.47
  -2   6 -13    1.99    0.49
  -2   6 -13    1.40    0.53
  -2   6 -13    1.06    0.50
   2  -6  13    1.32    0.38
   2  -6  13    1.65    0.57
   2   5 -13    1.01    0.34
   2   5 -13    0.90    0.35
   2   5 -13    0.66    0.55
   2   5 -13    0.45    0.27
  -2  -5  13    0.89    0.31
  -2  -5  13    1.07    0.28
   1   5 -13    0.26    0.52
   1   5 -13    0.26    0.35
   1   5 -13    0.27    0.29
   1   5 -13    0.68    0.32
  -1  -5  13   -0.30    0.30
  -1  -5  13    0.33    0.37
  -1  -5  13    0.44    0.29
   0   5 -13    2.39    0.51
   0   5 -13    2.49    0.47
   0   5 -13    1.75    0.37
   0   5 -13    2.13    0.34
   0  -5  13    1.35    0.41
   0  -5  13    1.59    0.35
   0  -5  13    1.74    0.34
  -1   5 -13    0.17    0.40
  -1   5 -13    0.89    0.51
  -1   5 -13    0.28    0.32
   1  -5  13    0.52    0.37
   1  -5  13    0.49    0.46
   1  -5  13    0.38    0.34
  -2   5 -13   -0.05    0.46
  -2   5 -13    0.62    0.37
  -2   5 -13    0.23    0.51
   2  -5  13    0.00    0.35
   2  -5  13   -0.44    0.41
   2  -5  13   -0.20    0.49
  -3   5 -13   -0.12    0.48
  -3   5 -13   -0.01    0.59
  -3   5 -13    0.22    0.48
   3  -5  13   -0.05    0.46
   3  -5  13    0.68    0.38
   3  -5  13    0.40    0.59
  -4   5 -13    0.19    0.41
  -4   5 -13   -0.08    0.54
  -4   5 -13   -0.29    0.51
   4  -5  13   -0.02    0.68
   4  -5  13   -0.07    0.41
   3   4 -13    5.72    0.78
   3   4 -13    4.09    0.41
  -3  -4  13    4.79    0.48
   2   4 -13    0.64    0.30
   2   4 -13    0.82    0.29
   2   4 -13    1.09    0.23
   2   4 -13    0.33    0.48
  -2  -4  13    0.38    0.40
  -2  -4  13    0.98    0.26
   1   4 -13    5.70    0.48
   1   4 -13    6.06    0.48
   1   4 -13    6.27    0.52
   1   4 -13    5.21    0.71
  -1  -4  13    6.32    0.53
  -1  -4  13    6.62    0.45
  -1  -4  13    6.96    0.59
   0   4 -13    0.15    0.42
   0   4 -13    0.15    0.32
   0   4 -13   -0.30    0.27
   0  -4  13    0.18    0.28
   0  -4  13    0.14    0.27
   0  -4  13    0.04    0.35
  -1   4 -13   14.67    0.74
  -1   4 -13   12.46    0.77
  -1   4 -13   13.28    0.88
   1  -4  13   13.55    0.74
   1  -4  13   13.13    0.79
   1  -4  13   13.64    0.85
  -2   4 -13    1.70    0.32
  -2   4 -13    1.22    0.43
  -2   4 -13    0.99    0.36
   2  -4  13    1.42    0.43
   2  -4  13    1.94    0.31
   2  -4  13    1.27    0.33
  -3   4 -13    2.32    0.44
  -3   4 -13    3.62    0.56
   3  -4  13    3.00    0.57
   3  -4  13    3.97    0.53
   3  -4  13    3.82    0.75
  -4   4 -13    4.20    0.70
  -4   4 -13    3.22    0.65
   4  -4  13    4.05    0.55
   4  -4  13    3.50    0.65
  -5   4 -13    0.58    0.48
  -5   4 -13   -0.35    0.54
  -5   4 -13    0.30    0.42
   5  -4  13    0.16    0.62
   5  -4  13    0.20    0.42
   3   3 -13    1.06    0.48
   3   3 -13    1.15    0.23
  -3  -3  13    0.58    0.26
   2   3 -13    0.46    0.20
   2   3 -13    0.42    0.25
   2   3 -13   -0.03    0.42
   2   3 -13    0.60    0.27
  -2  -3  13    0.57    0.31
  -2  -3  13    0.04    0.25
   1   3 -13    0.76    0.24
   1   3 -13    0.81    0.27
   1   3 -13    1.18    0.22
   1   3 -13    0.31    0.41
  -1  -3  13    0.95    0.23
  -1  -3  13    1.09    0.24
  -1  -3  13    0.81    0.29
   0   3 -13    0.05    0.24
   0   3 -13   -0.13    0.28
   0   3 -13   -0.14    0.40
   0  -3  13    0.27    0.24
   0  -3  13   -0.07    0.30
   0  -3  13    0.02    0.24
  -1   3 -13    0.16    0.30
  -1   3 -13    0.55    0.27
  -1   3 -13   -0.02    0.36
   1  -3  13    0.47    0.28
   1  -3  13    0.54    0.26
   1  -3  13    0.33    0.34
  -2   3 -13    0.29    0.39
  -2   3 -13    0.23    0.34
  -2   3 -13    0.56    0.29
   2  -3  13    0.67    0.37
   2  -3  13    0.57    0.29
   2  -3  13    0.76    0.29
  -3   3 -13    3.06    0.40
  -3   3 -13    2.88    0.68
  -3   3 -13    2.61    0.61
   3  -3  13    3.70    0.47
   3  -3  13    4.64    0.67
   3  -3  13    3.95    0.63
  -4   3 -13    0.19    0.36
  -4   3 -13    0.07    0.42
  -4   3 -13    0.23    0.35
   4  -3  13    0.03    0.38
   4  -3  13    0.00    0.34
   4  -3  13   -0.16    0.46
  -5   3 -13    2.83    0.61
  -5   3 -13    2.10    0.42
   5  -3  13    2.37    0.40
   5  -3  13    1.34    0.41
   5  -3  13    1.27    0.51
   6  -3  13    0.08    0.61
   3   2 -13    6.57    0.33
  -3  -2  13    6.41    0.55
   2   2 -13    8.05    0.45
   2   2 -13    7.49    0.69
  -2  -2  13    9.01    0.69
   1   2 -13   22.45    1.21
   1   2 -13   21.79    0.87
   1   2 -13   22.56    0.94
  -1  -2  13   20.45    1.20
  -1  -2  13   22.31    0.92
   0   2 -13    0.54    0.37
   0   2 -13    0.44    0.22
   0   2 -13    0.73    0.25
   0  -2  13    0.26    0.24
   0  -2  13    0.60    0.26
   0  -2  13    0.52    0.22
  -1   2 -13   22.83    0.96
  -1   2 -13   21.17    1.01
  -1   2 -13   22.62    1.15
   1  -2  13   22.85    0.96
   1  -2  13   22.20    1.18
   1  -2  13   21.85    1.01
  -2   2 -13    0.62    0.37
  -2   2 -13    0.58    0.32
  -2   2 -13    0.81    0.27
   2  -2  13    0.55    0.25
   2  -2  13    0.64    0.27
   2  -2  13    0.25    0.34
  -3   2 -13   10.05    0.70
  -3   2 -13    8.04    0.63
  -3   2 -13    9.21    0.61
   3  -2  13    8.61    0.64
   3  -2  13    7.95    0.62
   3  -2  13    9.06    0.58
  -4   2 -13    2.34    0.36
  -4   2 -13    2.82    0.54
  -4   2 -13    2.39    0.42
   4  -2  13    2.35    0.37
   4  -2  13    2.33    0.36
   4  -2  13    2.26    0.46
  -5   2 -13   -0.10    0.49
  -5   2 -13    0.48    0.24
  -5   2 -13   -0.53    0.38
  -5   2 -13    0.73    0.41
   5  -2  13    0.57    0.37
   5  -2  13    0.08    0.44
   5  -2  13    0.17    0.48
  -6   2 -13    0.34    0.53
  -6   2 -13    1.54    0.43
  -6   2 -13    1.00    0.27
  -6   2 -13    0.78    0.38
   6  -2  13    0.40    0.49
   6  -2  13    0.18    0.58
   6  -2  13    0.76    0.43
   3   1 -13    0.59    0.40
  -3  -1  13    0.20    0.24
   2   1 -13    0.11    0.20
   2   1 -13   -0.03    0.37
  -2  -1  13   -0.20    0.23
   1   1 -13    0.12    0.18
   1   1 -13    0.34    0.22
   1   1 -13    0.20    0.35
  -1  -1  13    0.25    0.22
  -1  -1  13    0.61    0.23
  -1  -1  13    0.45    0.23
   0   1 -13    1.28    0.21
   0   1 -13    1.23    0.34
   0  -1  13    1.16    0.24
   0  -1  13    1.00    0.21
  -1   1 -13    2.02    0.26
  -1   1 -13    2.44    0.35
  -1   1 -13    1.78    0.37
   1  -1  13    1.75    0.35
   1  -1  13    2.23    0.35
  -2   1 -13    0.63    0.27
  -2   1 -13    0.32    0.33
   2  -1  13    0.43    0.29
   2  -1  13    0.76    0.26
  -3   1 -13    0.25    0.28
  -3   1 -13   -0.08    0.33
  -3   1 -13   -0.01    0.32
   3  -1  13    0.15    0.29
   3  -1  13    0.10    0.26
   3  -1  13   -0.21    0.31
  -4   1 -13    4.21    0.72
  -4   1 -13    3.98    0.54
  -4   1 -13    5.01    0.57
   4  -1  13    4.36    0.53
   4  -1  13    3.33    0.57
   4  -1  13    4.08    0.47
  -5   1 -13    4.72    0.63
  -5   1 -13    5.49    0.56
   5  -1  13    4.95    0.53
   5  -1  13    5.85    0.61
   5  -1  13    4.01    0.65
  -6   1 -13    0.27    0.24
  -6   1 -13    0.16    0.37
  -6   1 -13    0.16    0.46
  -6   1 -13   -0.02    0.50
   6  -1  13    0.38    0.39
   6  -1  13    0.47    0.42
   6  -1  13    0.06    0.53
  -7   1 -13    1.74    0.51
  -7   1 -13    0.85    0.50
  -7   1 -13    2.05    0.42
  -7   1 -13    1.12    0.42
   7  -1  13    1.96    0.54
   7  -1  13    2.04    0.55
   7  -1  13    2.83    0.59
   3   0 -13    0.05    0.38
  -3   0  13   -0.14    0.22
   2   0 -13   18.16    1.03
  -2   0  13   18.28    1.08
   1   0 -13    1.43    0.28
   1   0 -13    1.30    0.31
   1   0 -13    0.97    0.20
  -1   0  13    0.98    0.23
   0   0 -13   23.01    0.97
   0   0 -13   24.23    0.91
   0   0 -13   22.15    1.16
   0   0  13   21.44    0.92
   0   0  13   21.65    1.22
  -1   0 -13    7.71    0.46
  -1   0 -13    6.33    0.50
  -1   0 -13    7.45    0.61
   1   0  13    7.41    0.49
   1   0  13    7.28    0.59
   1   0  13    7.30    0.52
  -2   0 -13    9.64    0.56
  -2   0 -13    9.04    0.61
  -2   0 -13    9.69    0.68
   2   0  13    9.77    0.61
   2   0  13    9.56    0.54
   2   0  13   10.04    0.70
  -3   0 -13    9.61    0.69
  -3   0 -13   10.17    0.63
   3   0  13   10.43    0.70
   3   0  13   10.84    0.60
   3   0  13   10.07    0.65
  -4   0 -13    4.96    0.54
  -4   0 -13    5.21    0.56
  -4   0 -13    5.95    0.53
   4   0  13    5.62    0.47
   4   0  13    6.15    0.50
   4   0  13    6.03    0.58
  -5   0 -13    7.33    0.63
  -5   0 -13    6.57    0.61
  -5   0 -13    6.89    0.56
   5   0  13    7.06    0.57
   5   0  13    5.85    0.58
   5   0  13    6.50    0.65
  -6   0 -13    0.12    0.34
  -6   0 -13    0.53    0.42
  -6   0 -13    0.64    0.41
   6   0  13    0.10    0.42
   6   0  13    0.47    0.40
   6   0  13    0.75    0.36
  -7   0 -13    1.77    0.46
  -7   0 -13    1.32    0.50
  -7   0 -13    1.03    0.37
   7   0  13    1.73    0.45
   7   0  13    2.08    0.42
   7   0  13    1.28    0.53
   7   0  13    1.23    0.45
   3  -1 -13    0.11    0.36
  -3   1  13   -0.07    0.25
   2  -1 -13    3.30    0.53
  -2   1  13    3.96    0.43
   1  -1 -13    7.74    0.43
   1  -1 -13    7.37    0.63
  -1   1  13    6.59    0.58
   0  -1 -13    0.21    0.32
   0  -1 -13    0.69    0.19
   0  -1 -13    0.33    0.20
   0   1  13    0.34    0.19
   0   1  13    0.45    0.20
   0   1  13    0.42    0.22
  -1  -1 -13    0.89    0.20
  -1  -1 -13    1.20    0.23
  -1  -1 -13    0.67    0.30
   1   1  13    1.10    0.22
   1   1  13    1.23    0.27
  -2  -1 -13    0.76    0.22
  -2  -1 -13    0.44    0.30
  -2  -1 -13    0.92    0.24
   2   1  13    0.53    0.21
   2   1  13    0.46    0.24
   2   1  13    0.80    0.22
  -3  -1 -13    4.74    0.45
  -3  -1 -13    4.66    0.53
  -3  -1 -13    3.81    0.45
   3   1  13    4.00    0.43
   3   1  13    4.94    0.48
   3   1  13    4.32    0.48
  -4  -1 -13    8.24    0.67
  -4  -1 -13    9.09    0.67
  -4  -1 -13   10.19    0.65
   4   1  13   10.48    0.62
   4   1  13    9.80    0.67
   4   1  13   10.79    0.69
  -5  -1 -13    0.86    0.31
  -5  -1 -13    1.08    0.31
  -5  -1 -13    1.34    0.32
   5   1  13    1.24    0.28
   5   1  13    0.82    0.35
   5   1  13    1.25    0.34
  -6  -1 -13   27.26    1.27
  -6  -1 -13   26.18    1.22
  -6  -1 -13   27.27    1.19
   6   1  13   25.28    1.23
   6   1  13   25.85    1.18
   6   1  13   24.38    1.22
  -7  -1 -13    6.73    0.58
  -7  -1 -13    8.17    0.76
  -7  -1 -13    8.00    0.73
   7   1  13    6.46    0.63
   7   1  13    6.70    0.75
   7   1  13    8.87    0.78
   7   1  13    8.72    0.63
   8   1  13    0.94    0.60
   8   1  13    1.61    0.57
   3  -2 -13    6.81    0.65
  -3   2  13    6.68    0.60
   2  -2 -13   28.03    0.93
   2  -2 -13   28.73    1.33
  -2   2  13   26.50    1.41
   1  -2 -13    2.95    0.49
   1  -2 -13    3.20    0.30
  -1   2  13    2.93    0.40
   0  -2 -13   64.91    2.17
   0  -2 -13   63.27    2.52
   0  -2 -13   66.53    2.23
   0   2  13   64.42    2.17
   0   2  13   69.64    2.19
   0   2  13   61.97    2.60
  -1  -2 -13    2.09    0.32
  -1  -2 -13    1.54    0.23
  -1  -2 -13    1.38    0.30
   1   2  13    1.36    0.23
  -2  -2 -13   56.05    1.98
  -2  -2 -13   56.42    2.24
  -2  -2 -13   54.66    2.08
   2   2  13   54.69    2.29
   2   2  13   57.43    2.02
   2   2  13   57.21    2.05
  -3  -2 -13    8.02    0.54
  -3  -2 -13    7.41    0.57
  -3  -2 -13    7.48    0.64
   3   2  13    8.87    0.58
   3   2  13    8.37    0.60
   3   2  13    8.99    0.57
  -4  -2 -13   10.98    0.68
  -4  -2 -13   11.60    0.75
  -4  -2 -13   11.35    0.71
   4   2  13   11.73    0.75
   4   2  13   11.90    0.66
   4   2  13   11.43    0.69
  -5  -2 -13   17.39    0.92
  -5  -2 -13   17.35    0.93
  -5  -2 -13   16.62    0.88
   5   2  13   17.47    1.08
   5   2  13   16.04    0.94
   5   2  13   17.95    0.88
  -6  -2 -13   -0.01    0.35
  -6  -2 -13    0.24    0.31
  -6  -2 -13   -0.22    0.57
   6   2  13    0.32    0.34
   6   2  13    0.06    0.36
   6   2  13    0.01    0.28
  -7  -2 -13    0.43    0.42
  -7  -2 -13   -0.14    0.33
  -7  -2 -13    0.53    0.49
   7   2  13    0.49    0.39
   7   2  13   -0.25    0.47
   7   2  13    0.00    0.34
   7   2  13    1.03    0.41
  -8  -2 -13   -0.04    0.51
  -8  -2 -13    0.01    0.37
  -8  -2 -13   -0.21    0.55
   8   2  13    0.12    0.63
   8   2  13    0.16    0.40
   8   2  13   -0.23    0.53
   3  -3 -13    0.70    0.39
  -3   3  13   -0.19    0.24
   2  -3 -13    0.87    0.16
   2  -3 -13    1.41    0.37
  -2   3  13    0.93    0.23
   1  -3 -13    0.24    0.19
   1  -3 -13    0.41    0.32
   1  -3 -13    0.24    0.18
  -1   3  13    0.19    0.22
   0  -3 -13    0.04    0.19
   0  -3 -13    0.11    0.21
   0   3  13   -0.05    0.17
   0   3  13    0.39    0.20
   0   3  13    0.05    0.22
  -1  -3 -13    0.25    0.21
   1   3  13    0.26    0.21
   1   3  13    0.22    0.19
  -2  -3 -13    0.40    0.24
  -2  -3 -13   -0.10    0.21
   2   3  13    0.11    0.23
   2   3  13   -0.06    0.21
   2   3  13    0.13    0.23
  -3  -3 -13    3.31    0.44
  -3  -3 -13    3.52    0.41
   3   3  13    2.64    0.40
   3   3  13    2.70    0.40
   3   3  13    3.34    0.41
  -4  -3 -13    2.78    0.44
  -4  -3 -13    3.46    0.46
   4   3  13    3.44    0.45
   4   3  13    3.05    0.37
   4   3  13    2.65    0.44
  -5  -3 -13    6.01    0.54
  -5  -3 -13    5.24    0.63
   5   3  13    4.71    0.50
   5   3  13    6.51    0.59
   5   3  13    6.13    0.52
  -6  -3 -13    5.84    0.57
  -6  -3 -13    6.34    0.67
   6   3  13    6.09    0.52
   6   3  13    6.62    0.68
   6   3  13    5.38    0.56
  -7  -3 -13    0.03    0.33
  -7  -3 -13   -0.02    0.41
  -7  -3 -13   -0.06    0.41
   7   3  13    0.30    0.32
   7   3  13   -0.43    0.36
   7   3  13    0.10    0.43
   7   3  13    0.61    0.51
  -8  -3 -13    4.14    0.86
  -8  -3 -13    3.99    0.72
  -8  -3 -13    5.56    0.58
   8   3  13    4.49    0.75
   2  -4 -13    0.36    0.36
   2  -4 -13    0.28    0.17
  -2   4  13    0.09    0.22
   1  -4 -13   20.89    0.82
  -1   4  13   20.33    1.19
   0  -4 -13    7.77    0.48
   0  -4 -13    8.41    0.50
   0   4  13    8.35    0.66
   0   4  13    8.10    0.46
  -1  -4 -13   31.82    1.21
  -1  -4 -13   30.20    1.25
   1   4  13   30.27    1.51
  -2  -4 -13   19.58    0.87
  -2  -4 -13   18.35    0.92
   2   4  13   19.28    1.10
   2   4  13   20.62    0.89
  -3  -4 -13   18.50    0.93
  -3  -4 -13   17.15    0.84
   3   4  13   17.85    0.83
   3   4  13   17.21    1.02
  -4  -4 -13   23.74    1.13
  -4  -4 -13   24.71    1.09
   4   4  13   23.67    1.26
   4   4  13   24.07    1.07
  -5  -4 -13   -0.21    0.28
   5   4  13   -0.07    0.32
   5   4  13    0.55    0.25
  -6  -4 -13   16.32    0.93
  -6  -4 -13   16.66    0.92
   6   4  13   18.51    0.95
  -7  -4 -13    2.78    0.40
   7   4  13    3.32    0.76
  -8  -4 -13    1.13    0.52
  -8  -4 -13    0.95    0.41
   8   4  13    0.80    0.47
   8   4  13    1.34    0.55
   8   4  13    1.18    0.52
   2  -5 -13    0.42    0.20
   1  -5 -13    8.43    0.45
  -1   5  13    8.08    0.64
   0  -5 -13    0.78    0.23
   0  -5 -13    1.11    0.23
   0  -5 -13    0.85    0.23
   0   5  13    1.13    0.23
  -1  -5 -13    0.58    0.23
  -1  -5 -13    0.75    0.23
   1   5  13    0.90    0.24
   1   5  13    1.02    0.20
   1   5  13    0.42    0.20
  -2  -5 -13    0.47    0.24
  -2  -5 -13    0.12    0.23
   2   5  13    0.56    0.22
   2   5  13    0.36    0.25
   2   5  13    0.59    0.23
  -3  -5 -13    1.27    0.25
   3   5  13    1.28    0.27
   3   5  13    1.25    0.25
   3   5  13    1.89    0.41
  -4  -5 -13    0.19    0.27
  -4  -5 -13    0.04    0.24
   4   5  13   -0.24    0.30
   4   5  13    0.11    0.25
   4   5  13    0.24    0.22
  -5  -5 -13   11.65    0.71
   5   5  13   10.57    0.66
   5   5  13   10.99    0.78
   5   5  13   10.54    0.69
  -6  -5 -13    1.45    0.39
  -6  -5 -13    0.75    0.30
   6   5  13    0.61    0.32
   6   5  13    0.65    0.37
  -7  -5 -13    5.43    0.76
  -7  -5 -13    5.45    0.58
   7   5  13    5.58    0.73
   7   5  13    5.38    0.62
   7   5  13    5.51    0.53
  -8  -5 -13    3.23    0.42
  -8  -5 -13    3.28    0.58
   8   5  13    3.98    0.93
   1  -6 -13   23.36    0.95
   1  -6 -13   24.00    1.08
   1  -6 -13   24.41    0.94
  -1   6  13   23.92    1.29
   0  -6 -13    0.31    0.25
   0  -6 -13    0.50    0.24
   0  -6 -13    0.39    0.25
   0   6  13    0.75    0.26
   0   6  13    0.49    0.24
   0   6  13    0.51    0.20
  -1  -6 -13   58.50    2.12
  -1  -6 -13   59.95    2.08
  -1  -6 -13   60.03    2.10
   1   6  13   58.69    2.07
   1   6  13   55.98    2.42
   1   6  13   60.13    2.09
  -2  -6 -13   15.47    0.77
  -2  -6 -13   14.35    0.77
   2   6  13   14.99    0.75
   2   6  13   14.20    0.92
   2   6  13   14.81    0.76
  -3  -6 -13   32.06    1.34
  -3  -6 -13   30.87    1.28
   3   6  13   30.20    1.51
   3   6  13   30.74    1.28
   3   6  13   30.51    1.29
  -4  -6 -13   21.61    1.01
  -4  -6 -13   19.51    0.98
   4   6  13   20.13    0.97
   4   6  13   20.35    1.15
   4   6  13   21.70    1.09
  -5  -6 -13    0.75    0.31
   5   6  13    1.31    0.34
   5   6  13    0.62    0.27
  -6  -6 -13   10.14    0.68
   6   6  13   11.93    0.78
   6   6  13   10.19    0.65
   6   6  13    9.46    0.63
  -7  -6 -13   -0.17    0.44
  -7  -6 -13    0.13    0.35
   7   6  13    0.11    0.34
   7   6  13   -0.13    0.44
   7   6  13    0.18    0.46
  -8  -6 -13    2.15    0.55
  -8  -6 -13    1.10    0.40
   8   6  13    1.46    0.37
   1  -7 -13    0.24    0.41
   1  -7 -13    0.83    0.27
   1  -7 -13    0.40    0.26
   1  -7 -13    0.92    0.29
  -1   7  13    0.59    0.41
   0  -7 -13    2.25    0.45
   0  -7 -13    1.54    0.27
   0  -7 -13    1.73    0.28
   0   7  13    1.13    0.24
   0   7  13    1.46    0.25
   0   7  13    1.38    0.32
   0   7  13    1.22    0.25
  -1  -7 -13    0.94    0.27
  -1  -7 -13    0.39    0.27
  -1  -7 -13    1.22    0.29
   1   7  13    0.81    0.23
   1   7  13    0.59    0.22
   1   7  13    0.38    0.30
   1   7  13    0.70    0.25
  -2  -7 -13   -0.18    0.27
  -2  -7 -13    0.46    0.26
  -2  -7 -13    0.04    0.29
   2   7  13    0.09    0.21
   2   7  13    0.37    0.24
   2   7  13   -0.05    0.27
   2   7  13    0.07    0.30
  -3  -7 -13   -0.15    0.27
  -3  -7 -13    0.21    0.29
   3   7  13    0.12    0.26
   3   7  13    0.18    0.29
   3   7  13    0.49    0.30
   3   7  13    0.14    0.21
  -4  -7 -13    0.21    0.30
  -4  -7 -13    0.02    0.27
   4   7  13   -0.03    0.31
   4   7  13    0.03    0.28
   4   7  13   -0.23    0.22
  -5  -7 -13    3.60    0.45
  -5  -7 -13    2.59    0.40
   5   7  13    2.87    0.46
   5   7  13    3.07    0.41
  -6  -7 -13    0.95    0.49
  -6  -7 -13    0.48    0.31
   6   7  13    1.09    0.31
   6   7  13    1.60    0.39
   6   7  13    1.04    0.38
  -7  -7 -13    7.39    0.82
  -7  -7 -13    7.19    0.61
   7   7  13    5.87    0.57
   7   7  13    8.54    0.81
   7   7  13    6.30    0.66
  -8  -7 -13    0.56    0.57
  -8  -7 -13    0.36    0.41
   8   7  13    0.62    0.40
   8   7  13    1.55    0.63
   0  -8 -13   14.52    0.79
   0  -8 -13   16.73    0.79
   0  -8 -13   14.41    0.77
   0   8  13   13.34    0.71
   0   8  13   15.97    0.78
  -1  -8 -13   16.05    0.82
  -1  -8 -13   16.22    0.80
  -1  -8 -13   15.80    0.83
   1   8  13   14.77    0.93
   1   8  13   15.52    0.74
   1   8  13   15.13    0.76
   1   8  13   14.20    0.80
  -2  -8 -13    7.83    0.58
  -2  -8 -13    8.69    0.56
  -2  -8 -13    5.94    0.54
   2   8  13    7.68    0.61
   2   8  13    7.17    0.55
   2   8  13    6.66    0.50
   2   8  13    7.66    0.60
  -3  -8 -13   30.36    1.31
  -3  -8 -13   29.05    1.28
  -3  -8 -13   30.89    1.29
   3   8  13   30.71    1.20
   3   8  13   27.31    1.49
   3   8  13   29.20    1.24
   3   8  13   29.32    1.33
  -4  -8 -13    1.10    0.29
  -4  -8 -13    1.98    0.37
   4   8  13    1.49    0.41
   4   8  13    1.19    0.31
  -5  -8 -13   14.63    0.81
  -5  -8 -13   15.27    0.90
   5   8  13   13.70    0.78
   5   8  13   15.56    0.88
   5   8  13   15.19    0.79
  -6  -8 -13    1.33    0.41
  -6  -8 -13    1.02    0.33
   6   8  13    0.84    0.36
   6   8  13    1.47    0.43
   6   8  13    1.29    0.45
  -7  -8 -13    2.75    0.49
  -7  -8 -13    2.57    0.55
   7   8  13    2.06    0.50
   7   8  13    2.14    0.39
  -1  -9 -13    2.85    0.38
  -1  -9 -13    2.16    0.36
  -1  -9 -13    2.41    0.39
   1   9  13    2.34    0.41
   1   9  13    1.96    0.38
   1   9  13    2.27    0.36
   1   9  13    1.76    0.37
  -2  -9 -13   -0.08    0.37
  -2  -9 -13    0.54    0.35
  -2  -9 -13   -0.20    0.34
   2   9  13    0.28    0.39
   2   9  13    0.70    0.37
   2   9  13    0.25    0.35
  -3  -9 -13    7.53    0.60
  -3  -9 -13    5.85    0.58
  -3  -9 -13    6.60    0.63
   3   9  13    5.43    0.59
   3   9  13    6.13    0.61
   3   9  13    7.06    0.69
   3   9  13    7.04    0.63
  -4  -9 -13    4.01    0.58
  -4  -9 -13    3.04    0.50
  -4  -9 -13    2.93    0.68
   4   9  13    3.66    0.67
   4   9  13    2.37    0.55
   4   9  13    3.49    0.53
  -5  -9 -13    0.43    0.42
  -5  -9 -13    0.39    0.35
  -5  -9 -13    0.44    0.42
   5   9  13    0.13    0.36
   5   9  13    0.74    0.39
   5   9  13    0.25    0.40
  -6  -9 -13   11.70    0.85
  -6  -9 -13    9.92    0.70
   6   9  13   10.68    0.85
   6   9  13    9.10    0.70
  -7  -9 -13    2.86    0.41
  -7  -9 -13    3.10    0.59
   7   9  13    3.05    0.85
   7   9  13    3.67    0.79
   7   9  13    2.14    0.39
   2  10  13   25.87    1.20
  -3 -10 -13   10.72    0.81
  -3 -10 -13   10.09    0.72
  -3 -10 -13   10.50    0.76
   3  10  13   10.99    0.80
   3  10  13   12.09    0.77
   3  10  13    9.17    0.72
  -4 -10 -13    7.36    0.72
  -4 -10 -13    8.16    0.71
  -5 -10 -13   17.10    1.00
  -5 -10 -13   13.88    0.95
  -5 -10 -13   14.18    0.85
   5  10  13   16.28    1.18
   5  10  13   13.26    0.85
  -6 -10 -13   -0.02    0.53
  -6 -10 -13    0.24    0.54
  -6 -10 -13    0.12    0.39
   6  10  13    0.04    0.53
   6  10  13   -0.58    0.45
   1   4 -14    0.49    0.58
   1   4 -14    0.90    0.35
  -1  -4  14    0.66    0.33
  -1  -4  14    0.11    0.41
   0   4 -14    0.83    0.33
   0   4 -14    0.77    0.39
   0   4 -14    0.90    0.54
   0   4 -14    0.39    0.35
   0  -4  14   -0.17    0.43
   0  -4  14    0.63    0.31
  -1   4 -14    0.30    0.49
  -1   4 -14    0.36    0.41
  -1   4 -14    0.23    0.36
   1  -4  14    0.32    0.32
   1  -4  14    0.93    0.35
   1  -4  14    0.98    0.46
  -2   4 -14    5.86    0.78
  -2   4 -14    4.65    0.70
  -2   4 -14    4.50    0.81
   2  -4  14    5.58    0.61
   2  -4  14    5.46    0.77
   2  -4  14    4.11    0.56
  -3   4 -14    0.44    0.52
  -3   4 -14    0.12    0.48
  -3   4 -14    0.02    0.42
   3  -4  14   -0.07    0.59
   3  -4  14    0.31    0.39
   1   3 -14    2.53    0.50
   1   3 -14    2.30    0.45
   1   3 -14    3.13    0.44
   1   3 -14    3.28    0.50
  -1  -3  14    2.76    0.52
  -1  -3  14    2.98    0.43
   0   3 -14   13.48    0.68
   0   3 -14   12.86    0.74
   0   3 -14   10.43    0.89
   0  -3  14   12.72    0.86
   0  -3  14   11.90    0.73
   0  -3  14   12.91    0.66
  -1   3 -14    0.78    0.37
  -1   3 -14   -0.01    0.48
   1  -3  14    0.90    0.40
   1  -3  14    0.88    0.33
   1  -3  14    0.89    0.30
  -2   3 -14    4.16    0.59
  -2   3 -14    3.44    0.49
   2  -3  14    5.24    0.67
   2  -3  14    4.53    0.56
  -3   3 -14    1.91    0.42
  -3   3 -14    2.03    0.44
  -3   3 -14    0.86    0.43
   3  -3  14    1.75    0.38
   3  -3  14    1.51    0.35
  -4   3 -14    0.40    0.43
  -4   3 -14   -0.44    0.50
  -4   3 -14    0.25    0.45
   4  -3  14    0.47    0.38
   4  -3  14    0.33    0.59
   4  -3  14    0.16    0.47
   2   2 -14   -0.04    0.27
   2   2 -14    0.20    0.51
  -2  -2  14    0.10    0.25
   1   2 -14    0.88    0.31
   1   2 -14    0.38    0.24
   1   2 -14    0.44    0.45
  -1  -2  14    0.32    0.30
  -1  -2  14    0.40    0.26
   0   2 -14    0.52    0.28
   0   2 -14    0.40    0.32
   0   2 -14    0.50    0.45
   0  -2  14    0.42    0.27
   0  -2  14   -0.09    0.32
  -1   2 -14    4.96    0.52
  -1   2 -14    5.45    0.72
  -1   2 -14    5.92    0.51
   1  -2  14    5.20    0.50
   1  -2  14    5.52    0.56
   1  -2  14    5.16    0.46
  -2   2 -14    5.58    0.55
  -2   2 -14    4.79    0.71
  -2   2 -14    3.88    0.57
   2  -2  14    4.89    0.51
   2  -2  14    5.25    0.59
   2  -2  14    5.20    0.54
  -3   2 -14    0.20    0.40
  -3   2 -14    0.79    0.37
  -3   2 -14    0.48    0.48
   3  -2  14    0.09    0.40
   3  -2  14    0.73    0.38
   3  -2  14    0.24    0.31
  -4   2 -14    5.14    0.72
  -4   2 -14    6.53    0.69
  -4   2 -14    4.97    0.74
   4  -2  14    5.31    0.56
   4  -2  14    5.12    0.76
   4  -2  14    6.08    0.68
  -5   2 -14    0.27    0.47
  -5   2 -14    0.14    0.59
  -5   2 -14   -0.50    0.46
   5  -2  14    0.82    0.61
   5  -2  14    0.39    0.42
   5  -2  14    0.86    0.58
   2   1 -14    0.74    0.47
   2   1 -14    0.59    0.33
  -2  -1  14    0.43    0.23
   1   1 -14    3.53    0.68
   1   1 -14    3.64    0.44
   1   1 -14    3.09    0.37
  -1  -1  14    4.06    0.39
  -1  -1  14    4.03    0.57
   0   1 -14    0.89    0.43
   0   1 -14    0.61    0.27
   0   1 -14    0.99    0.24
   0  -1  14    0.33    0.29
   0  -1  14    0.42    0.25
   0  -1  14    0.81    0.25
  -1   1 -14   14.23    0.77
  -1   1 -14   14.72    0.96
  -1   1 -14   14.60    0.73
   1  -1  14   15.49    0.78
   1  -1  14   13.72    0.75
   1  -1  14   14.96    0.91
  -2   1 -14    1.82    0.33
  -2   1 -14    2.20    0.41
  -2   1 -14    2.15    0.48
   2  -1  14    2.56    0.52
   2  -1  14    2.09    0.45
   2  -1  14    2.89    0.41
  -3   1 -14    4.24    0.58
  -3   1 -14    5.32    0.59
  -3   1 -14    4.77    0.66
   3  -1  14    5.45    0.52
   3  -1  14    4.65    0.63
   3  -1  14    5.79    0.52
  -4   1 -14    7.37    0.70
  -4   1 -14    8.42    0.69
   4  -1  14    9.44    0.68
   4  -1  14    7.37    0.75
   4  -1  14    8.81    0.64
  -5   1 -14    0.52    0.43
  -5   1 -14    0.11    0.48
  -5   1 -14    0.66    0.47
   5  -1  14   -0.01    0.38
   5  -1  14    0.70    0.38
   5  -1  14   -0.16    0.53
  -6   1 -14    1.96    0.44
  -6   1 -14    1.27    0.50
  -6   1 -14    0.42    0.58
  -6   1 -14    1.40    0.47
   6  -1  14    1.23    0.43
   6  -1  14    0.45    0.56
   2   0 -14    1.82    0.30
  -2   0  14    1.97    0.38
   1   0 -14    0.97    0.40
   1   0 -14    1.01    0.26
  -1   0  14    1.13    0.31
   0   0 -14    0.09    0.40
   0   0 -14    0.29    0.22
   0   0 -14    0.47    0.26
   0   0  14    0.05    0.25
   0   0  14    0.13    0.25
   0   0  14   -0.21    0.22
  -1   0 -14    1.04    0.25
  -1   0 -14    0.27    0.39
   1   0  14    0.27    0.23
   1   0  14    0.54    0.26
   1   0  14    0.64    0.28
  -2   0 -14    0.06    0.27
  -2   0 -14    0.24    0.37
  -2   0 -14    0.14    0.31
   2   0  14    0.31    0.25
   2   0  14    0.25    0.32
   2   0  14    0.14    0.28
  -3   0 -14   10.50    0.66
  -3   0 -14    8.79    0.71
  -3   0 -14    9.62    0.68
   3   0  14   10.26    0.61
   3   0  14   10.81    0.73
   3   0  14    9.69    0.69
  -4   0 -14    1.51    0.47
  -4   0 -14    1.04    0.36
  -4   0 -14    1.20    0.40
   4   0  14    1.52    0.44
   4   0  14    1.11    0.34
   4   0  14    1.16    0.30
  -5   0 -14    1.82    0.42
  -5   0 -14    1.50    0.38
  -5   0 -14    2.06    0.70
   5   0  14    1.93    0.37
   5   0  14    1.48    0.39
   5   0  14    1.60    0.45
  -6   0 -14    3.10    0.56
  -6   0 -14    2.46    0.42
  -6   0 -14    2.70    0.46
   6   0  14    2.28    0.51
   6   0  14    4.21    0.79
   6   0  14    2.95    0.55
   2  -1 -14    3.53    0.61
   2  -1 -14    3.43    0.27
  -2   1  14    2.61    0.40
   1  -1 -14   19.16    0.77
   1  -1 -14   19.40    1.08
   1  -1 -14   19.84    0.81
  -1   1  14   17.85    1.22
   0  -1 -14    0.92    0.22
   0   1  14    0.49    0.24
  -1  -1 -14   18.61    1.08
  -1  -1 -14   20.57    0.94
  -1  -1 -14   20.32    0.87
   1   1  14   19.37    1.15
   1   1  14   21.55    0.88
   1   1  14   20.35    0.91
  -2  -1 -14    0.36    0.26
  -2  -1 -14    0.06    0.29
  -2  -1 -14   -0.04    0.36
   2   1  14   -0.13    0.23
   2   1  14   -0.21    0.29
  -3  -1 -14    8.29    0.73
  -3  -1 -14    8.52    0.65
  -3  -1 -14    8.88    0.60
   3   1  14    7.88    0.64
   3   1  14   10.01    0.68
   3   1  14    9.83    0.69
  -4  -1 -14    1.68    0.38
  -4  -1 -14    1.65    0.33
  -4  -1 -14    0.66    0.36
   4   1  14    0.52    0.37
   4   1  14    0.91    0.35
   4   1  14    1.27    0.29
  -5  -1 -14    1.44    0.39
  -5  -1 -14    0.62    0.42
  -5  -1 -14    0.94    0.43
   5   1  14    0.92    0.44
   5   1  14    1.57    0.40
   5   1  14    1.16    0.33
  -6  -1 -14    2.84    0.49
  -6  -1 -14    2.91    0.63
  -6  -1 -14    3.73    0.69
   6   1  14    3.16    0.52
   6   1  14    4.12    0.74
   6   1  14    2.05    0.48
  -7  -1 -14    0.20    0.41
  -7  -1 -14   -0.25    0.56
  -7  -1 -14    1.14    0.59
   7   1  14    0.04    0.58
   7   1  14    0.51    0.42
   2  -2 -14    0.18    0.44
  -2   2  14    0.32    0.23
   1  -2 -14   -0.04    0.39
   0  -2 -14    0.82    0.23
   0  -2 -14    1.02    0.37
   0  -2 -14    0.96    0.24
   0   2  14    0.23    0.23
   0   2  14    0.56    0.26
   0   2  14    0.48    0.23
  -1  -2 -14    1.96    0.39
  -1  -2 -14    1.56    0.39
  -1  -2 -14    1.65    0.26
   1   2  14    1.69    0.35
   1   2  14    1.64    0.25
   1   2  14    1.76    0.37
  -2  -2 -14    0.68    0.36
  -2  -2 -14    1.17    0.28
  -2  -2 -14    1.90    0.41
   2   2  14    1.14    0.28
   2   2  14    1.45    0.28
  -3  -2 -14    8.13    0.61
  -3  -2 -14    8.81    0.58
  -3  -2 -14    7.43    0.70
   3   2  14    8.04    0.65
   3   2  14    9.96    0.61
   3   2  14    7.73    0.62
  -4  -2 -14    0.74    0.34
  -4  -2 -14    0.25    0.36
  -4  -2 -14    0.47    0.32
   4   2  14    0.33    0.27
   4   2  14    0.31    0.34
  -5  -2 -14    5.38    0.64
  -5  -2 -14    6.07    0.63
  -5  -2 -14    6.49    0.66
   5   2  14    4.65    0.65
   5   2  14    6.77    0.58
   5   2  14    7.07    0.66
  -6  -2 -14    1.30    0.43
  -6  -2 -14    1.45    0.48
   6   2  14    1.00    0.43
   6   2  14    1.03    0.41
   6   2  14    1.33    0.33
  -7  -2 -14    0.62    0.42
  -7  -2 -14    0.24    0.51
  -7  -2 -14    0.18    0.50
   7   2  14    0.26    0.50
   7   2  14    0.42    0.52
   7   2  14    0.94    0.38
   2  -3 -14    7.32    0.72
  -2   3  14    7.16    0.59
   1  -3 -14    1.07    0.23
   1  -3 -14    0.97    0.39
  -1   3  14    1.46    0.40
   0  -3 -14   18.49    0.77
   0  -3 -14   18.25    0.80
   0  -3 -14   17.60    1.04
   0   3  14   16.55    1.05
   0   3  14   14.82    0.73
   0   3  14   18.76    0.78
  -1  -3 -14    6.41    0.66
  -1  -3 -14    8.60    0.54
  -1  -3 -14    7.96    0.50
   1   3  14    6.18    0.48
   1   3  14    6.98    0.51
   1   3  14    7.43    0.62
  -2  -3 -14    9.45    0.62
  -2  -3 -14    8.80    0.56
   2   3  14    9.04    0.59
   2   3  14    9.94    0.70
   2   3  14    9.05    0.57
  -3  -3 -14   13.82    0.73
  -3  -3 -14   13.17    0.77
   3   3  14   13.17    0.72
   3   3  14   13.14    0.77
   3   3  14   12.01    0.84
  -4  -3 -14    2.37    0.52
  -4  -3 -14    1.88    0.33
   4   3  14    2.37    0.38
  -5  -3 -14    4.79    0.58
  -5  -3 -14    4.80    0.64
  -5  -3 -14    5.44    0.61
   5   3  14    5.76    0.53
   5   3  14    4.75    0.61
   5   3  14    5.61    0.63
  -6  -3 -14    0.08    0.44
  -6  -3 -14    0.32    0.39
  -6  -3 -14    0.03    0.39
   6   3  14    0.15    0.30
   6   3  14   -0.03    0.41
   6   3  14    0.34    0.46
  -7  -3 -14    4.45    0.65
  -7  -3 -14    5.33    0.84
  -7  -3 -14    4.70    0.73
   7   3  14    5.74    0.57
   7   3  14    5.58    0.93
   7   3  14    4.69    0.75
   1  -4 -14    2.42    0.35
   1  -4 -14    1.70    0.42
  -1   4  14    1.74    0.37
   0  -4 -14   -0.19    0.25
   0  -4 -14    0.01    0.24
   0  -4 -14   -0.05    0.24
   0   4  14    0.07    0.22
   0   4  14    0.20    0.26
   0   4  14   -0.34    0.22
  -1  -4 -14    2.52    0.40
  -1  -4 -14    2.68    0.41
   1   4  14    3.06    0.45
   1   4  14    2.26    0.40
  -2  -4 -14    6.25    0.50
  -2  -4 -14    6.10    0.52
   2   4  14    6.86    0.49
   2   4  14    6.18    0.59
   2   4  14    6.56    0.55
  -3  -4 -14    0.37    0.29
  -3  -4 -14   -0.09    0.31
   3   4  14    0.35    0.22
   3   4  14    0.45    0.30
   3   4  14    0.08    0.31
  -4  -4 -14    5.21    0.54
  -4  -4 -14    5.80    0.57
   4   4  14    6.06    0.53
   4   4  14    6.49    0.55
  -5  -4 -14    4.94    0.61
  -5  -4 -14    2.87    0.54
   5   4  14    4.46    0.46
   5   4  14    3.39    0.58
  -6  -4 -14    1.17    0.47
  -6  -4 -14    0.75    0.38
   6   4  14    0.47    0.37
  -7  -4 -14    0.70    0.55
  -7  -4 -14    0.55    0.45
   7   4  14    0.39    0.34
   7   4  14    0.08    0.48
   7   4  14    1.27    0.53
   1  -5 -14    1.08    0.26
  -1   5  14    1.48    0.29
   0  -5 -14   36.14    1.31
   0  -5 -14   36.20    1.34
   0  -5 -14   34.69    1.30
   0   5  14   30.92    1.24
   0   5  14   34.33    1.34
  -1  -5 -14    3.66    0.45
  -1  -5 -14    4.10    0.45
   1   5  14    3.95    0.54
   1   5  14    3.55    0.43
  -2  -5 -14   23.59    1.09
  -2  -5 -14   23.04    1.03
   2   5  14   22.51    1.27
   2   5  14   24.91    1.05
  -3  -5 -14   12.06    0.79
  -3  -5 -14   14.75    0.74
   3   5  14   12.66    0.88
   3   5  14   13.19    0.73
   3   5  14   13.77    0.77
  -4  -5 -14   11.43    0.70
  -4  -5 -14   10.30    0.74
   4   5  14   11.28    0.68
   4   5  14    9.68    0.63
   4   5  14   11.27    0.77
  -5  -5 -14    9.06    0.72
  -5  -5 -14    9.41    0.68
   5   5  14   10.16    0.72
   5   5  14    8.50    0.71
  -6  -5 -14   -0.01    0.43
  -6  -5 -14    0.12    0.40
   6   5  14   -0.09    0.30
   6   5  14    0.07    0.46
  -7  -5 -14    1.77    0.41
  -7  -5 -14    1.46    0.52
   7   5  14    1.10    0.48
   0  -6 -14    0.64    0.29
   0  -6 -14    0.57    0.29
   0   6  14    0.98    0.24
   0   6  14    0.38    0.31
  -1  -6 -14    2.00    0.42
  -1  -6 -14    1.56    0.30
  -1  -6 -14    1.90    0.32
   1   6  14    1.60    0.34
   1   6  14    1.43    0.26
   1   6  14    1.72    0.34
  -2  -6 -14    1.77    0.31
  -2  -6 -14    2.06    0.33
   2   6  14    1.66    0.29
   2   6  14    1.48    0.28
   2   6  14    1.94    0.32
  -3  -6 -14    1.47    0.31
   3   6  14    0.96    0.29
   3   6  14    1.05    0.35
  -4  -6 -14    6.71    0.60
  -4  -6 -14    6.12    0.58
   4   6  14    6.16    0.54
   4   6  14    5.89    0.61
   4   6  14    5.63    0.53
  -5  -6 -14    0.43    0.37
  -5  -6 -14   -0.25    0.38
   5   6  14    0.31    0.24
   5   6  14    0.31    0.37
   5   6  14    0.21    0.37
  -6  -6 -14   12.67    0.89
  -6  -6 -14   13.43    0.79
   6   6  14   11.36    0.75
   6   6  14   13.31    0.86
  -7  -6 -14    2.27    0.54
   7   6  14    1.55    0.53
   7   6  14    1.50    0.44
   7   6  14    2.00    0.42
  -1  -7 -14    6.33    0.55
  -1  -7 -14    7.13    0.55
  -1  -7 -14    7.50    0.85
   1   7  14    5.82    0.50
   1   7  14    7.41    0.60
   1   7  14    5.33    0.59
  -2  -7 -14    7.52    0.60
  -2  -7 -14    7.24    0.62
  -2  -7 -14    8.98    0.59
   2   7  14    8.11    0.62
   2   7  14    6.48    0.55
  -3  -7 -14    2.61    0.38
  -3  -7 -14    2.28    0.49
   3   7  14    2.07    0.38
   3   7  14    3.05    0.56
   3   7  14    1.96    0.34
  -4  -7 -14   20.14    0.96
  -4  -7 -14   18.60    0.97
   4   7  14   17.77    1.15
   4   7  14   17.20    0.97
   4   7  14   17.56    0.93
  -5  -7 -14    0.51    0.42
  -5  -7 -14   -0.13    0.38
   5   7  14   -0.13    0.34
   5   7  14    0.16    0.41
   5   7  14   -0.06    0.34
  -6  -7 -14    7.25    0.81
  -6  -7 -14    6.27    0.64
   6   7  14    7.26    0.69
   6   7  14    5.79    0.79
   6   7  14    4.82    0.61
  -7  -7 -14    2.70    0.57
  -7  -7 -14    1.98    0.43
   7   7  14    2.09    0.52
  -2  -8 -14    0.60    0.38
  -2  -8 -14    0.93    0.36
  -2  -8 -14    0.28    0.36
   2   8  14    0.61    0.25
   2   8  14    0.44    0.34
   2   8  14    0.90    0.40
   2   8  14    0.51    0.30
  -3  -8 -14    4.59    0.56
  -3  -8 -14    6.17    0.65
   3   8  14    6.03    0.54
   3   8  14    5.36    0.56
   3   8  14    5.17    0.66
  -4  -8 -14   -0.25    0.39
  -4  -8 -14    0.39    0.40
   4   8  14    0.41    0.37
   4   8  14    0.29    0.25
   4   8  14    0.20    0.42
   4   8  14    0.47    0.38
  -5  -8 -14    4.19    0.56
  -5  -8 -14    4.36    0.73
   5   8  14    3.60    0.56
   5   8  14    2.67    0.59
   5   8  14    5.32    0.72
  -6  -8 -14    3.32    0.53
  -6  -8 -14    3.10    0.44
   6   8  14    2.89    0.60
   6   8  14    2.31    0.51
  -3  -9 -14   11.55    0.81
  -3  -9 -14   13.05    0.79
  -3  -9 -14   10.70    0.76
   3   9  14   10.34    0.72
   3   9  14   10.06    0.78
   3   9  14    9.68    0.72
  -4  -9 -14    5.71    0.74
  -4  -9 -14    4.73    0.63
   4   9  14    4.76    0.58
   4   9  14    5.06    0.53
   4   9  14    4.66    0.64
  -5  -9 -14    5.71    0.63
  -5  -9 -14    5.13    0.77
  -5  -9 -14    3.56    0.78
   5   9  14    4.11    0.65
   5   9  14    5.06    0.64
  -1   2 -15    1.11    0.56
  -1   2 -15    1.47    0.39
   1  -2  15    1.58    0.37
   1  -2  15    1.22    0.43
  -2   2 -15    1.83    0.40
  -2   2 -15    0.31    0.42
  -2   2 -15    1.69    0.54
   2  -2  15    0.87    0.48
   2  -2  15    0.92    0.38
   2  -2  15    1.17    0.33
  -3   2 -15    1.26    0.45
  -3   2 -15    1.60    0.56
  -3   2 -15    0.65    0.49
   3  -2  15    0.21    0.56
   3  -2  15    0.78    0.35
   3  -2  15    2.02    0.68
   0   1 -15    0.72    0.54
   0   1 -15    0.08    0.33
   0   1 -15    0.21    0.30
   0  -1  15   -0.20    0.27
   0  -1  15   -0.27    0.33
   0  -1  15    0.45    0.37
  -1   1 -15    0.75    0.52
  -1   1 -15    0.82    0.33
  -1   1 -15    0.37    0.35
   1  -1  15    0.72    0.38
   1  -1  15    1.01    0.40
   1  -1  15    0.98    0.33
  -2   1 -15    2.39    0.41
  -2   1 -15    3.14    0.38
  -2   1 -15    1.97    0.52
   2  -1  15    3.06    0.48
   2  -1  15    1.73    0.43
   2  -1  15    2.73    0.55
  -3   1 -15    0.22    0.45
  -3   1 -15   -0.26    0.41
  -3   1 -15    1.01    0.50
   3  -1  15    0.09    0.33
   3  -1  15    0.30    0.47
  -4   1 -15    3.49    0.56
  -4   1 -15    4.65    0.75
  -4   1 -15    4.90    0.80
   4  -1  15    4.20    0.58
   4  -1  15    3.57    0.59
   4  -1  15    6.23    1.15
   0   0 -15   12.32    0.72
   0   0 -15   13.42    0.96
   0   0 -15   14.38    0.68
   0   0  15   14.34    0.91
   0   0  15   13.33    0.66
  -1   0 -15    1.84    0.48
  -1   0 -15    2.64    0.50
  -1   0 -15    1.69    0.34
   1   0  15    1.09    0.35
   1   0  15    1.82    0.33
  -2   0 -15    3.63    0.70
  -2   0 -15    3.07    0.57
  -2   0 -15    4.06    0.55
   2   0  15    3.56    0.59
   2   0  15    4.35    0.48
   2   0  15    3.83    0.54
  -3   0 -15    2.91    0.59
  -3   0 -15    1.50    0.42
  -3   0 -15    1.83    0.45
   3   0  15    1.92    0.44
   3   0  15    2.07    0.37
   3   0  15    2.07    0.42
  -4   0 -15    1.77    0.48
  -4   0 -15    0.98    0.50
  -4   0 -15    0.69    0.44
   4   0  15    0.52    0.53
   4   0  15    1.57    0.40
   4   0  15    1.58    0.35
  -5   0 -15    0.65    0.49
  -5   0 -15    0.54    0.52
  -5   0 -15    0.76    0.52
   5   0  15    1.20    0.38
   5   0  15    0.72    0.58
   0  -1 -15    0.64    0.47
   0  -1 -15    0.21    0.30
   0  -1 -15    0.14    0.28
   0   1  15    0.11    0.24
   0   1  15    0.05    0.30
   0   1  15   -0.14    0.29
  -1  -1 -15    2.37    0.46
  -1  -1 -15    2.11    0.48
  -1  -1 -15    2.76    0.48
   1   1  15    2.33    0.48
   1   1  15    1.97    0.39
   1   1  15    2.16    0.48
  -2  -1 -15    3.36    0.51
  -2  -1 -15    2.30    0.47
  -2  -1 -15    2.39    0.54
   2   1  15    2.45    0.37
  -3  -1 -15   -0.01    0.41
  -3  -1 -15    1.01    0.45
  -3  -1 -15    0.87    0.36
   3   1  15    0.76    0.28
   3   1  15    0.44    0.40
   3   1  15    0.60    0.36
  -4  -1 -15    4.94    0.74
  -4  -1 -15    5.55    0.67
   4   1  15    5.92    0.87
   4   1  15    4.24    0.72
   4   1  15    5.26    0.54
  -5  -1 -15    0.42    0.55
  -5  -1 -15   -0.06    0.48
  -5  -1 -15    0.57    0.47
   5   1  15   -0.38    0.52
   5   1  15    0.92    0.50
   5   1  15    0.34    0.35
   0  -2 -15    3.71    0.44
   0  -2 -15    2.72    0.46
   0  -2 -15    3.26    0.70
   0   2  15    2.74    0.49
   0   2  15    4.05    0.42
  -1  -2 -15    1.20    0.29
  -1  -2 -15    0.93    0.32
  -1  -2 -15    1.11    0.45
   1   2  15    0.80    0.30
  -2  -2 -15    4.48    0.53
  -2  -2 -15    4.86    0.54
   2   2  15    4.25    0.55
   2   2  15    5.26    0.50
   2   2  15    5.11    0.52
  -3  -2 -15    0.14    0.45
  -3  -2 -15    0.26    0.35
  -3  -2 -15    0.49    0.38
   3   2  15    0.06    0.36
   3   2  15    0.44    0.28
   3   2  15    0.24    0.37
  -4  -2 -15    5.07    0.82
  -4  -2 -15    6.74    0.71
  -4  -2 -15    5.66    0.76
   4   2  15    6.83    0.70
   4   2  15    7.19    0.62
   4   2  15    7.69    0.71
  -5  -2 -15   -0.05    0.44
  -5  -2 -15   -0.23    0.45
  -5  -2 -15    0.06    0.45
   5   2  15    0.06    0.48
   5   2  15    0.26    0.33
   5   2  15    0.29    0.45
  -6  -2 -15    0.96    0.49
  -6  -2 -15    2.27    0.55
  -6  -2 -15    1.53    0.46
   6   2  15    0.28    0.53
   0  -3 -15    4.23    0.73
   0  -3 -15    4.57    0.47
   0  -3 -15    5.24    0.47
   0   3  15    4.62    0.49
   0   3  15    4.61    0.49
  -1  -3 -15    2.91    0.67
  -1  -3 -15    2.65    0.48
  -1  -3 -15    3.27    0.46
   1   3  15    2.55    0.39
   1   3  15    1.73    0.31
   1   3  15    2.27    0.52
  -2  -3 -15    0.05    0.45
  -2  -3 -15    0.33    0.32
  -2  -3 -15    0.30    0.34
   2   3  15   -0.05    0.32
   2   3  15    0.05    0.32
   2   3  15   -0.22    0.25
  -3  -3 -15    2.54    0.56
  -3  -3 -15    1.57    0.45
  -3  -3 -15    1.74    0.39
   3   3  15    2.09    0.39
   3   3  15    2.03    0.39
   3   3  15    1.62    0.35
  -4  -3 -15    0.14    0.39
  -4  -3 -15    0.14    0.45
  -4  -3 -15   -0.12    0.41
   4   3  15    0.08    0.29
   4   3  15   -0.06    0.38
   4   3  15   -0.36    0.43
  -5  -3 -15    3.02    0.67
  -5  -3 -15    3.14    0.48
   5   3  15    4.78    0.76
   5   3  15    4.12    0.49
   5   3  15    3.23    0.71
  -6  -3 -15    1.23    0.49
  -6  -3 -15    0.84    0.52
   6   3  15    0.64    0.55
   6   3  15    1.36    0.33
   0  -4 -15    0.24    0.48
   0  -4 -15    0.37    0.30
   0   4  15    0.89    0.33
   0   4  15    0.02    0.25
  -1  -4 -15    7.79    0.59
  -1  -4 -15    8.82    0.57
   1   4  15    8.23    0.67
   1   4  15    7.04    0.58
   1   4  15    6.52    0.52
  -2  -4 -15    0.72    0.32
  -2  -4 -15    0.33    0.34
   2   4  15    0.26    0.34
   2   4  15    0.57    0.33
   2   4  15    0.63    0.34
  -3  -4 -15    5.17    0.59
  -3  -4 -15    6.94    0.60
   3   4  15    5.37    0.60
   3   4  15    6.60    0.60
   3   4  15    5.96    0.65
  -4  -4 -15    1.61    0.39
  -4  -4 -15    2.58    0.40
   4   4  15    2.69    0.61
   4   4  15    2.41    0.44
   4   4  15    2.74    0.43
  -5  -4 -15    2.59    0.43
  -5  -4 -15    2.39    0.48
   5   4  15    2.42    0.43
   5   4  15    1.76    0.42
   5   4  15    3.38    0.45
  -6  -4 -15    2.29    0.51
  -6  -4 -15    1.86    0.47
   6   4  15    1.68    0.40
  -1  -5 -15    0.79    0.33
  -1  -5 -15    0.96    0.33
   1   5  15    1.17    0.35
   1   5  15    1.14    0.29
  -2  -5 -15    7.05    0.61
  -2  -5 -15    8.86    0.61
   2   5  15    6.41    0.63
   2   5  15    8.00    0.61
   2   5  15    7.37    0.57
  -3  -5 -15    7.06    0.61
  -3  -5 -15    5.36    0.62
   3   5  15    6.77    0.65
   3   5  15    4.78    0.58
  -4  -5 -15    0.72    0.38
  -4  -5 -15    0.66    0.39
   4   5  15    0.87    0.41
  -5  -5 -15   10.09    0.78
  -5  -5 -15   10.53    0.83
   5   5  15    9.71    0.93
   5   5  15    8.45    0.78
  -6  -5 -15    1.23    0.51
  -6  -5 -15    0.74    0.51
   6   5  15    1.13    0.31
  -2  -6 -15    1.54    0.38
  -2  -6 -15    1.57    0.38
   2   6  15    2.23    0.39
   2   6  15    1.27    0.39
  -3  -6 -15    5.96    0.62
   3   6  15    4.46    0.53
   3   6  15    4.24    0.66
   3   6  15    5.07    0.55
  -4  -6 -15   -0.52    0.41
  -4  -6 -15   -0.19    0.40
   4   6  15    0.11    0.44
   4   6  15    0.08    0.27
   4   6  15    0.14    0.36
  -5  -6 -15    2.41    0.48
  -5  -6 -15    2.80    0.47
   5   6  15    2.99    0.45
   5   6  15    3.26    0.63
  -3  -7 -15   -0.04    0.42
  -3  -7 -15    0.42    0.40
   3   7  15    0.08    0.37
   3   7  15    0.20    0.25
   3   7  15    0.51    0.42
  -4  -7 -15    5.26    0.65
   4   7  15    4.86    0.62
   4   7  15    5.69    0.78
   0   0   0    0.00    0.00
;
_shelx_hkl_checksum              48203
_shelx_res_file
;
TITL cd32rsa in P-1
CELL 0.71073   8.61530  11.63060  12.45020  80.2473  74.6952  70.3918
ZERR    2.00   0.00200   0.00270   0.00290   0.0087   0.0092   0.0084
LATT  1
SFAC C H N S I
UNIT 46 16 8 4 4
TEMP -0.150
SIZE 0.116 0.272 0.455
L.S. 10
BOND $H
FMAP 2
PLAN 20
ACTA
HTAB
WPDB -2
CONF
WGHT    0.045700    2.884100
EXTI    0.037278
FVAR       0.20142
I1    5    0.795417    1.187588    0.967349    11.00000    0.06143    0.04952 =
         0.05221   -0.01638   -0.00738   -0.01940
I2    5    1.258716    0.295818    0.572378    11.00000    0.08399    0.04576 =
         0.06986   -0.02337   -0.00381   -0.00116
N1    3    1.283289    1.007998    0.445234    11.00000    0.10116    0.08330 =
         0.05300    0.01262   -0.00566   -0.04472
N2    3    1.274590    0.686623    0.343790    11.00000    0.07735    0.10411 =
         0.05009   -0.02482    0.00854   -0.03870
N3    3    0.421552    1.044368    0.839725    11.00000    0.03979    0.04852 =
         0.10697   -0.02497   -0.00693   -0.00956
N4    3    0.456257    0.710892    0.734012    11.00000    0.04175    0.05218 =
         0.09115   -0.01579   -0.01163   -0.01855
C1    1    0.901131    1.049958    0.858851    11.00000    0.04011    0.03735 =
         0.03985   -0.00575   -0.00904   -0.01177
C2    1    1.056552    1.043541    0.786946    11.00000    0.03986    0.04249 =
         0.04923   -0.00220   -0.01170   -0.01893
AFIX  43
H2    2    1.113170    1.097962    0.789962    11.00000   -1.20000
AFIX   0
C3    1    1.126961    0.956362    0.711002    11.00000    0.03120    0.04606 =
         0.04257    0.00027   -0.00472   -0.01578
AFIX  43
H3    2    1.233176    0.950481    0.664972    11.00000   -1.20000
AFIX   0
C4    1    1.041351    0.876614    0.702010    11.00000    0.02995    0.03676 =
         0.03605    0.00078   -0.00636   -0.00994
C5    1    1.103696    0.789240    0.616070    11.00000    0.02669    0.04025 =
         0.03670   -0.00072   -0.00553   -0.00708
C6    1    1.056190    0.675918    0.647721    11.00000    0.03333    0.04129 =
         0.03408   -0.00543   -0.00525   -0.00930
C7    1    1.159451    0.564391    0.606668    11.00000    0.03972    0.04499 =
         0.03860   -0.00999   -0.00348   -0.00381
AFIX  43
H7    2    1.262464    0.559848    0.556777    11.00000   -1.20000
AFIX   0
C8    1    1.108488    0.460402    0.640247    11.00000    0.05404    0.03526 =
         0.04362   -0.01294   -0.01147   -0.00191
C9    1    0.959158    0.463587    0.718243    11.00000    0.05132    0.03649 =
         0.04913   -0.00496   -0.01352   -0.01200
AFIX  43
H9    2    0.927845    0.392687    0.742049    11.00000   -1.20000
AFIX   0
C10   1    0.857804    0.573181    0.759996    11.00000    0.03915    0.03976 =
         0.04083   -0.00164   -0.00855   -0.01280
AFIX  43
H10   2    0.757893    0.575695    0.812804    11.00000   -1.20000
AFIX   0
C11   1    0.902163    0.680183    0.724615    11.00000    0.03214    0.03561 =
         0.03522   -0.00354   -0.00719   -0.00778
C12   1    0.795008    0.799347    0.765855    11.00000    0.03318    0.03501 =
         0.02875   -0.00077   -0.00152   -0.01317
C13   1    0.884611    0.882653    0.777171    11.00000    0.03045    0.03337 =
         0.03452   -0.00191   -0.00544   -0.01027
C14   1    0.818013    0.967620    0.856856    11.00000    0.03236    0.03823 =
         0.03745   -0.00217   -0.00339   -0.01161
AFIX  43
H14   2    0.717610    0.968903    0.908697    11.00000   -1.20000
AFIX   0
C15   1    1.194053    0.813503    0.511101    11.00000    0.03289    0.04917 =
         0.03888   -0.00259   -0.00139   -0.01047
C16   1    1.241320    0.923591    0.476876    11.00000    0.05084    0.05678 =
         0.03856    0.00358   -0.00021   -0.01666
C17   1    1.237465    0.739486    0.420438    11.00000    0.04600    0.07423 =
         0.04054   -0.00697    0.00379   -0.02261
C18   1    0.624298    0.833471    0.783038    11.00000    0.03075    0.03425 =
         0.04010   -0.00294   -0.00021   -0.01135
C19   1    0.514468    0.952399    0.814654    11.00000    0.03011    0.04169 =
         0.06032   -0.00782   -0.00304   -0.01241
C20   1    0.534959    0.761293    0.756695    11.00000    0.03147    0.03995 =
         0.05227   -0.00642   -0.00014   -0.00946
S1    4    0.204887    0.569514    0.900384    11.00000    0.05180    0.04071 =
         0.05544   -0.01428    0.00141   -0.01493
S2    4    0.171724    0.321135    0.946198    11.00000    0.05180    0.03803 =
         0.05689   -0.00714   -0.00275   -0.01202
C21   1    0.078152    0.477127    0.969064    11.00000    0.04408    0.03959 =
         0.03947   -0.00655   -0.00594   -0.01175
C22   1    0.371893    0.450639    0.841110    11.00000    0.04100    0.05191 =
         0.07986   -0.01918    0.00035   -0.01569
AFIX  43
H22   2    0.469546    0.464752    0.795654    11.00000   -1.20000
AFIX   0
C23   1    0.357170    0.337162    0.862340    11.00000    0.03634    0.05114 =
         0.07524   -0.02618   -0.00320   -0.00452
AFIX  43
H23   2    0.444099    0.270096    0.832717    11.00000   -1.20000
AFIX   0
HKLF 4
REM  cd32rsa in P-1
REM R1 =  0.0406 for    4572 Fo > 4sig(Fo)  and  0.0442 for all    4993 data
REM    281 parameters refined using      0 restraints
END
WGHT      0.0457      2.8833
REM Instructions for potential hydrogen bonds
EQIV $1 x, y-1, z
HTAB C23 N3_$1
REM Highest difference peak  1.714,  deepest hole -1.199,  1-sigma level  0.114
Q1    1   1.2997  0.3362  0.5319  11.00000  0.05    1.71
Q2    1   1.2989  0.2769  0.6178  11.00000  0.05    1.37
Q3    1   0.4776  0.4739  0.9657  11.00000  0.05    1.19
Q4    1   1.1919  0.2992  0.5827  11.00000  0.05    0.87
Q5    1   1.2755  0.2610  0.5627  11.00000  0.05    0.61
Q6    1   0.1340  0.5401  0.9240  11.00000  0.05    0.53
Q7    1   0.3116  0.3151  0.9234  11.00000  0.05    0.42
Q8    1   1.2153  0.8626  0.5013  11.00000  0.05    0.35
Q9    1   1.1824  0.3244  0.4791  11.00000  0.05    0.34
Q10   1   1.3466  1.0800  0.3617  11.00000  0.05    0.34
Q11   1   0.5776  0.8872  0.8063  11.00000  0.05    0.33
Q12   1   1.1637  0.7994  0.5606  11.00000  0.05    0.33
Q13   1   0.9769  1.0416  0.8254  11.00000  0.05    0.32
Q14   1   0.8828  1.1697  0.9223  11.00000  0.05    0.31
Q15   1   1.4128  0.9497  0.6814  11.00000  0.05    0.30
Q16   1   0.2120  0.2995  0.7728  11.00000  0.05    0.29
Q17   1   0.9803  0.6803  0.6740  11.00000  0.05    0.28
Q18   1   0.6439  1.0015  0.9338  11.00000  0.05    0.28
Q19   1   0.5324  0.8690  0.9622  11.00000  0.05    0.28
Q20   1   1.2657  0.5334  0.7014  11.00000  0.05    0.27
;
_shelx_res_checksum              8216
_shelxl_version_number           2014/6
loop_
_space_group_symop_operation_xyz
'x, y, z'
'-x, -y, -z'
loop_
_atom_site_type_symbol
_atom_site_label
_atom_site_fract_x
_atom_site_fract_y
_atom_site_fract_z
_atom_site_U_iso_or_equiv
_atom_site_adp_type
_atom_site_calc_flag
_atom_site_occupancy
I I1 0.79542(4) 1.18759(3) 0.96735(3) 0.05333(13) Uani d 1
I I2 1.25872(5) 0.29582(3) 0.57238(3) 0.07177(15) Uani d 1
N N1 1.2833(7) 1.0080(5) 0.4452(4) 0.0795(14) Uani d 1
N N2 1.2746(7) 0.6866(5) 0.3438(4) 0.0766(14) Uani d 1
N N3 0.4216(5) 1.0444(4) 0.8397(5) 0.0657(12) Uani d 1
N N4 0.4563(5) 0.7109(4) 0.7340(4) 0.0601(10) Uani d 1
C C1 0.9011(5) 1.0500(3) 0.8589(3) 0.0388(8) Uani d 1
C C2 1.0566(5) 1.0435(4) 0.7869(4) 0.0421(8) Uani d 1
H H2 1.1132 1.0980 0.7900 0.051 Uiso calc 1
C C3 1.1270(5) 0.9564(4) 0.7110(3) 0.0401(8) Uani d 1
H H3 1.2332 0.9505 0.6650 0.048 Uiso calc 1
C C4 1.0414(4) 0.8766(3) 0.7020(3) 0.0350(7) Uani d 1
C C5 1.1037(4) 0.7892(3) 0.6161(3) 0.0360(7) Uani d 1
C C6 1.0562(5) 0.6759(3) 0.6477(3) 0.0370(7) Uani d 1
C C7 1.1595(5) 0.5644(4) 0.6067(3) 0.0437(9) Uani d 1
H H7 1.2625 0.5598 0.5568 0.052 Uiso calc 1
C C8 1.1085(6) 0.4604(4) 0.6402(4) 0.0461(9) Uani d 1
C C9 0.9592(6) 0.4636(4) 0.7182(4) 0.0454(9) Uani d 1
H H9 0.9278 0.3927 0.7420 0.054 Uiso calc 1
C C10 0.8578(5) 0.5732(4) 0.7600(3) 0.0400(8) Uani d 1
H H10 0.7579 0.5757 0.8128 0.048 Uiso calc 1
C C11 0.9022(4) 0.6802(3) 0.7246(3) 0.0350(7) Uani d 1
C C12 0.7950(4) 0.7993(3) 0.7659(3) 0.0329(7) Uani d 1
C C13 0.8846(4) 0.8827(3) 0.7772(3) 0.0331(7) Uani d 1
C C14 0.8180(5) 0.9676(3) 0.8569(3) 0.0368(7) Uani d 1
H H14 0.7176 0.9689 0.9087 0.044 Uiso calc 1
C C15 1.1941(5) 0.8135(4) 0.5111(3) 0.0423(8) Uani d 1
C C16 1.2413(6) 0.9236(4) 0.4769(4) 0.0516(10) Uani d 1
C C17 1.2375(6) 0.7395(5) 0.4204(4) 0.0549(11) Uani d 1
C C18 0.6243(4) 0.8335(3) 0.7830(3) 0.0362(7) Uani d 1
C C19 0.5145(5) 0.9524(4) 0.8147(4) 0.0447(9) Uani d 1
C C20 0.5350(5) 0.7613(4) 0.7567(4) 0.0432(9) Uani d 1
S S1 0.20489(15) 0.56951(10) 0.90038(10) 0.0505(3) Uani d 1
S S2 0.17172(15) 0.32114(10) 0.94620(10) 0.0509(3) Uani d 1
C C21 0.0782(5) 0.4771(4) 0.9691(3) 0.0416(8) Uani d 1
C C22 0.3719(6) 0.4506(4) 0.8411(5) 0.0583(12) Uani d 1
H H22 0.4695 0.4648 0.7957 0.070 Uiso calc 1
C C23 0.3572(5) 0.3372(4) 0.8623(4) 0.0558(11) Uani d 1
H H23 0.4441 0.2701 0.8327 0.067 Uiso calc 1
loop_
_atom_site_aniso_label
_atom_site_aniso_U_11
_atom_site_aniso_U_22
_atom_site_aniso_U_33
_atom_site_aniso_U_12
_atom_site_aniso_U_13
_atom_site_aniso_U_23
I1 0.0614(2) 0.04952(18) 0.05221(19) -0.01940(14) -0.00738(13) -0.01638(13)
I2 0.0840(3) 0.0458(2) 0.0699(2) -0.00116(16) -0.00381(19) -0.02337(15)
N1 0.101(4) 0.083(3) 0.053(3) -0.045(3) -0.006(2) 0.013(2)
N2 0.077(3) 0.104(4) 0.050(2) -0.039(3) 0.009(2) -0.025(2)
N3 0.0398(19) 0.049(2) 0.107(4) -0.0096(17) -0.007(2) -0.025(2)
N4 0.0417(19) 0.052(2) 0.091(3) -0.0185(17) -0.012(2) -0.016(2)
C1 0.0401(19) 0.0373(18) 0.0399(19) -0.0118(15) -0.0090(15) -0.0057(15)
C2 0.0399(19) 0.042(2) 0.049(2) -0.0189(16) -0.0117(17) -0.0022(17)
C3 0.0312(17) 0.046(2) 0.043(2) -0.0158(15) -0.0047(15) 0.0003(16)
C4 0.0299(16) 0.0368(18) 0.0361(18) -0.0099(14) -0.0064(14) 0.0008(14)
C5 0.0267(16) 0.0402(18) 0.0367(18) -0.0071(14) -0.0055(13) -0.0007(14)
C6 0.0333(17) 0.0413(19) 0.0341(17) -0.0093(14) -0.0052(14) -0.0054(14)
C7 0.040(2) 0.045(2) 0.039(2) -0.0038(16) -0.0035(16) -0.0100(16)
C8 0.054(2) 0.0353(19) 0.044(2) -0.0019(17) -0.0115(18) -0.0129(16)
C9 0.051(2) 0.0365(19) 0.049(2) -0.0120(17) -0.0135(18) -0.0050(16)
C10 0.0392(19) 0.0398(19) 0.0408(19) -0.0128(15) -0.0086(16) -0.0016(15)
C11 0.0321(17) 0.0356(17) 0.0352(17) -0.0078(14) -0.0072(14) -0.0035(14)
C12 0.0332(17) 0.0350(17) 0.0288(16) -0.0132(14) -0.0015(13) -0.0008(13)
C13 0.0304(16) 0.0334(17) 0.0345(17) -0.0103(13) -0.0054(13) -0.0019(13)
C14 0.0324(17) 0.0382(18) 0.0374(18) -0.0116(14) -0.0034(14) -0.0022(14)
C15 0.0329(18) 0.049(2) 0.0389(19) -0.0105(16) -0.0014(15) -0.0026(16)
C16 0.051(2) 0.057(3) 0.039(2) -0.017(2) -0.0002(18) 0.0036(19)
C17 0.046(2) 0.074(3) 0.041(2) -0.023(2) 0.0038(18) -0.007(2)
C18 0.0307(17) 0.0342(17) 0.0401(19) -0.0114(14) -0.0002(14) -0.0029(14)
C19 0.0301(18) 0.042(2) 0.060(2) -0.0124(16) -0.0030(17) -0.0078(18)
C20 0.0315(18) 0.040(2) 0.052(2) -0.0095(15) -0.0001(16) -0.0064(17)
S1 0.0518(6) 0.0407(5) 0.0554(6) -0.0149(4) 0.0014(5) -0.0143(4)
S2 0.0518(6) 0.0380(5) 0.0569(6) -0.0120(4) -0.0028(5) -0.0071(4)
C21 0.044(2) 0.0396(19) 0.0395(19) -0.0117(16) -0.0059(16) -0.0065(15)
C22 0.041(2) 0.052(3) 0.080(3) -0.0157(19) 0.000(2) -0.019(2)
C23 0.036(2) 0.051(2) 0.075(3) -0.0045(18) -0.003(2) -0.026(2)
loop_
_atom_type_symbol
_atom_type_description
_atom_type_scat_dispersion_real
_atom_type_scat_dispersion_imag
_atom_type_scat_source
C C 0.0033 0.0016 'International Tables Vol C Tables 4.2.6.8 and 6.1.1.4'
H H 0.0000 0.0000 'International Tables Vol C Tables 4.2.6.8 and 6.1.1.4'
N N 0.0061 0.0033 'International Tables Vol C Tables 4.2.6.8 and 6.1.1.4'
S S 0.1246 0.1234 'International Tables Vol C Tables 4.2.6.8 and 6.1.1.4'
I I -0.4742 1.8119 'International Tables Vol C Tables 4.2.6.8 and 6.1.1.4'
loop_
_exptl_crystal_face_index_h
_exptl_crystal_face_index_k
_exptl_crystal_face_index_l
_exptl_crystal_face_perp_dist
1.00 0.00 0.00 0.0360
-1.00 0.00 0.00 0.0580
0.00 0.00 1.00 0.1750
0.00 0.00 -1.00 0.1110
0.00 1.00 1.00 0.1000
0.00 -1.00 -1.00 0.1020
-2.00 -1.00 2.00 0.1350
0.00 -2.00 1.00 0.2030
loop_
_geom_angle_atom_site_label_1
_geom_angle_atom_site_label_2
_geom_angle_atom_site_label_3
_geom_angle_site_symmetry_1
_geom_angle
C14 C1 C2 . 120.5(4)
C14 C1 I1 . 121.1(3)
C2 C1 I1 . 118.5(3)
C3 C2 C1 . 119.9(4)
C3 C2 H2 . 120.1
C1 C2 H2 . 120.1
C2 C3 C4 . 121.1(3)
C2 C3 H3 . 119.5
C4 C3 H3 . 119.5
C3 C4 C13 . 118.4(3)
C3 C4 C5 . 123.3(3)
C13 C4 C5 . 118.3(3)
C15 C5 C6 . 121.6(4)
C15 C5 C4 . 122.5(4)
C6 C5 C4 . 115.8(3)
C7 C6 C11 . 119.0(4)
C7 C6 C5 . 122.6(3)
C11 C6 C5 . 118.4(3)
C8 C7 C6 . 120.0(4)
C8 C7 H7 . 120.0
C6 C7 H7 . 120.0
C7 C8 C9 . 121.1(4)
C7 C8 I2 . 119.6(3)
C9 C8 I2 . 119.3(3)
C10 C9 C8 . 119.1(4)
C10 C9 H9 . 120.5
C8 C9 H9 . 120.5
C9 C10 C11 . 121.2(4)
C9 C10 H10 . 119.4
C11 C10 H10 . 119.4
C10 C11 C6 . 119.6(3)
C10 C11 C12 . 122.6(3)
C6 C11 C12 . 117.9(3)
C18 C12 C13 . 122.2(3)
C18 C12 C11 . 121.5(3)
C13 C12 C11 . 116.0(3)
C14 C13 C4 . 120.0(3)
C14 C13 C12 . 122.2(3)
C4 C13 C12 . 117.8(3)
C1 C14 C13 . 120.0(3)
C1 C14 H14 . 120.0
C13 C14 H14 . 120.0
C5 C15 C17 . 124.5(4)
C5 C15 C16 . 123.2(4)
C17 C15 C16 . 112.1(4)
N1 C16 C15 . 176.7(5)
N2 C17 C15 . 175.6(6)
C12 C18 C20 . 123.4(3)
C12 C18 C19 . 123.8(3)
C20 C18 C19 . 112.3(3)
N3 C19 C18 . 176.8(4)
N4 C20 C18 . 175.5(4)
C22 S1 C21 . 94.9(2)
C23 S2 C21 . 95.6(2)
C21 C21 S1 2_567 122.4(4)
C21 C21 S2 2_567 123.5(4)
S1 C21 S2 . 114.0(2)
C23 C22 S1 . 118.3(4)
C23 C22 H22 . 120.9
S1 C22 H22 . 120.9
C22 C23 S2 . 117.2(3)
C22 C23 H23 . 121.4
S2 C23 H23 . 121.4
loop_
_geom_bond_atom_site_label_1
_geom_bond_atom_site_label_2
_geom_bond_site_symmetry_2
_geom_bond_distance
I1 C1 . 2.079(4)
I2 C8 . 2.088(4)
N1 C16 . 1.132(7)
N2 C17 . 1.139(6)
N3 C19 . 1.135(6)
N4 C20 . 1.143(6)
C1 C14 . 1.381(5)
C1 C2 . 1.387(6)
C2 C3 . 1.378(6)
C2 H2 . 0.9300
C3 C4 . 1.398(5)
C3 H3 . 0.9300
C4 C13 . 1.413(5)
C4 C5 . 1.471(5)
C5 C15 . 1.371(5)
C5 C6 . 1.470(5)
C6 C7 . 1.395(5)
C6 C11 . 1.408(5)
C7 C8 . 1.385(6)
C7 H7 . 0.9300
C8 C9 . 1.386(6)
C9 C10 . 1.377(6)
C9 H9 . 0.9300
C10 C11 . 1.390(5)
C10 H10 . 0.9300
C11 C12 . 1.473(5)
C12 C18 . 1.355(5)
C12 C13 . 1.470(5)
C13 C14 . 1.393(5)
C14 H14 . 0.9300
C15 C17 . 1.430(6)
C15 C16 . 1.435(6)
C18 C20 . 1.437(5)
C18 C19 . 1.440(5)
S1 C22 . 1.725(5)
S1 C21 . 1.750(4)
S2 C23 . 1.712(5)
S2 C21 . 1.759(4)
C21 C21 2_567 1.342(8)
C22 C23 . 1.343(7)
C22 H22 . 0.9300
C23 H23 . 0.9300
loop_
_geom_hbond_atom_site_label_D
_geom_hbond_atom_site_label_H
_geom_hbond_atom_site_label_A
_geom_hbond_site_symmetry_A
_geom_hbond_distance_DH
_geom_hbond_distance_HA
_geom_hbond_distance_DA
_geom_hbond_angle_DHA
C23 H23 N3 1_545 0.93 2.68 3.310(6) 125.5
loop_
_geom_torsion_atom_site_label_1
_geom_torsion_atom_site_label_2
_geom_torsion_atom_site_label_3
_geom_torsion_atom_site_label_4
_geom_torsion_site_symmetry_4
_geom_torsion
C14 C1 C2 C3 . 1.6(6)
I1 C1 C2 C3 . -177.5(3)
C1 C2 C3 C4 . 2.5(6)
C2 C3 C4 C13 . -3.6(6)
C2 C3 C4 C5 . 174.5(4)
C3 C4 C5 C15 . -32.7(6)
C13 C4 C5 C15 . 145.4(4)
C3 C4 C5 C6 . 150.1(4)
C13 C4 C5 C6 . -31.8(5)
C15 C5 C6 C7 . 34.5(6)
C4 C5 C6 C7 . -148.3(4)
C15 C5 C6 C11 . -147.0(4)
C4 C5 C6 C11 . 30.2(5)
C11 C6 C7 C8 . 1.1(6)
C5 C6 C7 C8 . 179.5(4)
C6 C7 C8 C9 . -2.9(6)
C6 C7 C8 I2 . 177.1(3)
C7 C8 C9 C10 . 2.1(6)
I2 C8 C9 C10 . -177.9(3)
C8 C9 C10 C11 . 0.5(6)
C9 C10 C11 C6 . -2.3(6)
C9 C10 C11 C12 . 178.7(4)
C7 C6 C11 C10 . 1.5(5)
C5 C6 C11 C10 . -177.0(3)
C7 C6 C11 C12 . -179.5(3)
C5 C6 C11 C12 . 2.0(5)
C10 C11 C12 C18 . -39.3(5)
C6 C11 C12 C18 . 141.7(4)
C10 C11 C12 C13 . 146.1(4)
C6 C11 C12 C13 . -32.9(5)
C3 C4 C13 C14 . 0.8(5)
C5 C4 C13 C14 . -177.4(3)
C3 C4 C13 C12 . 179.3(3)
C5 C4 C13 C12 . 1.1(5)
C18 C12 C13 C14 . 35.1(5)
C11 C12 C13 C14 . -150.3(3)
C18 C12 C13 C4 . -143.3(4)
C11 C12 C13 C4 . 31.2(5)
C2 C1 C14 C13 . -4.4(6)
I1 C1 C14 C13 . 174.7(3)
C4 C13 C14 C1 . 3.2(5)
C12 C13 C14 C1 . -175.3(3)
C6 C5 C15 C17 . 5.9(6)
C4 C5 C15 C17 . -171.1(4)
C6 C5 C15 C16 . 179.4(4)
C4 C5 C15 C16 . 2.4(6)
C13 C12 C18 C20 . 170.4(3)
C11 C12 C18 C20 . -3.9(6)
C13 C12 C18 C19 . -0.6(6)
C11 C12 C18 C19 . -174.9(4)
C22 S1 C21 C21 2_567 -178.8(5)
C22 S1 C21 S2 . -0.5(3)
C23 S2 C21 C21 2_567 179.0(5)
C23 S2 C21 S1 . 0.7(3)
C21 S1 C22 C23 . 0.0(5)
S1 C22 C23 S2 . 0.5(6)
C21 S2 C23 C22 . -0.7(5)
