#------------------------------------------------------------------------------
#$Date: 2018-01-17 08:27:03 +0200 (Wed, 17 Jan 2018) $
#$Revision: 205311 $
#$URL: file:///home/coder/svn-repositories/cod/cif/2/02/09/2020915.cif $
#------------------------------------------------------------------------------
#
# This file is available in the Crystallography Open Database (COD),
# http://www.crystallography.net/. The original data for this entry
# were provided by IUCr Journals, http://journals.iucr.org/.
#
# The file may be used within the scientific community so long as
# proper attribution is given to the journal article from which the
# data were obtained.
#
data_2020915
loop_
_publ_author_name
'Perdih, Franc'
_publ_section_title
;
 Copper(II) bis(4,4,4-trifluoro-1-phenylbutane-1,3-dionate) complexes with
 pyridin-2-one, 3-hydroxypyridine and 3-hydroxypyridin-2-one ligands:
 molecular structures and hydrogen-bonded networks
;
_journal_coeditor_code           KU3208
_journal_issue                   11
_journal_name_full               'Acta Crystallographica Section C'
_journal_page_first              960
_journal_page_last               967
_journal_paper_doi               10.1107/S2053229617014875
_journal_volume                  73
_journal_year                    2017
_chemical_formula_iupac          '[Cu (C10 H6 F3 O2)2 (C5 H5 N O2)2]'
_chemical_formula_moiety         'C30 H22 Cu F6 N2 O8'
_chemical_formula_sum            'C30 H22 Cu F6 N2 O8'
_chemical_formula_weight         716.03
_chemical_name_systematic
Bis(3-hydroxypyridin-2-one-\k<i>O</i>)bis(4,4,4-trifluoro-3-oxo-1-phenylbutan-1-olato-\k^2^<i>O</i>,<i>O</i>')copper(II)
_space_group_crystal_system      triclinic
_space_group_IT_number           2
_space_group_name_Hall           '-P 1'
_space_group_name_H-M_alt        'P -1'
_symmetry_space_group_name_Hall  '-P 1'
_symmetry_space_group_name_H-M   'P -1'
_atom_sites_solution_hydrogens   geom
_audit_creation_method           SHELXL-2014/7
_cell_angle_alpha                108.710(2)
_cell_angle_beta                 101.727(2)
_cell_angle_gamma                93.650(2)
_cell_formula_units_Z            1
_cell_length_a                   7.5950(3)
_cell_length_b                   9.6764(4)
_cell_length_c                   10.7507(4)
_cell_measurement_reflns_used    3204
_cell_measurement_temperature    293(2)
_cell_measurement_theta_max      27.48
_cell_measurement_theta_min      1.00
_cell_volume                     725.61(5)
_computing_cell_refinement
;
DENZO-SMN (Otwinowski & Minor, 1997)
;
_computing_data_collection
;
KappaCCD Reference Manual (Nonius, 1998)
;
_computing_data_reduction
;
DENZO-SMN (Otwinowski & Minor, 1997)
;
_computing_molecular_graphics
;
Mercury (Macrae <i>et al.</i>, 2008)
;
_computing_publication_material
;
PLATON (Spek, 2009)
;
_computing_structure_refinement
;
SHELXL2014 (Sheldrick, 2015)
;
_computing_structure_solution
;
SIR97 (Altomare <i>et al.</i>,  1999)
;
_diffrn_ambient_temperature      293(2)
_diffrn_detector_area_resol_mean 0.055
_diffrn_measured_fraction_theta_full 0.994
_diffrn_measured_fraction_theta_max 0.992
_diffrn_measurement_device_type
;
Nonius KappaCCD area-detector
;
_diffrn_measurement_method       '\w scans'
_diffrn_radiation_monochromator  graphite
_diffrn_radiation_source         'fine-focus sealed tube'
_diffrn_radiation_type           MoK\a
_diffrn_radiation_wavelength     0.71073
_diffrn_reflns_av_R_equivalents  0.0186
_diffrn_reflns_limit_h_max       9
_diffrn_reflns_limit_h_min       -9
_diffrn_reflns_limit_k_max       12
_diffrn_reflns_limit_k_min       -12
_diffrn_reflns_limit_l_max       13
_diffrn_reflns_limit_l_min       -13
_diffrn_reflns_number            5704
_diffrn_reflns_theta_full        25.242
_diffrn_reflns_theta_max         27.451
_diffrn_reflns_theta_min         3.527
_exptl_absorpt_coefficient_mu    0.847
_exptl_absorpt_correction_T_max  1.0000
_exptl_absorpt_correction_T_min  0.860
_exptl_absorpt_correction_type   multi-scan
_exptl_absorpt_process_details
;
(SCALEPACK; Otwinowski & Minor, 1997)
;
_exptl_crystal_colour            green
_exptl_crystal_density_diffrn    1.639
_exptl_crystal_description       block
_exptl_crystal_F_000             363
_exptl_crystal_size_max          0.250
_exptl_crystal_size_mid          0.150
_exptl_crystal_size_min          0.100
_refine_diff_density_max         0.296
_refine_diff_density_min         -0.408
_refine_ls_extinction_method     none
_refine_ls_goodness_of_fit_ref   1.035
_refine_ls_hydrogen_treatment    constr
_refine_ls_matrix_type           full
_refine_ls_number_parameters     243
_refine_ls_number_reflns         3300
_refine_ls_number_restraints     0
_refine_ls_restrained_S_all      1.035
_refine_ls_R_factor_all          0.0410
_refine_ls_R_factor_gt           0.0328
_refine_ls_shift/su_max          0.001
_refine_ls_shift/su_mean         0.000
_refine_ls_structure_factor_coef Fsqd
_refine_ls_weighting_details
'w=1/[\s^2^(Fo^2^)+(0.0388P)^2^+0.3054P] where P=(Fo^2^+2Fc^2^)/3'
_refine_ls_weighting_scheme      calc
_refine_ls_wR_factor_gt          0.0808
_refine_ls_wR_factor_ref         0.0860
_reflns_number_gt                2905
_reflns_number_total             3300
_reflns_threshold_expression     'I > 2\s(I)'
_cod_data_source_file            ku3208sup1.cif
_cod_data_source_block           III
_cod_database_code               2020915
_shelx_space_group_comment
;
The symmetry employed for this shelxl refinement is uniquely defined
by the following loop, which should always be used as a source of
symmetry information in preference to the above space-group names.
They are only intended as comments.
;
_shelx_estimated_absorpt_t_min   0.816
_shelx_estimated_absorpt_t_max   0.920
_shelx_hkl_file
;
   0   0   1   -0.40    0.20   1
   0   0  -2  337.90    8.50   1
   0   0   3 1755.10   41.00   1
   0   0  -3 1783.50   41.50   1
   0   0   4 2142.00   52.70   1
   0   0  -4 2048.70   48.10   1
   0   0   5   76.30    3.00   1
   0   0  -5   76.50    2.60   1
   0   0   6  882.10   22.30   1
   0   0  -6  880.20   21.50   1
   0   0   7    1.10    1.00   1
   0   0  -7    1.90    1.10   1
   0   0   8   15.70    1.40   1
   0   0  -8   17.00    1.30   1
   0   0   9  172.10   10.20   1
   0   0  -9  177.60    5.00   1
   0   0  10   33.00    4.20   1
   0   0 -10   31.30    1.80   1
   0   0  11  142.50   10.20   1
   0   0 -11  136.50    4.30   1
   0   0 -12  112.10    6.60   1
   0   1 -13   96.20    6.30   1
   0   1 -12   93.60    3.90   1
   0  -1  12   90.70    9.20   1
   0   1 -11   33.90    2.10   1
   0  -1  11   35.20    3.00   1
   0   1 -10   60.40    2.40   1
   0  -1  10   59.60    3.30   1
   0   1  -9    6.00    1.00   1
   0  -1   9    5.10    1.40   1
   0   1  -8   48.60    2.00   1
   0  -1   8   50.10    2.50   1
   0   1  -7  280.70    6.90   1
   0  -1   7  283.60   13.30   1
   0   1  -6  473.10   10.40   1
   0  -1   6  479.00   12.30   1
   0   1  -5   16.60    1.20   1
   0  -1   5   18.60    1.30   1
   0   1  -4   27.10    1.30   1
   0  -1   4   27.80    1.40   1
   0   1  -3  193.00    4.40   1
   0  -1   3  193.50    5.10   1
   0   1  -2   47.70    2.40   1
   0  -1   2   46.30    2.20   1
   0   1  -1   -0.30    0.20   1
   0  -1  -1  419.60   14.90   1
   0  -1  -2  818.90   27.80   1
   0   1   3   52.60    2.60   1
   0  -1  -3   51.70    1.90   1
   0   1   4  679.10   24.90   1
   0  -1  -4  673.00   16.30   1
   0   1   5 1238.10   43.40   1
   0  -1  -5 1253.20   29.60   1
   0   1   6  336.30   12.30   1
   0  -1  -6  324.70    8.80   1
   0   1   7   28.40    3.70   1
   0  -1  -7   22.10    1.30   1
   0   1   8   92.60    5.60   1
   0  -1  -8  107.00    3.30   1
   0   1   9  115.30    7.60   1
   0  -1  -9  119.60    3.80   1
   0   1  10   97.00    7.40   1
   0  -1 -10   92.50    3.40   1
   0   1  11   87.80    8.70   1
   0  -1 -11   96.20    4.70   1
   0  -1 -12   -5.20    2.20   1
   0   2 -13  127.40    5.80   1
   0   2 -12   70.40    3.20   1
   0  -2  12   75.30    4.70   1
   0   2 -11  105.00    3.60   1
   0  -2  11  104.20    5.30   1
   0   2 -10   80.60    2.70   1
   0  -2  10   78.20    4.00   1
   0   2  -9  225.90    6.10   1
   0  -2   9  227.80    7.60   1
   0   2  -8  257.30    6.60   1
   0  -2   8  243.60    9.00   1
   0   2  -7  209.00    5.30   1
   0  -2   7  205.50    6.40   1
   0   2  -6  456.70   10.00   1
   0  -2   6  464.20   11.50   1
   0   2  -5   10.60    0.90   1
   0  -2   5    8.00    1.10   1
   0   2  -4    2.40    0.80   1
   0  -2   4    3.20    0.90   1
   0   2  -3   29.80    1.30   1
   0  -2   3   30.00    1.30   1
   0  -2   1   25.60    0.90   1
   0  -2   0 1371.90   31.50   1
   0  -2  -1 1505.30   35.30   1
   0   2   2    4.10    1.00   1
   0  -2  -2    5.40    0.80   1
   0   2   3 1016.60   33.60   1
   0  -2  -3  974.10   19.20   1
   0   2   4    4.40    1.40   1
   0  -2  -4    3.80    0.50   1
   0   2   5   69.30    3.60   1
   0  -2  -5   70.10    2.00   1
   0   2   6  450.70   15.60   1
   0  -2  -6  434.00    8.90   1
   0   2   7   86.50    4.80   1
   0  -2  -7   76.80    2.30   1
   0   2   8   74.60    5.50   1
   0  -2  -8   78.00    2.70   1
   0   2   9    1.40    2.50   1
   0  -2  -9    0.70    0.90   1
   0   2  10   77.20    8.20   1
   0  -2 -10   78.40    4.80   1
   0  -2 -11   25.30    3.10   1
   0   3 -13   13.10    1.80   1
   0  -3  13   13.80    3.20   1
   0   3 -12  113.80    3.90   1
   0  -3  12  102.40    5.40   1
   0   3 -11    5.70    1.30   1
   0  -3  11    5.00    2.10   1
   0   3 -10   35.20    1.70   1
   0  -3  10   32.40    2.60   1
   0   3  -9  315.20    7.90   1
   0  -3   9  307.90   10.20   1
   0   3  -8  388.70    9.20   1
   0  -3   8  391.20   11.80   1
   0   3  -7  986.90   20.10   1
   0  -3   7  993.80   25.70   1
   0   3  -6  135.20    3.80   1
   0  -3   6  129.50    4.70   1
   0   3  -5  362.50    8.10   1
   0  -3   5  362.50   10.00   1
   0   3  -4  351.10    9.50   1
   0  -3   4  356.40    7.60   1
   0   3  -3  133.60    3.10   1
   0  -3   3  135.00    3.20   1
   0   3  -2  930.00   18.00   1
   0  -3   2  945.10   18.10   1
   0   3  -1  130.60    3.00   1
   0  -3   1  135.40    3.10   1
   0  -3   0 1062.60   20.90   1
   0  -3  -1   95.90    2.40   1
   0  -3  -2  158.00    3.70   1
   0   3   3  257.60    9.80   1
   0  -3  -3  260.10    6.90   1
   0   3   4   32.40    2.50   1
   0  -3  -4   37.70    1.30   1
   0   3   5   45.30    3.10   1
   0  -3  -5   49.40    1.50   1
   0   3   6   79.30    5.90   1
   0  -3  -6   72.10    2.10   1
   0   3   7  298.80   15.10   1
   0  -3  -7  310.00   10.20   1
   0   3   8   59.70    5.90   1
   0  -3  -8   55.60    3.20   1
   0   3   9   83.30    6.60   1
   0  -3  -9   83.00    4.90   1
   0   3  10   61.20    7.10   1
   0  -3 -10   57.00    4.50   1
   0  -3 -11    8.40    3.80   1
   0   4 -13   92.80    4.70   1
   0  -4  13   96.90    8.40   1
   0   4 -12   40.70    2.10   1
   0  -4  12   40.80    3.70   1
   0   4 -11   38.10    1.90   1
   0  -4  11   32.00    3.10   1
   0   4 -10  316.10    8.50   1
   0  -4  10  309.50   10.60   1
   0   4  -9  110.30    3.60   1
   0  -4   9  114.10    4.80   1
   0   4  -8   40.80    2.20   1
   0  -4   8   38.20    2.90   1
   0   4  -7  186.10    6.20   1
   0  -4   7  184.50    6.00   1
   0   4  -6  115.60    4.20   1
   0  -4   6  121.60    3.90   1
   0   4  -5  492.70   10.30   1
   0  -4   5  501.30   10.10   1
   0   4  -4 2040.80   38.70   1
   0  -4   4 2102.80   39.60   1
   0   4  -3 2523.40   47.10   1
   0  -4   3 2651.00   49.00   1
   0   4  -2  312.70    6.60   1
   0  -4   2  314.80    6.60   1
   0   4  -1  215.80    4.80   1
   0  -4   1  222.20    4.90   1
   0  -4   0  263.70    5.70   1
   0  -4  -1  114.90    2.70   1
   0  -4  -2  183.10    4.10   1
   0  -4  -3  198.00    4.40   1
   0   4   4   94.00    4.90   1
   0  -4  -4   91.00    1.90   1
   0   4   5   64.70    4.60   1
   0  -4  -5   62.30    3.00   1
   0   4   6  205.30   10.00   1
   0  -4  -6  206.60    7.00   1
   0   4   7   67.40    5.90   1
   0  -4  -7   65.60    3.60   1
   0   4   8  139.40   10.40   1
   0  -4  -8  141.80    6.50   1
   0   4   9   94.60    8.90   1
   0  -4  -9   99.70    5.40   1
   0  -4 -10   18.10    5.20   1
   0   5 -13   28.70    2.80   1
   0  -5  13   28.90    5.20   1
   0   5 -12   66.90    3.20   1
   0  -5  12   64.80    4.20   1
   0   5 -11   26.10    1.90   1
   0  -5  11   21.70    2.40   1
   0   5 -10   87.90    4.20   1
   0  -5  10   95.60    4.30   1
   0   5  -9    4.20    2.10   1
   0  -5   9    5.20    1.60   1
   0   5  -8  123.70    3.40   1
   0  -5   8  125.60    5.10   1
   0   5  -7  220.90    5.30   1
   0  -5   7  215.60    6.60   1
   0   5  -6  608.20   12.50   1
   0  -5   6  628.00   12.70   1
   0   5  -5   70.40    2.00   1
   0  -5   5   70.40    2.30   1
   0   5  -4 1376.30   26.40   1
   0  -5   4 1382.00   32.50   1
   0   5  -3  110.90    2.70   1
   0  -5   3  110.60    2.80   1
   0   5  -2  134.30    3.40   1
   0  -5   2  133.80    3.30   1
   0   5  -1 1385.20   46.10   1
   0  -5   1 1414.60   27.30   1
   0  -5   0  114.90    3.00   1
   0  -5  -1   41.80    1.30   1
   0  -5  -2  194.90    4.60   1
   0  -5  -3   14.80    0.90   1
   0  -5  -4   32.30    0.90   1
   0  -5  -5  266.50    8.60   1
   0  -5  -6   63.50    3.30   1
   0  -5  -7   80.60    4.40   1
   0   5   8  116.10    8.80   1
   0  -5  -8  115.10    6.20   1
   0   5   9    5.50    3.80   1
   0  -5  -9   12.00    4.00   1
   0   6 -13  122.30    4.90   1
   0  -6  13  113.70   10.30   1
   0   6 -12  123.40    4.20   1
   0  -6  12  118.50    6.70   1
   0   6 -11   43.30    1.80   1
   0  -6  11   37.00    3.40   1
   0   6 -10  291.50    6.40   1
   0  -6  10  301.00   10.90   1
   0   6  -9   67.30    2.30   1
   0  -6   9   55.50    3.70   1
   0   6  -8   30.40    1.40   1
   0  -6   8   29.90    2.60   1
   0   6  -7   68.70    2.30   1
   0  -6   7   71.60    2.80   1
   0   6  -6    4.20    0.60   1
   0  -6   6    5.70    1.40   1
   0   6  -5  365.20    8.00   1
   0  -6   5  378.20    8.20   1
   0   6  -4  684.40   14.20   1
   0  -6   4  682.70   13.30   1
   0   6  -3  127.10    3.20   1
   0  -6   3  126.60    3.10   1
   0   6  -2  412.60   11.30   1
   0  -6   2  408.40    8.40   1
   0  -6   1   41.10    1.50   1
   0  -6   0  371.80    7.90   1
   0  -6  -1  517.70    9.40   1
   0  -6  -2   47.60    1.50   1
   0  -6  -3  193.60    4.80   1
   0  -6  -4   43.90    1.50   1
   0  -6  -5   86.50    4.10   1
   0  -6  -6   -1.50    1.60   1
   0  -6  -7   55.60    3.70   1
   0  -6  -8    2.10    3.90   1
   0  -7  13   28.30    5.10   1
   0   7 -12  146.10    4.80   1
   0  -7  12  148.90    8.20   1
   0   7 -11   84.30    2.70   1
   0  -7  11   83.70    5.40   1
   0   7 -10  209.60    4.90   1
   0  -7  10  216.30    8.40   1
   0   7  -9    5.20    0.50   1
   0  -7   9    8.10    2.10   1
   0   7  -8   61.30    2.20   1
   0  -7   8   55.40    2.60   1
   0   7  -7   71.50    2.20   1
   0  -7   7   66.50    2.80   1
   0   7  -6  165.20    4.10   1
   0  -7   6  158.90    4.20   1
   0   7  -5  405.90    8.90   1
   0  -7   5  412.60   10.80   1
   0   7  -4 1310.60   32.40   1
   0  -7   4 1301.80   24.40   1
   0   7  -3  217.00    6.40   1
   0  -7   3  212.90    4.80   1
   0   7  -2    4.40    1.40   1
   0  -7   2    8.80    1.00   1
   0  -7   1  266.60    6.10   1
   0  -7   0  194.60    4.10   1
   0  -7  -1  130.70    3.30   1
   0  -7  -2   99.10    2.70   1
   0  -7  -3    4.40    0.80   1
   0  -7  -4   64.80    3.60   1
   0  -7  -5  121.30    6.00   1
   0  -7  -6   96.60    5.50   1
   0  -7  -7   37.90    5.00   1
   0  -7  -8   -2.50    3.20   1
   0   8 -12   12.90    3.60   1
   0  -8  12   15.30    3.20   1
   0   8 -11   58.20    4.40   1
   0  -8  11   46.30    4.00   1
   0   8 -10   70.30    4.40   1
   0  -8  10   82.60    4.50   1
   0   8  -9   32.00    2.80   1
   0  -8   9   37.00    3.50   1
   0   8  -8    7.50    1.80   1
   0  -8   8    6.10    1.60   1
   0   8  -7   43.50    2.70   1
   0  -8   7   47.40    2.30   1
   0   8  -6  187.70    6.30   1
   0  -8   6  174.60    4.70   1
   0   8  -5  100.30    3.90   1
   0  -8   5  100.50    2.90   1
   0   8  -4   13.70    2.50   1
   0  -8   4   13.80    1.10   1
   0   8  -3   17.90    2.20   1
   0  -8   3   21.40    1.50   1
   0  -8   2  103.60    3.20   1
   0  -8   1   32.50    1.70   1
   0  -8   0  140.00    3.50   1
   0  -8  -1  226.30    5.40   1
   0  -8  -2    0.40    0.70   1
   0  -8  -3   50.00    1.90   1
   0  -8  -4  131.30    5.00   1
   0  -8  -5   73.40    3.90   1
   0  -8  -6  124.10   10.30   1
   0   9 -12   30.00    4.60   1
   0  -9  12   29.20    6.50   1
   0   9 -11   47.60    5.40   1
   0  -9  11   47.00    4.30   1
   0   9 -10    7.10    2.00   1
   0  -9  10    6.90    2.70   1
   0   9  -9   35.10    2.70   1
   0  -9   9   30.70    2.50   1
   0   9  -8  105.20    5.00   1
   0  -9   8   98.70    4.20   1
   0   9  -7  172.30    6.70   1
   0  -9   7  169.00    5.50   1
   0   9  -6  236.80    8.30   1
   0  -9   6  225.30    8.00   1
   0   9  -5  174.20    8.50   1
   0  -9   5  175.40    4.80   1
   0   9  -4   33.80    2.90   1
   0  -9   4   32.70    1.70   1
   0  -9   3    0.50    0.90   1
   0  -9   2    0.50    1.00   1
   0  -9   1   15.40    1.50   1
   0  -9   0   24.80    1.60   1
   0  -9  -1    3.40    1.00   1
   0  -9  -2    9.60    1.20   1
   0  -9  -3   40.30    1.80   1
   0  -9  -4   38.80    3.00   1
   0  -9  -5   37.00    3.70   1
   0  10 -11    9.50    3.10   1
   0 -10  11   13.10    3.10   1
   0  10 -10   10.10    3.90   1
   0 -10  10    9.60    3.00   1
   0  10  -9   25.30    4.10   1
   0 -10   9   14.00    2.20   1
   0  10  -8   70.10    5.30   1
   0 -10   8   58.50    3.40   1
   0  10  -7  179.00    9.80   1
   0 -10   7  160.20    5.90   1
   0  10  -6   53.50    4.40   1
   0 -10   6   51.80    3.40   1
   0  10  -5   13.00    2.70   1
   0 -10   5    8.20    1.20   1
   0 -10   4   93.50    3.70   1
   0 -10   3  164.30    5.30   1
   0 -10   2  109.50    4.10   1
   0 -10   1   69.30    2.70   1
   0 -10   0   10.80    1.20   1
   0 -10  -1    0.60    1.00   1
   0 -10  -2    0.00    1.10   1
   0 -10  -3    8.40    1.90   1
   0 -10  -4   32.40    4.40   1
   0  11 -10    7.00    2.70   1
   0 -11  10    3.40    3.70   1
   0  11  -9    7.90    2.60   1
   0 -11   9    5.60    2.40   1
   0  11  -8  117.90    8.80   1
   0 -11   8  116.30    5.10   1
   0  11  -7   69.50    5.60   1
   0 -11   7   71.20    3.80   1
   0  11  -6   64.40    5.70   1
   0 -11   6   63.20    4.40   1
   0  11  -5   60.50    4.80   1
   0 -11   5   60.70    2.70   1
   0 -11   4   57.40    2.70   1
   0 -11   3   80.10    3.30   1
   0 -11   2   36.70    2.40   1
   0 -11   1    9.20    1.60   1
   0 -11   0   13.80    1.70   1
   0 -11  -1   12.60    1.50   1
   0 -11  -2   12.00    2.30   1
   0  12  -8   -1.90    2.30   1
   0 -12   8    0.30    2.60   1
   0  12  -7    8.90    2.70   1
   0 -12   7    9.20    2.50   1
   0  12  -6   29.80    3.80   1
   0 -12   6   30.40    3.30   1
   0 -12   5    9.70    1.60   1
   0 -12   4    0.50    1.20   1
   0 -12   3   -0.80    1.40   1
   0 -12   2   10.10    1.70   1
   0 -12   1   26.80    2.00   1
   1 -12   1   31.80    2.20   1
   1 -12   2   33.80    2.40   1
   1 -12   3   17.20    2.00   1
   1 -12   4   16.10    1.80   1
   1 -12   5    6.70    1.50   1
   1 -12   6    4.80    2.10   1
  -1  12  -6    4.20    2.10   1
   1 -12   7   11.90    2.20   1
  -1  12  -7   10.50    3.00   1
   1 -11  -2    7.80    2.00   1
   1 -11  -1    6.80    1.50   1
   1 -11   0   19.40    1.60   1
   1 -11   1   49.10    2.40   1
   1 -11   2   79.00    3.70   1
   1 -11   3   35.20    2.40   1
   1 -11   4   24.50    2.00   1
   1 -11   5   27.70    2.00   1
  -1  11  -5   28.40    2.90   1
   1 -11   6   23.60    2.60   1
  -1  11  -6   23.10    2.50   1
   1 -11   7   70.50    3.80   1
  -1  11  -7   65.70    4.40   1
   1 -11   8   71.70    3.90   1
  -1  11  -8   60.30    4.30   1
   1 -11   9   13.20    2.90   1
  -1  11  -9   15.30    2.90   1
   1 -10  -4   16.40    2.90   1
   1 -10  -3   23.10    2.40   1
   1 -10  -2    0.70    0.90   1
   1 -10  -1    2.00    1.10   1
   1 -10   0   50.10    2.20   1
   1 -10   1   49.10    2.40   1
   1 -10   2   22.70    1.60   1
   1 -10   3   71.30    2.80   1
   1 -10   4   24.00    1.70   1
  -1  10  -4   24.40    3.20   1
   1 -10   5    9.40    1.20   1
  -1  10  -5    6.60    1.60   1
   1 -10   6  130.70    5.60   1
  -1  10  -6  140.10    6.10   1
   1 -10   7  151.70    5.60   1
  -1  10  -7  162.40    6.90   1
   1 -10   8   38.50    3.30   1
  -1  10  -8   30.20    3.00   1
   1 -10   9   26.20    3.20   1
  -1  10  -9   35.40    3.00   1
   1 -10  10    8.20    3.70   1
  -1  10 -10    8.90    2.70   1
   1 -10  11   19.00    6.40   1
  -1  10 -11   13.30    4.20   1
   1  -9  -5   18.30    2.50   1
   1  -9  -4   45.10    2.90   1
   1  -9  -3   62.00    3.10   1
   1  -9  -2   26.70    1.90   1
   1  -9  -1  122.20    3.30   1
   1  -9   0   35.70    1.70   1
   1  -9   1   26.50    1.50   1
   1  -9   2    4.70    1.30   1
   1  -9   3  315.40    8.00   1
  -1   9  -3  335.70   15.30   1
   1  -9   4    5.10    1.20   1
  -1   9  -4    8.60    1.10   1
   1  -9   5  256.60    7.00   1
  -1   9  -5  258.40    6.80   1
   1  -9   6   97.80    6.20   1
  -1   9  -6  104.20    3.40   1
   1  -9   7  323.70    8.80   1
  -1   9  -7  319.80    8.40   1
   1  -9   8  199.60    8.20   1
  -1   9  -8  211.90    6.40   1
   1  -9   9   -2.30    2.40   1
  -1   9  -9    0.70    0.70   1
   1  -9  10   31.20    3.60   1
  -1   9 -10   31.40    1.90   1
   1  -9  11   23.40    4.30   1
  -1   9 -11   37.10    4.30   1
   1  -8  -7   24.30    5.40   1
   1  -8  -6   62.80    4.70   1
   1  -8  -5   31.80    2.20   1
   1  -8  -4   11.80    1.60   1
   1  -8  -3   45.80    1.60   1
   1  -8  -2  201.90    4.80   1
   1  -8  -1  138.10    3.60   1
   1  -8   0   67.80    2.60   1
   1  -8   1  131.10    3.70   1
   1  -8   2   40.10    1.70   1
  -1   8  -2   42.80    2.20   1
   1  -8   3   86.40    2.80   1
  -1   8  -3   82.20    2.70   1
   1  -8   4  140.70    3.90   1
  -1   8  -4  148.30    4.00   1
   1  -8   5   27.10    1.50   1
  -1   8  -5   28.50    1.50   1
   1  -8   6   45.60    2.30   1
  -1   8  -6   49.70    1.90   1
   1  -8   7  235.80    6.50   1
  -1   8  -7  235.20    6.20   1
   1  -8   8   36.90    3.30   1
  -1   8  -8   38.60    1.80   1
   1  -8   9   15.20    3.00   1
  -1   8  -9   17.00    1.30   1
   1  -8  10  146.30    7.10   1
  -1   8 -10  144.00    5.20   1
   1  -8  11   10.50    2.60   1
  -1   8 -11   10.80    1.50   1
   1  -8  12   -1.30    3.50   1
  -1   8 -12   -1.30    1.10   1
   1  -7  -8    1.30    3.00   1
   1  -7  -7   -1.00    2.70   1
   1  -7  -6   -0.30    1.90   1
   1  -7  -5   15.60    2.50   1
   1  -7  -4   47.10    3.00   1
   1  -7  -3  192.80    4.40   1
   1  -7  -2  356.30    7.50   1
   1  -7  -1  280.90    5.80   1
   1  -7   0  117.20    3.10   1
   1  -7   1   39.70    1.60   1
  -1   7  -1   43.20    2.20   1
   1  -7   2  174.10    4.40   1
  -1   7  -2  172.20    5.50   1
   1  -7   3   18.60    1.30   1
  -1   7  -3   16.90    1.20   1
   1  -7   4   63.40    2.00   1
  -1   7  -4   66.40    2.20   1
   1  -7   5  100.70    3.70   1
  -1   7  -5  101.80    3.00   1
   1  -7   6    1.40    1.50   1
  -1   7  -6    2.20    0.80   1
   1  -7   7  431.10   12.30   1
  -1   7  -7  450.30   10.30   1
   1  -7   8  468.20   14.60   1
  -1   7  -8  440.20   10.30   1
   1  -7   9   20.50    2.70   1
  -1   7  -9   22.00    1.50   1
   1  -7  10   68.30    4.10   1
  -1   7 -10   67.00    2.80   1
   1  -7  11   49.30    4.10   1
  -1   7 -11   58.60    2.90   1
   1  -7  12   41.60    5.70   1
  -1   7 -12   43.10    2.60   1
   1  -6  -9   14.90    3.90   1
   1  -6  -8   21.60    3.00   1
   1  -6  -7   22.40    2.50   1
   1  -6  -6   -2.70    1.40   1
   1  -6  -5   -0.30    1.60   1
   1  -6  -4   24.50    2.40   1
   1  -6  -3  142.40    3.60   1
   1  -6  -2  111.60    2.70   1
   1  -6  -1  196.90    4.80   1
   1  -6   0   95.80    2.70   1
  -1   6   0   94.10    3.20   1
   1  -6   1  171.30    4.20   1
  -1   6  -1  179.90    5.30   1
   1  -6   2  269.10    5.90   1
  -1   6  -2  266.00    5.80   1
   1  -6   3   16.60    1.20   1
  -1   6  -3   17.00    1.00   1
   1  -6   4  309.30    7.10   1
  -1   6  -4  303.10    7.20   1
   1  -6   5  125.80    4.10   1
  -1   6  -5  123.90    3.40   1
   1  -6   6    4.00    1.90   1
  -1   6  -6    4.10    0.80   1
   1  -6   7  280.30    8.60   1
  -1   6  -7  265.70    6.30   1
   1  -6   8  398.60   12.80   1
  -1   6  -8  411.70    9.60   1
   1  -6   9   28.10    2.80   1
  -1   6  -9   30.00    1.90   1
   1  -6  10   25.90    2.80   1
  -1   6 -10   24.70    1.90   1
   1  -6  11    8.10    2.50   1
  -1   6 -11   13.50    1.70   1
   1  -6  12    0.80    2.10   1
  -1   6 -12    1.50    1.50   1
   1  -6  13   84.20    8.40   1
  -1   6 -13   81.30    4.30   1
   1  -5 -10    2.70    4.70   1
   1  -5  -9   50.50    4.50   1
   1  -5  -8   22.10    2.50   1
   1  -5  -7    3.20    1.50   1
   1  -5  -6  299.40   10.20   1
   1  -5  -5  294.20    9.10   1
   1  -5  -4  205.20    6.40   1
   1  -5  -3  209.70    6.20   1
   1  -5  -2   12.70    0.80   1
   1  -5  -1   27.10    1.20   1
  -1   5   1   26.70    1.50   1
   1  -5   0    7.00    0.70   1
  -1   5   0    6.70    1.00   1
   1  -5   1  257.00    5.70   1
  -1   5  -1  267.10    7.80   1
   1  -5   2  960.80   18.50   1
  -1   5  -2  942.00   19.00   1
   1  -5   3  747.70   15.60   1
  -1   5  -3  728.10   15.00   1
   1  -5   4   71.60    2.50   1
  -1   5  -4   70.00    2.10   1
   1  -5   5  362.60    7.70   1
  -1   5  -5  359.80    8.10   1
   1  -5   6   42.70    2.50   1
  -1   5  -6   41.90    1.70   1
   1  -5   7   39.90    2.50   1
  -1   5  -7   38.00    1.70   1
   1  -5   8  311.90    9.80   1
  -1   5  -8  314.10    7.50   1
   1  -5   9   16.40    2.20   1
  -1   5  -9   15.30    2.40   1
   1  -5  10   22.10    2.90   1
  -1   5 -10   31.40    2.90   1
   1  -5  11   -1.50    1.90   1
  -1   5 -11   -0.10    2.30   1
   1  -5  12    1.40    2.50   1
  -1   5 -12    3.60    2.10   1
   1  -5  13   30.80    5.80   1
  -1   5 -13   41.40    3.70   1
   1  -4 -10   73.80    5.30   1
   1  -4  -9   60.00    4.30   1
  -1   4   9   56.90    5.70   1
   1  -4  -8    9.60    1.80   1
  -1   4   8   10.50    2.70   1
   1  -4  -7  135.30    5.70   1
  -1   4   7  147.20    9.00   1
   1  -4  -6   22.90    2.40   1
  -1   4   6   19.10    2.80   1
   1  -4  -5  376.30   10.40   1
   1  -4  -4  397.80   10.50   1
   1  -4  -3    1.40    1.10   1
   1  -4  -2  114.60    2.80   1
  -1   4   2  114.40    6.30   1
   1  -4  -1    3.90    0.80   1
  -1   4   1    3.30    0.70   1
   1  -4   0  236.60    5.40   1
  -1   4   0  236.40    6.30   1
   1  -4   1  899.20   17.50   1
  -1   4  -1  905.10   17.40   1
   1  -4   2  501.80   10.20   1
  -1   4  -2  498.10   10.10   1
   1  -4   3 1105.10   21.80   1
  -1   4  -3 1099.70   21.40   1
   1  -4   4 2427.40   57.50   1
  -1   4  -4 2434.60   46.60   1
   1  -4   5  261.20    7.20   1
  -1   4  -5  256.00    5.90   1
   1  -4   6   95.00    3.70   1
  -1   4  -6   97.10    2.90   1
   1  -4   7  904.90   22.90   1
  -1   4  -7  896.20   23.70   1
   1  -4   8   30.00    2.40   1
  -1   4  -8   36.20    2.40   1
   1  -4   9   30.10    2.50   1
  -1   4  -9   29.30    2.00   1
   1  -4  10   64.10    3.70   1
  -1   4 -10   64.30    3.20   1
   1  -4  11    9.90    2.40   1
  -1   4 -11    7.80    1.70   1
   1  -4  12   -1.10    2.90   1
  -1   4 -12    5.10    1.90   1
   1  -4  13   22.50    5.00   1
  -1   4 -13   21.20    2.20   1
   1  -3 -11    3.00    3.60   1
   1  -3 -10   10.10    2.40   1
  -1   3  10    0.20    3.90   1
   1  -3  -9    3.70    2.10   1
  -1   3   9    1.70    3.60   1
   1  -3  -8  152.40    6.00   1
  -1   3   8  154.10    9.20   1
   1  -3  -7    2.20    1.70   1
  -1   3   7    1.20    2.90   1
   1  -3  -6   36.70    2.60   1
  -1   3   6   41.20    3.80   1
   1  -3  -5 1022.70   25.80   1
  -1   3   5 1040.70   34.80   1
   1  -3  -4  297.90    7.80   1
  -1   3   4  307.50   11.90   1
   1  -3  -3 1283.90   29.90   1
   1  -3  -2   27.80    1.00   1
  -1   3   2   27.60    1.90   1
   1  -3  -1 1790.00   41.90   1
  -1   3   1 1827.80   42.60   1
   1  -3   0   19.60    0.80   1
  -1   3   0   18.80    1.20   1
   1  -3   1  778.80   15.40   1
  -1   3  -1  775.30   15.10   1
   1  -3   2  319.40    6.90   1
  -1   3  -2  319.60    7.00   1
   1  -3   3  372.90   14.80   1
  -1   3  -3  359.20    7.60   1
   1  -3   4  109.90    3.80   1
  -1   3  -4  109.80    2.80   1
   1  -3   5    9.90    1.30   1
  -1   3  -5    9.10    1.20   1
   1  -3   6  793.60   20.20   1
  -1   3  -6  797.40   16.70   1
   1  -3   7  504.90   13.20   1
  -1   3  -7  482.90   10.70   1
   1  -3   8 1056.80   30.80   1
  -1   3  -8 1078.50   23.50   1
   1  -3   9  534.50   16.00   1
  -1   3  -9  539.40   12.70   1
   1  -3  10    5.50    1.90   1
  -1   3 -10   -1.10    1.50   1
   1  -3  11   38.80    3.00   1
  -1   3 -11   37.30    2.50   1
   1  -3  12    5.10    2.20   1
  -1   3 -12    3.60    1.80   1
  -1   3 -13    7.60    2.20   1
   1  -2 -12    0.10    3.20   1
   1  -2 -11   47.30    3.40   1
  -1   2  11   55.20    7.30   1
   1  -2 -10   15.80    2.10   1
  -1   2  10   15.10    3.40   1
   1  -2  -9   26.20    2.50   1
  -1   2   9   33.60    4.60   1
   1  -2  -8   67.80    3.40   1
  -1   2   8   70.30    5.90   1
   1  -2  -7    4.70    1.60   1
  -1   2   7    8.70    3.10   1
   1  -2  -6  884.60   31.40   1
  -1   2   6  933.20   39.80   1
   1  -2  -5 1880.20   44.60   1
  -1   2   5 1932.10   62.10   1
   1  -2  -4  502.50   12.70   1
  -1   2   4  520.30   20.50   1
   1  -2  -3  261.60    7.60   1
  -1   2   3  263.20    7.00   1
   1  -2  -2  100.90    3.10   1
  -1   2   2  101.60    4.50   1
  -1   2  -2  102.70    2.50   1
   1  -2   3 1451.60   34.00   1
  -1   2  -3 1433.60   34.70   1
   1  -2   4  390.80    9.70   1
  -1   2  -4  364.70   10.00   1
   1  -2   5   48.10    2.10   1
  -1   2  -5   47.70    2.20   1
   1  -2   6 1099.80   27.10   1
  -1   2  -6 1089.40   26.50   1
   1  -2   7  350.00    9.70   1
  -1   2  -7  345.80    8.00   1
   1  -2   8    2.30    1.40   1
  -1   2  -8   -0.50    1.30   1
   1  -2   9    3.20    1.40   1
  -1   2  -9   -0.60    1.60   1
   1  -2  10   95.90    4.80   1
  -1   2 -10   99.00    3.80   1
   1  -2  11   35.80    5.60   1
  -1   2 -11   37.40    2.60   1
   1  -2  12  100.50    8.80   1
  -1   2 -12  101.90    4.20   1
  -1   2 -13  125.40    6.00   1
   1  -1 -12   55.70    4.30   1
   1  -1 -11   26.50    2.20   1
  -1   1  11   31.10    4.60   1
   1  -1 -10   32.00    2.30   1
  -1   1  10   24.00    4.40   1
   1  -1  -9  119.90    4.20   1
  -1   1   9  127.00    7.90   1
   1  -1  -8   18.20    1.50   1
  -1   1   8   16.10    1.30   1
   1  -1  -7   54.40    2.70   1
  -1   1   7   63.30    2.30   1
   1  -1  -6  257.80    7.20   1
  -1   1   6  256.90    6.60   1
   1  -1  -5 1270.30   30.70   1
  -1   1   5 1280.00   30.20   1
   1  -1  -4  288.40    8.20   1
  -1   1   4  301.70    8.10   1
   1  -1  -3  906.40   21.90   1
  -1   1   3  857.70   16.70   1
  -1   1   2 2741.70   91.50   1
   1  -1   2  423.70   15.00   1
  -1   1  -2  413.30   14.80   1
   1  -1   3 1414.30   34.40   1
  -1   1  -3 1395.70   33.90   1
   1  -1   4   84.50    3.00   1
  -1   1  -4   90.40    3.20   1
   1  -1   5  230.90    7.20   1
  -1   1  -5  239.60    7.10   1
   1  -1   6  184.40    5.80   1
  -1   1  -6  198.70    6.00   1
   1  -1   7   16.30    1.80   1
  -1   1  -7   20.40    1.90   1
   1  -1   8   10.70    1.80   1
  -1   1  -8   14.30    1.70   1
   1  -1   9   25.30    3.40   1
  -1   1  -9   19.70    1.80   1
   1  -1  10   52.50    4.90   1
  -1   1 -10   53.10    2.70   1
   1  -1  11  231.30   13.10   1
  -1   1 -11  207.80    7.10   1
  -1   1 -12   83.40    4.40   1
   1   0 -13   18.50    3.00   1
   1   0 -12   68.60    3.80   1
  -1   0  12   59.10    7.00   1
   1   0 -11   15.20    1.90   1
  -1   0  11   16.80    2.00   1
   1   0 -10   98.70    3.90   1
  -1   0  10   93.40    4.30   1
   1   0  -9    1.80    1.20   1
  -1   0   9   -0.10    1.30   1
   1   0  -8   59.90    2.40   1
  -1   0   8   58.50    2.80   1
   1   0  -7  284.40    5.50   1
  -1   0   7  282.70    7.30   1
   1   0  -6  103.30    2.40   1
  -1   0   6   99.50    3.60   1
   1   0  -5   58.20    1.50   1
  -1   0   5   61.20    2.20   1
   1   0  -4   28.20    1.10   1
  -1   0   4   27.10    1.40   1
   1   0  -3  200.60    4.70   1
  -1   0   3  201.20    4.50   1
   1   0  -2  222.70    8.40   1
  -1   0  -1 3141.30   99.40   1
  -1   0  -2 1673.90   54.80   1
   1   0   3  560.50   19.00   1
  -1   0  -3  547.90   14.10   1
   1   0   4 3516.60  110.40   1
  -1   0  -4 3565.40   82.90   1
   1   0   5    6.50    1.60   1
  -1   0  -5    9.00    1.20   1
   1   0   6    7.70    3.00   1
  -1   0  -6   10.20    1.20   1
   1   0   7  140.50    6.50   1
  -1   0  -7  144.00    4.60   1
   1   0   8   32.90    3.30   1
  -1   0  -8   34.00    2.20   1
   1   0   9   57.70    5.50   1
  -1   0  -9   49.80    2.90   1
   1   0  10   34.70    5.20   1
  -1   0 -10   33.70    2.70   1
   1   0  11  170.20   12.60   1
  -1   0 -11  164.10    5.60   1
  -1   0 -12   16.90    2.00   1
   1   1 -13   21.80    2.80   1
   1   1 -12    4.60    1.70   1
  -1  -1  12    5.20    2.00   1
   1   1 -11  119.10    4.60   1
  -1  -1  11  113.60    5.30   1
   1   1 -10   10.10    1.50   1
  -1  -1  10    6.60    1.70   1
   1   1  -9   48.50    1.80   1
  -1  -1   9   48.00    3.00   1
   1   1  -8  458.20    8.90   1
  -1  -1   8  470.00   13.10   1
   1   1  -7   68.90    2.00   1
  -1  -1   7   69.00    2.90   1
   1   1  -6  241.30    4.80   1
  -1  -1   6  228.70    6.30   1
   1   1  -5   63.60    1.70   1
  -1  -1   5   66.80    2.40   1
   1   1  -4   34.60    1.20   1
  -1  -1   4   36.70    1.30   1
   1   1  -3   41.60    1.40   1
  -1  -1   3   42.10    1.20   1
  -1  -1   0  975.40   22.80   1
   1   1   2  102.50    4.50   1
  -1  -1  -2  105.50    4.90   1
   1   1   3 3951.80  125.30   1
  -1  -1  -3 3798.10   85.90   1
   1   1   4 2337.00   74.50   1
  -1  -1  -4 2287.40   54.00   1
   1   1   5  110.00    5.00   1
  -1  -1  -5  111.60    3.70   1
   1   1   6  273.10   11.00   1
  -1  -1  -6  279.10    7.90   1
   1   1   7   25.70    3.70   1
  -1  -1  -7   30.40    1.90   1
   1   1   8   32.20    4.30   1
  -1  -1  -8   29.20    2.00   1
   1   1   9   65.90    6.60   1
  -1  -1  -9   74.50    3.70   1
   1   1  10   25.20    5.10   1
  -1  -1 -10   22.50    1.90   1
   1   1  11   46.70    7.40   1
  -1  -1 -11   46.60    3.00   1
  -1  -1 -12   43.30    5.80   1
   1   2 -13    3.10    2.10   1
  -1  -2  13    4.50    2.40   1
   1   2 -12   57.40    3.20   1
  -1  -2  12   52.10    3.80   1
   1   2 -11    0.10    1.00   1
  -1  -2  11    1.60    1.70   1
   1   2 -10  598.00   11.80   1
  -1  -2  10  589.70   17.80   1
   1   2  -9 2626.80   44.70   1
  -1  -2   9 2630.30   63.80   1
   1   2  -8   42.80    1.80   1
  -1  -2   8   42.00    2.50   1
   1   2  -7  217.50    4.40   1
  -1  -2   7  227.60    6.80   1
   1   2  -6  285.20    5.60   1
  -1  -2   6  290.20    8.00   1
   1   2  -5  563.10   10.10   1
  -1  -2   5  559.60   11.20   1
   1   2  -4   29.10    1.00   1
  -1  -2   4   33.20    1.30   1
   1   2  -3  931.40   21.90   1
  -1  -2   3  943.00   18.40   1
   1   2  -2   75.40    3.40   1
  -1  -2   2   82.10    2.90   1
  -1  -2   0 1218.40   28.50   1
   1   2   1   12.80    1.10   1
  -1  -2  -1   18.30    1.40   1
   1   2   2 1953.60   63.10   1
  -1  -2  -2 1968.10   65.40   1
   1   2   3 2282.50   81.30   1
  -1  -2  -3 2246.10   74.60   1
   1   2   4   16.10    1.80   1
  -1  -2  -4   15.20    1.10   1
   1   2   5  311.90   11.60   1
  -1  -2  -5  315.30    8.60   1
   1   2   6    2.00    1.80   1
  -1  -2  -6    2.50    1.00   1
   1   2   7   22.30    3.50   1
  -1  -2  -7   17.40    1.50   1
   1   2   8   73.90    5.50   1
  -1  -2  -8   62.40    2.80   1
   1   2   9    9.50    3.80   1
  -1  -2  -9    5.30    1.30   1
   1   2  10    0.20    4.40   1
  -1  -2 -10    2.80    1.30   1
  -1  -2 -11   25.10    4.40   1
   1   3 -13    2.90    1.90   1
  -1  -3  13    3.60    2.00   1
   1   3 -12   23.70    2.10   1
  -1  -3  12   16.80    2.50   1
   1   3 -11    2.80    1.30   1
  -1  -3  11    3.50    1.70   1
   1   3 -10  184.40    4.40   1
  -1  -3  10  166.60    6.60   1
   1   3  -9  463.80    9.20   1
  -1  -3   9  474.30   13.90   1
   1   3  -8  266.90    5.40   1
  -1  -3   8  270.30    7.90   1
   1   3  -7   63.10    1.80   1
  -1  -3   7   64.30    2.60   1
   1   3  -6  240.40    4.90   1
  -1  -3   6  239.70    5.30   1
   1   3  -5  738.30   12.90   1
  -1  -3   5  773.50   15.70   1
   1   3  -4 1106.90   26.60   1
  -1  -3   4 1111.00   21.30   1
   1   3  -3 1341.90   44.90   1
  -1  -3   3 1368.10   26.30   1
   1   3  -2   33.30    2.00   1
  -1  -3   2   31.40    1.60   1
   1   3  -1 1404.00   46.70   1
  -1  -3   1 1397.20   47.00   1
  -1  -3   0 1479.00   34.90   1
  -1  -3  -1   29.10    1.90   1
   1   3   2  483.50   16.20   1
  -1  -3  -2  518.00   18.40   1
   1   3   3  120.10    5.30   1
  -1  -3  -3  114.30    4.90   1
   1   3   4  152.10    7.20   1
  -1  -3  -4  159.90    4.60   1
   1   3   5  123.40    6.30   1
  -1  -3  -5  122.90    3.70   1
   1   3   6  135.20    7.00   1
  -1  -3  -6  131.50    4.20   1
   1   3   7   64.30    5.10   1
  -1  -3  -7   66.00    2.40   1
   1   3   8  136.10    8.70   1
  -1  -3  -8  140.60    4.50   1
   1   3   9  114.70    9.00   1
  -1  -3  -9  109.80    3.90   1
   1   3  10    0.60    4.80   1
  -1  -3 -10    1.10    0.90   1
   1   4 -13    0.60    1.80   1
  -1  -4  13    2.80    2.80   1
   1   4 -12   14.40    1.70   1
  -1  -4  12   12.70    2.10   1
   1   4 -11    3.40    1.10   1
  -1  -4  11    1.30    1.60   1
   1   4 -10  101.30    3.00   1
  -1  -4  10  100.00    4.60   1
   1   4  -9  624.10   11.70   1
  -1  -4   9  633.40   17.60   1
   1   4  -8   19.90    1.20   1
  -1  -4   8   20.70    2.10   1
   1   4  -7   47.20    1.50   1
  -1  -4   7   46.40    1.90   1
   1   4  -6  237.30    5.30   1
  -1  -4   6  249.50    5.80   1
   1   4  -5  227.10    6.50   1
  -1  -4   5  229.70    5.30   1
   1   4  -4 1602.00   53.50   1
  -1  -4   4 1608.00   31.00   1
   1   4  -3 1145.50   37.80   1
  -1  -4   3 1156.00   21.70   1
   1   4  -2   83.90    3.60   1
  -1  -4   2   82.70    2.20   1
   1   4  -1  246.40    9.00   1
  -1  -4   1  247.30    5.60   1
  -1  -4   0  165.00    4.70   1
  -1  -4  -1  794.60   19.40   1
  -1  -4  -2  368.10   13.40   1
   1   4   3   15.50    2.40   1
  -1  -4  -3   17.60    2.00   1
   1   4   4  546.40   19.00   1
  -1  -4  -4  561.20   20.30   1
   1   4   5  232.50   10.30   1
  -1  -4  -5  237.30    5.80   1
   1   4   6    9.00    3.10   1
  -1  -4  -6    6.50    1.00   1
   1   4   7  180.00   10.00   1
  -1  -4  -7  184.20    5.30   1
   1   4   8  161.50   10.90   1
  -1  -4  -8  139.50    4.20   1
   1   4   9    6.80    4.80   1
  -1  -4  -9    8.10    2.60   1
  -1  -4 -10   53.10    6.70   1
   1   5 -13   -0.70    1.40   1
  -1  -5  13    1.00    2.10   1
   1   5 -12   45.00    2.40   1
  -1  -5  12   45.70    4.10   1
   1   5 -11   26.10    1.60   1
  -1  -5  11   20.90    2.80   1
   1   5 -10   77.50    3.00   1
  -1  -5  10   72.90    4.10   1
   1   5  -9  569.80   12.50   1
  -1  -5   9  580.10   17.40   1
   1   5  -8   33.10    1.00   1
  -1  -5   8   33.90    2.30   1
   1   5  -7   11.20    1.80   1
  -1  -5   7   10.40    1.40   1
   1   5  -6   35.70    2.10   1
  -1  -5   6   34.30    1.70   1
   1   5  -5   45.30    3.00   1
  -1  -5   5   34.90    1.70   1
   1   5  -4  177.10    7.10   1
  -1  -5   4  177.00    5.00   1
   1   5  -3  552.20   19.30   1
  -1  -5   3  547.50   10.90   1
   1   5  -2  817.20   27.50   1
  -1  -5   2  814.20   16.20   1
  -1  -5   1   97.90    2.60   1
  -1  -5   0  658.30   11.70   1
  -1  -5  -1  784.90   13.90   1
  -1  -5  -2   54.40    2.40   1
  -1  -5  -3    8.50    1.30   1
  -1  -5  -4   69.60    3.30   1
   1   5   5   39.70    3.50   1
  -1  -5  -5   41.50    1.80   1
   1   5   6   84.70    6.20   1
  -1  -5  -6   88.40    2.30   1
   1   5   7  196.10   11.80   1
  -1  -5  -7  207.10    8.20   1
   1   5   8   34.60    5.00   1
  -1  -5  -8   39.00    3.50   1
  -1  -5  -9   58.00    7.20   1
   1   6 -13   78.60    3.60   1
  -1  -6  13   81.40    5.70   1
   1   6 -12  141.90    4.90   1
  -1  -6  12  139.20    7.30   1
   1   6 -11   45.00    1.70   1
  -1  -6  11   41.00    3.50   1
   1   6 -10  108.70    2.70   1
  -1  -6  10  102.30    4.70   1
   1   6  -9  254.80    8.60   1
  -1  -6   9  251.20    6.90   1
   1   6  -8   60.70    3.10   1
  -1  -6   8   55.10    2.50   1
   1   6  -7   11.10    1.90   1
  -1  -6   7   11.40    1.40   1
   1   6  -6  101.50    5.30   1
  -1  -6   6   86.70    2.80   1
   1   6  -5   31.30    2.60   1
  -1  -6   5   31.10    1.50   1
   1   6  -4   92.40    4.70   1
  -1  -6   4   96.80    2.40   1
   1   6  -3  554.10   19.40   1
  -1  -6   3  587.30   12.20   1
   1   6  -2   72.40    4.40   1
  -1  -6   2   86.60    2.40   1
  -1  -6   1  580.60   11.80   1
  -1  -6   0  736.00   12.90   1
  -1  -6  -1  431.10    8.00   1
  -1  -6  -2  437.70    8.30   1
  -1  -6  -3    1.40    1.00   1
  -1  -6  -4    1.40    0.80   1
  -1  -6  -5    0.60    0.40   1
  -1  -6  -6    2.10    1.70   1
  -1  -6  -7   75.10    5.00   1
  -1  -6  -8   33.70    5.10   1
  -1  -7  13   19.40    3.50   1
   1   7 -12   31.20    4.40   1
  -1  -7  12   25.40    3.20   1
   1   7 -11  196.40   12.20   1
  -1  -7  11  173.60    7.90   1
   1   7 -10  124.50    8.10   1
  -1  -7  10  111.10    5.60   1
   1   7  -9    2.60    1.90   1
  -1  -7   9    3.40    1.40   1
   1   7  -8   17.00    2.40   1
  -1  -7   8   15.90    1.80   1
   1   7  -7   73.00    4.80   1
  -1  -7   7   68.60    2.80   1
   1   7  -6   24.70    3.10   1
  -1  -7   6   23.40    1.70   1
   1   7  -5  146.20    6.90   1
  -1  -7   5  155.80    5.20   1
   1   7  -4  439.10   15.90   1
  -1  -7   4  440.10    9.10   1
   1   7  -3   48.30    4.00   1
  -1  -7   3   46.80    1.70   1
  -1  -7   2  287.50    6.60   1
  -1  -7   1  539.50   11.80   1
  -1  -7   0  131.40    3.10   1
  -1  -7  -1  583.80   11.40   1
  -1  -7  -2   60.60    2.00   1
  -1  -7  -3    5.20    0.90   1
  -1  -7  -4  109.50    3.30   1
  -1  -7  -5   60.30    1.70   1
  -1  -7  -6   38.70    3.70   1
  -1  -7  -7   88.30    8.60   1
   1   8 -12   38.40    5.80   1
  -1  -8  12   46.40    4.60   1
   1   8 -11   67.90    7.10   1
  -1  -8  11   52.80    4.20   1
   1   8 -10   36.00    3.90   1
  -1  -8  10   34.30    2.70   1
   1   8  -9  134.50    7.90   1
  -1  -8   9  123.40    4.60   1
   1   8  -8   60.40    4.80   1
  -1  -8   8   59.50    2.90   1
   1   8  -7  135.50    7.50   1
  -1  -8   7  128.50    4.20   1
   1   8  -6  326.30   14.20   1
  -1  -8   6  331.10    7.80   1
   1   8  -5    6.50    2.50   1
  -1  -8   5    7.70    0.90   1
   1   8  -4  262.70   10.90   1
  -1  -8   4  241.30    5.70   1
   1   8  -3    5.30    2.60   1
  -1  -8   3    3.50    1.10   1
  -1  -8   2  102.70    3.30   1
  -1  -8   1  107.20    2.90   1
  -1  -8   0  236.50    5.40   1
  -1  -8  -1  102.50    3.00   1
  -1  -8  -2   64.00    2.30   1
  -1  -8  -3   69.50    2.50   1
  -1  -8  -4   57.70    2.20   1
  -1  -8  -5   46.30    2.90   1
  -1  -8  -6   10.10    2.90   1
  -1  -9  12    5.40    2.80   1
   1   9 -11    5.00    3.70   1
  -1  -9  11    8.00    2.70   1
   1   9 -10   93.30    6.70   1
  -1  -9  10   96.60    5.30   1
   1   9  -9   10.60    2.60   1
  -1  -9   9    8.80    1.70   1
   1   9  -8   64.40    5.50   1
  -1  -9   8   59.50    3.00   1
   1   9  -7  112.80    7.30   1
  -1  -9   7  105.40    4.10   1
   1   9  -6    5.70    2.60   1
  -1  -9   6    6.50    1.30   1
   1   9  -5  157.10    8.10   1
  -1  -9   5  154.80    4.20   1
   1   9  -4  226.80   10.90   1
  -1  -9   4  222.90    5.80   1
  -1  -9   3   68.20    2.50   1
  -1  -9   2  101.20    3.30   1
  -1  -9   1   40.50    1.70   1
  -1  -9   0    2.30    0.90   1
  -1  -9  -1    1.80    1.00   1
  -1  -9  -2   19.00    1.50   1
  -1  -9  -3   20.00    1.60   1
  -1  -9  -4   21.50    2.30   1
  -1  -9  -5   -0.90    2.20   1
   1  10 -11    5.70    4.20   1
  -1 -10  11    8.30    3.10   1
   1  10 -10   18.80    4.30   1
  -1 -10  10   21.00    2.50   1
   1  10  -9   83.00    7.10   1
  -1 -10   9   83.40    4.00   1
   1  10  -8   54.70    5.10   1
  -1 -10   8   54.10    3.20   1
   1  10  -7   13.90    2.80   1
  -1 -10   7   12.80    2.10   1
   1  10  -6  122.40    7.40   1
  -1 -10   6  120.50    5.60   1
   1  10  -5  138.70    8.60   1
  -1 -10   5  140.60    4.30   1
  -1 -10   4  130.00    4.40   1
  -1 -10   3  214.90    6.60   1
  -1 -10   2   31.80    1.70   1
  -1 -10   1    3.40    1.10   1
  -1 -10   0   29.70    1.70   1
  -1 -10  -1   12.30    1.30   1
  -1 -10  -2    6.30    1.30   1
  -1 -10  -3   17.40    2.00   1
   1  11 -10    4.50    3.70   1
  -1 -11  10    0.50    2.80   1
   1  11  -9    7.90    4.00   1
  -1 -11   9    6.30    2.10   1
   1  11  -8   13.80    3.70   1
  -1 -11   8   14.70    2.20   1
   1  11  -7    7.20    3.70   1
  -1 -11   7    8.10    2.20   1
   1  11  -6   31.20    3.80   1
  -1 -11   6   37.60    3.30   1
   1  11  -5   69.20    5.90   1
  -1 -11   5   64.10    2.90   1
  -1 -11   4   79.10    3.60   1
  -1 -11   3  112.10    4.40   1
  -1 -11   2   42.40    2.20   1
  -1 -11   1    1.30    1.20   1
  -1 -11   0   23.80    2.00   1
  -1 -11  -1   38.30    2.30   1
   1  12  -7    8.80    4.10   1
  -1 -12   7    6.40    2.40   1
   1  12  -6   11.60    3.10   1
  -1 -12   6   15.20    3.40   1
  -1 -12   5   54.50    4.10   1
  -1 -12   4   22.80    2.70   1
  -1 -12   3   35.60    2.30   1
  -1 -12   2    8.20    1.70   1
   2 -12   1   25.70    2.70   1
   2 -12   2   47.30    3.70   1
   2 -12   3   45.00    2.70   1
   2 -12   4   19.90    2.00   1
   2 -12   5    7.90    1.50   1
  -2  12  -5    6.30    3.00   1
   2 -12   6    7.20    1.80   1
  -2  12  -6    7.80    3.30   1
   2 -12   7   17.60    4.60   1
   2 -11  -2    0.20    1.70   1
   2 -11  -1   10.60    1.40   1
   2 -11   0   29.90    1.90   1
   2 -11   1   55.30    2.90   1
   2 -11   2  165.80    6.00   1
   2 -11   3   71.10    3.20   1
  -2  11  -3   74.80    6.20   1
   2 -11   4    3.00    1.30   1
  -2  11  -4    3.30    1.70   1
   2 -11   5   24.20    1.80   1
  -2  11  -5   24.40    2.40   1
   2 -11   6   10.10    1.80   1
  -2  11  -6    9.30    1.40   1
   2 -11   7    5.90    2.90   1
  -2  11  -7    3.10    1.10   1
  -2  11  -8   38.00    2.60   1
   2 -11   9    8.00    4.60   1
  -2  11  -9    9.70    3.20   1
   2 -10  -4    5.90    2.30   1
   2 -10  -3    2.80    1.40   1
   2 -10  -2    2.60    1.30   1
   2 -10  -1   15.60    1.40   1
   2 -10   0    6.60    1.30   1
   2 -10   1   -0.80    1.00   1
   2 -10   2    2.70    1.20   1
  -2  10  -2    1.60    1.40   1
   2 -10   3   17.50    1.50   1
  -2  10  -3   17.10    2.10   1
   2 -10   4  109.50    3.80   1
  -2  10  -4  121.10    5.30   1
   2 -10   5  137.90    4.40   1
  -2  10  -5  139.40    4.60   1
   2 -10   6    8.60    4.00   1
  -2  10  -6    9.10    1.30   1
   2 -10   7   17.70    2.80   1
  -2  10  -7   19.10    1.60   1
   2 -10   8   64.20    4.60   1
  -2  10  -8   64.50    3.30   1
   2 -10   9    8.40    2.80   1
  -2  10  -9   11.60    1.60   1
   2 -10  10   46.40    6.20   1
  -2  10 -10   36.90    4.00   1
   2  -9  -6   23.30    4.20   1
   2  -9  -5   22.00    2.50   1
   2  -9  -4    4.20    1.40   1
   2  -9  -3    5.80    1.40   1
   2  -9  -2   92.30    2.90   1
   2  -9  -1   73.80    2.50   1
   2  -9   0   27.70    1.60   1
  -2   9   0   25.00    3.00   1
   2  -9   1   59.00    2.30   1
  -2   9  -1   59.50    3.20   1
   2  -9   2   22.80    1.40   1
  -2   9  -2   23.70    2.00   1
   2  -9   3    5.10    1.00   1
  -2   9  -3    4.10    1.50   1
   2  -9   4   36.20    1.90   1
  -2   9  -4   43.70    1.90   1
   2  -9   5   94.20    3.10   1
  -2   9  -5   94.90    3.40   1
   2  -9   6    2.90    3.40   1
  -2   9  -6    0.30    1.00   1
   2  -9   7    7.80    2.10   1
  -2   9  -7    4.10    1.00   1
   2  -9   8   80.30    5.10   1
  -2   9  -8   91.40    3.40   1
   2  -9   9  103.00    5.80   1
  -2   9  -9  105.90    4.10   1
   2  -9  10   77.20    5.60   1
  -2   9 -10   69.40    3.80   1
   2  -9  11   32.40    5.50   1
  -2   9 -11   31.20    2.70   1
   2  -8  -7   23.40    4.50   1
   2  -8  -6   27.30    3.30   1
   2  -8  -5    1.40    2.10   1
   2  -8  -4    3.00    1.30   1
   2  -8  -3  121.60    4.10   1
   2  -8  -2   89.50    3.10   1
   2  -8  -1   99.50    3.10   1
  -2   8   1  101.00    6.10   1
   2  -8   0  155.50    4.20   1
  -2   8   0  164.10    6.30   1
   2  -8   1    5.90    1.10   1
  -2   8  -1    3.40    1.20   1
   2  -8   2  150.80    3.90   1
  -2   8  -2  146.20    5.50   1
   2  -8   3  462.40   10.10   1
  -2   8  -3  462.60   10.60   1
   2  -8   4   32.30    1.60   1
  -2   8  -4   31.80    1.60   1
   2  -8   5  156.30    4.40   1
  -2   8  -5  164.50    4.60   1
   2  -8   6   10.10    2.10   1
  -2   8  -6    7.50    1.10   1
   2  -8   7   50.20    3.40   1
  -2   8  -7   43.40    2.10   1
   2  -8   8   95.90    4.90   1
  -2   8  -8   96.50    3.40   1
   2  -8   9  172.50    7.70   1
  -2   8  -9  177.80    5.90   1
   2  -8  10  164.10    8.60   1
  -2   8 -10  170.30    6.00   1
   2  -8  11  192.70   13.90   1
  -2   8 -11  206.40    8.90   1
   2  -7  -8   14.40    3.90   1
   2  -7  -7    6.10    3.00   1
   2  -7  -6   70.20    4.40   1
   2  -7  -5    1.50    1.80   1
   2  -7  -4  108.00    4.70   1
   2  -7  -3  127.70    4.10   1
   2  -7  -2  337.10    8.20   1
  -2   7   2  356.70   15.80   1
   2  -7  -1  354.30    7.80   1
  -2   7   1  348.00   10.20   1
   2  -7   0    9.70    1.00   1
  -2   7   0    8.30    1.30   1
   2  -7   1   68.30    2.30   1
  -2   7  -1   64.40    2.90   1
   2  -7   2  233.30    5.40   1
  -2   7  -2  238.90    7.40   1
   2  -7   3   20.00    1.40   1
  -2   7  -3   20.60    1.20   1
   2  -7   4   61.60    2.20   1
  -2   7  -4   62.30    2.20   1
   2  -7   5   45.80    3.90   1
  -2   7  -5   44.20    1.90   1
   2  -7   6    1.10    2.00   1
  -2   7  -6    0.60    0.80   1
   2  -7   7   15.60    2.40   1
  -2   7  -7   19.20    1.50   1
   2  -7   8  196.10    7.50   1
  -2   7  -8  189.90    5.50   1
   2  -7   9  172.10    7.30   1
  -2   7  -9  160.40    5.20   1
   2  -7  10  142.60    6.90   1
  -2   7 -10  142.20    5.20   1
   2  -7  11  170.80    9.00   1
  -2   7 -11  166.10    6.30   1
   2  -7  12   29.90    6.50   1
  -2   7 -12   33.90    3.20   1
   2  -6  -9   23.30    4.30   1
   2  -6  -8   31.70    3.20   1
   2  -6  -7   17.60    2.80   1
   2  -6  -6   19.20    2.40   1
   2  -6  -5    2.60    1.50   1
   2  -6  -4   44.70    2.60   1
   2  -6  -3   84.70    3.50   1
  -2   6   3   91.50    5.20   1
   2  -6  -2  130.10    3.00   1
  -2   6   2  134.40    4.70   1
   2  -6  -1   58.30    1.90   1
  -2   6   1   62.00    2.50   1
   2  -6   0   44.30    1.60   1
  -2   6   0   47.20    2.30   1
   2  -6   1  326.30    7.40   1
  -2   6  -1  324.40    8.90   1
   2  -6   2   80.90    2.40   1
  -2   6  -2   81.10    2.50   1
   2  -6   3   27.60    1.40   1
  -2   6  -3   26.70    1.40   1
   2  -6   4  178.40    5.20   1
  -2   6  -4  168.20    4.50   1
   2  -6   5  176.00    5.70   1
  -2   6  -5  162.40    4.40   1
   2  -6   6   11.70    2.60   1
  -2   6  -6   13.60    1.20   1
   2  -6   7   17.60    2.10   1
  -2   6  -7   13.20    1.40   1
   2  -6   8   93.70    4.40   1
  -2   6  -8   86.60    3.00   1
   2  -6   9   25.20    2.60   1
  -2   6  -9   28.30    1.90   1
   2  -6  10   97.10    5.20   1
  -2   6 -10   99.70    3.90   1
   2  -6  11   69.20    4.90   1
  -2   6 -11   67.30    3.50   1
   2  -6  12   -1.80    2.90   1
  -2   6 -12    4.60    2.00   1
   2  -5 -10   29.20    3.40   1
   2  -5  -9   30.90    3.40   1
   2  -5  -8   31.40    3.20   1
   2  -5  -7   50.80    3.40   1
   2  -5  -6    0.30    1.60   1
   2  -5  -5   73.60    3.50   1
   2  -5  -4   63.40    3.00   1
   2  -5  -3   50.10    2.80   1
  -2   5   3   44.90    3.20   1
   2  -5  -2 1801.60   42.20   1
  -2   5   2 1691.50   40.60   1
   2  -5  -1  150.50    3.80   1
  -2   5   1  147.30    4.50   1
   2  -5   0    8.10    0.80   1
  -2   5   0    7.90    1.00   1
   2  -5   1  618.10   12.30   1
  -2   5  -1  603.80   15.30   1
   2  -5   2  495.80   10.00   1
  -2   5  -2  485.40   10.30   1
   2  -5   3  816.90   20.50   1
  -2   5  -3  814.10   16.60   1
   2  -5   4  521.80   19.10   1
  -2   5  -4  505.20   10.90   1
   2  -5   5    3.60    1.60   1
  -2   5  -5    7.10    0.90   1
   2  -5   6   23.30    2.30   1
  -2   5  -6   26.50    1.60   1
   2  -5   7   24.10    2.50   1
  -2   5  -7   24.90    1.60   1
   2  -5   8    0.90    1.90   1
  -2   5  -8    1.20    1.30   1
   2  -5   9  179.00    8.40   1
  -2   5  -9  188.80    5.70   1
   2  -5  10   62.60    3.90   1
  -2   5 -10   62.60    3.00   1
   2  -5  11    1.60    2.20   1
  -2   5 -11    5.90    2.60   1
   2  -5  12   67.80    7.00   1
  -2   5 -12   53.40    4.10   1
   2  -4 -11   16.80    5.60   1
   2  -4 -10   32.40    2.80   1
   2  -4  -9   10.60    1.80   1
   2  -4  -8   89.60    4.60   1
   2  -4  -7   11.20    1.90   1
   2  -4  -6    6.00    1.50   1
   2  -4  -5  192.40    6.60   1
   2  -4  -4   24.70    2.50   1
   2  -4  -3  222.40    6.70   1
  -2   4   3  217.50    5.80   1
   2  -4  -2 1109.00   26.50   1
  -2   4   2 1091.80   25.90   1
   2  -4  -1  315.10    8.70   1
  -2   4   1  304.40    8.20   1
   2  -4   0    8.10    0.50   1
  -2   4   0    9.70    1.10   1
   2  -4   1  108.30    2.70   1
  -2   4  -1  111.70    2.70   1
   2  -4   2   15.40    1.50   1
  -2   4  -2   13.00    0.70   1
   2  -4   3   69.60    2.50   1
  -2   4  -3   73.90    2.10   1
   2  -4   4  677.00   17.50   1
  -2   4  -4  665.00   13.90   1
   2  -4   5  201.20    6.70   1
  -2   4  -5  199.30    5.00   1
   2  -4   6  571.20   14.80   1
  -2   4  -6  578.40   12.70   1
   2  -4   7 1098.90   28.60   1
  -2   4  -7 1056.90   27.10   1
   2  -4   8  531.10   16.40   1
  -2   4  -8  524.40   15.10   1
   2  -4   9   36.60    2.70   1
  -2   4  -9   34.60    2.70   1
   2  -4  10   -1.80    2.40   1
  -2   4 -10    1.10    1.50   1
   2  -4  11   26.50    2.90   1
  -2   4 -11   30.20    3.10   1
  -2   4 -12    0.50    2.50   1
   2  -3 -11   11.30    2.30   1
   2  -3 -10    0.30    1.60   1
  -2   3  10    1.70    3.90   1
   2  -3  -9    9.50    1.60   1
  -2   3   9   10.20    2.80   1
   2  -3  -8   63.20    2.70   1
  -2   3   8   54.10    4.90   1
   2  -3  -7   86.90    3.80   1
  -2   3   7   95.70    5.60   1
   2  -3  -6   89.10    3.90   1
  -2   3   6   85.90    5.50   1
   2  -3  -5   49.60    2.40   1
   2  -3  -4  622.90   16.80   1
  -2   3   4  614.80   22.80   1
   2  -3  -3    4.30    1.10   1
  -2   3   3    2.10    0.60   1
   2  -3  -2  459.90   12.00   1
  -2   3   2  479.00   12.00   1
   2  -3  -1 1447.20   47.30   1
  -2   3   1 1429.50   33.80   1
   2  -3   0  311.90    8.00   1
  -2   3   0  313.20    8.00   1
   2  -3   1  215.60    6.00   1
  -2   3  -1  216.00    6.10   1
   2  -3   2   13.20    1.20   1
  -2   3  -2   14.40    1.40   1
   2  -3   3  272.30    7.60   1
  -2   3  -3  271.40    7.50   1
   2  -3   4  631.90   15.30   1
  -2   3  -4  641.20   13.40   1
   2  -3   5  638.80   16.50   1
  -2   3  -5  629.10   16.90   1
   2  -3   6  311.20    8.30   1
  -2   3  -6  309.60    9.20   1
   2  -3   7  491.70   14.40   1
  -2   3  -7  504.70   11.40   1
   2  -3   8  402.80   12.80   1
  -2   3  -8  421.60   10.00   1
   2  -3   9   79.60    4.00   1
  -2   3  -9   82.70    3.30   1
   2  -3  10   30.20    2.80   1
  -2   3 -10   29.80    2.40   1
   2  -3  11   27.90    4.50   1
  -2   3 -11   32.50    2.60   1
  -2   3 -12   63.50    4.60   1
   2  -2 -12   14.50    2.80   1
   2  -2 -11   25.40    2.70   1
  -2   2  11   27.00    4.60   1
   2  -2 -10   25.30    2.20   1
  -2   2  10   27.60    4.10   1
   2  -2  -9   45.30    2.60   1
  -2   2   9   51.80    4.90   1
   2  -2  -8    6.80    1.40   1
  -2   2   8    1.70    2.90   1
   2  -2  -7  247.00    6.50   1
  -2   2   7  246.30   10.50   1
   2  -2  -6  404.80    9.60   1
  -2   2   6  406.10   10.70   1
   2  -2  -5 1012.60   20.80   1
  -2   2   5 1012.60   19.60   1
   2  -2  -4  285.80    7.70   1
  -2   2   4  289.60    7.60   1
   2  -2  -3    4.40    0.80   1
  -2   2   3    4.20    1.10   1
   2  -2  -2 2088.70   40.20   1
  -2   2   2 2056.10   73.60   1
   2  -2  -1   24.40    1.20   1
  -2   2   1   27.90    1.30   1
   2  -2   0   99.60    4.80   1
  -2   2   0   99.90    3.30   1
   2  -2   1  366.80   13.40   1
  -2   2  -1  375.80   10.40   1
   2  -2   2  736.70   25.40   1
  -2   2  -2  747.30   18.30   1
   2  -2   3  104.20    3.40   1
  -2   2  -3  100.10    4.80   1
   2  -2   4  329.20    8.60   1
  -2   2  -4  323.20   13.50   1
   2  -2   5  725.00   17.60   1
  -2   2  -5  723.50   18.60   1
   2  -2   6  430.90   11.00   1
  -2   2  -6  432.50   12.00   1
   2  -2   7  186.30    6.20   1
  -2   2  -7  189.40    6.50   1
   2  -2   8   -1.50    2.20   1
  -2   2  -8    5.20    1.70   1
   2  -2   9  126.70    8.30   1
  -2   2  -9  124.10    5.00   1
   2  -2  10   40.40    5.00   1
  -2   2 -10   38.40    2.40   1
   2  -2  11   20.30    4.10   1
  -2   2 -11   21.20    2.30   1
  -2   2 -12  102.30    6.20   1
   2  -1 -12   40.20    3.20   1
   2  -1 -11   -1.10    1.40   1
  -2   1  11   -3.50    2.50   1
   2  -1 -10    5.90    1.70   1
  -2   1  10    8.80    1.30   1
   2  -1  -9    1.80    1.10   1
  -2   1   9    1.50    0.90   1
   2  -1  -8  118.20    3.60   1
  -2   1   8  118.70    3.80   1
   2  -1  -7  189.20    4.90   1
  -2   1   7  186.70    6.30   1
   2  -1  -6    4.60    1.10   1
  -2   1   6    3.70    0.90   1
   2  -1  -5  290.10    6.80   1
  -2   1   5  293.40    6.70   1
   2  -1  -4  108.50    2.80   1
  -2   1   4  110.20    3.60   1
   2  -1  -3  118.80    3.00   1
  -2   1   3  115.50    3.30   1
   2  -1  -2 4297.00   78.30   1
  -2   1   2 4254.20   96.20   1
   2  -1   0 1278.40   41.40   1
  -2   1   0 1264.30   29.50   1
  -2   1  -1    1.70    1.50   1
   2  -1   2    6.80    1.70   1
  -2   1  -2    7.90    1.30   1
   2  -1   3  796.20   27.00   1
  -2   1  -3  808.10   20.20   1
   2  -1   4  706.90   24.40   1
  -2   1  -4  696.50   17.40   1
   2  -1   5  400.60   14.40   1
  -2   1  -5  409.90   10.90   1
   2  -1   6  211.00   11.70   1
  -2   1  -6  199.60    6.40   1
   2  -1   7  159.60    8.90   1
  -2   1  -7  168.40    5.60   1
   2  -1   8   25.50    4.00   1
  -2   1  -8   20.60    1.90   1
   2  -1   9  259.20   13.90   1
  -2   1  -9  248.60    8.50   1
   2  -1  10   73.30    6.30   1
  -2   1 -10   60.10    3.60   1
   2  -1  11   53.40    7.10   1
  -2   1 -11   50.40    3.40   1
  -2   1 -12    8.20    2.50   1
   2   0 -13   24.40    3.40   1
   2   0 -12   20.10    2.60   1
  -2   0  12   14.50    2.10   1
   2   0 -11   -0.40    1.30   1
  -2   0  11    2.50    1.50   1
   2   0 -10  261.90    7.20   1
  -2   0  10  252.00    8.50   1
   2   0  -9   77.50    3.00   1
  -2   0   9   86.60    3.40   1
   2   0  -8  648.60   13.90   1
  -2   0   8  657.50   18.10   1
   2   0  -7    8.80    1.20   1
  -2   0   7    6.20    1.30   1
   2   0  -6  633.60   13.20   1
  -2   0   6  647.50   16.80   1
   2   0  -5   39.10    1.50   1
  -2   0   5   38.20    1.50   1
   2   0  -4   54.90    2.00   1
  -2   0   4   52.70    1.50   1
   2   0  -3 2711.00   51.00   1
  -2   0   3 2695.20   49.50   1
   2   0  -2  543.90   11.00   1
  -2   0   2  543.80   13.90   1
   2   0  -1  653.00   15.50   1
  -2   0   1  667.30   15.80   1
  -2   0   0  606.40   20.10   1
   2   0   1  578.50   20.20   1
  -2   0  -1  564.50   19.30   1
   2   0   2  304.00   11.20   1
  -2   0  -2  310.10   11.90   1
   2   0   3 3878.90  132.80   1
  -2   0  -3 3784.50   86.60   1
   2   0   4 1228.90   40.40   1
  -2   0  -4 1191.20   29.90   1
   2   0   5   61.60    3.70   1
  -2   0  -5   62.50    2.70   1
   2   0   6  723.70   26.40   1
  -2   0  -6  720.20   18.60   1
   2   0   7    5.20    3.20   1
  -2   0  -7    3.00    1.50   1
   2   0   8  158.40    8.80   1
  -2   0  -8  154.10    5.60   1
   2   0   9  267.70   17.40   1
  -2   0  -9  267.70    9.70   1
   2   0  10    0.50    2.80   1
  -2   0 -10    1.80    1.40   1
   2   0  11   12.80    4.10   1
  -2   0 -11   18.40    2.50   1
   2   1 -13    9.70    2.80   1
  -2  -1  13   14.70    3.20   1
   2   1 -12   72.40    3.60   1
  -2  -1  12   72.10    4.20   1
   2   1 -11   48.60    2.60   1
  -2  -1  11   46.80    3.10   1
   2   1 -10    0.50    1.40   1
  -2  -1  10    1.60    1.10   1
   2   1  -9  410.20    9.80   1
  -2  -1   9  412.20   12.70   1
   2   1  -8  114.60    3.50   1
  -2  -1   8  130.10    4.40   1
   2   1  -7  249.20    6.00   1
  -2  -1   7  263.40    7.40   1
   2   1  -6  194.10    4.80   1
  -2  -1   6  195.40    5.50   1
   2   1  -5  151.70    3.70   1
  -2  -1   5  146.30    3.10   1
   2   1  -4  150.70    3.50   1
  -2  -1   4  150.70    3.40   1
   2   1  -3  584.10   11.90   1
  -2  -1   3  586.80   11.50   1
   2   1  -2   11.60    0.60   1
  -2  -1   2   12.40    0.70   1
   2   1  -1    0.80    1.00   1
  -2  -1   1    3.80    1.10   1
   2   1   0  345.50   11.70   1
  -2  -1   0  346.10    8.30   1
   2   1   1  115.20    5.00   1
  -2  -1  -1  119.10    5.10   1
   2   1   2 2126.00   68.60   1
  -2  -1  -2 2244.00   74.50   1
   2   1   3  744.10   25.30   1
  -2  -1  -3  701.60   25.40   1
   2   1   4    6.60    1.50   1
  -2  -1  -4    9.80    1.20   1
   2   1   5 1012.80   33.40   1
  -2  -1  -5 1032.30   25.20   1
   2   1   6   21.20    3.30   1
  -2  -1  -6   11.80    1.60   1
   2   1   7   19.90    3.70   1
  -2  -1  -7   19.50    1.70   1
   2   1   8   46.40    5.00   1
  -2  -1  -8   43.70    2.50   1
   2   1   9   18.00    4.20   1
  -2  -1  -9   16.80    1.70   1
   2   1  10   36.10    4.50   1
  -2  -1 -10   31.70    2.70   1
  -2  -1 -11    5.70    2.20   1
   2   2 -13    8.60    2.40   1
  -2  -2  13    5.60    2.50   1
   2   2 -12   32.40    2.20   1
  -2  -2  12   32.20    3.10   1
   2   2 -11    4.30    1.40   1
  -2  -2  11    3.40    2.10   1
   2   2 -10   53.80    2.40   1
  -2  -2  10   50.00    2.90   1
   2   2  -9  382.00    8.90   1
  -2  -2   9  385.40   11.30   1
   2   2  -8  751.60   16.20   1
  -2  -2   8  800.20   21.40   1
   2   2  -7  298.90    6.90   1
  -2  -2   7  295.90    8.00   1
   2   2  -6  584.60   12.40   1
  -2  -2   6  600.90   12.60   1
   2   2  -5  620.80   13.00   1
  -2  -2   5  645.10   13.00   1
   2   2  -4   95.90    2.40   1
  -2  -2   4   98.20    2.20   1
   2   2  -3  610.60   12.40   1
  -2  -2   3  607.50   11.90   1
   2   2  -2  350.40   12.70   1
  -2  -2   2  343.50    7.10   1
   2   2  -1   46.00    2.40   1
  -2  -2   1   44.50    1.40   1
   2   2   0  104.20    4.10   1
  -2  -2   0  104.40    3.30   1
   2   2   1  220.20    8.50   1
  -2  -2  -1  219.40    8.70   1
   2   2   2 1473.50   50.60   1
  -2  -2  -2 1444.00   48.30   1
   2   2   3  203.80    7.70   1
  -2  -2  -3  199.10    8.10   1
   2   2   4  602.90   20.90   1
  -2  -2  -4  626.30   16.20   1
   2   2   5  112.70    5.60   1
  -2  -2  -5  110.70    3.70   1
   2   2   6   63.60    5.20   1
  -2  -2  -6   58.10    2.80   1
   2   2   7  160.40    8.40   1
  -2  -2  -7  179.80    6.10   1
   2   2   8   54.70    4.90   1
  -2  -2  -8   53.40    2.80   1
   2   2   9   67.60    6.00   1
  -2  -2  -9   60.20    3.30   1
   2   2  10    1.90    3.60   1
  -2  -2 -10    3.10    1.80   1
   2   3 -13   -0.40    1.60   1
  -2  -3  13   -1.40    2.50   1
   2   3 -12   23.90    1.90   1
  -2  -3  12   21.90    2.30   1
   2   3 -11  127.80    4.50   1
  -2  -3  11  121.80    5.40   1
   2   3 -10  109.20    3.60   1
  -2  -3  10  115.90    5.00   1
   2   3  -9    9.80    1.20   1
  -2  -3   9    9.50    1.60   1
   2   3  -8  450.60   10.40   1
  -2  -3   8  457.40   13.00   1
   2   3  -7   27.00    1.20   1
  -2  -3   7   25.70    1.80   1
   2   3  -6 1821.20   35.10   1
  -2  -3   6 1867.30   36.30   1
   2   3  -5 1325.90   25.90   1
  -2  -3   5 1356.30   26.40   1
   2   3  -4  468.00   17.40   1
  -2  -3   4  481.80    8.40   1
   2   3  -3  383.40   14.50   1
  -2  -3   3  393.00    7.90   1
   2   3  -2   66.70    3.60   1
  -2  -3   2   64.70    3.30   1
   2   3  -1   53.10    3.30   1
  -2  -3   1   47.30    1.70   1
  -2  -3   0    3.60    0.70   1
   2   3   1  319.70   12.30   1
  -2  -3  -1  310.00    8.50   1
   2   3   2  825.20   28.50   1
  -2  -3  -2  854.80   29.90   1
   2   3   3  919.10   35.10   1
  -2  -3  -3  905.30   31.20   1
   2   3   4  504.90   18.80   1
  -2  -3  -4  522.20   18.60   1
   2   3   5  119.60    7.50   1
  -2  -3  -5  107.70    3.90   1
   2   3   6   52.50    4.70   1
  -2  -3  -6   59.00    2.70   1
   2   3   7   74.80    5.50   1
  -2  -3  -7   77.30    3.40   1
   2   3   8  193.50   12.10   1
  -2  -3  -8  206.60    7.80   1
   2   3   9   23.30    4.20   1
  -2  -3  -9   26.30    2.30   1
  -2  -3 -10   14.60    3.80   1
   2   4 -13    3.10    1.70   1
  -2  -4  13   -0.50    2.40   1
   2   4 -12   10.90    1.60   1
  -2  -4  12   13.20    2.20   1
   2   4 -11   22.60    1.60   1
  -2  -4  11   23.30    2.50   1
   2   4 -10    2.20    0.90   1
  -2  -4  10    0.50    1.60   1
   2   4  -9   96.80    3.10   1
  -2  -4   9   97.80    4.20   1
   2   4  -8  103.10    3.00   1
  -2  -4   8   99.90    3.40   1
   2   4  -7  514.20   10.80   1
  -2  -4   7  500.60   10.70   1
   2   4  -6  753.60   26.60   1
  -2  -4   6  743.90   15.20   1
   2   4  -5  381.60   14.70   1
  -2  -4   5  374.00    8.20   1
   2   4  -4  124.60    5.40   1
  -2  -4   4  126.40    2.50   1
   2   4  -3   72.80    3.50   1
  -2  -4   3   70.60    2.70   1
   2   4  -2  224.00    8.00   1
  -2  -4   2  227.30    8.90   1
   2   4  -1  157.70    7.10   1
  -2  -4   1  155.90    4.60   1
  -2  -4   0   19.30    1.30   1
  -2  -4  -1   71.60    2.80   1
   2   4   2  290.40   13.10   1
  -2  -4  -2  313.40   12.20   1
   2   4   3  488.50   19.50   1
  -2  -4  -3  484.00   17.10   1
   2   4   4  178.70    7.90   1
  -2  -4  -4  192.30    9.20   1
   2   4   5  273.70   14.50   1
  -2  -4  -5  278.40    8.60   1
   2   4   6   14.00    3.30   1
  -2  -4  -6   19.90    1.60   1
   2   4   7   46.40    5.20   1
  -2  -4  -7   47.70    2.60   1
   2   4   8  126.60   10.40   1
  -2  -4  -8  128.50    4.90   1
   2   4   9   50.60    5.90   1
  -2  -4  -9   45.40    5.40   1
   2   5 -13   31.00    2.40   1
  -2  -5  13   27.80    3.10   1
   2   5 -12   44.80    2.30   1
  -2  -5  12   42.20    3.60   1
   2   5 -11   31.90    1.70   1
  -2  -5  11   28.60    2.70   1
   2   5 -10  197.50    6.40   1
  -2  -5  10  190.30    7.50   1
   2   5  -9  112.40    3.50   1
  -2  -5   9  106.50    3.70   1
   2   5  -8    6.20    2.20   1
  -2  -5   8    6.10    1.30   1
   2   5  -7   83.60    5.00   1
  -2  -5   7   73.50    2.60   1
   2   5  -6  325.80   13.70   1
  -2  -5   6  339.50    8.10   1
   2   5  -5  265.20   11.50   1
  -2  -5   5  248.30    6.00   1
   2   5  -4  327.00   11.90   1
  -2  -5   4  317.40    5.00   1
   2   5  -3  310.40   11.00   1
  -2  -5   3  312.70    8.60   1
   2   5  -2   85.00    4.30   1
  -2  -5   2   81.60    3.10   1
  -2  -5   1 1085.80   26.50   1
  -2  -5   0  578.00   14.90   1
  -2  -5  -1    1.60    1.10   1
  -2  -5  -2 1304.30   31.80   1
  -2  -5  -3    2.00    2.20   1
   2   5   4  106.20    5.60   1
  -2  -5  -4  104.40    6.30   1
   2   5   5   90.00    6.00   1
  -2  -5  -5   89.10    3.90   1
   2   5   6    9.20    3.30   1
  -2  -5  -6    5.10    1.70   1
   2   5   7    3.10    3.90   1
  -2  -5  -7    5.00    1.20   1
   2   5   8  109.10   10.40   1
  -2  -5  -8  117.40    9.60   1
  -2  -6  13  101.80    6.40   1
   2   6 -12   66.80    2.40   1
  -2  -6  12   72.70    4.80   1
   2   6 -11   34.00    4.80   1
  -2  -6  11   37.20    3.00   1
   2   6 -10   36.50    4.40   1
  -2  -6  10   28.50    2.20   1
   2   6  -9    6.50    2.30   1
  -2  -6   9    7.20    1.40   1
   2   6  -8  123.80    7.00   1
  -2  -6   8  115.80    3.60   1
   2   6  -7  108.50    6.40   1
  -2  -6   7  107.10    3.70   1
   2   6  -6  328.70   14.10   1
  -2  -6   6  346.50    8.30   1
   2   6  -5  967.90   34.10   1
  -2  -6   5 1000.90   20.20   1
   2   6  -4  243.60    9.60   1
  -2  -6   4  244.20    5.30   1
   2   6  -3   11.80    2.60   1
  -2  -6   3    9.20    0.90   1
   2   6  -2  316.70   12.40   1
  -2  -6   2  327.50    7.40   1
  -2  -6   1  557.00   10.10   1
  -2  -6   0   53.80    2.60   1
  -2  -6  -1  481.30   13.20   1
  -2  -6  -2   39.40    2.10   1
  -2  -6  -3    6.00    1.20   1
  -2  -6  -4  448.40   14.50   1
  -2  -6  -5   92.70    4.70   1
  -2  -6  -6    4.30    1.00   1
  -2  -6  -7    6.70    3.10   1
  -2  -7  13   22.70    4.00   1
   2   7 -12   65.50    6.80   1
  -2  -7  12   68.50    4.90   1
   2   7 -11   30.00    4.10   1
  -2  -7  11   29.70    3.20   1
   2   7 -10   55.60    5.20   1
  -2  -7  10   53.50    3.00   1
   2   7  -9  151.20    9.10   1
  -2  -7   9  146.10    4.90   1
   2   7  -8   75.30    5.10   1
  -2  -7   8   84.40    3.10   1
   2   7  -7  121.90    6.90   1
  -2  -7   7  123.10    3.80   1
   2   7  -6    9.30    2.20   1
  -2  -7   6   10.50    1.70   1
   2   7  -5   72.70    4.80   1
  -2  -7   5   78.90    2.70   1
   2   7  -4    4.80    2.10   1
  -2  -7   4    8.70    1.10   1
   2   7  -3  184.20    8.20   1
  -2  -7   3  192.90    5.00   1
  -2  -7   2  190.20    4.10   1
  -2  -7   1  220.10    4.80   1
  -2  -7   0  415.70    8.20   1
  -2  -7  -1   66.80    2.20   1
  -2  -7  -2   94.90    2.90   1
  -2  -7  -3  270.70    6.10   1
  -2  -7  -4  119.70    3.70   1
  -2  -7  -5  135.60    3.50   1
  -2  -7  -6    4.50    2.80   1
   2   8 -12   55.80    6.50   1
  -2  -8  12   60.70    4.70   1
   2   8 -11    9.40    3.00   1
  -2  -8  11    4.90    2.20   1
   2   8 -10   80.70    6.40   1
  -2  -8  10   65.30    3.40   1
   2   8  -9  194.00   11.60   1
  -2  -8   9  191.90    6.40   1
   2   8  -8  243.20   13.30   1
  -2  -8   8  235.50    7.10   1
   2   8  -7  190.70    9.10   1
  -2  -8   7  184.10    5.40   1
   2   8  -6   14.50    3.30   1
  -2  -8   6   12.20    1.50   1
   2   8  -5    0.00    2.70   1
  -2  -8   5    1.30    0.50   1
   2   8  -4   25.40    2.70   1
  -2  -8   4   29.20    1.60   1
   2   8  -3    6.40    2.70   1
  -2  -8   3    9.50    1.20   1
  -2  -8   2  190.30    4.50   1
  -2  -8   1   53.20    2.00   1
  -2  -8   0    8.00    1.20   1
  -2  -8  -1   76.40    2.50   1
  -2  -8  -2  126.70    3.60   1
  -2  -8  -3   35.40    1.80   1
  -2  -8  -4   65.00    2.80   1
  -2  -8  -5   27.10    3.40   1
  -2  -9  12   15.00    3.20   1
   2   9 -11   33.40    5.40   1
  -2  -9  11   30.00    3.00   1
   2   9 -10   66.80    6.00   1
  -2  -9  10   59.10    3.30   1
   2   9  -9   88.90    6.40   1
  -2  -9   9   84.80    3.90   1
   2   9  -8  313.80   15.30   1
  -2  -9   8  314.40    9.10   1
   2   9  -7   34.30    4.00   1
  -2  -9   7   26.70    2.10   1
   2   9  -6    1.50    2.90   1
  -2  -9   6    4.00    1.50   1
   2   9  -5   68.60    5.40   1
  -2  -9   5   72.60    2.40   1
   2   9  -4   81.50    5.60   1
  -2  -9   4   80.40    3.70   1
  -2  -9   3  200.00    6.60   1
  -2  -9   2  279.30    6.40   1
  -2  -9   1   23.50    1.60   1
  -2  -9   0    2.00    1.00   1
  -2  -9  -1    3.70    1.20   1
  -2  -9  -2   15.50    1.50   1
  -2  -9  -3   48.10    2.30   1
  -2  -9  -4   47.60    4.20   1
  -2 -10  11   14.80    2.60   1
   2  10 -10   42.50    5.20   1
  -2 -10  10   35.50    3.00   1
   2  10  -9  134.50   10.00   1
  -2 -10   9  126.70    5.80   1
   2  10  -8  109.90    8.00   1
  -2 -10   8  124.10    4.90   1
   2  10  -7   58.70    5.30   1
  -2 -10   7   54.90    3.00   1
   2  10  -6   36.80    3.60   1
  -2 -10   6   29.40    2.30   1
   2  10  -5   81.20    6.30   1
  -2 -10   5   76.20    2.90   1
  -2 -10   4   77.70    3.10   1
  -2 -10   3   51.00    2.20   1
  -2 -10   2  101.70    3.60   1
  -2 -10   1   22.40    1.50   1
  -2 -10   0   10.60    1.40   1
  -2 -10  -1   43.20    2.40   1
  -2 -10  -2    6.70    1.60   1
   2  11  -9    2.30    3.10   1
  -2 -11   9    1.10    2.20   1
   2  11  -8   10.50    3.20   1
  -2 -11   8   12.00    2.50   1
   2  11  -7   13.10    4.10   1
  -2 -11   7   17.40    2.30   1
   2  11  -6    4.20    2.50   1
  -2 -11   6    4.10    1.50   1
  -2 -11   5    3.90    1.10   1
  -2 -11   4    0.00    1.00   1
  -2 -11   3   45.70    2.30   1
  -2 -11   2  133.90    4.50   1
  -2 -11   1   54.20    2.80   1
  -2 -11   0   43.20    2.50   1
  -2 -12   6    0.30    1.80   1
  -2 -12   5   45.80    3.90   1
  -2 -12   4   47.80    3.30   1
   3 -12   2   11.80    2.20   1
   3 -12   3    6.50    2.00   1
  -3  12  -3    7.90    2.20   1
   3 -12   4    9.10    2.40   1
  -3  12  -4    4.80    2.10   1
   3 -12   5   36.10    3.60   1
  -3  12  -5   33.00    3.00   1
   3 -11  -2    3.80    3.50   1
   3 -11  -1    5.90    2.70   1
   3 -11   0   14.30    1.70   1
   3 -11   1    9.10    1.30   1
  -3  11  -1   10.80    2.00   1
   3 -11   2   23.30    1.70   1
  -3  11  -2   31.40    2.70   1
   3 -11   3   23.80    2.90   1
  -3  11  -3   27.80    2.80   1
   3 -11   4    8.40    2.30   1
  -3  11  -4    8.80    1.70   1
   3 -11   5  106.70    5.70   1
  -3  11  -5  104.20    5.90   1
   3 -11   6  118.80   10.10   1
  -3  11  -6  119.80    4.80   1
   3 -11   7   -0.40    3.30   1
  -3  11  -7    2.40    1.40   1
   3 -11   8   -4.10    3.70   1
  -3  11  -8    5.00    1.50   1
   3 -10  -4    7.90    3.20   1
   3 -10  -3    6.80    1.40   1
   3 -10  -2    9.60    1.60   1
   3 -10  -1    9.20    1.40   1
   3 -10   0   18.10    1.30   1
  -3  10   0   18.10    2.30   1
   3 -10   1    2.60    0.90   1
  -3  10  -1    2.60    1.40   1
   3 -10   2   56.10    2.40   1
  -3  10  -2   59.40    3.60   1
   3 -10   3   11.10    2.00   1
  -3  10  -3   10.10    3.30   1
   3 -10   4   83.70    4.30   1
  -3  10  -4   87.40    4.50   1
   3 -10   5   94.30    4.90   1
  -3  10  -5   93.10    3.60   1
   3 -10   6  201.40   12.00   1
  -3  10  -6  195.10    6.40   1
   3 -10   7   24.20    3.50   1
  -3  10  -7   29.80    2.10   1
   3 -10   8    1.40    2.50   1
  -3  10  -8    1.70    1.20   1
   3 -10   9   -0.50    5.50   1
  -3  10  -9    2.00    1.30   1
   3  -9  -5   -0.50    1.80   1
   3  -9  -4    9.00    1.50   1
   3  -9  -3   10.10    1.30   1
   3  -9  -2   14.60    1.50   1
  -3   9   2   11.70    2.70   1
   3  -9  -1   54.00    2.80   1
  -3   9   1   57.50    3.20   1
   3  -9   0   30.90    1.70   1
  -3   9   0   26.30    2.20   1
   3  -9   1    8.30    1.00   1
  -3   9  -1   11.20    1.60   1
   3  -9   2  138.80    3.90   1
  -3   9  -2  145.20    5.90   1
   3  -9   3  107.80    4.70   1
  -3   9  -3   95.30    4.50   1
   3  -9   4    5.30    2.00   1
  -3   9  -4    6.50    0.90   1
   3  -9   5   91.30    6.50   1
  -3   9  -5   94.30    3.30   1
   3  -9   6   58.90    5.70   1
  -3   9  -6   54.10    2.40   1
   3  -9   7    1.00    2.30   1
  -3   9  -7    0.10    1.00   1
   3  -9   8   30.60    3.50   1
  -3   9  -8   28.80    1.90   1
   3  -9   9   41.60    3.80   1
  -3   9  -9   38.10    2.40   1
   3  -9  10  -10.10    4.80   1
  -3   9 -10   -0.10    1.70   1
   3  -8  -7    8.70    3.80   1
   3  -8  -6    5.10    4.10   1
   3  -8  -5   27.00    3.10   1
   3  -8  -4   51.70    2.70   1
   3  -8  -3   15.40    1.50   1
  -3   8   3   14.80    2.70   1
   3  -8  -2   65.80    2.50   1
  -3   8   2   63.30    3.30   1
   3  -8  -1  107.70    3.90   1
  -3   8   1  113.60    4.60   1
   3  -8   0    7.80    0.90   1
  -3   8   0   10.30    1.50   1
   3  -8   1   60.10    3.00   1
  -3   8  -1   60.40    3.20   1
   3  -8   2   95.00    4.10   1
  -3   8  -2  102.70    4.40   1
   3  -8   3   14.60    1.90   1
  -3   8  -3   12.70    1.80   1
   3  -8   4   52.10    2.80   1
  -3   8  -4   57.00    2.20   1
   3  -8   5   40.30    4.50   1
  -3   8  -5   39.40    1.80   1
   3  -8   6   68.50    3.90   1
  -3   8  -6   74.30    2.90   1
   3  -8   7  137.80    6.30   1
  -3   8  -7  137.90    4.60   1
   3  -8   8   42.40    3.70   1
  -3   8  -8   47.20    2.40   1
   3  -8   9   24.60    5.30   1
  -3   8  -9   30.50    2.30   1
   3  -8  10   51.00    6.20   1
  -3   8 -10   47.30    3.30   1
   3  -8  11   69.20    8.00   1
  -3   8 -11   79.30    4.90   1
   3  -7  -8   16.20    2.70   1
   3  -7  -7    1.10    1.60   1
   3  -7  -6    2.50    2.20   1
   3  -7  -5   18.80    2.50   1
   3  -7  -4   14.90    2.10   1
  -3   7   4   18.60    2.70   1
   3  -7  -3    4.40    1.00   1
  -3   7   3    3.80    0.90   1
   3  -7  -2   37.80    1.80   1
  -3   7   2   35.20    2.10   1
   3  -7  -1  171.80    5.30   1
  -3   7   1  177.80    6.00   1
   3  -7   0   97.80    2.80   1
  -3   7   0   93.50    3.70   1
   3  -7   1  164.10    5.20   1
  -3   7  -1  156.50    5.40   1
   3  -7   2   35.00    2.30   1
  -3   7  -2   30.00    2.30   1
   3  -7   3   77.00    3.30   1
  -3   7  -3   74.30    2.40   1
   3  -7   4   95.70    3.90   1
  -3   7  -4   95.90    3.00   1
   3  -7   5    9.40    2.70   1
  -3   7  -5    9.60    1.10   1
   3  -7   6   52.50    3.30   1
  -3   7  -6   56.60    2.30   1
   3  -7   7   53.60    3.50   1
  -3   7  -7   53.20    2.40   1
   3  -7   8   36.90    3.60   1
  -3   7  -8   30.10    1.80   1
   3  -7   9   46.90    3.40   1
  -3   7  -9   44.00    2.40   1
   3  -7  10   15.20    2.80   1
  -3   7 -10   16.50    2.00   1
   3  -7  11   16.20    4.50   1
  -3   7 -11   19.80    2.50   1
   3  -6  -9   15.60    3.10   1
   3  -6  -8    1.30    2.10   1
   3  -6  -7  111.00    4.60   1
   3  -6  -6  112.70    5.40   1
   3  -6  -5   11.20    2.00   1
   3  -6  -4   66.40    3.40   1
  -3   6   4   69.70    5.20   1
   3  -6  -3   17.00    1.80   1
  -3   6   3   10.00    1.20   1
   3  -6  -2   25.10    1.50   1
  -3   6   2   24.80    1.70   1
   3  -6  -1  187.30    5.70   1
  -3   6   1  188.60    6.00   1
   3  -6   0  390.00   10.70   1
  -3   6   0  364.40   10.40   1
   3  -6   1  517.90   14.50   1
  -3   6  -1  515.00   14.40   1
   3  -6   2  553.70   14.50   1
  -3   6  -2  559.90   15.80   1
   3  -6   3   27.20    2.00   1
  -3   6  -3   24.30    1.20   1
   3  -6   4   10.00    2.10   1
  -3   6  -4    7.90    1.00   1
   3  -6   5   67.60    3.80   1
  -3   6  -5   70.60    2.60   1
   3  -6   6   13.40    1.90   1
  -3   6  -6   12.40    1.50   1
   3  -6   7   -2.00    1.80   1
  -3   6  -7    1.00    1.20   1
   3  -6   8   68.40    4.40   1
  -3   6  -8   69.20    3.00   1
   3  -6   9   55.50    3.70   1
  -3   6  -9   57.00    2.80   1
   3  -6  10   19.60    2.70   1
  -3   6 -10   15.80    1.80   1
   3  -6  11   18.40    4.50   1
  -3   6 -11   19.00    2.00   1
   3  -5 -10   30.70    3.40   1
   3  -5  -9    4.40    1.60   1
   3  -5  -8   15.40    1.80   1
   3  -5  -7   49.80    2.60   1
   3  -5  -6   17.50    1.70   1
   3  -5  -5   40.70    2.60   1
  -3   5   5   35.50    3.30   1
   3  -5  -4   54.60    2.80   1
  -3   5   4   47.40    2.00   1
   3  -5  -3    0.90    1.50   1
  -3   5   3    1.00    0.90   1
   3  -5  -2    2.50    0.90   1
  -3   5   2    1.50    1.10   1
   3  -5  -1  692.50   13.30   1
  -3   5   1  714.80   18.20   1
   3  -5   0  429.00   15.50   1
  -3   5   0  423.80   11.10   1
   3  -5   1  378.00   10.00   1
  -3   5  -1  376.50   10.20   1
   3  -5   2 1882.60   43.30   1
  -3   5  -2 1739.50   33.50   1
   3  -5   3  174.50    5.30   1
  -3   5  -3  180.20    4.70   1
   3  -5   4   12.60    3.00   1
  -3   5  -4   18.30    1.30   1
   3  -5   5  289.90    8.60   1
  -3   5  -5  291.30    7.60   1
   3  -5   6   84.50    4.40   1
  -3   5  -6   94.30    3.10   1
   3  -5   7   14.10    2.10   1
  -3   5  -7   12.10    1.50   1
   3  -5   8   15.70    2.20   1
  -3   5  -8   19.20    1.60   1
   3  -5   9   54.20    3.90   1
  -3   5  -9   54.60    2.60   1
   3  -5  10   16.50    2.90   1
  -3   5 -10   12.60    1.80   1
   3  -5  11   17.90    4.70   1
  -3   5 -11   16.30    2.10   1
  -3   5 -12   25.50    3.80   1
   3  -4 -11    2.20    2.80   1
   3  -4 -10    7.60    2.50   1
   3  -4  -9   13.70    1.80   1
   3  -4  -8   18.40    2.00   1
   3  -4  -7   20.10    1.80   1
   3  -4  -6   47.80    2.20   1
  -3   4   6   40.60    3.50   1
   3  -4  -5   92.30    3.10   1
  -3   4   5   87.30    6.40   1
   3  -4  -4  393.60    8.70   1
  -3   4   4  394.30   11.90   1
   3  -4  -3   65.10    2.20   1
   3  -4  -2   68.60    2.40   1
  -3   4   2   62.50    2.60   1
   3  -4  -1  478.60   17.00   1
  -3   4   1  458.30   12.10   1
   3  -4   0    1.60    1.50   1
  -3   4   0    2.00    1.10   1
   3  -4   1 1441.40   49.00   1
  -3   4  -1 1406.40   33.90   1
   3  -4   2  533.80   14.50   1
  -3   4  -2  538.80   11.10   1
   3  -4   3  169.50    7.80   1
  -3   4  -3  165.10    4.30   1
   3  -4   4  244.80    7.00   1
  -3   4  -4  248.60    6.00   1
   3  -4   5  141.70    4.90   1
  -3   4  -5  144.00    4.00   1
   3  -4   6  219.50    8.20   1
  -3   4  -6  222.80    7.10   1
   3  -4   7 1074.40   29.40   1
  -3   4  -7 1038.90   21.60   1
   3  -4   8  115.80    8.30   1
  -3   4  -8  122.10    4.00   1
   3  -4   9   13.60    3.20   1
  -3   4  -9   17.60    2.40   1
   3  -4  10  140.80   10.20   1
  -3   4 -10  147.90    6.80   1
   3  -4  11    6.50    4.80   1
  -3   4 -11    6.60    2.40   1
  -3   4 -12   36.40    5.00   1
   3  -3 -11   67.50    4.10   1
   3  -3 -10    6.80    1.70   1
   3  -3  -9    2.90    1.30   1
   3  -3  -8   39.30    2.40   1
   3  -3  -7  297.80    7.50   1
   3  -3  -6  248.50    6.20   1
  -3   3   6  261.10   11.10   1
   3  -3  -5  187.90    4.60   1
  -3   3   5  185.00    7.70   1
   3  -3  -4   57.90    2.00   1
  -3   3   4   59.10    2.40   1
   3  -3  -3  138.10    3.50   1
  -3   3   3  127.90    4.60   1
   3  -3  -2   95.90    3.00   1
  -3   3   2  100.30    3.20   1
   3  -3  -1    3.30    0.30   1
  -3   3   1    1.70    0.80   1
   3  -3   0 1259.30   43.80   1
  -3   3   0 1261.60   30.70   1
   3  -3   1  710.20   25.30   1
  -3   3  -1  710.40   14.60   1
  -3   3  -2   12.80    1.20   1
   3  -3   3  173.60    7.20   1
  -3   3  -3  176.20    5.30   1
   3  -3   4    4.10    2.60   1
  -3   3  -4    3.50    1.40   1
   3  -3   5  126.60    8.50   1
  -3   3  -5  145.90    4.80   1
   3  -3   6  425.10   16.70   1
  -3   3  -6  426.50   16.80   1
   3  -3   7   17.50    3.10   1
  -3   3  -7   15.70    3.30   1
   3  -3   8    1.80    3.40   1
  -3   3  -8   -0.50    2.40   1
   3  -3   9  209.10   11.40   1
  -3   3  -9  223.20    8.30   1
   3  -3  10  112.10    8.60   1
  -3   3 -10  114.90    5.80   1
   3  -3  11   81.30    8.70   1
  -3   3 -11   71.00    4.80   1
  -3   3 -12  219.10   14.00   1
   3  -2 -12   23.00    3.40   1
   3  -2 -11   83.50    4.30   1
  -3   2  11   75.30    7.70   1
   3  -2 -10   24.60    2.00   1
  -3   2  10   24.10    3.40   1
   3  -2  -9    7.60    1.40   1
  -3   2   9    4.60    0.60   1
   3  -2  -8   62.50    2.70   1
  -3   2   8   56.20    2.50   1
   3  -2  -7   72.80    2.60   1
  -3   2   7   70.50    2.70   1
   3  -2  -6  145.20    4.20   1
  -3   2   6  144.60    4.50   1
   3  -2  -5  525.40   11.00   1
  -3   2   5  535.40   21.00   1
   3  -2  -4    5.10    0.80   1
  -3   2   4    4.70    1.50   1
   3  -2  -3 1275.20   24.30   1
  -3   2   3 1310.90   47.00   1
   3  -2  -2 2543.10   57.90   1
  -3   2   2 2390.90   76.30   1
   3  -2  -1  779.50   20.10   1
  -3   2   1  773.20   19.40   1
   3  -2   0  182.10    7.30   1
  -3   2   0  170.30    4.50   1
   3  -2   1    8.20    1.70   1
  -3   2  -1    7.20    1.10   1
   3  -2   2   27.80    2.50   1
  -3   2  -2   23.40    1.70   1
   3  -2   3   48.00    2.90   1
  -3   2  -3   57.00    2.60   1
   3  -2   4   92.20    4.70   1
  -3   2  -4   86.40    4.80   1
   3  -2   5   85.00    4.30   1
  -3   2  -5  101.30    5.60   1
   3  -2   6   44.70    3.30   1
  -3   2  -6   46.80    2.60   1
   3  -2   7  105.50    6.40   1
  -3   2  -7  102.40    4.20   1
   3  -2   8   13.70    3.80   1
  -3   2  -8   13.20    2.00   1
   3  -2   9  264.90   16.20   1
  -3   2  -9  275.00   10.20   1
   3  -2  10  229.50   14.30   1
  -3   2 -10  245.00    9.80   1
  -3   2 -11   49.10    3.30   1
   3  -1 -12    5.90    2.10   1
  -3   1  12    1.70    4.90   1
   3  -1 -11   76.20    3.70   1
  -3   1  11   88.00    4.10   1
   3  -1 -10    0.70    1.20   1
  -3   1  10    1.80    1.00   1
   3  -1  -9    6.30    1.20   1
  -3   1   9    8.40    1.20   1
   3  -1  -8  171.80    4.90   1
  -3   1   8  184.10    6.50   1
   3  -1  -7    1.60    1.20   1
  -3   1   7    1.40    1.00   1
   3  -1  -6   53.10    2.10   1
  -3   1   6   55.20    1.80   1
   3  -1  -5  121.30    3.10   1
  -3   1   5  123.90    4.20   1
   3  -1  -4   84.80    2.40   1
  -3   1   4   78.60    3.80   1
   3  -1  -3  433.70    9.20   1
  -3   1   3  436.00   11.60   1
   3  -1  -2 1513.20   35.00   1
  -3   1   2 1508.40   35.50   1
   3  -1  -1 3266.80   75.60   1
  -3   1   1 3279.50   74.60   1
   3  -1   0  270.90   12.00   1
  -3   1   0  283.80    7.30   1
   3  -1   1  213.50    7.90   1
  -3   1  -1  204.10    8.10   1
   3  -1   2  170.70    7.10   1
  -3   1  -2  181.90    5.60   1
   3  -1   3  551.10   20.00   1
  -3   1  -3  577.20   21.20   1
   3  -1   4  115.60    5.50   1
  -3   1  -4  126.70    4.60   1
   3  -1   5    3.60    2.60   1
  -3   1  -5    2.00    1.20   1
   3  -1   6  184.50    8.00   1
  -3   1  -6  183.90    5.90   1
   3  -1   7   79.20    4.80   1
  -3   1  -7   79.70    3.70   1
   3  -1   8  125.30    8.30   1
  -3   1  -8  117.40    5.20   1
   3  -1   9  147.50    9.90   1
  -3   1  -9  152.30    5.70   1
   3  -1  10  112.00    9.80   1
  -3   1 -10  116.90    6.00   1
  -3   1 -11   22.60    3.40   1
   3   0 -13    4.00    2.20   1
   3   0 -12   18.20    2.40   1
  -3   0  12   21.60    2.40   1
   3   0 -11   91.10    3.90   1
  -3   0  11   95.50    4.40   1
   3   0 -10    2.40    1.30   1
  -3   0  10   -1.80    1.40   1
   3   0  -9   38.20    2.00   1
  -3   0   9   40.40    2.30   1
   3   0  -8   22.50    1.70   1
  -3   0   8   24.20    1.70   1
   3   0  -7   -0.90    1.00   1
  -3   0   7   -0.90    0.90   1
   3   0  -6    0.20    0.90   1
  -3   0   6   -1.30    0.80   1
   3   0  -5  105.20    2.90   1
  -3   0   5  109.90    2.90   1
   3   0  -4  423.70    9.00   1
  -3   0   4  433.80    8.80   1
   3   0  -3  473.80   10.10   1
  -3   0   3  472.00   12.10   1
   3   0  -2  840.50   16.50   1
  -3   0   2  833.70   20.50   1
   3   0  -1  160.70    4.90   1
  -3   0   1  158.10    4.30   1
   3   0   0  174.90    6.90   1
  -3   0   0  176.60    5.20   1
   3   0   1   23.70    1.80   1
   3   0   2  328.20   12.50   1
  -3   0  -2  343.30   11.80   1
   3   0   3  711.70   27.30   1
  -3   0  -3  707.40   18.60   1
   3   0   4  247.10    9.60   1
  -3   0  -4  256.60    7.30   1
   3   0   5  303.00   11.80   1
  -3   0  -5  295.70    9.00   1
   3   0   6    8.70    2.20   1
  -3   0  -6    8.00    1.50   1
   3   0   7   40.70    3.80   1
  -3   0  -7   46.50    2.60   1
   3   0   8  130.70   10.20   1
  -3   0  -8  137.40    5.50   1
   3   0   9   58.60    5.70   1
  -3   0  -9   55.40    3.30   1
   3   0  10   82.80    9.00   1
  -3   0 -10   96.00    5.50   1
  -3   0 -11   37.10    3.60   1
   3   1 -13    6.00    2.60   1
  -3  -1  13   11.50    2.80   1
   3   1 -12    7.10    1.70   1
  -3  -1  12    5.00    1.80   1
   3   1 -11  474.50   12.90   1
  -3  -1  11  478.20   15.60   1
   3   1 -10  714.80   16.80   1
  -3  -1  10  719.70   20.00   1
   3   1  -9    1.70    1.10   1
  -3  -1   9    0.40    1.50   1
   3   1  -8  110.90    3.30   1
  -3  -1   8  116.50    4.10   1
   3   1  -7    7.40    1.10   1
  -3  -1   7    8.10    0.90   1
   3   1  -6  385.20    8.40   1
  -3  -1   6  376.50    7.00   1
   3   1  -5  956.80   19.00   1
  -3  -1   5  958.30   19.00   1
   3   1  -4   83.20    2.20   1
  -3  -1   4   82.00    2.10   1
   3   1  -3  303.50    6.80   1
  -3  -1   3  302.40    7.70   1
   3   1  -2  741.80   14.90   1
  -3  -1   2  766.60   20.00   1
   3   1  -1  126.80    3.90   1
  -3  -1   1  131.80    3.90   1
   3   1   0  759.10   25.70   1
  -3  -1   0  756.60   28.00   1
   3   1   1  254.30   10.70   1
  -3  -1  -1  256.10    6.60   1
   3   1   2  157.10    6.40   1
  -3  -1  -2  164.10    7.40   1
   3   1   3   74.70    4.20   1
  -3  -1  -3   76.30    3.70   1
   3   1   4  199.00    8.00   1
  -3  -1  -4  187.90    5.60   1
   3   1   5   80.30    4.50   1
  -3  -1  -5   76.90    3.00   1
   3   1   6  179.40   10.90   1
  -3  -1  -6  175.40    5.90   1
   3   1   7   36.70    3.70   1
  -3  -1  -7   34.90    2.40   1
   3   1   8    0.70    2.30   1
  -3  -1  -8    0.40    1.20   1
   3   1   9  106.20    8.10   1
  -3  -1  -9  112.20    5.00   1
   3   1  10    9.80    5.20   1
  -3  -1 -10   -0.50    2.20   1
   3   2 -13   13.00    2.50   1
  -3  -2  13   10.30    2.40   1
   3   2 -12   18.80    1.80   1
  -3  -2  12   22.30    2.60   1
   3   2 -11   74.00    3.20   1
  -3  -2  11   81.00    4.00   1
   3   2 -10   35.50    2.00   1
  -3  -2  10   37.30    2.60   1
   3   2  -9   95.30    3.10   1
  -3  -2   9   94.90    4.10   1
   3   2  -8  131.90    3.60   1
  -3  -2   8  129.50    4.60   1
   3   2  -7   16.70    1.30   1
  -3  -2   7   17.80    1.50   1
   3   2  -6 1098.30   22.00   1
  -3  -2   6 1124.00   18.90   1
   3   2  -5  750.90   15.10   1
  -3  -2   5  762.40   14.80   1
   3   2  -4  311.60    6.70   1
  -3  -2   4  309.50    6.40   1
   3   2  -3 1239.90   28.70   1
  -3  -2   3 1270.50   31.20   1
   3   2  -2   55.80    3.50   1
  -3  -2   2   60.30    2.10   1
   3   2  -1 1212.50   41.90   1
  -3  -2   1 1279.60   44.30   1
   3   2   0  505.20   17.40   1
  -3  -2   0  519.00   13.10   1
   3   2   1   87.20    3.60   1
  -3  -2  -1   91.90    3.10   1
   3   2   2   95.80    4.00   1
  -3  -2  -2   94.00    4.30   1
   3   2   3  295.80   11.60   1
  -3  -2  -3  297.80   11.80   1
   3   2   4    9.80    2.40   1
  -3  -2  -4   14.90    2.90   1
   3   2   5  636.80   23.40   1
  -3  -2  -5  597.00   15.90   1
   3   2   6  533.00   21.50   1
  -3  -2  -6  543.40   15.60   1
   3   2   7    6.40    3.10   1
  -3  -2  -7    3.00    1.20   1
   3   2   8  210.30   12.90   1
  -3  -2  -8  182.30    7.00   1
   3   2   9   20.30    5.10   1
  -3  -2  -9   23.70    2.50   1
  -3  -2 -10    1.30    2.00   1
   3   3 -13    1.30    1.70   1
  -3  -3  13    4.80    2.20   1
   3   3 -12   18.40    1.90   1
  -3  -3  12   21.00    2.70   1
   3   3 -11   50.30    2.40   1
  -3  -3  11   43.90    3.30   1
   3   3 -10    5.50    1.30   1
  -3  -3  10    8.10    1.80   1
   3   3  -9  100.90    3.30   1
  -3  -3   9   97.40    4.50   1
   3   3  -8   53.00    2.00   1
  -3  -3   8   52.50    2.40   1
   3   3  -7   86.20    2.50   1
  -3  -3   7   84.80    2.70   1
   3   3  -6   66.10    2.00   1
  -3  -3   6   65.30    1.70   1
   3   3  -5  367.50    7.80   1
  -3  -3   5  367.40    7.40   1
   3   3  -4 1262.30   43.10   1
  -3  -3   4 1284.90   24.70   1
   3   3  -3  335.80   14.40   1
  -3  -3   3  326.40    6.50   1
   3   3  -2    9.10    1.60   1
  -3  -3   2    9.40    2.30   1
   3   3  -1   33.10    2.50   1
  -3  -3   1   36.50    1.30   1
   3   3   0  512.30   17.80   1
  -3  -3   0  510.00   12.60   1
   3   3   1    1.00    1.10   1
  -3  -3  -1   -0.20    1.00   1
   3   3   2   88.60    4.40   1
  -3  -3  -2   91.80    4.00   1
   3   3   3  869.50   30.40   1
  -3  -3  -3  846.60   28.60   1
   3   3   4   37.30    3.40   1
  -3  -3  -4   42.60    3.40   1
   3   3   5  475.60   22.60   1
  -3  -3  -5  496.30   13.80   1
   3   3   6  429.10   18.40   1
  -3  -3  -6  421.40   12.90   1
   3   3   7   47.70    4.60   1
  -3  -3  -7   46.40    3.00   1
   3   3   8   70.30    5.90   1
  -3  -3  -8   64.50    3.60   1
   3   3   9   15.50    5.10   1
  -3  -3  -9    9.90    2.10   1
   3   4 -13    0.40    1.10   1
  -3  -4  13    1.30    2.50   1
   3   4 -12   74.40    3.30   1
  -3  -4  12   79.50    4.60   1
   3   4 -11   20.70    1.60   1
  -3  -4  11   19.30    2.00   1
   3   4 -10   49.30    2.10   1
  -3  -4  10   46.70    2.80   1
   3   4  -9   11.50    1.00   1
  -3  -4   9   13.70    1.70   1
   3   4  -8   13.20    1.00   1
  -3  -4   8    9.10    1.20   1
   3   4  -7  216.50    5.10   1
  -3  -4   7  211.60    5.50   1
   3   4  -6  133.70    6.90   1
  -3  -4   6  126.60    3.20   1
   3   4  -5  391.00   14.60   1
  -3  -4   5  381.60    7.80   1
   3   4  -4  416.60   15.90   1
  -3  -4   4  419.50    8.30   1
   3   4  -3  512.90   18.60   1
  -3  -4   3  515.20   10.60   1
   3   4  -2   69.70    4.20   1
  -3  -4   2   70.90    2.30   1
  -3  -4   1  354.70    9.20   1
  -3  -4   0  419.60   11.00   1
  -3  -4  -1   11.80    1.30   1
   3   4   2   82.10    4.10   1
  -3  -4  -2   93.70    3.60   1
   3   4   3  184.90    8.30   1
  -3  -4  -3  182.20    7.80   1
   3   4   4   42.00    3.40   1
  -3  -4  -4   36.20    3.40   1
   3   4   5  584.40   24.00   1
  -3  -4  -5  578.10   15.90   1
   3   4   6  227.30   13.60   1
  -3  -4  -6  241.60    9.00   1
   3   4   7  106.30    7.60   1
  -3  -4  -7  100.60    4.90   1
   3   4   8  109.00    9.00   1
  -3  -4  -8   95.90    5.40   1
   3   5 -13   30.10    2.50   1
  -3  -5  13   28.00    3.30   1
   3   5 -12   51.00    2.50   1
  -3  -5  12   55.90    3.80   1
   3   5 -11   24.70    1.50   1
  -3  -5  11   23.60    2.50   1
   3   5 -10   13.30    1.10   1
  -3  -5  10   11.80    1.50   1
   3   5  -9    3.80    2.30   1
  -3  -5   9    0.00    1.40   1
   3   5  -8   76.20    5.20   1
  -3  -5   8   81.10    3.00   1
   3   5  -7  219.70   10.10   1
  -3  -5   7  202.80    5.30   1
   3   5  -6  520.20   19.40   1
  -3  -5   6  532.30   11.40   1
   3   5  -5  334.60   13.20   1
  -3  -5   5  326.90    6.00   1
   3   5  -4  138.90    6.40   1
  -3  -5   4  140.50    2.90   1
   3   5  -3  121.10    5.60   1
  -3  -5   3  131.60    6.10   1
   3   5  -2  353.50   13.30   1
  -3  -5   2  364.60    9.50   1
  -3  -5   1  618.30   15.60   1
  -3  -5   0  174.60    5.20   1
  -3  -5  -1  210.20    6.30   1
  -3  -5  -2    1.50    1.30   1
  -3  -5  -3   -1.50    1.20   1
   3   5   4   34.40    3.60   1
  -3  -5  -4   34.90    3.50   1
   3   5   5   27.80    3.90   1
  -3  -5  -5   26.20    2.10   1
   3   5   6  208.00   11.60   1
  -3  -5  -6  201.00    7.90   1
   3   5   7   29.10    4.40   1
  -3  -5  -7   24.90    2.30   1
   3   5   8   -0.90    4.80   1
  -3  -5  -8    2.70    4.40   1
  -3  -6  13   10.30    2.60   1
   3   6 -12  102.20    8.60   1
  -3  -6  12  106.40    6.00   1
   3   6 -11   27.70    4.00   1
  -3  -6  11   30.50    2.40   1
   3   6 -10   45.20    4.30   1
  -3  -6  10   46.20    2.70   1
   3   6  -9    6.70    2.40   1
  -3  -6   9    5.50    1.30   1
   3   6  -8   46.80    4.60   1
  -3  -6   8   40.30    2.10   1
   3   6  -7  147.00    8.00   1
  -3  -6   7  157.00    4.30   1
   3   6  -6  570.60   22.70   1
  -3  -6   6  586.10   12.60   1
   3   6  -5  358.50   15.10   1
  -3  -6   5  357.80    5.80   1
   3   6  -4   92.20    6.00   1
  -3  -6   4   89.40    2.10   1
   3   6  -3   73.40    4.80   1
  -3  -6   3   71.00    2.40   1
  -3  -6   2  352.80    9.50   1
  -3  -6   1  361.30    9.90   1
  -3  -6   0  397.10   10.90   1
  -3  -6  -1   12.40    1.50   1
  -3  -6  -2   11.10    1.80   1
  -3  -6  -3  251.50    8.60   1
  -3  -6  -4   52.90    3.30   1
  -3  -6  -5  178.90    7.70   1
  -3  -6  -6   81.30    3.70   1
  -3  -6  -7    5.50    4.50   1
  -3  -7  13   26.80    3.50   1
   3   7 -12   22.00    5.20   1
  -3  -7  12   19.70    2.70   1
   3   7 -11    8.50    3.90   1
  -3  -7  11    4.10    1.90   1
   3   7 -10  109.10    8.20   1
  -3  -7  10  108.30    4.50   1
   3   7  -9   19.50    3.80   1
  -3  -7   9   17.70    1.90   1
   3   7  -8   80.60    6.10   1
  -3  -7   8   89.80    3.40   1
   3   7  -7  710.70   28.50   1
  -3  -7   7  730.70   16.40   1
   3   7  -6   24.10    3.50   1
  -3  -7   6   21.10    1.60   1
   3   7  -5  102.20    5.50   1
  -3  -7   5  100.70    2.20   1
   3   7  -4    8.80    2.30   1
  -3  -7   4   13.80    1.10   1
   3   7  -3   23.60    3.70   1
  -3  -7   3   20.10    1.20   1
  -3  -7   2  152.00    4.30   1
  -3  -7   1  523.20   11.80   1
  -3  -7   0   42.70    2.50   1
  -3  -7  -1  100.70    4.10   1
  -3  -7  -2  278.50    9.30   1
  -3  -7  -3   30.70    2.10   1
  -3  -7  -4  129.20    5.00   1
  -3  -7  -5   77.00    4.20   1
  -3  -7  -6    1.70    2.40   1
  -3  -8  12    1.50    2.20   1
   3   8 -11   28.40    4.70   1
  -3  -8  11   26.30    2.70   1
   3   8 -10   33.20    4.90   1
  -3  -8  10   28.90    2.40   1
   3   8  -9   43.90    4.90   1
  -3  -8   9   37.10    2.40   1
   3   8  -8  145.00    8.70   1
  -3  -8   8  134.90    4.70   1
   3   8  -7   52.40    4.40   1
  -3  -8   7   51.00    2.50   1
   3   8  -6  130.00    7.30   1
  -3  -8   6  117.50    3.70   1
   3   8  -5  336.30   15.60   1
  -3  -8   5  333.10    5.80   1
   3   8  -4   51.60    4.40   1
  -3  -8   4   48.30    2.10   1
  -3  -8   3    0.20    0.80   1
  -3  -8   2   34.90    1.50   1
  -3  -8   1    7.10    1.10   1
  -3  -8   0    0.00    0.80   1
  -3  -8  -1   94.60    3.10   1
  -3  -8  -2   65.60    2.70   1
  -3  -8  -3   22.40    1.70   1
  -3  -8  -4   17.90    1.70   1
  -3  -9  12    0.00    2.10   1
  -3  -9  11   13.70    2.30   1
   3   9 -10  118.70   10.10   1
  -3  -9  10  128.50    5.80   1
   3   9  -9   78.90    6.50   1
  -3  -9   9   84.40    3.90   1
   3   9  -8   45.20    4.70   1
  -3  -9   8   44.40    2.50   1
   3   9  -7  253.60   12.60   1
  -3  -9   7  245.70    7.20   1
   3   9  -6  136.30    8.20   1
  -3  -9   6  133.90    4.60   1
   3   9  -5  152.80    8.70   1
  -3  -9   5  145.30    3.80   1
   3   9  -4  175.40    9.50   1
  -3  -9   4  184.30    4.70   1
  -3  -9   3   10.50    1.10   1
  -3  -9   2    1.60    0.90   1
  -3  -9   1   51.20    2.20   1
  -3  -9   0   13.40    1.20   1
  -3  -9  -1   53.60    2.50   1
  -3  -9  -2   38.40    2.30   1
  -3  -9  -3   34.00    2.20   1
  -3 -10  10    6.10    2.10   1
   3  10  -9   34.80    5.20   1
  -3 -10   9   30.60    2.70   1
   3  10  -8   66.90    6.00   1
  -3 -10   8   58.90    3.30   1
   3  10  -7   79.80    6.50   1
  -3 -10   7   67.50    3.50   1
   3  10  -6   35.20    5.10   1
  -3 -10   6   30.50    2.20   1
   3  10  -5   92.70    7.80   1
  -3 -10   5   86.90    3.10   1
  -3 -10   4   85.60    3.10   1
  -3 -10   3   12.30    1.30   1
  -3 -10   2    7.30    1.20   1
  -3 -10   1   40.80    2.30   1
  -3 -10   0   58.10    2.80   1
  -3 -10  -1   35.90    2.30   1
  -3 -11   9   -4.40    1.90   1
  -3 -11   8    0.70    2.00   1
   3  11  -7   20.40    5.20   1
  -3 -11   7   20.00    2.10   1
   3  11  -6   42.00    5.30   1
  -3 -11   6   45.70    3.10   1
  -3 -11   5   31.90    2.50   1
  -3 -11   4   26.10    1.80   1
  -3 -11   3    4.00    1.30   1
  -3 -11   2    7.30    1.50   1
  -3 -11   1   12.10    2.10   1
   4 -11  -1    0.20    3.20   1
  -4  11   1   -1.30    3.80   1
   4 -11   0    0.50    4.70   1
  -4  11   0   -1.90    1.80   1
   4 -11   1   -0.20    2.80   1
  -4  11  -1    0.60    1.90   1
   4 -11   2    4.80    2.10   1
  -4  11  -2    3.70    1.90   1
   4 -11   3   39.00    3.60   1
  -4  11  -3   44.40    3.50   1
   4 -11   4   24.30    2.80   1
  -4  11  -4   29.60    3.00   1
  -4  11  -5    8.40    2.50   1
   4 -11   6   26.30    5.90   1
  -4  11  -6   28.70    3.50   1
   4 -11   7   23.10    6.60   1
  -4  11  -7   13.80    3.20   1
   4 -10  -3   22.20    4.40   1
   4 -10  -2    2.70    3.10   1
  -4  10   2    6.80    2.90   1
   4 -10  -1    4.80    2.20   1
  -4  10   1    7.00    1.80   1
   4 -10   0   11.60    4.20   1
  -4  10   0    7.50    2.10   1
   4 -10   1    5.60    2.60   1
  -4  10  -1    5.10    2.00   1
   4 -10   2    6.30    3.40   1
  -4  10  -2    1.10    1.70   1
   4 -10   3   15.70    2.40   1
  -4  10  -3   18.70    2.30   1
   4 -10   4   24.30    2.80   1
  -4  10  -4   28.50    3.00   1
   4 -10   5    8.10    4.00   1
  -4  10  -5    6.00    2.00   1
   4 -10   6   10.50    3.30   1
  -4  10  -6    8.00    1.20   1
   4 -10   7   33.40    6.40   1
  -4  10  -7   37.00    2.50   1
   4 -10   8   35.50    6.90   1
  -4  10  -8   33.20    2.60   1
   4  -9  -5   18.00    4.20   1
   4  -9  -4   57.30    2.60   1
   4  -9  -3   32.30    1.60   1
  -4   9   3   40.90    5.10   1
   4  -9  -2    5.00    0.50   1
  -4   9   2    4.30    1.50   1
   4  -9  -1    9.20    2.90   1
  -4   9   1    3.60    1.70   1
   4  -9   0    2.90    3.50   1
  -4   9   0    0.60    1.60   1
   4  -9   1   33.00    3.80   1
  -4   9  -1   28.70    2.50   1
   4  -9   2  111.70    4.90   1
  -4   9  -2  109.40    5.50   1
   4  -9   3   33.80    2.90   1
  -4   9  -3   29.50    2.50   1
   4  -9   4   28.50    2.40   1
  -4   9  -4   32.20    2.90   1
   4  -9   5   28.50    4.40   1
  -4   9  -5   27.40    1.60   1
   4  -9   6   12.10    3.20   1
  -4   9  -6   16.40    1.40   1
   4  -9   7   42.20    3.90   1
  -4   9  -7   44.40    2.50   1
   4  -9   8   52.40    5.80   1
  -4   9  -8   55.90    3.50   1
   4  -9   9   68.30    8.20   1
  -4   9  -9   71.20    4.30   1
   4  -8  -6    8.40    2.30   1
   4  -8  -5   27.20    1.80   1
   4  -8  -4   71.10    2.60   1
  -4   8   4   66.40    5.70   1
   4  -8  -3  169.00    4.40   1
  -4   8   3  185.90    7.10   1
   4  -8  -2    4.80    0.40   1
  -4   8   2    4.10    1.40   1
   4  -8  -1    1.70    2.20   1
  -4   8   1    1.10    1.10   1
   4  -8   0   18.40    3.90   1
  -4   8   0   20.70    1.90   1
   4  -8   1    5.20    3.10   1
  -4   8  -1    0.30    1.30   1
   4  -8   2   32.60    2.40   1
  -4   8  -2   28.80    2.40   1
   4  -8   3   96.60    4.40   1
  -4   8  -3   95.00    4.30   1
   4  -8   4    0.90    1.70   1
  -4   8  -4    0.40    0.50   1
   4  -8   5   26.30    3.80   1
  -4   8  -5   23.90    1.50   1
   4  -8   6  159.70    7.60   1
  -4   8  -6  148.90    5.30   1
   4  -8   7   55.50    4.20   1
  -4   8  -7   60.00    3.40   1
   4  -8   8   40.80    3.70   1
  -4   8  -8   47.40    2.70   1
   4  -8   9   48.30    6.20   1
  -4   8  -9   47.80    3.50   1
  -4   8 -10   29.40    2.80   1
   4  -7  -8    1.30    2.00   1
   4  -7  -7   13.20    2.60   1
   4  -7  -6   11.60    1.70   1
   4  -7  -5    1.10    1.10   1
  -4   7   5    0.70    2.10   1
   4  -7  -4  101.70    3.80   1
  -4   7   4  108.60    4.10   1
   4  -7  -3   49.80    1.70   1
  -4   7   3   50.30    2.80   1
   4  -7  -2   11.20    0.50   1
  -4   7   2   13.40    1.50   1
   4  -7  -1   46.70    4.60   1
  -4   7   1   51.20    3.00   1
   4  -7   0   39.70    3.90   1
  -4   7   0   34.70    2.60   1
   4  -7   1    9.30    3.40   1
  -4   7  -1    2.10    1.30   1
   4  -7   2  124.20    6.30   1
  -4   7  -2  138.20    5.60   1
   4  -7   3  117.60    4.60   1
  -4   7  -3  120.10    4.70   1
   4  -7   4   12.70    2.70   1
  -4   7  -4    9.90    1.00   1
   4  -7   5   57.90    3.60   1
  -4   7  -5   57.30    2.30   1
   4  -7   6   26.10    3.40   1
  -4   7  -6   22.20    1.70   1
   4  -7   7   41.70    3.30   1
  -4   7  -7   42.10    2.20   1
   4  -7   8   19.00    2.60   1
  -4   7  -8   16.20    1.80   1
   4  -7   9    5.80    2.60   1
  -4   7  -9    4.30    1.40   1
  -4   7 -10   22.50    2.40   1
   4  -6  -9    5.10    2.40   1
   4  -6  -8    6.70    1.70   1
   4  -6  -7   19.00    2.00   1
   4  -6  -6    5.80    1.40   1
  -4   6   6    6.50    2.60   1
   4  -6  -5   14.80    1.40   1
  -4   6   5    7.40    3.20   1
   4  -6  -4  127.20    4.10   1
  -4   6   4  129.90    4.90   1
   4  -6  -3  175.00    4.70   1
  -4   6   3  182.60    6.60   1
   4  -6  -2   29.60    4.20   1
  -4   6   2   25.30    1.90   1
   4  -6  -1   18.40    2.60   1
  -4   6   1   21.90    2.00   1
   4  -6   0   26.40    2.80   1
  -4   6   0   25.40    2.00   1
   4  -6   1  198.90    9.40   1
  -4   6  -1  202.10    6.70   1
   4  -6   2  665.00   27.30   1
  -4   6  -2  692.80   19.10   1
   4  -6   3  124.70    6.70   1
  -4   6  -3  121.00    3.50   1
   4  -6   4   54.50    4.30   1
  -4   6  -4   53.70    2.20   1
   4  -6   5   31.60    4.70   1
  -4   6  -5   30.00    1.70   1
   4  -6   6    8.00    1.90   1
  -4   6  -6   10.10    1.30   1
   4  -6   7   32.90    2.60   1
  -4   6  -7   35.20    2.00   1
   4  -6   8   28.10    4.30   1
  -4   6  -8   27.60    2.10   1
   4  -6   9    2.80    4.60   1
  -4   6  -9    0.90    1.40   1
  -4   6 -10    9.40    2.00   1
  -4   6 -11    6.80    2.30   1
   4  -5 -10   18.60    2.90   1
   4  -5  -9    7.70    2.10   1
   4  -5  -8    5.30    1.50   1
   4  -5  -7   -0.80    1.20   1
   4  -5  -6   35.40    2.00   1
  -4   5   6   41.70    3.90   1
   4  -5  -5   56.70    2.50   1
  -4   5   5   59.40    2.60   1
   4  -5  -4   46.10    2.10   1
  -4   5   4   42.90    2.10   1
   4  -5  -3  107.00    3.10   1
  -4   5   3  110.40    4.10   1
   4  -5  -2   23.50    0.70   1
  -4   5   2   24.30    1.80   1
   4  -5  -1   14.50    2.70   1
  -4   5   1   19.30    1.70   1
   4  -5   0   24.10    2.80   1
  -4   5   0   29.80    2.10   1
   4  -5   1  110.80    6.60   1
  -4   5  -1  126.30    4.50   1
   4  -5   2  159.80    7.00   1
  -4   5  -2  164.00    5.50   1
  -4   5  -3  353.50    8.60   1
   4  -5   4  382.80   16.10   1
  -4   5  -4  377.10    9.30   1
   4  -5   5  169.80    8.50   1
  -4   5  -5  158.70    4.60   1
   4  -5   6  525.20   22.20   1
  -4   5  -6  526.70   12.20   1
   4  -5   7  347.60   16.10   1
  -4   5  -7  349.60    9.10   1
   4  -5   8    8.70    3.10   1
  -4   5  -8    6.50    1.60   1
   4  -5   9    4.00    3.00   1
  -4   5  -9    5.50    1.80   1
   4  -5  10    4.50    3.80   1
  -4   5 -10    7.50    1.90   1
  -4   5 -11    3.70    2.00   1
   4  -4 -10   18.20    2.30   1
   4  -4  -9   26.90    2.30   1
   4  -4  -8   33.00    2.30   1
   4  -4  -7   45.80    2.30   1
  -4   4   7   41.40    4.50   1
   4  -4  -6   44.30    2.10   1
  -4   4   6   39.60    1.50   1
   4  -4  -5   52.30    2.20   1
  -4   4   5   50.00    2.30   1
   4  -4  -4    8.40    1.20   1
  -4   4   4    9.20    1.30   1
   4  -4  -3   16.20    1.10   1
  -4   4   3   16.30    1.50   1
   4  -4  -2    8.00    0.70   1
  -4   4   2    5.90    1.90   1
   4  -4  -1   36.80    2.90   1
  -4   4   1   26.10    1.60   1
   4  -4   0  185.90    7.60   1
  -4   4   0  190.40    6.10   1
   4  -4   1   48.10    3.10   1
  -4   4  -1   41.70    2.30   1
   4  -4   2   14.80    2.90   1
  -4   4  -2   15.50    1.00   1
  -4   4  -3  481.90   13.30   1
   4  -4   4  282.30   11.80   1
  -4   4  -4  268.70    8.10   1
   4  -4   5  268.90   11.80   1
  -4   4  -5  279.30    9.10   1
   4  -4   6  189.00    9.40   1
  -4   4  -6  191.80    6.40   1
   4  -4   7  105.10    7.00   1
  -4   4  -7   99.90    3.40   1
   4  -4   8   22.00    3.50   1
  -4   4  -8   33.30    2.20   1
   4  -4   9    3.00    2.80   1
  -4   4  -9    1.50    1.50   1
   4  -4  10   47.80    6.70   1
  -4   4 -10   35.20    2.80   1
  -4   4 -11   27.10    2.50   1
   4  -3 -11    8.70    1.90   1
   4  -3 -10   63.50    3.60   1
   4  -3  -9    6.80    1.70   1
   4  -3  -8   65.00    3.10   1
  -4   3   8   64.00    2.90   1
   4  -3  -7  397.80    9.70   1
  -4   3   7  390.70   11.40   1
   4  -3  -6   82.20    2.60   1
  -4   3   6   88.30    4.90   1
   4  -3  -5   73.20    2.60   1
  -4   3   5   82.00    4.50   1
   4  -3  -4  137.40    3.70   1
  -4   3   4  131.60    6.60   1
   4  -3  -3   13.00    1.00   1
  -4   3   3   16.20    2.90   1
   4  -3  -2   64.10    2.50   1
  -4   3   2   60.60    2.50   1
   4  -3  -1  275.40   10.80   1
  -4   3   1  263.30    5.90   1
   4  -3   0  200.00    8.80   1
  -4   3   0  202.00    4.80   1
   4  -3   1   49.70    3.10   1
  -4   3  -1   52.20    1.80   1
  -4   3  -2  262.40    7.60   1
   4  -3   3   31.60    3.30   1
  -4   3  -3   24.80    2.10   1
   4  -3   4  276.60   14.10   1
  -4   3  -4  276.50    8.30   1
   4  -3   5  581.70   21.50   1
  -4   3  -5  605.00   16.50   1
   4  -3   6   -0.30    2.20   1
  -4   3  -6    0.20    1.70   1
   4  -3   7   25.30    3.60   1
  -4   3  -7   25.60    3.70   1
   4  -3   8   61.20    6.50   1
  -4   3  -8   58.40    4.80   1
   4  -3   9    8.50    3.00   1
  -4   3  -9    6.90    2.50   1
   4  -3  10   88.50    8.80   1
  -4   3 -10   90.80    5.80   1
  -4   3 -11   20.20    4.10   1
   4  -2 -12    0.90    2.10   1
   4  -2 -11   -1.00    1.50   1
   4  -2 -10   44.70    2.60   1
  -4   2  10   39.30    2.60   1
   4  -2  -9    9.50    1.50   1
  -4   2   9   10.20    1.30   1
   4  -2  -8  210.10    5.80   1
  -4   2   8  211.60    7.20   1
   4  -2  -7   52.10    2.30   1
  -4   2   7   47.80    2.30   1
   4  -2  -6    0.50    1.10   1
  -4   2   6    1.80    2.40   1
   4  -2  -5  110.00    3.00   1
  -4   2   5  121.50    6.00   1
   4  -2  -4   99.50    2.80   1
  -4   2   4   98.80    4.90   1
   4  -2  -3  523.30   11.10   1
  -4   2   3  506.90   12.80   1
   4  -2  -2 2156.60   50.60   1
  -4   2   2 2106.80   50.70   1
   4  -2  -1  633.90   24.30   1
  -4   2   1  645.20   15.80   1
   4  -2   0    1.30    1.60   1
  -4   2   0    2.20    0.80   1
  -4   2  -1  490.80   10.00   1
   4  -2   2    0.50    1.50   1
  -4   2  -2   -1.60    1.30   1
   4  -2   3    4.80    2.00   1
  -4   2  -3    4.80    1.40   1
   4  -2   4  451.10   17.00   1
  -4   2  -4  482.90   12.90   1
   4  -2   5    7.30    2.40   1
  -4   2  -5    9.90    2.50   1
   4  -2   6   92.10    5.50   1
  -4   2  -6   97.40    5.90   1
   4  -2   7  123.00    7.90   1
  -4   2  -7  115.90    7.00   1
   4  -2   8   26.10    3.40   1
  -4   2  -8   28.50    3.60   1
   4  -2   9  118.70    8.00   1
  -4   2  -9  122.40    8.30   1
   4  -2  10   79.40    7.30   1
  -4   2 -10   97.90    7.80   1
  -4   2 -11    2.50    4.00   1
   4  -1 -12   28.70    3.00   1
  -4   1  12   26.50    2.10   1
   4  -1 -11   17.00    2.20   1
  -4   1  11   16.00    1.80   1
   4  -1 -10   50.30    2.80   1
  -4   1  10   49.70    3.00   1
   4  -1  -9  127.90    4.50   1
  -4   1   9  133.70    5.60   1
   4  -1  -8   77.70    2.80   1
  -4   1   8   74.80    2.80   1
   4  -1  -7  150.30    4.50   1
  -4   1   7  144.50    4.90   1
   4  -1  -6    7.20    1.20   1
  -4   1   6    5.90    1.70   1
   4  -1  -5    3.50    0.90   1
  -4   1   5    1.00    1.20   1
   4  -1  -4  507.90   10.30   1
  -4   1   4  524.80   14.60   1
   4  -1  -3   29.30    1.30   1
  -4   1   3   24.70    1.60   1
   4  -1  -2   10.90    1.10   1
  -4   1   2    7.70    1.00   1
   4  -1  -1   10.70    1.10   1
  -4   1   1    9.70    1.20   1
  -4   1   0  755.00   20.00   1
   4  -1   1  756.30   29.20   1
  -4   1  -1  734.00   19.60   1
   4  -1   2  613.20   21.10   1
  -4   1  -2  609.80   20.80   1
   4  -1   3 1135.20   38.30   1
  -4   1  -3 1160.20   43.00   1
   4  -1   4    2.50    2.70   1
  -4   1  -4    3.70    2.40   1
   4  -1   5    0.50    2.90   1
  -4   1  -5   -0.40    1.70   1
   4  -1   6  151.70    7.80   1
  -4   1  -6  143.30    5.50   1
   4  -1   7  100.40    6.50   1
  -4   1  -7   99.60    4.40   1
   4  -1   8   87.60    7.10   1
  -4   1  -8   95.90    4.90   1
   4  -1   9   61.60    5.70   1
  -4   1  -9   67.10    4.20   1
   4  -1  10   40.80    6.90   1
  -4   1 -10   45.80    4.20   1
   4   0 -12   19.90    2.10   1
  -4   0  12   21.50    2.20   1
   4   0 -11   43.10    2.60   1
  -4   0  11   41.80    3.10   1
   4   0 -10  105.90    4.20   1
  -4   0  10  113.60    5.30   1
   4   0  -9   33.00    2.10   1
  -4   0   9   32.70    2.30   1
   4   0  -8   96.40    3.60   1
  -4   0   8  100.10    3.30   1
   4   0  -7   14.90    1.30   1
  -4   0   7   11.50    1.10   1
   4   0  -6  129.20    3.50   1
  -4   0   6  129.00    5.00   1
   4   0  -5  127.90    3.10   1
  -4   0   5  120.40    4.80   1
   4   0  -4    1.40    0.90   1
  -4   0   4   -0.10    1.10   1
   4   0  -3  205.60    4.60   1
  -4   0   3  198.80    5.40   1
   4   0  -2  120.00    3.70   1
  -4   0   2  117.70    3.70   1
   4   0  -1   16.70    1.70   1
  -4   0   1   15.60    1.40   1
   4   0   0 2396.70   76.20   1
  -4   0   0 2420.90   56.20   1
   4   0   1  952.70   35.10   1
  -4   0  -1  948.90   23.40   1
   4   0   2  252.20    9.90   1
   4   0   3  404.60   14.50   1
   4   0   4    8.50    2.10   1
  -4   0  -4    8.40    1.60   1
   4   0   5   47.30    3.60   1
  -4   0  -5   39.70    2.60   1
   4   0   6  127.40    6.80   1
  -4   0  -6  121.50    4.80   1
   4   0   7   13.90    2.80   1
  -4   0  -7   13.10    1.90   1
   4   0   8   11.30    3.70   1
  -4   0  -8   13.60    2.40   1
   4   0   9  161.90   10.90   1
  -4   0  -9  147.90    7.20   1
  -4   0 -10    8.00    2.60   1
   4   1 -13    5.10    1.90   1
  -4  -1  13    5.10    2.30   1
   4   1 -12    3.50    1.60   1
  -4  -1  12    9.10    2.00   1
   4   1 -11  140.10    4.90   1
  -4  -1  11  131.20    6.20   1
   4   1 -10  247.80    7.20   1
  -4  -1  10  247.90    8.80   1
   4   1  -9   77.60    2.90   1
  -4  -1   9   79.20    3.70   1
   4   1  -8  201.30    5.30   1
  -4  -1   8  205.60    5.70   1
   4   1  -7   69.80    2.40   1
  -4  -1   7   69.50    2.00   1
   4   1  -6  119.10    3.20   1
  -4  -1   6  117.00    3.00   1
   4   1  -5    1.50    0.80   1
  -4  -1   5    0.10    1.00   1
   4   1  -4    6.00    0.80   1
  -4  -1   4    7.50    1.40   1
   4   1  -3  663.60   13.80   1
  -4  -1   3  680.00   16.10   1
   4   1  -2   27.60    1.20   1
  -4  -1   2   26.50    1.70   1
   4   1  -1   42.20    1.60   1
  -4  -1   1   44.00    2.10   1
   4   1   0  747.90   24.90   1
  -4  -1   0  749.80   18.20   1
   4   1   1  720.00   26.70   1
  -4  -1  -1  715.60   24.80   1
   4   1   2  356.50   12.90   1
  -4  -1  -2  361.10   12.90   1
   4   1   3  318.90   12.80   1
  -4  -1  -3  350.40   12.80   1
   4   1   4    5.70    2.40   1
  -4  -1  -4    0.70    1.20   1
   4   1   5    5.60    2.10   1
  -4  -1  -5   13.70    1.80   1
   4   1   6  248.80   11.60   1
  -4  -1  -6  238.60    7.80   1
   4   1   7   47.30    4.80   1
  -4  -1  -7   50.80    3.00   1
   4   1   8   92.50    7.00   1
  -4  -1  -8   85.20    4.70   1
   4   1   9   51.20    5.70   1
  -4  -1  -9   46.20    3.60   1
   4   2 -13    3.40    1.90   1
  -4  -2  13    3.50    2.40   1
   4   2 -12   20.90    1.90   1
  -4  -2  12   25.70    2.70   1
   4   2 -11   26.20    1.90   1
  -4  -2  11   26.10    2.40   1
   4   2 -10   13.20    1.50   1
  -4  -2  10   15.30    1.80   1
   4   2  -9  112.20    3.50   1
  -4  -2   9  112.00    4.30   1
   4   2  -8   24.40    1.70   1
  -4  -2   8   20.50    1.30   1
   4   2  -7  184.80    4.90   1
  -4  -2   7  190.00    4.50   1
   4   2  -6  433.50    9.60   1
  -4  -2   6  428.80    9.30   1
   4   2  -5  206.40    4.90   1
  -4  -2   5  200.50    4.50   1
   4   2  -4  134.70    3.20   1
  -4  -2   4  135.60    3.90   1
   4   2  -3   39.70    2.60   1
  -4  -2   3   34.80    1.80   1
   4   2  -2  199.60    8.00   1
  -4  -2   2  197.40    5.90   1
  -4  -2   1   35.00    1.70   1
   4   2   0  426.80   14.70   1
  -4  -2   0  464.70   18.80   1
   4   2   1 1184.60   39.90   1
  -4  -2  -1 1225.90   30.40   1
   4   2   2  367.40   14.40   1
  -4  -2  -2  389.10   10.80   1
   4   2   3  737.90   28.00   1
  -4  -2  -3  678.50   23.50   1
   4   2   4    3.50    1.70   1
  -4  -2  -4    6.00    2.60   1
   4   2   5    8.00    2.80   1
  -4  -2  -5    3.90    1.50   1
   4   2   6  188.40   10.60   1
  -4  -2  -6  195.20    7.10   1
   4   2   7  137.60    8.70   1
  -4  -2  -7  140.20    6.60   1
   4   2   8   62.50    6.20   1
  -4  -2  -8   61.70    4.00   1
   4   2   9   42.50    6.60   1
  -4  -2  -9   46.00    3.40   1
   4   3 -13    0.40    1.30   1
  -4  -3  13   -2.40    2.30   1
   4   3 -12   21.90    1.90   1
  -4  -3  12   21.60    2.40   1
   4   3 -11   69.00    3.00   1
  -4  -3  11   71.60    4.10   1
   4   3 -10   80.10    2.90   1
  -4  -3  10   75.90    3.80   1
   4   3  -9   51.30    2.20   1
  -4  -3   9   53.70    2.50   1
   4   3  -8   59.90    2.10   1
  -4  -3   8   55.10    2.00   1
   4   3  -7   74.00    2.40   1
  -4  -3   7   73.50    2.10   1
   4   3  -6   40.70    1.60   1
  -4  -3   6   43.20    1.60   1
   4   3  -5  339.00   13.80   1
  -4  -3   5  335.50    7.20   1
   4   3  -4   67.30    3.80   1
  -4  -3   4   63.70    2.40   1
   4   3  -3  149.50    6.40   1
  -4  -3   3  155.20    4.50   1
   4   3  -2    3.10    1.40   1
  -4  -3   2    0.40    1.00   1
  -4  -3   1   23.40    2.40   1
   4   3   0  679.70   22.60   1
  -4  -3   0  674.40   16.60   1
   4   3   1   47.80    2.80   1
  -4  -3  -1   48.30    2.30   1
   4   3   2  135.60    6.10   1
  -4  -3  -2  134.30    4.80   1
   4   3   3  349.90   14.70   1
  -4  -3  -3  339.60   13.80   1
   4   3   4   26.50    2.60   1
  -4  -3  -4   22.60    2.50   1
   4   3   5   21.80    2.80   1
  -4  -3  -5   21.60    1.80   1
   4   3   6  145.60    9.90   1
  -4  -3  -6  155.60    6.60   1
   4   3   7  149.40    9.20   1
  -4  -3  -7  139.90    5.90   1
   4   3   8   70.30    6.90   1
  -4  -3  -8   78.80    4.60   1
   4   4 -13    7.60    1.60   1
  -4  -4  13    3.40    2.00   1
   4   4 -12   32.60    2.20   1
  -4  -4  12   36.70    3.10   1
   4   4 -11  142.10    5.10   1
  -4  -4  11  136.80    6.40   1
   4   4 -10  117.50    3.80   1
  -4  -4  10  105.50    4.20   1
   4   4  -9   -0.60    0.80   1
  -4  -4   9   -1.60    1.30   1
   4   4  -8    4.40    1.00   1
  -4  -4   8    2.20    1.00   1
   4   4  -7    7.10    2.20   1
  -4  -4   7    8.20    0.80   1
   4   4  -6  139.20    7.70   1
  -4  -4   6  142.60    3.50   1
   4   4  -5  375.80   14.30   1
  -4  -4   5  356.30    7.40   1
   4   4  -4  396.80   15.20   1
  -4  -4   4  391.80   10.60   1
   4   4  -3  116.80    7.10   1
  -4  -4   3  115.30    3.50   1
   4   4  -2  166.80    7.80   1
  -4  -4   2  151.90    7.20   1
  -4  -4   1  610.00   14.80   1
  -4  -4   0  148.50    4.50   1
   4   4   1  200.20    8.50   1
  -4  -4  -1  196.10    6.20   1
   4   4   2    3.70    1.20   1
  -4  -4  -2    4.00    1.40   1
   4   4   3   80.60    5.10   1
  -4  -4  -3   84.40    3.50   1
   4   4   4    9.30    2.50   1
  -4  -4  -4    5.10    2.40   1
   4   4   5    2.00    2.60   1
  -4  -4  -5    2.00    1.20   1
   4   4   6  103.30    7.40   1
  -4  -4  -6  104.90    5.00   1
   4   4   7   75.80    7.70   1
  -4  -4  -7   72.90    4.40   1
   4   4   8   31.10    5.00   1
  -4  -4  -8   25.60    3.00   1
   4   5 -13   45.80    5.30   1
  -4  -5  13   49.60    3.70   1
   4   5 -12   29.30    1.90   1
  -4  -5  12   32.00    3.30   1
   4   5 -11    2.80    0.80   1
  -4  -5  11    2.70    1.60   1
   4   5 -10    5.20    2.70   1
  -4  -5  10    5.70    1.60   1
   4   5  -9   84.30    6.30   1
  -4  -5   9   81.20    3.30   1
   4   5  -8    2.70    2.20   1
  -4  -5   8    5.60    1.30   1
   4   5  -7  195.70    9.50   1
  -4  -5   7  201.70    4.40   1
   4   5  -6  798.20   29.90   1
  -4  -5   6  802.00   14.40   1
   4   5  -5   29.30    3.60   1
  -4  -5   5   38.20    1.30   1
   4   5  -4  514.30   19.70   1
  -4  -5   4  512.90   14.40   1
   4   5  -3  421.50   18.20   1
  -4  -5   3  431.80   12.70   1
  -4  -5   2   74.70    2.40   1
  -4  -5   1  369.90   10.20   1
  -4  -5   0  224.80    6.50   1
  -4  -5  -1   13.40    1.70   1
  -4  -5  -2   32.30    2.20   1
   4   5   3  293.90   13.30   1
  -4  -5  -3  279.50    9.30   1
   4   5   4    8.40    2.10   1
  -4  -5  -4    5.80    1.80   1
   4   5   5   92.10    6.80   1
  -4  -5  -5   95.20    4.90   1
   4   5   6   46.70    4.80   1
  -4  -5  -6   45.40    3.30   1
   4   5   7    7.50    3.50   1
  -4  -5  -7   11.20    2.20   1
  -4  -6  13   40.10    3.90   1
  -4  -6  12   50.30    3.90   1
   4   6 -11    5.40    2.70   1
  -4  -6  11    5.70    1.70   1
   4   6 -10   55.50    5.20   1
  -4  -6  10   50.80    2.70   1
   4   6  -9   44.10    4.60   1
  -4  -6   9   46.30    2.50   1
   4   6  -8    3.80    2.20   1
  -4  -6   8    1.00    1.20   1
   4   6  -7   11.10    2.90   1
  -4  -6   7    7.10    1.10   1
   4   6  -6  152.60    8.10   1
  -4  -6   6  151.20    3.30   1
   4   6  -5   11.10    2.50   1
  -4  -6   5   11.00    0.80   1
   4   6  -4  845.40   33.50   1
  -4  -6   4  836.70   14.50   1
   4   6  -3  233.90   10.30   1
  -4  -6   3  238.60    5.60   1
  -4  -6   2  236.50    7.00   1
  -4  -6   1  467.50   13.30   1
  -4  -6   0   26.10    1.80   1
  -4  -6  -1   45.30    2.50   1
  -4  -6  -2  343.00   11.10   1
  -4  -6  -3   46.00    2.90   1
  -4  -6  -4   82.00    4.50   1
  -4  -6  -5   15.10    2.70   1
  -4  -6  -6    6.10    1.60   1
  -4  -7  12   27.70    2.70   1
   4   7 -11   18.60    3.70   1
  -4  -7  11   12.70    2.00   1
   4   7 -10   87.50    7.60   1
  -4  -7  10   82.20    3.60   1
   4   7  -9   85.60    6.90   1
  -4  -7   9   75.60    3.30   1
   4   7  -8   20.50    3.20   1
  -4  -7   8   22.60    1.70   1
   4   7  -7   12.70    3.50   1
  -4  -7   7   10.70    1.30   1
   4   7  -6    2.20    2.20   1
  -4  -7   6   -0.60    1.00   1
   4   7  -5   14.70    2.70   1
  -4  -7   5    8.20    0.80   1
   4   7  -4  148.70    7.90   1
  -4  -7   4  150.20    3.10   1
  -4  -7   3  380.20   10.40   1
  -4  -7   2   13.80    1.20   1
  -4  -7   1   15.60    1.50   1
  -4  -7   0   48.60    2.60   1
  -4  -7  -1   64.90    3.40   1
  -4  -7  -2   63.20    3.60   1
  -4  -7  -3   49.00    3.40   1
  -4  -7  -4   31.10    3.30   1
  -4  -7  -5    3.50    1.40   1
  -4  -8  12   14.80    2.70   1
  -4  -8  11   49.00    3.30   1
   4   8 -10   54.40    5.80   1
  -4  -8  10   47.60    3.00   1
   4   8  -9  131.00    8.50   1
  -4  -8   9  124.90    4.60   1
   4   8  -8    2.30    2.30   1
  -4  -8   8    2.20    1.40   1
   4   8  -7   11.70    3.00   1
  -4  -8   7    9.50    1.30   1
   4   8  -6  109.70    7.50   1
  -4  -8   6  101.90    3.60   1
   4   8  -5   38.30    4.20   1
  -4  -8   5   42.70    1.20   1
   4   8  -4  379.90   18.40   1
  -4  -8   4  379.10    7.40   1
  -4  -8   3  201.80    4.90   1
  -4  -8   2    3.30    1.00   1
  -4  -8   1    5.40    1.20   1
  -4  -8   0   -0.50    1.30   1
  -4  -8  -1   15.00    2.00   1
  -4  -8  -2  107.70    4.90   1
  -4  -8  -3   50.80    3.20   1
  -4  -9  11   48.40    3.60   1
  -4  -9  10  111.30    5.30   1
   4   9  -9   47.70    5.40   1
  -4  -9   9   53.20    3.00   1
   4   9  -8   35.40    4.40   1
  -4  -9   8   35.10    2.40   1
   4   9  -7   72.60    6.70   1
  -4  -9   7   73.30    3.40   1
   4   9  -6   69.00    6.30   1
  -4  -9   6   66.30    2.90   1
   4   9  -5  137.60    8.50   1
  -4  -9   5  129.60    2.80   1
  -4  -9   4  108.20    3.40   1
  -4  -9   3   31.20    1.60   1
  -4  -9   2   17.10    1.40   1
  -4  -9   1   15.50    1.40   1
  -4  -9   0   13.30    1.60   1
  -4  -9  -1   13.50    1.70   1
  -4  -9  -2   33.10    2.30   1
  -4 -10  10   -2.00    3.60   1
  -4 -10   9   -0.90    1.80   1
  -4 -10   8   31.00    2.30   1
   4  10  -7   19.90    4.50   1
  -4 -10   7   18.80    2.00   1
   4  10  -6    5.10    3.50   1
  -4 -10   6    6.90    1.10   1
  -4 -10   5   23.20    1.10   1
  -4 -10   4   76.10    3.10   1
  -4 -10   3   56.90    2.60   1
  -4 -10   2   31.40    2.10   1
  -4 -10   1   46.70    2.60   1
  -4 -10   0    8.30    1.60   1
  -4 -11   7    4.40    3.00   1
  -4 -11   6   80.20    5.90   1
  -4 -11   5  107.00    6.40   1
  -4 -11   4   45.40    4.20   1
   5 -11   1   -2.20    3.50   1
  -5  11  -1    7.80    2.80   1
   5 -11   2   -6.10    4.80   1
  -5  11  -2    1.50    1.80   1
   5 -11   3   36.00    4.70   1
  -5  11  -3   38.50    3.60   1
   5 -11   4   22.50    4.20   1
  -5  11  -4   16.90    3.20   1
   5 -10  -2   27.20    5.50   1
  -5  10   2   21.70    2.70   1
   5 -10  -1   10.80    4.90   1
  -5  10   1    5.10    2.30   1
   5 -10   0   17.30    4.70   1
  -5  10   0   21.50    2.80   1
   5 -10   1   23.90    4.00   1
  -5  10  -1   17.00    2.40   1
   5 -10   2    3.10    4.10   1
  -5  10  -2    7.20    2.10   1
   5 -10   3    9.70    4.30   1
  -5  10  -3   15.60    2.30   1
   5 -10   4   14.90    4.30   1
  -5  10  -4   13.70    2.20   1
  -5  10  -5    3.10    2.20   1
  -5  10  -6   -0.50    2.90   1
  -5  10  -7   26.90    3.90   1
   5  -9  -4   -0.30    2.90   1
  -5   9   4    3.30    3.10   1
   5  -9  -3   48.90    4.10   1
  -5   9   3   46.70    3.20   1
   5  -9  -2   14.50    3.40   1
  -5   9   2   13.50    2.00   1
   5  -9  -1    9.00    4.30   1
  -5   9   1    4.10    1.40   1
   5  -9   0   29.30    4.60   1
  -5   9   0   32.80    2.90   1
   5  -9   1    3.40    2.60   1
  -5   9  -1    0.90    1.40   1
   5  -9   2    0.30    2.60   1
  -5   9  -2    5.40    2.10   1
   5  -9   3    8.80    2.70   1
  -5   9  -3   13.10    2.20   1
  -5   9  -4   12.40    2.10   1
  -5   9  -5   21.30    2.70   1
   5  -9   6   40.60    6.80   1
  -5   9  -6   36.00    2.10   1
  -5   9  -7   45.90    2.80   1
  -5   9  -8   55.80    5.60   1
   5  -8  -6    6.20    4.40   1
   5  -8  -5    0.20    0.80   1
  -5   8   5    4.60    4.20   1
   5  -8  -4    0.30    0.40   1
  -5   8   4   -1.20    1.00   1
   5  -8  -3   26.00    2.70   1
  -5   8   3   24.20    2.20   1
   5  -8  -2   31.20    5.10   1
  -5   8   2   45.80    3.00   1
   5  -8  -1   39.90    4.40   1
  -5   8   1   46.90    3.30   1
   5  -8   0   12.20    2.80   1
  -5   8   0   19.40    2.00   1
   5  -8   1    5.80    2.50   1
  -5   8  -1    1.80    1.90   1
   5  -8   2    2.00    2.20   1
  -5   8  -2    5.40    1.70   1
   5  -8   3    9.80    2.50   1
  -5   8  -3    8.20    1.80   1
  -5   8  -4   13.70    2.10   1
   5  -8   5   33.90    4.50   1
  -5   8  -5   27.70    1.50   1
   5  -8   6   14.60    5.00   1
  -5   8  -6   10.20    1.20   1
   5  -8   7   51.10    7.00   1
  -5   8  -7   46.70    2.60   1
  -5   8  -8   82.70    4.70   1
  -5   8  -9   18.30    2.90   1
   5  -7  -7   15.50    2.10   1
   5  -7  -6    1.30    1.40   1
  -5   7   6    5.60    3.00   1
   5  -7  -5   13.30    1.40   1
  -5   7   5   11.20    1.40   1
   5  -7  -4    3.20    0.60   1
  -5   7   4    2.00    1.10   1
   5  -7  -3    7.10    2.00   1
  -5   7   3    7.60    1.60   1
   5  -7  -2   71.60    5.00   1
  -5   7   2   65.90    3.40   1
   5  -7  -1   57.40    4.70   1
  -5   7   1   57.10    3.30   1
   5  -7   0  136.70    7.70   1
  -5   7   0  141.40    5.70   1
   5  -7   1   67.00    5.30   1
  -5   7  -1   69.90    3.80   1
   5  -7   2    3.10    2.40   1
  -5   7  -2    5.60    1.50   1
   5  -7   3   -5.60    3.00   1
  -5   7  -3    1.30    1.60   1
  -5   7  -4    9.10    0.80   1
   5  -7   5    4.60    2.90   1
  -5   7  -5    5.30    1.00   1
   5  -7   6   -3.90    2.90   1
  -5   7  -6    1.80    1.10   1
   5  -7   7   86.80    7.00   1
  -5   7  -7   78.00    3.50   1
   5  -7   8   69.90    6.80   1
  -5   7  -8   74.90    3.70   1
  -5   7  -9   19.10    2.80   1
   5  -6  -8   -0.40    1.60   1
   5  -6  -7    2.50    1.60   1
  -5   6   7    5.50    3.60   1
   5  -6  -6   17.60    1.70   1
  -5   6   6   16.00    3.10   1
   5  -6  -5   11.70    1.30   1
  -5   6   5    8.20    1.30   1
   5  -6  -4   11.80    1.00   1
  -5   6   4   12.40    1.50   1
   5  -6  -3  138.30    6.20   1
  -5   6   3  131.40    5.50   1
   5  -6  -2   47.40    4.80   1
  -5   6   2   50.70    3.00   1
   5  -6  -1   41.20    3.80   1
  -5   6   1   51.80    2.80   1
   5  -6   0  179.90    8.60   1
  -5   6   0  183.10    6.50   1
   5  -6   1  137.30    7.60   1
  -5   6  -1  126.90    5.00   1
   5  -6   2   64.10    5.90   1
  -5   6  -2   65.50    3.50   1
  -5   6  -3   22.90    2.30   1
   5  -6   4   26.00    3.60   1
  -5   6  -4   29.00    1.60   1
   5  -6   5  121.10    7.20   1
  -5   6  -5  116.30    3.80   1
   5  -6   6   17.70    3.30   1
  -5   6  -6   27.40    1.80   1
   5  -6   7    5.80    3.10   1
  -5   6  -7    3.90    1.50   1
   5  -6   8   65.10    7.20   1
  -5   6  -8   65.90    3.10   1
  -5   6  -9    6.00    1.80   1
  -5   6 -10   10.40    2.80   1
   5  -5  -9    1.80    2.30   1
   5  -5  -8    4.40    2.00   1
   5  -5  -7   19.10    1.80   1
  -5   5   7   17.90    3.20   1
   5  -5  -6   46.40    2.40   1
  -5   5   6   51.70    2.90   1
   5  -5  -5    2.70    1.10   1
  -5   5   5    0.30    1.10   1
   5  -5  -4   33.50    1.70   1
  -5   5   4   32.50    2.20   1
   5  -5  -3   29.30    1.30   1
  -5   5   3   29.80    2.00   1
   5  -5  -2    2.20    2.40   1
  -5   5   2    6.40    1.40   1
   5  -5  -1   53.10    5.10   1
  -5   5   1   53.00    2.70   1
   5  -5   0  111.70    7.80   1
  -5   5   0  123.20    5.10   1
   5  -5   1   15.20    2.80   1
  -5   5  -1   12.80    2.20   1
   5  -5   2   32.90    4.20   1
  -5   5  -2   37.40    2.70   1
  -5   5  -3   86.30    2.70   1
   5  -5   4   38.90    3.90   1
  -5   5  -4   41.80    2.00   1
   5  -5   5  377.80   17.00   1
  -5   5  -5  391.90    9.50   1
   5  -5   6  350.60   16.80   1
  -5   5  -6  314.30    8.90   1
   5  -5   7   53.50    5.10   1
  -5   5  -7   48.20    2.50   1
   5  -5   8   49.60    5.40   1
  -5   5  -8   46.00    2.70   1
   5  -5   9    3.60    5.20   1
  -5   5  -9    2.80    1.70   1
  -5   5 -10   19.60    2.90   1
   5  -4 -10    3.30    2.00   1
   5  -4  -9    4.40    1.90   1
   5  -4  -8   29.20    2.20   1
  -5   4   8   32.50    4.10   1
   5  -4  -7  188.40    6.20   1
  -5   4   7  198.20    5.80   1
   5  -4  -6   14.50    1.60   1
  -5   4   6   16.80    1.60   1
   5  -4  -5    7.50    1.20   1
  -5   4   5   10.90    1.60   1
   5  -4  -4    6.40    1.00   1
  -5   4   4    3.60    1.60   1
   5  -4  -3   32.90    1.60   1
  -5   4   3   36.10    2.20   1
   5  -4  -2   57.90    4.00   1
  -5   4   2   51.50    2.60   1
   5  -4  -1  118.30    5.60   1
  -5   4   1  105.60    6.90   1
   5  -4   0   -0.10    3.10   1
  -5   4   0    4.40    1.60   1
   5  -4   1   15.20    2.60   1
  -5   4  -1   14.90    0.90   1
  -5   4  -2  125.00    3.50   1
   5  -4   3   26.40    3.20   1
  -5   4  -3   28.80    2.30   1
   5  -4   4  331.30   17.10   1
  -5   4  -4  322.10   10.20   1
   5  -4   5  190.20    9.20   1
  -5   4  -5  191.30    7.10   1
   5  -4   6    2.90    2.50   1
  -5   4  -6   -1.60    1.60   1
   5  -4   7   68.10    5.50   1
  -5   4  -7   59.60    3.50   1
   5  -4   8   62.20    6.60   1
  -5   4  -8   51.60    3.80   1
   5  -4   9   10.50    4.10   1
  -5   4  -9    7.20    1.80   1
  -5   4 -10  127.80    7.20   1
   5  -3 -11    2.40    2.10   1
   5  -3 -10    1.50    1.50   1
   5  -3  -9    4.20    1.90   1
  -5   3   9    1.90    0.60   1
   5  -3  -8   32.50    2.10   1
  -5   3   8   33.30    2.00   1
   5  -3  -7  126.40    4.20   1
  -5   3   7  121.20    7.20   1
   5  -3  -6  111.20    4.00   1
  -5   3   6  121.60    6.80   1
   5  -3  -5   73.40    2.90   1
  -5   3   5   76.70    6.10   1
   5  -3  -4  223.70    6.10   1
  -5   3   4  217.10    9.80   1
   5  -3  -3  780.20   19.20   1
  -5   3   3  784.90   33.80   1
   5  -3  -2  319.70    8.60   1
  -5   3   2  317.90    8.40   1
   5  -3  -1   51.60    4.30   1
  -5   3   1   49.80    1.70   1
   5  -3   0   59.60    3.90   1
  -5   3   0   59.90    2.10   1
  -5   3  -1    5.80    0.90   1
   5  -3   2   33.70    2.90   1
  -5   3  -2   30.50    1.50   1
   5  -3   3  325.30   13.70   1
  -5   3  -3  322.80   10.10   1
   5  -3   4  571.90   21.30   1
  -5   3  -4  537.00   14.90   1
   5  -3   5    5.90    2.30   1
  -5   3  -5    8.90    1.90   1
   5  -3   6   78.80    5.30   1
  -5   3  -6   84.40    3.90   1
   5  -3   7   83.60    6.00   1
  -5   3  -7   95.60    4.40   1
   5  -3   8   30.20    4.50   1
  -5   3  -8   30.30    2.80   1
   5  -3   9  158.00   11.90   1
  -5   3  -9  149.70    7.70   1
  -5   3 -10   29.90    3.50   1
   5  -2 -11    2.40    1.60   1
  -5   2  11    1.00    1.10   1
   5  -2 -10    2.50    1.50   1
  -5   2  10    1.30    1.40   1
   5  -2  -9   27.20    2.00   1
  -5   2   9   27.30    2.00   1
   5  -2  -8    7.60    1.50   1
  -5   2   8    7.50    1.30   1
   5  -2  -7   40.80    2.10   1
  -5   2   7   42.10    4.30   1
   5  -2  -6  123.00    3.90   1
  -5   2   6  127.30    6.60   1
   5  -2  -5   58.40    2.20   1
  -5   2   5   48.50    4.50   1
   5  -2  -4  161.40    4.40   1
  -5   2   4  160.40    5.10   1
   5  -2  -3  388.10    9.20   1
  -5   2   3  397.30   11.50   1
   5  -2  -2  642.20   17.00   1
  -5   2   2  663.80   18.80   1
   5  -2  -1    2.80    2.90   1
  -5   2   1    3.40    1.10   1
   5  -2   0    3.80    2.10   1
  -5   2   0    1.40    1.10   1
  -5   2  -1  130.80    3.70   1
   5  -2   2   57.30    3.70   1
  -5   2  -2   53.70    2.30   1
   5  -2   3  660.20   23.20   1
  -5   2  -3  642.70   18.30   1
   5  -2   4  150.20    7.30   1
  -5   2  -4  148.40    5.60   1
   5  -2   5   15.80    2.70   1
  -5   2  -5   16.50    2.20   1
   5  -2   6  123.40    9.10   1
  -5   2  -6  140.50    5.50   1
   5  -2   7   39.20    4.20   1
  -5   2  -7   34.70    3.80   1
   5  -2   8   59.30    5.60   1
  -5   2  -8   60.00    5.80   1
   5  -2   9   82.30    7.60   1
  -5   2  -9   62.80    6.70   1
  -5   2 -10    8.30    3.50   1
   5  -1 -12   -0.40    2.10   1
   5  -1 -11    2.40    1.50   1
  -5   1  11    2.90    2.10   1
   5  -1 -10   23.00    2.20   1
  -5   1  10   22.70    2.50   1
   5  -1  -9   12.60    1.60   1
  -5   1   9    9.90    1.50   1
   5  -1  -8   -1.50    1.40   1
  -5   1   8    1.80    1.10   1
   5  -1  -7   68.60    2.70   1
  -5   1   7   65.40    4.30   1
   5  -1  -6   12.80    1.20   1
  -5   1   6   17.90    2.90   1
   5  -1  -5  246.00    5.90   1
  -5   1   5  236.70    6.90   1
   5  -1  -4  253.50    5.70   1
  -5   1   4  259.30    7.10   1
   5  -1  -3   18.30    1.20   1
  -5   1   3   14.90    1.50   1
   5  -1  -2  166.10    5.20   1
  -5   1   2  165.90    5.30   1
   5  -1  -1    3.10    2.00   1
  -5   1   1    2.50    1.00   1
  -5   1   0    0.70    1.00   1
   5  -1   1  154.50    6.60   1
  -5   1  -1  157.00    4.80   1
   5  -1   2  261.80   13.60   1
  -5   1  -2  273.40    8.10   1
   5  -1   3  312.50   12.70   1
  -5   1  -3  325.60    9.70   1
   5  -1   4  474.10   18.70   1
  -5   1  -4  460.80   13.10   1
   5  -1   5    2.60    1.90   1
  -5   1  -5    2.90    1.80   1
   5  -1   6    6.90    3.10   1
  -5   1  -6    3.50    2.90   1
   5  -1   7  110.90    8.70   1
  -5   1  -7  111.90    7.60   1
   5  -1   8   14.90    4.10   1
  -5   1  -8   13.30    3.90   1
   5  -1   9   53.10    6.10   1
  -5   1  -9   40.30    5.00   1
   5   0 -12   51.90    3.70   1
  -5   0  12   53.00    3.60   1
   5   0 -11   91.70    4.50   1
  -5   0  11   99.20    5.70   1
   5   0 -10   37.70    2.40   1
  -5   0  10   38.90    3.60   1
   5   0  -9    9.90    1.40   1
  -5   0   9   11.30    1.50   1
   5   0  -8   23.50    1.80   1
  -5   0   8   27.90    2.20   1
   5   0  -7    9.70    1.20   1
  -5   0   7    8.50    1.40   1
   5   0  -6   40.90    1.90   1
  -5   0   6   34.00    3.50   1
   5   0  -5  214.30    5.80   1
  -5   0   5  218.30    6.90   1
   5   0  -4   70.30    2.20   1
  -5   0   4   71.40    3.00   1
   5   0  -3  109.00    2.90   1
  -5   0   3  107.20    3.60   1
   5   0  -2  146.00    4.60   1
  -5   0   2  154.60    5.00   1
   5   0  -1   72.90    3.30   1
  -5   0   1   78.30    3.10   1
   5   0   0   33.20    2.10   1
  -5   0   0   29.80    2.10   1
   5   0   1  388.10   14.60   1
  -5   0  -1  374.40   11.80   1
   5   0   2   15.30    1.90   1
  -5   0  -2   12.70    1.70   1
   5   0   3  100.90    5.30   1
   5   0   4  765.00   27.30   1
  -5   0  -4  707.40   29.70   1
   5   0   5   -1.50    2.50   1
  -5   0  -5   -3.90    2.40   1
   5   0   6    0.40    2.70   1
  -5   0  -6    1.00    1.40   1
   5   0   7   13.20    2.90   1
  -5   0  -7   17.60    2.40   1
   5   0   8   -2.00    2.70   1
  -5   0  -8    3.10    2.50   1
   5   0   9   32.90    5.90   1
  -5   0  -9   30.70    3.40   1
   5   1 -12    3.40    1.60   1
  -5  -1  12    0.70    1.80   1
   5   1 -11    7.10    1.70   1
  -5  -1  11    7.40    1.80   1
   5   1 -10   43.30    2.50   1
  -5  -1  10   49.70    3.10   1
   5   1  -9   87.00    3.20   1
  -5  -1   9   86.70    3.30   1
   5   1  -8  100.20    3.30   1
  -5  -1   8   90.50    3.20   1
   5   1  -7  244.50    6.10   1
  -5  -1   7  250.70    8.60   1
   5   1  -6  185.00    4.70   1
  -5  -1   6  176.50    5.90   1
   5   1  -5   25.40    1.30   1
  -5  -1   5   23.90    2.10   1
   5   1  -4  152.40    3.80   1
  -5  -1   4  150.10    4.70   1
   5   1  -3   71.20    2.50   1
  -5  -1   3   69.30    2.90   1
   5   1  -2  440.50   11.70   1
  -5  -1   2  447.30   11.40   1
   5   1  -1    7.10    1.20   1
  -5  -1   1    5.70    1.30   1
   5   1   0   46.00    2.40   1
  -5  -1   0   47.80    2.70   1
   5   1   1  584.80   21.30   1
  -5  -1  -1  590.00   16.50   1
   5   1   2    2.10    1.70   1
  -5  -1  -2    0.00    1.50   1
   5   1   3  347.20   13.90   1
  -5  -1  -3  355.20   15.00   1
   5   1   4  545.30   23.90   1
  -5  -1  -4  533.00   15.90   1
   5   1   5   29.80    3.10   1
  -5  -1  -5   33.40    2.50   1
   5   1   6   61.50    6.20   1
  -5  -1  -6   81.50    4.30   1
   5   1   7   28.40    3.50   1
  -5  -1  -7   24.80    2.70   1
   5   1   8    6.40    3.30   1
  -5  -1  -8    1.30    2.00   1
   5   2 -13    2.60    1.90   1
  -5  -2  13    2.30    2.40   1
   5   2 -12    4.80    1.50   1
  -5  -2  12    3.50    2.20   1
   5   2 -11    1.40    1.20   1
  -5  -2  11    1.90    1.40   1
   5   2 -10   34.40    2.00   1
  -5  -2  10   28.70    2.60   1
   5   2  -9  186.70    5.60   1
  -5  -2   9  193.80    4.90   1
   5   2  -8   84.30    2.70   1
  -5  -2   8   80.40    2.60   1
   5   2  -7   89.80    2.80   1
  -5  -2   7   82.30    3.60   1
   5   2  -6   60.50    2.10   1
  -5  -2   6   58.00    2.90   1
   5   2  -5   66.40    2.00   1
  -5  -2   5   66.20    2.80   1
   5   2  -4   17.90    0.80   1
  -5  -2   4   15.80    1.50   1
   5   2  -3   10.00    1.80   1
  -5  -2   3    9.60    1.60   1
   5   2  -2    9.30    2.30   1
  -5  -2   2   17.40    2.00   1
   5   2  -1   15.40    1.00   1
  -5  -2   1   13.70    1.70   1
   5   2   0  477.10   17.90   1
  -5  -2   0  473.20   13.00   1
   5   2   1  129.90    6.10   1
  -5  -2  -1  128.60    6.90   1
   5   2   2  598.50   22.40   1
  -5  -2  -2  605.80   15.90   1
   5   2   3  438.00   17.70   1
  -5  -2  -3  445.80   12.70   1
   5   2   4   94.60    5.60   1
  -5  -2  -4   88.80    5.70   1
   5   2   5  221.40   11.50   1
  -5  -2  -5  225.40    8.40   1
   5   2   6   81.00    6.60   1
  -5  -2  -6   76.70    4.00   1
   5   2   7    6.10    3.60   1
  -5  -2  -7    8.20    2.10   1
   5   2   8   -1.00    4.00   1
  -5  -2  -8   -1.00    2.30   1
   5   3 -13    7.60    1.90   1
  -5  -3  13    6.60    2.20   1
   5   3 -12   24.80    2.10   1
  -5  -3  12   25.50    3.00   1
   5   3 -11   13.20    1.40   1
  -5  -3  11   10.90    2.10   1
   5   3 -10   10.20    1.30   1
  -5  -3  10   10.40    1.50   1
   5   3  -9   79.90    2.80   1
  -5  -3   9   77.90    2.60   1
   5   3  -8  165.80    4.50   1
  -5  -3   8  169.50    4.20   1
   5   3  -7   43.60    1.80   1
  -5  -3   7   47.40    1.80   1
   5   3  -6  186.80    5.40   1
  -5  -3   6  183.10    5.50   1
   5   3  -5   -0.20    2.20   1
  -5  -3   5    3.00    1.20   1
   5   3  -4   -0.20    1.70   1
  -5  -3   4    3.40    1.50   1
   5   3  -3  347.20   14.00   1
  -5  -3   3  341.20    9.40   1
   5   3  -2   22.80    2.60   1
  -5  -3   2   24.50    2.30   1
  -5  -3   1  172.10    5.50   1
   5   3   0  146.40    5.80   1
  -5  -3   0  151.50    7.50   1
   5   3   1   13.10    1.60   1
  -5  -3  -1    9.60    1.50   1
   5   3   2   10.40    1.80   1
  -5  -3  -2   13.00    1.40   1
   5   3   3    0.60    1.70   1
  -5  -3  -3    0.80    1.40   1
   5   3   4  259.60   12.00   1
  -5  -3  -4  261.60    8.70   1
   5   3   5   91.90    6.90   1
  -5  -3  -5  100.60    4.90   1
   5   3   6  137.80    9.50   1
  -5  -3  -6  133.50    6.30   1
   5   3   7   89.40    7.30   1
  -5  -3  -7   73.30    4.60   1
   5   4 -13    8.20    3.70   1
  -5  -4  13   11.20    2.90   1
   5   4 -12   11.50    1.50   1
  -5  -4  12    9.50    1.90   1
   5   4 -11   14.20    1.50   1
  -5  -4  11   14.90    1.90   1
   5   4 -10    1.10    1.00   1
  -5  -4  10   -0.10    1.20   1
   5   4  -9  176.60    5.00   1
  -5  -4   9  166.70    4.30   1
   5   4  -8  196.70   12.70   1
  -5  -4   8  197.50    4.60   1
   5   4  -7  289.50   14.50   1
  -5  -4   7  271.00    6.70   1
   5   4  -6  404.20   16.80   1
  -5  -4   6  389.30   11.20   1
   5   4  -5   85.40    5.30   1
  -5  -4   5   82.00    3.30   1
   5   4  -4    3.10    2.90   1
  -5  -4   4    8.30    1.90   1
   5   4  -3  394.50   15.10   1
  -5  -4   3  403.70   11.30   1
  -5  -4   2  188.30    5.80   1
  -5  -4   1  208.60   10.00   1
  -5  -4   0  153.10    4.80   1
   5   4   1   -0.90    1.20   1
  -5  -4  -1    0.70    1.10   1
   5   4   2    0.70    1.50   1
  -5  -4  -2    2.00    1.30   1
   5   4   3  118.10    6.80   1
  -5  -4  -3  117.20    5.00   1
   5   4   4   13.70    2.30   1
  -5  -4  -4   15.10    1.90   1
   5   4   5   66.60    6.00   1
  -5  -4  -5   65.40    3.10   1
   5   4   6   34.30    5.10   1
  -5  -4  -6   30.60    2.40   1
   5   4   7    0.90    2.90   1
  -5  -4  -7    3.10    2.10   1
   5   5 -13   13.30    2.70   1
   5   5 -12   12.90    1.50   1
  -5  -5  12   18.20    2.50   1
   5   5 -11    7.80    4.20   1
  -5  -5  11    1.30    1.40   1
   5   5 -10    2.40    2.30   1
  -5  -5  10    1.20    1.40   1
   5   5  -9  136.00    9.10   1
  -5  -5   9  129.40    4.60   1
   5   5  -8   44.80    4.50   1
  -5  -5   8   40.30    1.50   1
   5   5  -7  217.50   10.80   1
  -5  -5   7  199.70    4.70   1
   5   5  -6  259.90   11.50   1
  -5  -5   6  257.70    8.40   1
   5   5  -5   -4.30    2.80   1
  -5  -5   5    0.40    1.40   1
   5   5  -4    7.60    3.10   1
  -5  -5   4    6.10    1.80   1
   5   5  -3  393.60   16.30   1
  -5  -5   3  399.60   11.50   1
  -5  -5   2  407.80   17.10   1
  -5  -5   1  226.10    6.50   1
  -5  -5   0  103.60    3.80   1
  -5  -5  -1    3.40    1.20   1
  -5  -5  -2  155.40    6.10   1
  -5  -5  -3  123.80    5.30   1
   5   5   4   53.80    4.90   1
  -5  -5  -4   51.80    3.30   1
   5   5   5   18.90    3.80   1
  -5  -5  -5   15.20    1.90   1
   5   5   6    5.50    4.10   1
  -5  -5  -6    4.60    1.60   1
  -5  -6  12    8.90    2.20   1
   5   6 -11   37.30    4.60   1
  -5  -6  11   35.60    2.50   1
   5   6 -10   24.40    3.80   1
  -5  -6  10   23.10    2.30   1
   5   6  -9  102.90    7.50   1
  -5  -6   9  117.60    4.20   1
   5   6  -8  167.20    9.60   1
  -5  -6   8  162.10    5.00   1
   5   6  -7   56.30    4.90   1
  -5  -6   7   52.00    1.60   1
   5   6  -6   27.30    3.90   1
  -5  -6   6   25.10    1.60   1
   5   6  -5    5.40    3.20   1
  -5  -6   5    8.60    1.50   1
   5   6  -4    8.40    3.30   1
  -5  -6   4    9.90    1.60   1
  -5  -6   3  378.60   11.30   1
  -5  -6   2  267.70   12.70   1
  -5  -6   1  174.80    5.80   1
  -5  -6   0  249.30    8.40   1
  -5  -6  -1   57.60    3.00   1
  -5  -6  -2   46.40    3.10   1
  -5  -6  -3   97.10    5.40   1
  -5  -6  -4   16.80    2.80   1
  -5  -6  -5    3.80    1.60   1
  -5  -7  12    7.40    1.70   1
  -5  -7  11   14.40    2.10   1
   5   7 -10   70.30    6.60   1
  -5  -7  10   62.80    3.30   1
   5   7  -9   79.00    6.60   1
  -5  -7   9   69.00    3.10   1
   5   7  -8    5.90    2.60   1
  -5  -7   8    0.80    0.90   1
   5   7  -7   30.60    3.50   1
  -5  -7   7   35.50    1.40   1
   5   7  -6  142.30    9.10   1
  -5  -7   6  131.20    4.30   1
   5   7  -5    6.80    2.60   1
  -5  -7   5   -0.40    1.10   1
   5   7  -4   63.10    5.20   1
  -5  -7   4   58.50    3.00   1
  -5  -7   3   51.20    4.80   1
  -5  -7   2   -0.20    0.70   1
  -5  -7   1   67.80    3.00   1
  -5  -7   0   73.60    3.70   1
  -5  -7  -1   52.60    3.00   1
  -5  -7  -2   39.70    3.10   1
  -5  -7  -3    5.10    2.00   1
  -5  -8  11   64.40    5.10   1
  -5  -8  10   91.10    4.60   1
   5   8  -9   39.30    4.90   1
  -5  -8   9   38.30    2.40   1
   5   8  -8   58.50    5.60   1
  -5  -8   8   59.50    2.70   1
   5   8  -7  101.20    7.60   1
  -5  -8   7   87.50    2.30   1
   5   8  -6   35.40    4.00   1
  -5  -8   6   36.50    1.40   1
   5   8  -5   52.80    5.00   1
  -5  -8   5   46.60    2.30   1
  -5  -8   4    7.90    1.40   1
  -5  -8   3    2.70    0.40   1
  -5  -8   2   44.60    2.30   1
  -5  -8   1   34.40    2.10   1
  -5  -8   0   54.50    3.30   1
  -5  -8  -1   41.20    3.30   1
  -5  -8  -2   45.90    3.50   1
  -5  -9  10   41.90    4.80   1
  -5  -9   9   27.70    3.40   1
  -5  -9   8   14.90    3.70   1
   5   9  -7   10.40    4.70   1
  -5  -9   7   19.10    0.90   1
   5   9  -6    7.90    2.90   1
  -5  -9   6   13.20    0.90   1
   5   9  -5   52.20    5.40   1
  -5  -9   5   48.30    2.10   1
  -5  -9   4   58.00    1.70   1
  -5  -9   3   47.30    1.80   1
  -5  -9   2   37.40    2.00   1
  -5  -9   1   50.60    3.10   1
  -5  -9   0   24.10    2.50   1
  -5 -10   8    4.70    3.20   1
  -5 -10   7   47.90    3.90   1
  -5 -10   6   24.10    3.50   1
  -5 -10   5   14.20    2.90   1
  -5 -10   4   35.90    2.70   1
  -5 -10   3   21.20    2.20   1
  -6  10   1    4.90    2.60   1
  -6  10   0   16.80    2.70   1
   6 -10   1   42.00    5.70   1
  -6  10  -1   41.60    3.70   1
   6 -10   2    8.70    3.80   1
  -6  10  -2   14.30    2.80   1
   6 -10   3   10.70    3.60   1
  -6  10  -3    5.20    2.30   1
  -6  10  -4    8.30    3.90   1
   6  -9  -3    1.30    4.30   1
  -6   9   3    2.50    1.80   1
   6  -9  -2    1.10    3.00   1
  -6   9   2    0.20    1.40   1
   6  -9  -1   -2.60    3.30   1
  -6   9   1    0.20    1.80   1
   6  -9   0    7.40    3.40   1
  -6   9   0    4.90    2.00   1
   6  -9   1   23.10    4.20   1
  -6   9  -1   23.00    2.90   1
   6  -9   2   11.30    3.40   1
  -6   9  -2   17.10    2.40   1
   6  -9   3   11.90    4.50   1
  -6   9  -3    5.20    1.90   1
  -6   9  -4    6.90    2.10   1
  -6   9  -5   32.30    4.90   1
  -6   9  -6   22.30    4.00   1
   6  -8  -5    2.90    3.30   1
  -6   8   5    8.60    3.40   1
   6  -8  -4   -4.60    3.50   1
  -6   8   4    0.90    1.60   1
   6  -8  -3    1.00    2.20   1
  -6   8   3   -0.60    1.60   1
   6  -8  -2   22.80    4.20   1
  -6   8   2   21.60    2.50   1
   6  -8  -1    4.00    3.20   1
  -6   8   1   10.40    2.00   1
   6  -8   0   17.60    4.40   1
  -6   8   0    8.70    2.10   1
   6  -8   1    9.60    3.30   1
  -6   8  -1   10.90    1.90   1
   6  -8   2   11.50    4.20   1
  -6   8  -2    7.70    1.80   1
  -6   8  -3   11.90    2.10   1
  -6   8  -4   -1.10    1.80   1
   6  -8   5   16.90    5.10   1
  -6   8  -5    4.40    2.10   1
   6  -8   6   16.80    4.60   1
  -6   8  -6   16.30    1.80   1
  -6   8  -7   -0.10    2.70   1
   6  -7  -6    8.80    4.30   1
  -6   7   6    8.30    4.80   1
   6  -7  -5    9.40    2.60   1
  -6   7   5    7.60    1.70   1
   6  -7  -4    8.00    2.10   1
  -6   7   4    8.40    1.80   1
   6  -7  -3   24.40    2.70   1
  -6   7   3   21.30    2.50   1
   6  -7  -2   17.30    4.30   1
  -6   7   2   11.70    1.90   1
   6  -7  -1   39.30    4.10   1
  -6   7   1   35.10    3.00   1
   6  -7   0  117.40    7.20   1
  -6   7   0  111.40    5.40   1
   6  -7   1   65.90    5.30   1
  -6   7  -1   68.70    4.00   1
   6  -7   2   32.40    3.90   1
  -6   7  -2   26.00    2.70   1
  -6   7  -3   11.10    2.60   1
   6  -7   4    3.70    3.20   1
  -6   7  -4    2.50    2.00   1
   6  -7   5   -0.60    3.10   1
  -6   7  -5   -0.70    0.70   1
   6  -7   6    5.10    4.80   1
  -6   7  -6   -1.00    1.20   1
   6  -7   7    2.60    3.70   1
  -6   7  -7    5.80    1.90   1
  -6   7  -8   10.00    2.50   1
   6  -6  -8   -3.20    4.00   1
  -6   6   8   -0.40    4.40   1
   6  -6  -7    1.80    1.60   1
  -6   6   7   -4.70    3.20   1
   6  -6  -6   11.60    1.40   1
  -6   6   6   10.70    1.50   1
   6  -6  -5    1.70    0.90   1
  -6   6   5    5.60    1.70   1
   6  -6  -4   13.60    2.70   1
  -6   6   4   12.70    1.90   1
   6  -6  -3    7.30    2.10   1
  -6   6   3    5.20    1.60   1
   6  -6  -2   46.80    4.90   1
  -6   6   2   38.50    2.80   1
   6  -6  -1  113.80    7.20   1
  -6   6   1  119.70    5.50   1
   6  -6   0   33.40    4.60   1
  -6   6   0   34.50    2.90   1
   6  -6   1   66.60    5.10   1
  -6   6  -1   60.10    3.30   1
   6  -6   2   47.30    4.80   1
  -6   6  -2   46.50    3.30   1
  -6   6  -3   12.60    2.20   1
   6  -6   4   99.60    8.50   1
  -6   6  -4   97.50    2.80   1
   6  -6   5  172.70   12.00   1
  -6   6  -5  176.90    5.60   1
   6  -6   6   45.30    5.80   1
  -6   6  -6   36.50    2.40   1
   6  -6   7    3.60    3.40   1
  -6   6  -7   -2.80    1.40   1
  -6   6  -8   -0.40    2.00   1
   6  -5  -9    9.30    2.40   1
   6  -5  -8    3.40    2.00   1
  -6   5   8    1.70    2.90   1
   6  -5  -7    1.30    1.30   1
  -6   5   7    0.10    1.10   1
   6  -5  -6    4.00    1.30   1
  -6   5   6    2.50    1.10   1
   6  -5  -5   -0.70    1.00   1
  -6   5   5   -3.00    1.40   1
   6  -5  -4   17.80    1.10   1
  -6   5   4   19.10    2.10   1
   6  -5  -3   -0.90    2.30   1
  -6   5   3   -1.20    1.20   1
   6  -5  -2  158.00   10.00   1
  -6   5   2  171.00    6.70   1
   6  -5  -1  112.40    6.60   1
  -6   5   1  107.10    4.60   1
   6  -5   0   50.50    4.30   1
  -6   5   0   47.70    3.00   1
   6  -5   1   57.70    4.60   1
  -6   5  -1   54.30    3.40   1
  -6   5  -2    0.10    0.50   1
   6  -5   3   22.70    4.10   1
  -6   5  -3   15.40    1.00   1
   6  -5   4  161.90   10.10   1
  -6   5  -4  173.20    4.60   1
   6  -5   5   44.80    5.50   1
  -6   5  -5   48.20    2.50   1
   6  -5   6   29.20    4.70   1
  -6   5  -6   20.40    2.00   1
   6  -5   7   32.20    5.60   1
  -6   5  -7   31.70    2.30   1
   6  -5   8   -1.50    3.20   1
  -6   5  -8    3.40    1.70   1
   6  -4  -9   22.50    2.20   1
  -6   4   9   23.60    4.70   1
   6  -4  -8   31.70    2.50   1
  -6   4   8   31.80    1.90   1
   6  -4  -7   11.30    1.60   1
  -6   4   7    9.40    1.60   1
   6  -4  -6   14.10    1.30   1
  -6   4   6   18.00    1.90   1
   6  -4  -5   26.80    1.80   1
  -6   4   5   23.60    2.00   1
   6  -4  -4    0.00    0.70   1
  -6   4   4    0.80    1.40   1
   6  -4  -3    0.80    0.70   1
  -6   4   3   -0.20    1.60   1
   6  -4  -2   79.60    5.50   1
  -6   4   2   74.20    3.50   1
   6  -4  -1   98.60    6.10   1
  -6   4   1  103.80    4.50   1
   6  -4   0    7.40    2.40   1
  -6   4   0    5.30    0.70   1
  -6   4  -1   15.00    1.10   1
  -6   4  -2   -0.50    0.90   1
   6  -4   3    3.40    2.50   1
  -6   4  -3    4.00    0.90   1
   6  -4   4  196.30    9.80   1
  -6   4  -4  192.40    7.80   1
   6  -4   5   27.20    4.20   1
  -6   4  -5   27.30    2.60   1
   6  -4   6   10.20    2.90   1
  -6   4  -6   13.90    2.60   1
   6  -4   7   54.40    5.30   1
  -6   4  -7   49.40    4.10   1
   6  -4   8   23.50    5.40   1
  -6   4  -8   23.40    3.10   1
  -6   4  -9   33.80    3.40   1
   6  -3 -10    6.10    1.70   1
   6  -3  -9   32.30    2.40   1
  -6   3   9   33.70    2.50   1
   6  -3  -8    1.10    1.30   1
  -6   3   8   -0.10    3.00   1
   6  -3  -7    3.40    1.40   1
  -6   3   7    1.20    2.90   1
   6  -3  -6   28.20    1.80   1
  -6   3   6   30.60    4.00   1
   6  -3  -5    4.10    1.10   1
  -6   3   5    9.10    2.40   1
   6  -3  -4  362.10    8.70   1
  -6   3   4  364.90   16.00   1
   6  -3  -3  314.50    8.70   1
  -6   3   3  315.60    9.80   1
   6  -3  -2   95.10    5.60   1
  -6   3   2   89.70    3.30   1
   6  -3  -1  180.90    9.20   1
  -6   3   1  177.60    4.80   1
   6  -3   0   10.10    2.70   1
  -6   3   0    5.30    1.10   1
  -6   3  -1    8.30    1.10   1
   6  -3   2   16.70    3.10   1
  -6   3  -2    9.20    1.20   1
   6  -3   3   11.80    2.40   1
  -6   3  -3   13.10    1.50   1
   6  -3   4   47.80    4.90   1
  -6   3  -4   52.10    3.40   1
   6  -3   5  235.40   14.50   1
  -6   3  -5  254.50    9.00   1
   6  -3   6   32.50    3.90   1
  -6   3  -6   25.90    2.60   1
   6  -3   7   83.40    6.90   1
  -6   3  -7   75.60    4.70   1
   6  -3   8  106.20    9.30   1
  -6   3  -8  101.60    6.10   1
  -6   3  -9    0.00    4.30   1
   6  -2 -11    4.60    2.00   1
   6  -2 -10    6.60    1.90   1
  -6   2  10   15.80    2.10   1
   6  -2  -9    8.10    1.60   1
  -6   2   9   10.00    1.70   1
   6  -2  -8    4.90    1.40   1
  -6   2   8    4.70    2.20   1
   6  -2  -7   15.70    1.50   1
  -6   2   7   17.10    2.70   1
   6  -2  -6   -0.20    1.00   1
  -6   2   6   -4.50    2.70   1
   6  -2  -5  113.40    3.70   1
  -6   2   5  115.40    4.40   1
   6  -2  -4  118.90    3.60   1
  -6   2   4  111.40    4.60   1
   6  -2  -3   11.20    1.60   1
  -6   2   3    9.00    1.50   1
   6  -2  -2  183.80   10.30   1
  -6   2   2  193.40    6.10   1
   6  -2  -1  208.60   10.20   1
  -6   2   1  199.10    6.30   1
  -6   2   0    9.70    1.20   1
   6  -2   1  484.20   19.10   1
  -6   2  -1  464.50   11.00   1
   6  -2   2  134.00    7.70   1
  -6   2  -2  137.40    4.30   1
   6  -2   3  190.50    8.90   1
  -6   2  -3  186.40    5.50   1
   6  -2   4   71.60    5.10   1
  -6   2  -4   65.10    3.80   1
   6  -2   5  166.50    9.80   1
  -6   2  -5  158.00    6.60   1
   6  -2   6   22.70    4.10   1
  -6   2  -6   33.30    3.20   1
   6  -2   7  323.20   19.50   1
  -6   2  -7  320.60   13.40   1
   6  -2   8   27.50    4.50   1
  -6   2  -8   25.00    3.30   1
   6  -1 -11    4.70    2.00   1
  -6   1  11    4.50    2.10   1
   6  -1 -10    2.80    1.50   1
  -6   1  10    0.50    1.70   1
   6  -1  -9    1.30    1.40   1
  -6   1   9    1.70    1.40   1
   6  -1  -8    1.00    1.00   1
  -6   1   8    4.70    2.10   1
   6  -1  -7   -2.10    1.00   1
   6  -1  -6   48.90    2.20   1
  -6   1   6   43.40    2.50   1
   6  -1  -5   86.10    2.80   1
  -6   1   5   76.70    3.10   1
   6  -1  -4   20.00    1.40   1
  -6   1   4   22.30    2.00   1
   6  -1  -3   73.40    2.70   1
  -6   1   3   72.20    3.00   1
   6  -1  -2  124.30    7.90   1
  -6   1   2  122.20    5.10   1
  -6   1   1  212.60    6.90   1
   6  -1   0  105.90    5.30   1
  -6   1   0  121.70    4.40   1
   6  -1   1  167.20    9.20   1
  -6   1  -1  161.90    5.50   1
   6  -1   2    0.00    2.30   1
  -6   1  -2    6.10    1.40   1
   6  -1   3   40.50    3.20   1
  -6   1  -3   38.40    2.10   1
   6  -1   4   31.40    3.80   1
  -6   1  -4   32.20    2.80   1
   6  -1   5    2.00    1.90   1
  -6   1  -5    6.50    1.80   1
   6  -1   6   58.10    5.80   1
  -6   1  -6   52.50    3.60   1
   6  -1   7  157.40   11.00   1
  -6   1  -7  167.70   11.80   1
   6  -1   8   13.20    4.00   1
  -6   1  -8    7.70    4.50   1
   6   0 -12   31.90    2.70   1
  -6   0  12   43.30    4.30   1
   6   0 -11   44.70    3.20   1
  -6   0  11   49.40    4.80   1
   6   0 -10    0.50    1.30   1
  -6   0  10    1.60    1.80   1
   6   0  -9    7.00    1.30   1
  -6   0   9    4.60    1.60   1
   6   0  -8   27.20    1.90   1
  -6   0   8   30.30    3.60   1
   6   0  -7   21.40    1.50   1
  -6   0   7   16.90    1.80   1
   6   0  -6  131.20    4.10   1
  -6   0   6  131.50    5.20   1
   6   0  -5   33.10    1.70   1
  -6   0   5   35.10    2.70   1
   6   0  -4  109.90    3.20   1
  -6   0   4  110.10    4.30   1
   6   0  -3  147.30    3.80   1
  -6   0   3  145.30    5.00   1
  -6   0   2   66.40    3.00   1
   6   0  -1   85.10    4.90   1
  -6   0   1   84.80    3.30   1
   6   0   0  123.50    5.70   1
  -6   0   0  119.60    4.40   1
   6   0   1  102.90    5.20   1
  -6   0  -1   96.10    4.20   1
   6   0   2    4.50    2.20   1
  -6   0  -2   10.10    1.60   1
   6   0   3   29.10    2.70   1
  -6   0  -3   29.20    2.00   1
   6   0   4   11.80    2.60   1
  -6   0  -4   10.60    1.40   1
   6   0   5   55.20    4.70   1
  -6   0  -5   58.90    5.30   1
   6   0   6  133.90    8.80   1
  -6   0  -6  130.80    8.60   1
   6   0   7   50.20    5.30   1
  -6   0  -7   60.50    5.80   1
   6   0   8   29.90    5.70   1
  -6   0  -8   18.50    3.90   1
   6   1 -12    4.80    1.70   1
  -6  -1  12    1.50    3.00   1
   6   1 -11    9.90    1.80   1
  -6  -1  11    8.60    3.30   1
   6   1 -10   -0.80    1.20   1
  -6  -1  10    0.60    1.80   1
   6   1  -9    3.60    1.40   1
  -6  -1   9    2.00    1.30   1
   6   1  -8   27.40    1.70   1
  -6  -1   8   24.70    2.30   1
   6   1  -7  133.70    4.00   1
  -6  -1   7  129.90    5.20   1
   6   1  -6  256.70    6.10   1
  -6  -1   6  253.40    7.80   1
   6   1  -5  141.00    3.70   1
  -6  -1   5  145.20    5.00   1
   6   1  -4   14.70    1.20   1
  -6  -1   4   17.70    2.10   1
   6   1  -3   11.80    0.70   1
  -6  -1   3   13.40    1.80   1
   6   1  -2  140.90    4.20   1
  -6  -1   2  144.00    5.00   1
   6   1  -1   44.00    2.30   1
  -6  -1   1   42.50    2.60   1
   6   1   0  336.80   13.70   1
  -6  -1   0  347.30   10.40   1
   6   1   1  290.00   11.90   1
  -6  -1  -1  308.00    8.80   1
   6   1   2  197.60    8.70   1
  -6  -1  -2  190.20    6.60   1
   6   1   3   27.90    2.50   1
  -6  -1  -3   24.30    2.70   1
   6   1   4   23.30    3.10   1
  -6  -1  -4   27.20    2.90   1
   6   1   5  138.30    8.50   1
  -6  -1  -5  149.00    9.50   1
   6   1   6   35.60    4.00   1
  -6  -1  -6   37.90    4.60   1
   6   1   7   63.90    7.30   1
  -6  -1  -7   60.10    6.50   1
   6   2 -12   22.70    2.60   1
  -6  -2  12   23.10    3.50   1
   6   2 -11   20.40    1.90   1
  -6  -2  11   29.40    4.20   1
   6   2 -10   -2.10    1.10   1
  -6  -2  10    3.00    1.40   1
   6   2  -9    2.00    1.20   1
  -6  -2   9    1.60    1.20   1
   6   2  -8   40.80    1.90   1
  -6  -2   8   37.30    2.60   1
   6   2  -7    1.60    1.00   1
  -6  -2   7    4.40    1.40   1
   6   2  -6  300.60    7.00   1
  -6  -2   6  299.90    9.20   1
   6   2  -5  372.80    9.70   1
  -6  -2   5  367.40   11.10   1
   6   2  -4   31.40    3.00   1
  -6  -2   4   32.50    2.30   1
   6   2  -3    4.10    2.60   1
  -6  -2   3   -0.10    1.40   1
  -6  -2   2    6.90    1.60   1
   6   2  -1   30.10    1.50   1
  -6  -2   1   29.00    2.60   1
   6   2   0   67.50    3.80   1
  -6  -2   0   69.50    3.10   1
   6   2   1   87.20    4.50   1
  -6  -2  -1   90.40    3.70   1
   6   2   2   43.60    3.10   1
  -6  -2  -2   44.10    4.30   1
   6   2   3   64.60    4.00   1
  -6  -2  -3   60.90    4.90   1
   6   2   4  280.40   14.20   1
  -6  -2  -4  273.70   13.90   1
   6   2   5   84.60    6.20   1
  -6  -2  -5   72.30    4.30   1
   6   2   6  104.70    7.90   1
  -6  -2  -6   96.00    5.50   1
   6   2   7   73.40    7.20   1
  -6  -2  -7   76.70    5.20   1
   6   3 -12   20.00    2.00   1
  -6  -3  12   18.60    2.70   1
   6   3 -11   46.70    2.60   1
  -6  -3  11   39.20    2.70   1
   6   3 -10    7.10    1.40   1
  -6  -3  10    7.80    1.60   1
   6   3  -9    4.50    1.10   1
  -6  -3   9    2.10    1.40   1
   6   3  -8   69.60    2.50   1
  -6  -3   8   67.40    3.60   1
   6   3  -7    5.80    1.00   1
  -6  -3   7    4.70    1.50   1
   6   3  -6  504.30   20.30   1
  -6  -3   6  464.70   13.70   1
   6   3  -5  307.10   12.80   1
  -6  -3   5  287.10    8.90   1
   6   3  -4   -1.70    1.90   1
  -6  -3   4    1.90    1.90   1
   6   3  -3   65.10    4.20   1
  -6  -3   3   65.70    3.30   1
  -6  -3   2   83.00    3.70   1
  -6  -3   1    2.90    1.70   1
   6   3   0  123.00    5.20   1
  -6  -3   0  119.60    4.50   1
   6   3   1   -0.10    1.00   1
  -6  -3  -1    0.40    2.80   1
   6   3   2  116.60    5.80   1
  -6  -3  -2  121.50    7.10   1
   6   3   3   91.30    5.90   1
  -6  -3  -3   98.10    7.10   1
   6   3   4   95.50    6.50   1
  -6  -3  -4   91.80    4.60   1
   6   3   5   79.00    6.20   1
  -6  -3  -5   73.60    3.80   1
   6   3   6   94.60    7.60   1
  -6  -3  -6   90.20    4.30   1
   6   4 -12   -1.80    2.60   1
  -6  -4  12   -0.30    1.70   1
   6   4 -11    1.50    1.20   1
  -6  -4  11    1.70    1.60   1
   6   4 -10    1.00    1.30   1
  -6  -4  10    0.80    1.00   1
   6   4  -9   18.00    3.10   1
  -6  -4   9   14.70    1.60   1
   6   4  -8  216.00   11.60   1
  -6  -4   8  200.70    7.60   1
   6   4  -7  315.60   14.90   1
  -6  -4   7  292.00    9.90   1
   6   4  -6  131.20    7.70   1
  -6  -4   6  136.70    5.20   1
   6   4  -5  273.40   13.70   1
  -6  -4   5  259.40    8.80   1
   6   4  -4   68.00    5.20   1
  -6  -4   4   74.80    3.70   1
   6   4  -3   31.30    3.30   1
  -6  -4   3   34.50    2.20   1
  -6  -4   2   78.30    3.60   1
  -6  -4   1    3.00    1.70   1
  -6  -4   0    7.80    2.20   1
  -6  -4  -1   26.60    3.40   1
   6   4   2  114.90    7.00   1
  -6  -4  -2  117.30    5.00   1
   6   4   3   73.50    5.00   1
  -6  -4  -3   71.10    3.90   1
   6   4   4   68.70    5.70   1
  -6  -4  -4   63.60    4.10   1
   6   4   5   91.20    7.20   1
  -6  -4  -5   70.10    3.60   1
  -6  -5  12    8.20    1.70   1
  -6  -5  11   -2.80    2.80   1
   6   5 -10    9.60    3.10   1
  -6  -5  10    8.50    1.50   1
   6   5  -9   22.60    3.60   1
  -6  -5   9   22.00    1.70   1
   6   5  -8    6.40    2.50   1
  -6  -5   8    8.80    1.30   1
   6   5  -7   29.10    3.40   1
  -6  -5   7   30.20    2.10   1
   6   5  -6   62.20    5.30   1
  -6  -5   6   44.50    2.70   1
   6   5  -5  285.90   13.20   1
  -6  -5   5  286.80    9.60   1
   6   5  -4   75.00    5.40   1
  -6  -5   4   67.00    3.30   1
  -6  -5   3  317.40   10.20   1
  -6  -5   2   83.30    4.10   1
  -6  -5   1    4.40    1.70   1
  -6  -5   0   95.60    6.60   1
  -6  -5  -1  110.30    4.60   1
  -6  -5  -2  108.30    5.00   1
  -6  -5  -3   50.70    3.50   1
  -6  -5  -4    8.20    2.20   1
  -6  -6  11   14.50    2.90   1
   6   6 -10   30.30    4.40   1
  -6  -6  10   25.90    1.90   1
   6   6  -9   29.60    4.10   1
  -6  -6   9   29.60    3.20   1
   6   6  -8    4.60    3.70   1
  -6  -6   8    7.10    1.10   1
   6   6  -7    2.90    2.50   1
  -6  -6   7    2.90    1.10   1
   6   6  -6    7.30    2.70   1
  -6  -6   6    8.60    1.50   1
   6   6  -5   18.90    3.50   1
  -6  -6   5   15.20    1.80   1
   6   6  -4  107.40    7.80   1
  -6  -6   4  117.90    4.90   1
  -6  -6   3   27.30    2.50   1
  -6  -6   2    2.80    1.50   1
  -6  -6   1   48.70    5.40   1
  -6  -6   0   59.40    5.70   1
  -6  -6  -1   48.30    3.20   1
  -6  -6  -2   50.80    3.50   1
  -6  -6  -3   16.70    2.70   1
  -6  -7  11   22.20    3.80   1
  -6  -7  10   45.30    4.30   1
   6   7  -9   24.10    5.40   1
  -6  -7   9   28.30    3.70   1
   6   7  -8    4.70    3.60   1
  -6  -7   8    1.70    0.60   1
   6   7  -7   86.20    6.70   1
  -6  -7   7   86.10    4.00   1
   6   7  -6   71.60    5.80   1
  -6  -7   6   67.80    3.40   1
   6   7  -5   40.50    5.10   1
  -6  -7   5   30.70    2.50   1
  -6  -7   4   29.30    2.60   1
  -6  -7   3    2.80    2.60   1
  -6  -7   2    8.90    2.50   1
  -6  -7   1    1.80    2.60   1
  -6  -7   0   40.20    2.60   1
  -6  -7  -1   90.20    8.40   1
  -6  -7  -2   48.90    5.90   1
  -6  -8  10   54.30    4.80   1
  -6  -8   9   54.70    4.20   1
  -6  -8   8   14.70    3.20   1
  -6  -8   7   51.40    2.00   1
   6   8  -6   79.50    7.00   1
  -6  -8   6   80.70    3.70   1
   6   8  -5    9.00    3.50   1
  -6  -8   5   15.00    1.90   1
  -6  -8   4   -1.60    1.70   1
  -6  -8   3   21.30    2.50   1
  -6  -8   2   29.20    4.30   1
  -6  -8   1   42.10    5.40   1
  -6  -8   0   37.70    4.90   1
  -6  -9   8    2.10    2.70   1
  -6  -9   7    5.10    3.50   1
  -6  -9   6   22.70    3.60   1
  -6  -9   5   21.40    3.50   1
  -6  -9   4   10.20    2.10   1
  -6  -9   3    7.10    2.30   1
  -7   9   1    0.00    2.20   1
  -7   9   0    0.80    2.30   1
  -7   9  -1    4.40    2.90   1
  -7   9  -2    4.30    2.50   1
  -7   9  -3    3.00    3.00   1
   7  -8  -4    3.80    4.70   1
  -7   8   4    0.60    4.40   1
   7  -8  -3    6.30    4.10   1
  -7   8   3    2.60    1.80   1
  -7   8   2    4.20    2.30   1
   7  -8  -1   10.50    4.00   1
  -7   8   1   11.30    2.20   1
   7  -8   0    8.60    4.90   1
  -7   8   0   14.90    2.70   1
   7  -8   1    2.80    4.70   1
  -7   8  -1    1.60    3.90   1
   7  -8   2    7.20    3.50   1
  -7   8  -2    5.30    2.40   1
  -7   8  -3    0.50    1.90   1
  -7   8  -4   -1.40    4.10   1
  -7   8  -5   -3.20    3.20   1
   7  -7  -5   16.90    4.70   1
  -7   7   5   16.00    2.60   1
   7  -7  -4   21.60    4.60   1
  -7   7   4   19.30    2.70   1
   7  -7  -3   -0.10    2.00   1
  -7   7   3    2.20    1.60   1
   7  -7  -2   -4.10    2.90   1
  -7   7   2   -3.80    2.20   1
   7  -7  -1   14.80    3.80   1
  -7   7   1   17.50    2.50   1
   7  -7   0   36.90    4.60   1
  -7   7   0   27.10    2.70   1
   7  -7   1   56.50    6.40   1
  -7   7  -1   62.90    4.10   1
  -7   7  -2   31.00    3.10   1
  -7   7  -3    8.00    2.20   1
   7  -7   4   14.10    3.90   1
  -7   7  -4   13.60    3.00   1
   7  -7   5    4.50    4.80   1
  -7   7  -5    3.60    4.30   1
  -7   7  -6    8.60    4.70   1
   7  -6  -7    9.70    4.60   1
  -7   6   7    4.60    4.30   1
   7  -6  -6    2.00    2.60   1
  -7   6   6    1.30    1.90   1
   7  -6  -5   -0.20    2.00   1
  -7   6   5   -0.30    2.10   1
   7  -6  -4    3.00    2.30   1
  -7   6   4    5.50    1.70   1
   7  -6  -3   -1.10    2.00   1
  -7   6   3    2.40    2.80   1
   7  -6  -2    1.40    3.10   1
  -7   6   2    2.10    1.50   1
   7  -6  -1   25.30    4.00   1
  -7   6   1   19.80    2.80   1
   7  -6   0   20.10    4.60   1
  -7   6   0   15.60    2.70   1
   7  -6   1   30.90    4.40   1
  -7   6  -1   36.90    3.10   1
  -7   6  -2  108.80    5.50   1
   7  -6   3   12.50    4.70   1
  -7   6  -3   18.40    2.70   1
   7  -6   4   14.20    5.00   1
  -7   6  -4   17.20    1.10   1
   7  -6   5   81.70    7.40   1
  -7   6  -5   90.20    3.40   1
   7  -6   6    2.70    3.20   1
  -7   6  -6    5.70    1.50   1
  -7   6  -7    2.00    1.60   1
   7  -5  -8   18.90    4.50   1
  -7   5   8   14.60    4.20   1
   7  -5  -7    3.60    1.40   1
  -7   5   7    2.60    1.90   1
   7  -5  -6    1.10    1.00   1
  -7   5   6   -2.10    1.70   1
   7  -5  -5    3.30    0.90   1
  -7   5   5    3.30    2.10   1
   7  -5  -4    5.50    1.70   1
  -7   5   4    3.90    1.60   1
   7  -5  -3    1.20    1.50   1
  -7   5   3    4.30    1.80   1
   7  -5  -2    0.40    2.60   1
  -7   5   2    1.60    1.70   1
   7  -5  -1   17.00    4.20   1
  -7   5   1   13.50    2.10   1
   7  -5   0   13.00    3.20   1
  -7   5   0   10.10    2.10   1
  -7   5  -1   23.70    2.60   1
  -7   5  -2  240.10    5.70   1
   7  -5   3   38.50    5.00   1
  -7   5  -3   38.40    1.70   1
   7  -5   4   -0.70    4.20   1
  -7   5  -4   -0.40    0.70   1
   7  -5   5    3.30    4.00   1
  -7   5  -5    4.70    1.10   1
   7  -5   6   -2.70    2.90   1
  -7   5  -6   -2.80    2.00   1
   7  -5   7    9.80    4.10   1
  -7   5  -7    6.20    2.00   1
   7  -4  -9    5.40    2.00   1
  -7   4   9   10.90    4.90   1
   7  -4  -8   15.90    2.20   1
  -7   4   8   17.40    1.90   1
   7  -4  -7   11.70    1.70   1
  -7   4   7   14.70    2.10   1
   7  -4  -6    8.20    1.40   1
  -7   4   6    8.00    1.70   1
   7  -4  -5   26.80    1.80   1
  -7   4   5   32.10    3.00   1
   7  -4  -4  145.50    4.60   1
  -7   4   4  157.70    6.40   1
   7  -4  -3   10.20    3.00   1
  -7   4   3   12.80    1.90   1
   7  -4  -2   10.00    3.90   1
  -7   4   2    9.40    1.80   1
   7  -4  -1    9.60    2.80   1
  -7   4   1   10.50    0.80   1
  -7   4   0   12.90    1.00   1
  -7   4  -1   11.80    1.30   1
   7  -4   2  362.70   17.50   1
  -7   4  -2  361.10   10.00   1
   7  -4   3   40.70    4.30   1
  -7   4  -3   42.00    2.20   1
   7  -4   4   -1.00    2.20   1
  -7   4  -4    0.30    1.20   1
   7  -4   5   13.00    3.10   1
  -7   4  -5   11.60    1.90   1
   7  -4   6   -0.10    2.70   1
  -7   4  -6   -1.20    2.10   1
   7  -4   7   36.30    5.60   1
  -7   4  -7   37.10    5.30   1
   7  -3  -9    6.30    2.10   1
  -7   3   9    9.00    1.90   1
   7  -3  -8    2.60    1.60   1
  -7   3   8   -0.50    3.60   1
   7  -3  -7    1.70    1.20   1
  -7   3   7    8.00    3.60   1
   7  -3  -6    8.80    1.40   1
  -7   3   6    9.60    3.60   1
   7  -3  -5   35.60    1.90   1
  -7   3   5   43.80    4.90   1
   7  -3  -4   66.80    2.60   1
  -7   3   4   67.30    5.80   1
   7  -3  -3   34.40    3.80   1
  -7   3   3   30.40    2.20   1
   7  -3  -2   13.40    3.80   1
  -7   3   2   19.40    1.60   1
   7  -3  -1    8.90    2.60   1
  -7   3   1    9.10    1.20   1
  -7   3   0   30.80    1.80   1
   7  -3   1  128.40    7.60   1
  -7   3  -1  109.50    3.70   1
   7  -3   2  173.40    9.70   1
  -7   3  -2  172.30    5.40   1
   7  -3   3   32.60    4.20   1
  -7   3  -3   26.30    1.90   1
   7  -3   4    8.40    3.50   1
  -7   3  -4   11.90    1.90   1
   7  -3   5   17.40    3.30   1
  -7   3  -5   21.30    2.00   1
   7  -3   6    2.80    4.40   1
  -7   3  -6   -1.80    2.10   1
   7  -3   7   52.30    6.10   1
  -7   3  -7   38.10    4.80   1
   7  -2 -10    8.80    2.10   1
  -7   2  10    7.70    2.10   1
   7  -2  -9    2.10    1.50   1
  -7   2   9    1.50    2.60   1
   7  -2  -8    3.10    1.70   1
  -7   2   8    2.30    2.50   1
   7  -2  -7    0.30    1.60   1
  -7   2   7   -3.90    2.10   1
   7  -2  -6   15.80    1.40   1
  -7   2   6   13.40    3.30   1
   7  -2  -5   80.80    3.10   1
  -7   2   5   83.50    4.10   1
   7  -2  -4    1.90    1.00   1
  -7   2   4    3.30    3.10   1
   7  -2  -3   25.80    2.10   1
  -7   2   3   29.90    2.20   1
   7  -2  -2   19.90    3.20   1
  -7   2   2   21.40    1.90   1
  -7   2   1   21.80    2.00   1
   7  -2   0  100.20    5.90   1
  -7   2   0   97.30    4.20   1
   7  -2   1   63.60    4.50   1
  -7   2  -1   63.90    2.70   1
   7  -2   2  100.60    5.90   1
  -7   2  -2  102.60    3.70   1
   7  -2   3   50.80    4.30   1
  -7   2  -3   44.00    2.50   1
   7  -2   4   -2.60    2.00   1
  -7   2  -4   -1.20    2.20   1
   7  -2   5   -0.30    2.90   1
  -7   2  -5    2.20    1.50   1
   7  -2   6   15.80    3.70   1
  -7   2  -6   16.90    3.10   1
   7  -2   7   20.60    4.00   1
  -7   2  -7   10.40    4.00   1
   7  -1 -10   11.10    1.90   1
  -7   1  10   12.10    2.20   1
   7  -1  -9    0.50    1.50   1
  -7   1   9   -0.40    2.10   1
   7  -1  -8    0.60    1.40   1
  -7   1   8    1.20    2.90   1
   7  -1  -7    6.80    1.30   1
  -7   1   7    4.60    1.60   1
   7  -1  -6    6.50    1.20   1
  -7   1   6    4.50    1.70   1
   7  -1  -5   72.60    2.80   1
  -7   1   5   73.40    3.80   1
   7  -1  -4   96.50    3.10   1
  -7   1   4   91.30    3.90   1
   7  -1  -3   20.50    1.70   1
  -7   1   3   14.50    1.90   1
  -7   1   2   43.10    2.90   1
   7  -1  -1  126.30    6.80   1
  -7   1   1  129.30    5.20   1
   7  -1   0   13.50    2.30   1
  -7   1   0   17.80    1.90   1
   7  -1   1   27.20    2.90   1
  -7   1  -1   25.60    2.50   1
   7  -1   2   54.20    4.20   1
  -7   1  -2   55.50    2.80   1
   7  -1   3   16.00    3.00   1
  -7   1  -3    9.80    1.70   1
   7  -1   4    3.60    2.70   1
  -7   1  -4    1.90    1.40   1
   7  -1   5    9.50    3.50   1
  -7   1  -5   13.80    2.20   1
   7  -1   6   -4.30    3.70   1
  -7   1  -6    0.90    1.60   1
   7  -1   7    3.80    4.50   1
  -7   1  -7    6.30    4.00   1
   7   0 -11   34.50    2.40   1
  -7   0  11   35.80    3.40   1
   7   0 -10   27.20    2.30   1
  -7   0  10   27.90    3.10   1
   7   0  -9   11.70    1.70   1
  -7   0   9   12.50    2.50   1
   7   0  -8   63.20    2.90   1
  -7   0   8   64.40    4.00   1
   7   0  -7    2.10    1.00   1
  -7   0   7    3.70    1.70   1
   7   0  -6   32.00    1.80   1
  -7   0   6   32.00    2.50   1
   7   0  -5  139.60    4.10   1
  -7   0   5  135.90    5.60   1
   7   0  -4  132.30    3.80   1
  -7   0   4  123.00    4.80   1
   7   0  -3   23.90    1.50   1
  -7   0   3   19.30    2.10   1
   7   0  -2  174.90    8.70   1
  -7   0   2  182.60    6.50   1
   7   0  -1   38.20    2.50   1
  -7   0   1   42.00    2.30   1
   7   0   0   79.00    4.60   1
  -7   0   0   76.70    3.80   1
   7   0   1  178.60    9.20   1
  -7   0  -1  177.20    6.50   1
   7   0   2   31.40    3.20   1
  -7   0  -2   35.70    2.70   1
   7   0   3    6.80    1.70   1
  -7   0  -3    9.10    1.80   1
   7   0   4   35.40    3.60   1
  -7   0  -4   32.30    2.70   1
   7   0   5   32.60    4.20   1
  -7   0  -5   33.50    2.70   1
   7   0   6    0.70    3.60   1
  -7   0  -6    4.90    1.90   1
   7   1 -11   18.00    1.80   1
  -7  -1  11   17.60    2.80   1
   7   1 -10   44.70    2.80   1
  -7  -1  10   46.40    3.50   1
   7   1  -9    1.60    1.30   1
  -7  -1   9    1.30    1.50   1
   7   1  -8   32.50    1.90   1
  -7  -1   8   31.60    2.60   1
   7   1  -7    0.30    1.00   1
  -7  -1   7   -0.60    1.90   1
   7   1  -6   16.80    1.30   1
  -7  -1   6   14.10    1.90   1
   7   1  -5  118.10    3.90   1
  -7  -1   5  108.70    4.80   1
   7   1  -4   -1.20    0.70   1
  -7  -1   4   -0.60    1.80   1
   7   1  -3    7.20    0.60   1
  -7  -1   3    7.20    1.70   1
   7   1  -2  160.70    4.90   1
  -7  -1   2  170.80    6.30   1
   7   1  -1   36.80    2.40   1
  -7  -1   1   32.40    2.50   1
   7   1   0  125.00    7.10   1
  -7  -1   0  136.80    5.40   1
   7   1   1  409.20   16.70   1
  -7  -1  -1  410.60   12.50   1
   7   1   2   61.20    4.00   1
  -7  -1  -2   64.90    4.00   1
   7   1   3    9.60    2.40   1
  -7  -1  -3    8.30    2.20   1
   7   1   4   72.50    5.50   1
  -7  -1  -4   76.80    3.70   1
   7   1   5   25.90    3.40   1
  -7  -1  -5   23.00    2.40   1
   7   1   6   39.20    5.10   1
  -7  -1  -6   40.00    4.00   1
   7   2 -11    9.60    1.60   1
  -7  -2  11   13.90    2.30   1
   7   2 -10   12.20    1.80   1
  -7  -2  10   12.80    1.80   1
   7   2  -9    1.70    0.90   1
  -7  -2   9    0.90    1.70   1
   7   2  -8   22.50    1.50   1
  -7  -2   8   25.70    2.40   1
   7   2  -7    3.30    0.90   1
  -7  -2   7    3.10    1.50   1
   7   2  -6   -0.50    0.60   1
  -7  -2   6   -0.50    1.70   1
   7   2  -5   13.80    2.40   1
  -7  -2   5   20.70    2.20   1
   7   2  -4   81.30    5.80   1
  -7  -2   4   79.30    3.60   1
  -7  -2   3   82.90    4.00   1
  -7  -2   2  104.50    4.80   1
  -7  -2   1   46.10    2.80   1
   7   2   0    0.70    0.90   1
  -7  -2   0   -0.20    1.70   1
   7   2   1    8.00    1.70   1
  -7  -2  -1   10.50    2.00   1
   7   2   2    1.80    1.60   1
  -7  -2  -2    1.50    1.60   1
   7   2   3  104.30    5.80   1
  -7  -2  -3   93.10    4.80   1
   7   2   4   30.50    3.60   1
  -7  -2  -4   25.80    3.30   1
   7   2   5   98.20    8.10   1
  -7  -2  -5   94.00    5.80   1
   7   3 -11    8.60    1.70   1
  -7  -3  11   10.10    1.80   1
   7   3 -10    9.60    1.40   1
  -7  -3  10   14.50    2.00   1
   7   3  -9   48.00    3.00   1
  -7  -3   9   60.00    3.70   1
   7   3  -8  111.60    4.50   1
  -7  -3   8  120.80    5.40   1
   7   3  -7   59.20    4.90   1
  -7  -3   7   54.10    3.60   1
   7   3  -6    9.90    3.30   1
  -7  -3   6    6.80    1.50   1
   7   3  -5   31.70    3.80   1
  -7  -3   5   25.80    2.40   1
   7   3  -4   97.00    6.50   1
  -7  -3   4   94.90    4.60   1
  -7  -3   3   77.20    3.90   1
  -7  -3   2  198.00    7.60   1
  -7  -3   1    9.60    2.10   1
  -7  -3   0    4.50    2.30   1
   7   3   1    2.50    1.20   1
  -7  -3  -1   -0.10    2.30   1
   7   3   2   24.90    2.60   1
  -7  -3  -2   22.40    2.80   1
   7   3   3   31.00    3.50   1
  -7  -3  -3   34.50    4.10   1
   7   3   4   16.80    3.20   1
  -7  -3  -4   16.00    4.30   1
  -7  -4  11    1.50    2.20   1
   7   4 -10    5.60    4.20   1
  -7  -4  10    9.80    1.90   1
   7   4  -9   19.60    4.20   1
  -7  -4   9   15.20    1.80   1
   7   4  -8   41.70    5.30   1
  -7  -4   8   43.80    2.90   1
   7   4  -7   45.20    5.00   1
  -7  -4   7   43.70    2.90   1
   7   4  -6   19.90    3.20   1
  -7  -4   6   21.80    2.20   1
   7   4  -5   85.00    6.50   1
  -7  -4   5   86.00    4.40   1
   7   4  -4   83.70    6.60   1
  -7  -4   4   72.00    4.10   1
  -7  -4   3  255.00    9.10   1
  -7  -4   2  131.40    5.70   1
  -7  -4   1    4.80    1.80   1
  -7  -4   0    9.90    2.00   1
  -7  -4  -1   35.80    3.20   1
   7   4   2   39.30    3.60   1
  -7  -4  -2   37.80    4.50   1
   7   4   3   32.00    3.40   1
  -7  -4  -3   34.30    5.40   1
  -7  -5  11    6.50    3.50   1
  -7  -5  10    8.50    1.60   1
   7   5  -9   31.40    4.60   1
  -7  -5   9   34.60    2.50   1
   7   5  -8   20.50    3.60   1
  -7  -5   8   16.20    2.40   1
   7   5  -7   53.90    5.10   1
  -7  -5   7   50.00    3.30   1
   7   5  -6   38.00    4.90   1
  -7  -5   6   32.20    2.70   1
   7   5  -5   44.00    4.50   1
  -7  -5   5   34.10    2.60   1
  -7  -5   4  104.50    4.90   1
  -7  -5   3  142.10    6.20   1
  -7  -5   2   61.90    3.80   1
  -7  -5   1   69.10    4.20   1
  -7  -5   0   27.50    2.70   1
  -7  -5  -1   15.00    4.10   1
  -7  -5  -2   32.60    4.60   1
  -7  -6  10   -0.10    2.50   1
  -7  -6   9   13.70    2.80   1
   7   6  -8    0.10    4.10   1
  -7  -6   8    8.20    1.50   1
   7   6  -7    7.60    4.10   1
  -7  -6   7   12.30    2.00   1
   7   6  -6   38.00    4.60   1
  -7  -6   6   41.60    3.00   1
   7   6  -5   94.20    7.60   1
  -7  -6   5   92.70    4.90   1
  -7  -6   4   24.90    2.80   1
  -7  -6   3    0.60    1.90   1
  -7  -6   2   10.20    2.10   1
  -7  -6   1   24.50    3.00   1
  -7  -6   0   45.50    3.60   1
  -7  -6  -1   23.90    4.70   1
  -7  -7   9   35.00    4.20   1
  -7  -7   8   31.50    4.40   1
  -7  -7   7   21.00    1.90   1
  -7  -7   6   35.10    2.90   1
  -7  -7   5   21.70    2.40   1
  -7  -7   4    8.30    2.10   1
  -7  -7   3    4.30    2.30   1
  -7  -7   2    0.00    1.90   1
  -7  -7   1   26.30    3.00   1
  -7  -8   7    2.00    3.70   1
  -7  -8   6   43.70    4.20   1
  -7  -8   5   38.90    3.40   1
  -7  -8   4   48.20    4.30   1
   8  -7  -3   14.20    4.60   1
  -8   7   3   19.90    3.00   1
  -8   7   2   10.50    2.50   1
  -8   7   1    9.60    2.70   1
  -8   7   0    8.20    2.60   1
  -8   7  -1    7.20    3.30   1
  -8   7  -2   10.80    3.40   1
  -8   7  -3   59.40    6.50   1
   8  -6  -5   -6.10    3.80   1
  -8   6   5    0.50    2.70   1
   8  -6  -4    0.60    3.50   1
  -8   6   4   -0.70    1.90   1
   8  -6  -3   18.30    4.40   1
  -8   6   3   29.70    3.60   1
  -8   6   2   15.10    3.40   1
   8  -6  -1    7.90    3.80   1
  -8   6   1   14.00    2.50   1
   8  -6   0    1.50    3.30   1
  -8   6   0    0.00    2.00   1
  -8   6  -1    9.70    2.50   1
   8  -6   2   12.20    3.70   1
  -8   6  -2   10.50    3.00   1
   8  -6   3   56.70    6.20   1
  -8   6  -3   60.40    7.10   1
   8  -6   4   18.90    5.40   1
  -8   6  -4   30.30    5.30   1
   8  -5  -6    4.60    3.50   1
  -8   5   6    4.80    2.30   1
   8  -5  -5   -1.70    3.00   1
  -8   5   5    1.50    2.20   1
   8  -5  -4    3.20    2.60   1
  -8   5   4   -0.10    1.80   1
   8  -5  -3   12.40    2.60   1
  -8   5   3   11.30    2.70   1
   8  -5  -2    2.10    3.20   1
  -8   5   2   -0.70    1.80   1
   8  -5  -1   -2.80    2.90   1
  -8   5   1    1.90    2.30   1
  -8   5   0   -1.60    2.20   1
  -8   5  -1   -1.10    2.10   1
   8  -5   2   11.20    3.10   1
  -8   5  -2    8.00    0.80   1
   8  -5   3   72.50    6.60   1
  -8   5  -3   68.80    3.40   1
   8  -5   4   13.50    3.60   1
  -8   5  -4   16.70    2.30   1
   8  -5   5   10.10    5.10   1
  -8   5  -5   10.50    2.20   1
   8  -4  -7    9.20    3.70   1
  -8   4   7   11.30    2.70   1
   8  -4  -6    3.90    1.30   1
  -8   4   6    4.50    1.90   1
   8  -4  -5   36.20    3.20   1
  -8   4   5   38.30    3.60   1
   8  -4  -4   62.00    4.20   1
  -8   4   4   63.60    4.10   1
   8  -4  -3   10.60    2.40   1
  -8   4   3   12.90    2.40   1
   8  -4  -2    0.90    4.20   1
  -8   4   2    2.90    1.90   1
  -8   4   1    1.50    0.80   1
  -8   4   0    3.00    1.00   1
   8  -4   1   -3.10    3.30   1
  -8   4  -1    3.20    1.40   1
   8  -4   2    5.60    3.60   1
  -8   4  -2    6.40    1.40   1
   8  -4   3   55.90    6.20   1
  -8   4  -3   51.70    3.00   1
   8  -4   4   39.00    5.50   1
  -8   4  -4   30.50    2.80   1
   8  -4   5   50.90    5.80   1
  -8   4  -5   46.90    3.50   1
   8  -3  -8   13.60    2.40   1
  -8   3   8    8.00    3.60   1
   8  -3  -7   22.20    2.10   1
  -8   3   7   24.50    4.10   1
   8  -3  -6    2.20    1.40   1
  -8   3   6    6.70    4.30   1
   8  -3  -5    3.20    1.20   1
  -8   3   5    1.10    3.80   1
   8  -3  -4    2.30    1.40   1
  -8   3   4    3.60    1.40   1
   8  -3  -3   11.10    2.10   1
  -8   3   3    9.20    1.50   1
  -8   3   2    6.30    1.30   1
  -8   3   1   23.50    1.70   1
   8  -3   0   55.90    4.50   1
  -8   3   0   52.70    2.60   1
   8  -3   1    9.60    2.90   1
  -8   3  -1   11.00    1.60   1
   8  -3   2   10.70    3.50   1
  -8   3  -2   10.60    1.90   1
   8  -3   3    6.60    2.50   1
  -8   3  -3   10.20    1.80   1
   8  -3   4   13.70    4.30   1
  -8   3  -4   16.90    2.50   1
   8  -3   5   76.80    7.50   1
  -8   3  -5   72.50    4.80   1
   8  -2  -9    0.90    2.20   1
  -8   2   9    5.10    4.00   1
   8  -2  -8   11.00    1.60   1
  -8   2   8   12.00    4.40   1
   8  -2  -7   68.20    3.30   1
  -8   2   7   51.10    6.10   1
   8  -2  -6   -0.90    1.10   1
  -8   2   6   -0.50    3.60   1
   8  -2  -5   -1.80    0.90   1
  -8   2   5   -2.40    1.30   1
   8  -2  -4   20.20    2.10   1
  -8   2   4   21.30    2.10   1
   8  -2  -3   -1.70    1.30   1
  -8   2   3   -0.30    1.50   1
  -8   2   2   24.80    2.20   1
   8  -2  -1   58.80    3.90   1
  -8   2   1   54.30    3.00   1
   8  -2   0    2.60    1.70   1
  -8   2   0    3.20    1.50   1
   8  -2   1   12.10    3.00   1
  -8   2  -1   16.30    2.00   1
   8  -2   2   20.40    3.30   1
  -8   2  -2   28.70    2.40   1
   8  -2   3    3.10    2.80   1
  -8   2  -3    1.40    1.60   1
   8  -2   4    7.70    2.60   1
  -8   2  -4    2.40    2.40   1
   8  -2   5   20.10    4.50   1
  -8   2  -5   19.10    3.20   1
   8  -1  -9    3.50    1.50   1
  -8   1   9    5.40    2.80   1
   8  -1  -8   19.70    2.00   1
  -8   1   8   15.90    3.40   1
   8  -1  -7   73.60    3.50   1
  -8   1   7   68.90    4.00   1
   8  -1  -6    0.40    1.00   1
  -8   1   6   -1.90    1.80   1
   8  -1  -5    7.00    1.30   1
  -8   1   5    5.40    1.80   1
   8  -1  -4   38.70    2.90   1
  -8   1   4   44.10    2.90   1
   8  -1  -3    0.50    1.40   1
  -8   1   3    0.50    1.60   1
   8  -1  -2   57.90    4.20   1
  -8   1   2   55.80    3.40   1
   8  -1  -1   49.50    3.60   1
  -8   1   1   48.10    3.00   1
   8  -1   0   -1.50    1.80   1
  -8   1   0    1.70    1.40   1
   8  -1   1   27.90    3.30   1
  -8   1  -1   24.60    2.50   1
   8  -1   2   21.30    3.20   1
  -8   1  -2   24.50    2.30   1
   8  -1   3   17.00    2.60   1
  -8   1  -3   22.10    2.30   1
   8  -1   4   18.60    3.80   1
  -8   1  -4   14.10    2.90   1
   8  -1   5   -0.70    3.60   1
  -8   1  -5    2.20    3.00   1
   8   0  -9    5.10    1.50   1
  -8   0   9    3.40    2.70   1
   8   0  -8   26.50    2.20   1
  -8   0   8   25.70    2.60   1
   8   0  -7   95.30    3.70   1
  -8   0   7   93.00    5.10   1
   8   0  -6    3.10    1.20   1
  -8   0   6    3.10    2.30   1
   8   0  -5    3.00    1.30   1
  -8   0   5    2.60    2.40   1
   8   0  -4    1.00    0.80   1
  -8   0   4    2.40    1.70   1
   8   0  -3    7.60    1.00   1
  -8   0   3   10.00    2.20   1
   8   0  -2   44.20    2.10   1
  -8   0   2   48.80    3.30   1
   8   0  -1  152.60    8.10   1
  -8   0   1  162.70    6.60   1
   8   0   0  191.10   10.00   1
  -8   0   0  194.20    7.20   1
   8   0   1   58.80    4.50   1
  -8   0  -1   65.20    3.80   1
   8   0   2   23.20    2.80   1
  -8   0  -2   19.80    2.80   1
   8   0   3   44.00    3.90   1
  -8   0  -3   40.50    3.00   1
   8   0   4   12.80    3.20   1
  -8   0  -4   13.10    2.80   1
   8   1 -10    7.20    1.50   1
  -8  -1  10    6.30    2.20   1
   8   1  -9    0.60    1.30   1
  -8  -1   9    2.10    2.30   1
   8   1  -8    6.10    1.30   1
  -8  -1   8    3.80    2.20   1
   8   1  -7   55.20    2.50   1
  -8  -1   7   59.20    3.60   1
   8   1  -6   20.30    1.50   1
  -8  -1   6   17.40    2.60   1
   8   1  -5    3.10    0.60   1
  -8  -1   5    4.80    1.70   1
  -8  -1   4   -1.20    2.10   1
  -8  -1   3    4.10    1.80   1
   8   1  -2   23.70    1.00   1
  -8  -1   2   22.00    2.40   1
   8   1  -1  106.40    5.40   1
  -8  -1   1  106.00    5.10   1
   8   1   0   21.60    2.00   1
  -8  -1   0   23.60    2.80   1
   8   1   1   40.60    3.10   1
  -8  -1  -1   41.40    3.50   1
   8   1   2   43.70    3.80   1
  -8  -1  -2   55.20    4.00   1
   8   1   3   85.10    6.70   1
  -8  -1  -3   86.80    4.70   1
   8   1   4   44.30    5.00   1
  -8  -1  -4   45.20    4.40   1
   8   2 -10    2.40    2.20   1
  -8  -2  10    4.70    2.00   1
   8   2  -9   17.60    1.60   1
  -8  -2   9   28.40    3.10   1
   8   2  -8   20.30    1.80   1
  -8  -2   8   22.50    3.00   1
   8   2  -7   43.60    4.90   1
  -8  -2   7   38.00    3.00   1
   8   2  -6    7.00    2.40   1
  -8  -2   6    7.70    1.80   1
   8   2  -5    2.40    2.20   1
  -8  -2   5    2.80    1.80   1
  -8  -2   4    8.40    2.00   1
  -8  -2   3    0.10    1.90   1
  -8  -2   2   46.80    3.10   1
  -8  -2   1   19.60    2.90   1
   8   2   0   -1.10    0.70   1
  -8  -2   0    0.50    2.50   1
   8   2   1    0.60    1.40   1
  -8  -2  -1    4.20    2.30   1
   8   2   2    9.60    2.10   1
  -8  -2  -2    6.80    2.40   1
   8   2   3   62.30    4.90   1
  -8  -2  -3   73.40    5.20   1
  -8  -3  10    5.00    1.70   1
   8   3  -9   75.70    6.80   1
  -8  -3   9   84.60    5.10   1
   8   3  -8  149.70   10.00   1
  -8  -3   8  142.00    7.00   1
   8   3  -7    5.20    3.50   1
  -8  -3   7    9.30    2.30   1
   8   3  -6    0.30    2.20   1
  -8  -3   6    4.70    2.10   1
   8   3  -5   37.50    4.60   1
  -8  -3   5   49.00    3.40   1
  -8  -3   4    9.70    1.90   1
  -8  -3   3   34.50    2.70   1
  -8  -3   2   19.80    3.00   1
  -8  -3   1    0.60    1.90   1
  -8  -3   0   40.60    3.60   1
  -8  -3  -1   56.20    4.40   1
  -8  -3  -2   19.30    3.30   1
  -8  -4   9    1.40    1.90   1
   8   4  -8    2.00    4.00   1
  -8  -4   8    3.50    1.70   1
   8   4  -7    4.50    2.80   1
  -8  -4   7    2.70    2.30   1
   8   4  -6   24.50    3.70   1
  -8  -4   6   20.30    2.30   1
   8   4  -5   39.50    5.50   1
  -8  -4   5   38.30    3.00   1
  -8  -4   4  146.00    7.10   1
  -8  -4   3  103.50    5.80   1
  -8  -4   2    8.80    2.10   1
  -8  -4   1   35.20    3.50   1
  -8  -4   0   39.90    4.10   1
  -8  -4  -1   39.00    3.70   1
  -8  -5   9    0.80    2.30   1
  -8  -5   8    0.60    1.90   1
   8   5  -7   -2.60    2.90   1
  -8  -5   7    0.90    2.00   1
   8   5  -6    3.90    3.10   1
  -8  -5   6   -0.90    1.70   1
  -8  -5   5   15.50    2.60   1
  -8  -5   4   36.80    4.70   1
  -8  -5   3   13.20    2.30   1
  -8  -5   2   40.60    3.70   1
  -8  -5   1   28.40    3.30   1
  -8  -5   0    4.50    2.70   1
  -8  -6   7   13.60    2.50   1
  -8  -6   6    5.90    1.90   1
  -8  -6   5    0.00    2.60   1
  -8  -6   4   10.70    2.20   1
  -8  -6   3   32.50    3.30   1
  -8  -6   2    9.10    2.90   1
   9  -5  -3   -1.30    3.20   1
  -9   5   3   -3.20    2.20   1
  -9   5   2   -0.10    2.60   1
  -9   5   1    1.80    2.50   1
  -9   5   0    3.80    3.60   1
   9  -5   1   17.40    3.70   1
  -9   5  -1   14.30    4.30   1
   9  -4  -5    7.20    3.40   1
  -9   4   5   13.80    3.20   1
   9  -4  -4   18.90    3.60   1
  -9   4   4   16.60    3.60   1
   9  -4  -3    4.50    2.80   1
  -9   4   3    5.80    2.40   1
  -9   4   2   -0.30    2.70   1
  -9   4   1   24.70    3.60   1
   9  -4   0   14.40    4.30   1
  -9   4   0   13.70    1.70   1
   9  -4   1    9.60    3.90   1
  -9   4  -1    1.20    3.60   1
   9  -4   2    6.60    4.00   1
  -9   4  -2   13.00    4.20   1
   9  -3  -6   30.70    4.20   1
  -9   3   6   26.30    5.80   1
   9  -3  -5    1.00    2.70   1
  -9   3   5   -3.10    2.90   1
   9  -3  -4    9.50    2.80   1
  -9   3   4    8.90    1.80   1
   9  -3  -3    1.80    2.20   1
  -9   3   3    7.70    1.50   1
  -9   3   2   -2.40    1.30   1
   9  -3  -1   23.50    3.80   1
  -9   3   1   20.20    2.20   1
   9  -3   0   12.70    3.60   1
  -9   3   0   12.30    2.30   1
   9  -3   1    2.70    2.20   1
  -9   3  -1    2.80    1.60   1
   9  -3   2   -2.30    3.30   1
  -9   3  -2    2.30    2.10   1
   9  -2  -7    6.00    1.90   1
  -9   2   7    3.40    4.90   1
   9  -2  -6   32.20    2.40   1
  -9   2   6   34.50    3.00   1
   9  -2  -5   14.80    2.40   1
  -9   2   5   14.40    2.20   1
   9  -2  -4   21.70    3.10   1
  -9   2   4   24.40    2.80   1
   9  -2  -3    3.60    2.00   1
  -9   2   3    4.50    1.70   1
   9  -2  -2    1.10    2.50   1
  -9   2   2    1.10    1.90   1
   9  -2  -1   -2.30    2.40   1
  -9   2   1    0.10    1.30   1
   9  -2   0    5.70    2.50   1
  -9   2   0    0.30    2.20   1
   9  -2   1    1.30    2.10   1
  -9   2  -1    1.40    1.70   1
   9  -2   2   -1.10    2.90   1
  -9   2  -2   -0.40    1.90   1
   9  -1  -7    0.40    1.40   1
  -9   1   7    1.80    2.50   1
   9  -1  -6   18.20    1.70   1
  -9   1   6   20.70    2.60   1
   9  -1  -5   26.30    3.20   1
  -9   1   5   24.90    2.60   1
   9  -1  -4   41.00    3.50   1
  -9   1   4   37.50    3.10   1
   9  -1  -3   16.00    1.60   1
  -9   1   3   13.50    2.40   1
   9  -1  -2    1.50    1.20   1
  -9   1   2    2.50    2.00   1
   9  -1  -1   19.20    2.60   1
  -9   1   1   25.80    3.10   1
   9  -1   0   22.10    3.00   1
  -9   1   0   23.10    2.80   1
   9  -1   1    6.50    1.90   1
  -9   1  -1    5.60    2.10   1
   9  -1   2    1.00    2.60   1
  -9   1  -2   -0.40    1.90   1
   9   0  -8    2.30    2.30   1
  -9   0   8    0.90    2.10   1
   9   0  -7    3.70    1.40   1
  -9   0   7    5.10    2.00   1
   9   0  -6    3.40    1.30   1
  -9   0   6    7.20    2.70   1
   9   0  -5    0.00    0.90   1
  -9   0   5    1.40    1.80   1
   9   0  -4   13.00    1.20   1
  -9   0   4    8.40    2.30   1
   9   0  -3   13.30    1.20   1
  -9   0   3   11.10    2.80   1
   9   0  -2    7.20    1.10   1
  -9   0   2    9.40    2.40   1
   9   0  -1   42.20    4.10   1
  -9   0   1   51.30    4.20   1
   9   0   0   35.70    3.10   1
  -9   0   0   31.50    3.80   1
   9   0   1   37.00    3.40   1
  -9   0  -1   41.10    3.70   1
  -9   0  -2    2.80    3.10   1
   9   1  -8    9.00    3.80   1
  -9  -1   8    7.30    3.90   1
   9   1  -7   10.20    4.00   1
  -9  -1   7   13.10    2.60   1
   9   1  -6    6.50    2.60   1
  -9  -1   6   -0.50    2.20   1
  -9  -1   5    5.10    2.30   1
  -9  -1   4    9.30    2.40   1
  -9  -1   3    4.70    2.30   1
  -9  -1   2   27.90    2.80   1
  -9  -1   1   -1.40    1.90   1
  -9  -1   0    5.20    2.70   1
  -9  -1  -1   10.50    2.60   1
   9   2  -7    6.30    2.90   1
  -9  -2   7   11.90    2.60   1
   9   2  -6    4.50    3.80   1
  -9  -2   6    4.80    2.30   1
  -9  -2   5    3.10    2.80   1
  -9  -2   4   -1.20    2.70   1
  -9  -2   3   17.80    2.80   1
  -9  -2   2   -1.10    2.80   1
  -9  -2   1    2.80    2.20   1
  -9  -2   0   10.10    2.70   1
   9   3  -7   25.40    4.20   1
  -9  -3   7   25.10    2.90   1
   9   3  -6   30.20    5.10   1
  -9  -3   6   27.60    3.70   1
  -9  -3   5   13.70    2.80   1
  -9  -3   4   15.30    2.80   1
  -9  -3   3   14.80    3.40   1
  -9  -3   2   -0.90    2.10   1
  -9  -3   1   24.40    3.40   1
  -9  -4   6   26.90    3.30   1
  -9  -4   5   18.20    2.90   1
  -9  -4   4    8.30    2.30   1
  -9  -4   3    9.10    2.70   1
   0   0   0
;
_shelx_hkl_checksum              39036
_shelx_res_file
;
    shelx.res created by SHELXL-2014/7
TITL k2003 in P -1
CELL  0.71073   7.5950   9.6764  10.7507  108.710  101.727   93.650
ZERR     1.00   0.0003   0.0004   0.0004    0.002    0.002    0.002
LATT   1
SFAC  C    H    CU   F    N    O
UNIT  30 22 1 6 2 8
MERG   2
OMIT     0  -1   1
OMIT     0   0   1
EQIV $1 -x+1, -y, -z
HTAB O4 O2_$1
HTAB O4 O3
EQIV $2 -x, -y, -z
HTAB N1 O3_$2
EQIV $3 x-1, y, z
HTAB C15 O1_$3
FMAP   2
PLAN   20
SIZE     0.100   0.150   0.250
ACTA
BOND   $H
CONF
L.S.  10
WGHT    0.038800    0.305400
FVAR       0.86155   0.69715
MOLE    1
CU1   3    0.500000    0.000000    0.000000    10.50000    0.03573    0.02923 =
         0.02486    0.01239   -0.00491   -0.00841
PART    1
F1A   4    0.086637   -0.465151   -0.358162    21.00000    0.10703    0.03625 =
         0.05090    0.00591   -0.02689   -0.01783
F2A   4    0.224021   -0.316913   -0.423172    21.00000    0.08248    0.11316 =
         0.02701    0.01427    0.00146   -0.04543
F3A   4   -0.005211   -0.262314   -0.348305    21.00000    0.05223    0.08948 =
         0.06823    0.00063   -0.02139    0.01615
PART    2
F1B   4    0.044212   -0.446963   -0.351410   -21.00000    0.10926    0.11552 =
         0.03920    0.02766   -0.02395   -0.09822
F2B   4    0.240386   -0.344664   -0.419433   -21.00000    0.06123    0.11713 =
         0.03305   -0.01317    0.00905    0.02208
F3B   4    0.026818   -0.235385   -0.358773   -21.00000    0.12928    0.08176 =
         0.05233   -0.00781   -0.06298    0.04142
PART    0
O1    6    0.494873   -0.156604    0.076418    11.00000    0.03558    0.03112 =
         0.02890    0.01372   -0.00369   -0.00637
O2    6    0.348667   -0.126452   -0.171531    11.00000    0.03797    0.03462 =
         0.02733    0.01301   -0.00249   -0.00935
O3    6    0.231130    0.059531    0.100398    11.00000    0.03632    0.04233 =
         0.03318    0.02016    0.00085   -0.00015
O4    6    0.446731    0.078091    0.350850    11.00000    0.03985    0.07131 =
         0.02880    0.01995   -0.00382   -0.01073
AFIX 147
H4    2    0.480632    0.095102    0.288851    11.00000   -1.50000
AFIX   0
N1    5   -0.000456   -0.070984    0.138904    11.00000    0.03104    0.04870 =
         0.03288    0.01978   -0.00088    0.00160
AFIX  43
H1    2   -0.067195   -0.074986    0.062590    11.00000   -1.20000
AFIX   0
C1    1    0.140730   -0.323389   -0.330721    11.00000    0.04305    0.03970 =
         0.03168    0.00935   -0.00216   -0.00914
C2    1    0.261786   -0.250879   -0.188025    11.00000    0.03193    0.03289 =
         0.02510    0.00674   -0.00017   -0.00590
C3    1    0.263631   -0.323115   -0.097624    11.00000    0.04259    0.03480 =
         0.03312    0.01215   -0.00125   -0.01345
AFIX  43
H3    2    0.182347   -0.408763   -0.122554    11.00000   -1.20000
AFIX   0
C4    1    0.383385   -0.273873    0.032284    11.00000    0.03298    0.02885 =
         0.02971    0.01118    0.00644   -0.00001
C5    1    0.384404   -0.361717    0.123764    11.00000    0.03831    0.03050 =
         0.03567    0.01467    0.01194    0.00435
C6    1    0.489992   -0.303636    0.254864    11.00000    0.04996    0.04188 =
         0.03527    0.01897    0.00735    0.00078
AFIX  43
H6    2    0.559370   -0.211498    0.283816    11.00000   -1.20000
AFIX   0
C7    1    0.493369   -0.381229    0.343243    11.00000    0.07048    0.05865 =
         0.04041    0.02789    0.01044    0.00719
AFIX  43
H7    2    0.564726   -0.341461    0.431022    11.00000   -1.20000
AFIX   0
C8    1    0.390243   -0.517945    0.300359    11.00000    0.08608    0.05371 =
         0.05630    0.03794    0.02592    0.01268
AFIX  43
H8    2    0.392492   -0.570549    0.359321    11.00000   -1.20000
AFIX   0
C9    1    0.285279   -0.575978    0.172032    11.00000    0.08710    0.03863 =
         0.06488    0.02750    0.02023   -0.00432
AFIX  43
H9    2    0.216038   -0.668046    0.144085    11.00000   -1.20000
AFIX   0
C10   1    0.280378   -0.499519    0.082572    11.00000    0.06796    0.03439 =
         0.04569    0.01728    0.01011   -0.00624
AFIX  43
H10   2    0.207849   -0.540037   -0.004769    11.00000   -1.20000
AFIX   0
C11   1    0.171012    0.000971    0.175937    11.00000    0.03160    0.03282 =
         0.02686    0.01138    0.00189    0.00477
C12   1    0.275552    0.004678    0.304544    11.00000    0.03329    0.04430 =
         0.02569    0.01205    0.00059    0.00283
C13   1    0.204073   -0.062692    0.380036    11.00000    0.03999    0.06846 =
         0.03272    0.02720    0.00339    0.00555
AFIX  43
H13   2    0.273957   -0.060099    0.462731    11.00000   -1.20000
AFIX   0
C14   1    0.025467   -0.136032    0.333700    11.00000    0.04146    0.07958 =
         0.04899    0.04000    0.00980    0.00159
AFIX  43
H14   2   -0.023379   -0.183017    0.384629    11.00000   -1.20000
AFIX   0
C15   1   -0.074463   -0.137341    0.213947    11.00000    0.03406    0.06784 =
         0.04862    0.03097    0.00518   -0.00178
AFIX  43
H15   2   -0.193949   -0.183648    0.182794    11.00000   -1.20000
AFIX   0
HKLF 4
REM  k2003 in P -1
REM R1 =  0.0328 for    2905 Fo > 4sig(Fo)  and  0.0410 for all    3300 data
REM    243 parameters refined using      0 restraints
END
WGHT      0.0379      0.3105
REM Highest difference peak  0.296,  deepest hole -0.408,  1-sigma level  0.050
Q1    1   0.2021 -0.2944 -0.2593  11.00000  0.05    0.30
Q2    1   0.4668 -0.4641  0.3171  11.00000  0.05    0.23
Q3    1   0.2969 -0.1700 -0.1606  11.00000  0.05    0.21
Q4    1   0.3431 -0.4255  0.1023  11.00000  0.05    0.20
Q5    1   0.3791 -0.3257  0.0841  11.00000  0.05    0.20
Q6    1  -0.0010 -0.1550  0.2584  11.00000  0.05    0.19
Q7    1   0.2234 -0.0073  0.2384  11.00000  0.05    0.18
Q8    1   0.2548 -0.2736 -0.1351  11.00000  0.05    0.18
Q9    1   0.3804 -0.1593 -0.1947  11.00000  0.05    0.17
Q10   1   0.0936 -0.0607  0.1439  11.00000  0.05    0.17
Q11   1   0.2296 -0.4576 -0.1444  11.00000  0.05    0.17
Q12   1   0.4621 -0.3451  0.1807  11.00000  0.05    0.17
Q13   1   0.5872 -0.0397  0.1991  11.00000  0.05    0.16
Q14   1  -0.2453 -0.1226  0.1865  11.00000  0.05    0.16
Q15   1   0.4624 -0.2041  0.0469  11.00000  0.05    0.16
Q16   1   0.6625 -0.3481  0.4265  11.00000  0.05    0.16
Q17   1   0.1724 -0.2035 -0.3829  11.00000  0.05    0.16
Q18   1   0.3296 -0.3051 -0.0371  11.00000  0.05    0.16
Q19   1   0.5370 -0.3743  0.3600  11.00000  0.05    0.16
Q20   1   0.6186 -0.0805  0.0607  11.00000  0.05    0.16
;
_shelx_res_checksum              34997
loop_
_space_group_symop_operation_xyz
'x, y, z'
'-x, -y, -z'
loop_
_atom_site_type_symbol
_atom_site_label
_atom_site_fract_x
_atom_site_fract_y
_atom_site_fract_z
_atom_site_U_iso_or_equiv
_atom_site_adp_type
_atom_site_calc_flag
_atom_site_occupancy
_atom_site_disorder_assembly
_atom_site_disorder_group
Cu Cu1 0.5000 0.0000 0.0000 0.03159(11) Uani d 1 . .
F F1A 0.0866(12) -0.4652(6) -0.3582(8) 0.0752(17) Uani d 0.70(3) A 1
F F2A 0.2240(12) -0.3169(12) -0.4232(7) 0.081(2) Uani d 0.70(3) A 1
F F3A -0.0052(11) -0.2623(14) -0.3483(10) 0.082(2) Uani d 0.70(3) A 1
F F1B 0.044(4) -0.447(3) -0.3514(16) 0.099(6) Uani d 0.30(3) A 2
F F2B 0.240(3) -0.345(2) -0.4194(19) 0.080(5) Uani d 0.30(3) A 2
F F3B 0.027(4) -0.235(4) -0.359(2) 0.107(8) Uani d 0.30(3) A 2
O O1 0.49487(17) -0.15660(13) 0.07642(12) 0.0332(3) Uani d 1 . .
O O2 0.34867(18) -0.12645(14) -0.17153(12) 0.0349(3) Uani d 1 . .
O O3 0.23113(18) 0.05953(15) 0.10040(13) 0.0369(3) Uani d 1 . .
O O4 0.4467(2) 0.07809(19) 0.35085(14) 0.0486(4) Uani d 1 . .
H H4 0.4806 0.0951 0.2889 0.073 Uiso calc 1 . .
N N1 -0.0005(2) -0.07098(18) 0.13890(16) 0.0376(4) Uani d 1 . .
H H1 -0.0672 -0.0750 0.0626 0.045 Uiso calc 1 . .
C C1 0.1407(3) -0.3234(2) -0.3307(2) 0.0412(4) Uani d 1 . .
C C2 0.2618(2) -0.25088(19) -0.18802(17) 0.0323(4) Uani d 1 . .
C C3 0.2636(3) -0.3231(2) -0.09762(19) 0.0391(4) Uani d 1 . .
H H3 0.1823 -0.4088 -0.1226 0.047 Uiso calc 1 . .
C C4 0.3834(2) -0.27387(18) 0.03228(17) 0.0306(4) Uani d 1 . .
C C5 0.3844(3) -0.36172(19) 0.12376(19) 0.0335(4) Uani d 1 . .
C C6 0.4900(3) -0.3036(2) 0.2549(2) 0.0416(4) Uani d 1 . .
H H6 0.5594 -0.2115 0.2838 0.050 Uiso calc 1 . .
C C7 0.4934(4) -0.3812(3) 0.3432(2) 0.0543(6) Uani d 1 . .
H H7 0.5647 -0.3415 0.4310 0.065 Uiso calc 1 . .
C C8 0.3902(4) -0.5179(3) 0.3004(3) 0.0591(6) Uani d 1 . .
H H8 0.3925 -0.5705 0.3593 0.071 Uiso calc 1 . .
C C9 0.2853(4) -0.5760(3) 0.1720(3) 0.0614(7) Uani d 1 . .
H H9 0.2160 -0.6680 0.1441 0.074 Uiso calc 1 . .
C C10 0.2804(4) -0.4995(2) 0.0826(2) 0.0496(5) Uani d 1 . .
H H10 0.2078 -0.5400 -0.0048 0.059 Uiso calc 1 . .
C C11 0.1710(2) 0.00097(19) 0.17594(17) 0.0309(4) Uani d 1 . .
C C12 0.2756(3) 0.0047(2) 0.30454(18) 0.0355(4) Uani d 1 . .
C C13 0.2041(3) -0.0627(3) 0.3800(2) 0.0455(5) Uani d 1 . .
H H13 0.2740 -0.0601 0.4627 0.055 Uiso calc 1 . .
C C14 0.0255(3) -0.1360(3) 0.3337(2) 0.0527(6) Uani d 1 . .
H H14 -0.0234 -0.1830 0.3846 0.063 Uiso calc 1 . .
C C15 -0.0745(3) -0.1373(3) 0.2139(2) 0.0485(5) Uani d 1 . .
H H15 -0.1939 -0.1836 0.1828 0.058 Uiso calc 1 . .
loop_
_atom_site_aniso_label
_atom_site_aniso_U_11
_atom_site_aniso_U_22
_atom_site_aniso_U_33
_atom_site_aniso_U_12
_atom_site_aniso_U_13
_atom_site_aniso_U_23
Cu1 0.03573(18) 0.02923(16) 0.02486(16) -0.00841(12) -0.00491(12) 0.01239(12)
F1A 0.107(4) 0.036(2) 0.051(2) -0.018(3) -0.027(2) 0.0059(15)
F2A 0.082(4) 0.113(4) 0.027(2) -0.045(3) 0.001(2) 0.014(2)
F3A 0.052(2) 0.089(5) 0.068(3) 0.016(2) -0.0214(19) 0.001(2)
F1B 0.109(9) 0.116(11) 0.039(5) -0.098(8) -0.024(5) 0.028(6)
F2B 0.061(6) 0.117(9) 0.033(6) 0.022(7) 0.009(4) -0.013(5)
F3B 0.129(15) 0.082(9) 0.052(6) 0.041(11) -0.063(8) -0.008(5)
O1 0.0356(7) 0.0311(6) 0.0289(6) -0.0064(5) -0.0037(5) 0.0137(5)
O2 0.0380(7) 0.0346(6) 0.0273(6) -0.0093(5) -0.0025(5) 0.0130(5)
O3 0.0363(7) 0.0423(7) 0.0332(7) -0.0001(6) 0.0009(5) 0.0202(6)
O4 0.0398(8) 0.0713(10) 0.0288(7) -0.0107(7) -0.0038(6) 0.0199(7)
N1 0.0310(8) 0.0487(9) 0.0329(8) 0.0016(7) -0.0009(6) 0.0198(7)
C1 0.0431(11) 0.0397(10) 0.0317(10) -0.0091(8) -0.0022(8) 0.0093(8)
C2 0.0319(9) 0.0329(8) 0.0251(8) -0.0059(7) -0.0002(7) 0.0067(7)
C3 0.0426(11) 0.0348(9) 0.0331(9) -0.0135(8) -0.0012(8) 0.0122(8)
C4 0.0330(9) 0.0289(8) 0.0297(9) 0.0000(7) 0.0064(7) 0.0112(7)
C5 0.0383(10) 0.0305(8) 0.0357(9) 0.0043(7) 0.0119(8) 0.0147(7)
C6 0.0500(12) 0.0419(10) 0.0353(10) 0.0008(9) 0.0073(9) 0.0190(8)
C7 0.0705(16) 0.0587(13) 0.0404(12) 0.0072(12) 0.0104(11) 0.0279(11)
C8 0.0861(19) 0.0537(13) 0.0563(14) 0.0127(13) 0.0259(13) 0.0379(12)
C9 0.0871(19) 0.0386(11) 0.0649(16) -0.0043(11) 0.0202(14) 0.0275(11)
C10 0.0680(15) 0.0344(10) 0.0457(12) -0.0062(10) 0.0101(11) 0.0173(9)
C11 0.0316(9) 0.0328(8) 0.0269(8) 0.0048(7) 0.0019(7) 0.0114(7)
C12 0.0333(9) 0.0443(10) 0.0257(8) 0.0028(8) 0.0006(7) 0.0121(8)
C13 0.0400(11) 0.0685(14) 0.0327(10) 0.0056(10) 0.0034(8) 0.0272(10)
C14 0.0415(11) 0.0796(16) 0.0490(12) 0.0016(11) 0.0098(10) 0.0400(12)
C15 0.0341(10) 0.0678(14) 0.0486(12) -0.0018(10) 0.0052(9) 0.0310(11)
loop_
_atom_type_symbol
_atom_type_description
_atom_type_scat_dispersion_real
_atom_type_scat_dispersion_imag
_atom_type_scat_source
C C 0.0033 0.0016 'International Tables Vol C Tables 4.2.6.8 and 6.1.1.4'
H H 0.0000 0.0000 'International Tables Vol C Tables 4.2.6.8 and 6.1.1.4'
Cu Cu 0.3201 1.2651 'International Tables Vol C Tables 4.2.6.8 and 6.1.1.4'
F F 0.0171 0.0103 'International Tables Vol C Tables 4.2.6.8 and 6.1.1.4'
N N 0.0061 0.0033 'International Tables Vol C Tables 4.2.6.8 and 6.1.1.4'
O O 0.0106 0.0060 'International Tables Vol C Tables 4.2.6.8 and 6.1.1.4'
loop_
_geom_angle_atom_site_label_1
_geom_angle_atom_site_label_2
_geom_angle_atom_site_label_3
_geom_angle_site_symmetry_1
_geom_angle_site_symmetry_3
_geom_angle
_geom_angle_publ_flag
O1 Cu1 O3 2_655 . 97.30(5) yes
O1 Cu1 O3 . . 82.70(5) yes
O2 Cu1 O2 2_655 . 180.00(6) ?
O2 Cu1 O1 2_655 . 88.07(5) ?
O2 Cu1 O1 . . 91.93(5) yes
O2 Cu1 O1 2_655 2_655 91.93(5) ?
O2 Cu1 O1 . 2_655 88.07(5) yes
O2 Cu1 O3 . . 92.53(5) yes
O2 Cu1 O3 2_655 . 87.47(5) yes
O1 Cu1 O1 . 2_655 180.0 ?
C4 O1 Cu1 . . 127.16(11) ?
C2 O2 Cu1 . . 123.14(11) ?
C12 O4 H4 . . 109.5 ?
C11 N1 C15 . . 124.59(16) ?
C11 N1 H1 . . 117.7 ?
C15 N1 H1 . . 117.7 ?
F2A C1 F3A . . 107.4(7) ?
F1B C1 F2B . . 108.5(13) ?
F1B C1 F3B . . 106.5(14) ?
F2B C1 F3B . . 106.1(16) ?
F2A C1 F1A . . 105.9(5) ?
F3A C1 F1A . . 106.6(6) ?
F1B C1 C2 . . 115.2(7) ?
F2A C1 C2 . . 112.2(4) ?
F3A C1 C2 . . 112.1(5) ?
F2B C1 C2 . . 109.7(9) ?
F3B C1 C2 . . 110.3(9) ?
F1A C1 C2 . . 112.3(3) ?
O2 C2 C3 . . 129.03(16) ?
O2 C2 C1 . . 112.62(15) ?
C3 C2 C1 . . 118.35(16) ?
C2 C3 C4 . . 123.16(17) ?
C2 C3 H3 . . 118.4 ?
C4 C3 H3 . . 118.4 ?
O1 C4 C3 . . 122.91(16) ?
O1 C4 C5 . . 116.62(16) ?
C3 C4 C5 . . 120.47(16) ?
C6 C5 C10 . . 118.77(17) ?
C6 C5 C4 . . 119.01(16) ?
C10 C5 C4 . . 122.22(18) ?
C7 C6 C5 . . 120.7(2) ?
C7 C6 H6 . . 119.6 ?
C5 C6 H6 . . 119.6 ?
C8 C7 C6 . . 119.6(2) ?
C8 C7 H7 . . 120.2 ?
C6 C7 H7 . . 120.2 ?
C9 C8 C7 . . 120.2(2) ?
C9 C8 H8 . . 119.9 ?
C7 C8 H8 . . 119.9 ?
C8 C9 C10 . . 120.8(2) ?
C8 C9 H9 . . 119.6 ?
C10 C9 H9 . . 119.6 ?
C9 C10 C5 . . 119.9(2) ?
C9 C10 H10 . . 120.1 ?
C5 C10 H10 . . 120.1 ?
O3 C11 N1 . . 121.10(16) ?
O3 C11 C12 . . 123.72(17) ?
N1 C11 C12 . . 115.18(16) ?
O4 C12 C13 . . 120.18(17) ?
O4 C12 C11 . . 118.92(16) ?
C13 C12 C11 . . 120.89(18) ?
C12 C13 C14 . . 120.31(18) ?
C12 C13 H13 . . 119.8 ?
C14 C13 H13 . . 119.8 ?
C15 C14 C13 . . 119.0(2) ?
C15 C14 H14 . . 120.5 ?
C13 C14 H14 . . 120.5 ?
C14 C15 N1 . . 120.0(2) ?
C14 C15 H15 . . 120.0 ?
N1 C15 H15 . . 120.0 ?
loop_
_geom_bond_atom_site_label_1
_geom_bond_atom_site_label_2
_geom_bond_site_symmetry_2
_geom_bond_distance
_geom_bond_publ_flag
Cu1 O2 2_655 1.9315(12) ?
Cu1 O1 . 1.9434(11) yes
Cu1 O2 . 1.9315(12) yes
Cu1 O1 2_655 1.9434(11) ?
Cu1 O3 . 2.5127(14) yes
F1A C1 . 1.325(5) ?
F2A C1 . 1.297(6) ?
F3A C1 . 1.297(10) ?
F1B C1 . 1.292(12) ?
F2B C1 . 1.308(15) ?
F3B C1 . 1.31(2) ?
O1 C4 . 1.264(2) ?
O2 C2 . 1.277(2) ?
O3 C11 . 1.266(2) ?
O4 C12 . 1.355(2) ?
O4 H4 . 0.8200 ?
N1 C11 . 1.355(2) ?
N1 C15 . 1.360(2) ?
N1 H1 . 0.8600 ?
C1 C2 . 1.531(2) ?
C2 C3 . 1.366(2) ?
C3 C4 . 1.416(2) ?
C3 H3 . 0.9300 ?
C4 C5 . 1.491(2) ?
C5 C6 . 1.386(3) ?
C5 C10 . 1.394(3) ?
C6 C7 . 1.385(3) ?
C6 H6 . 0.9300 ?
C7 C8 . 1.381(3) ?
C7 H7 . 0.9300 ?
C8 C9 . 1.361(4) ?
C8 H8 . 0.9300 ?
C9 C10 . 1.385(3) ?
C9 H9 . 0.9300 ?
C10 H10 . 0.9300 ?
C11 C12 . 1.436(2) ?
C12 C13 . 1.361(3) ?
C13 C14 . 1.403(3) ?
C13 H13 . 0.9300 ?
C14 C15 . 1.351(3) ?
C14 H14 . 0.9300 ?
C15 H15 . 0.9300 ?
loop_
_geom_hbond_atom_site_label_D
_geom_hbond_atom_site_label_H
_geom_hbond_atom_site_label_A
_geom_hbond_site_symmetry_A
_geom_hbond_distance_DH
_geom_hbond_distance_HA
_geom_hbond_distance_DA
_geom_hbond_angle_DHA
O4 H4 O2 2_655 0.82 2.06 2.8380(19) 159.5
O4 H4 O3 . 0.82 2.39 2.7970(18) 111.3
N1 H1 O3 2 0.86 1.99 2.842(2) 172.5
C15 H15 O1 1_455 0.93 2.48 3.271(2) 143.4
C9 H9 O3 1_545 0.93 2.54 3.338(3) 144
loop_
_geom_torsion_atom_site_label_1
_geom_torsion_atom_site_label_2
_geom_torsion_atom_site_label_3
_geom_torsion_atom_site_label_4
_geom_torsion
Cu1 O2 C2 C3 -4.2(3)
Cu1 O2 C2 C1 175.55(12)
F1B C1 C2 O2 -177.4(18)
F2A C1 C2 O2 45.2(7)
F3A C1 C2 O2 -75.7(6)
F2B C1 C2 O2 59.8(12)
F3B C1 C2 O2 -57(2)
F1A C1 C2 O2 164.4(5)
F1B C1 C2 C3 2.4(18)
F2A C1 C2 C3 -134.9(6)
F3A C1 C2 C3 104.1(6)
F2B C1 C2 C3 -120.4(12)
F3B C1 C2 C3 123(2)
F1A C1 C2 C3 -15.8(5)
O2 C2 C3 C4 -6.7(4)
C1 C2 C3 C4 173.51(18)
Cu1 O1 C4 C3 13.0(3)
Cu1 O1 C4 C5 -167.84(12)
C2 C3 C4 O1 2.0(3)
C2 C3 C4 C5 -177.11(18)
O1 C4 C5 C6 7.1(3)
C3 C4 C5 C6 -173.70(18)
O1 C4 C5 C10 -173.96(18)
C3 C4 C5 C10 5.3(3)
C10 C5 C6 C7 0.4(3)
C4 C5 C6 C7 179.44(19)
C5 C6 C7 C8 -0.1(4)
C6 C7 C8 C9 -0.2(4)
C7 C8 C9 C10 0.1(4)
C8 C9 C10 C5 0.2(4)
C6 C5 C10 C9 -0.5(3)
C4 C5 C10 C9 -179.5(2)
C15 N1 C11 O3 179.61(19)
C15 N1 C11 C12 -0.3(3)
O3 C11 C12 O4 1.9(3)
N1 C11 C12 O4 -178.15(17)
O3 C11 C12 C13 -178.84(19)
N1 C11 C12 C13 1.1(3)
O4 C12 C13 C14 178.6(2)
C11 C12 C13 C14 -0.6(3)
C12 C13 C14 C15 -0.6(4)
C13 C14 C15 N1 1.4(4)
C11 N1 C15 C14 -0.9(4)

_cod_database_fobs_code 2020915
