#------------------------------------------------------------------------------
#$Date: 2016-06-17 04:52:18 +0300 (Fri, 17 Jun 2016) $
#$Revision: 183641 $
#$URL: file:///home/coder/svn-repositories/cod/cif/2/02/04/2020471.cif $
#------------------------------------------------------------------------------
#
# This file is available in the Crystallography Open Database (COD),
# http://www.crystallography.net/. The original data for this entry
# were provided by IUCr Journals, http://journals.iucr.org/.
#
# The file may be used within the scientific community so long as
# proper attribution is given to the journal article from which the
# data were obtained.
#
data_2020471
loop_
_publ_author_name
'Seiler, Vanessa Kristina'
'H\"utzler, Wilhelm Maximilian'
'Bolte, Michael'
_publ_section_title
;
 Eight new crystal structures of 5-(hydroxymethyl)uracil, 5-carboxyuracil
 and 5-carboxy-2-thiouracil: insights into the hydrogen-bonded networks
 and the predominant conformations of the C5-bound residues
;
_journal_issue                   5
_journal_name_full               'Acta Crystallographica Section C'
_journal_page_first              379
_journal_page_last               388
_journal_paper_doi               10.1107/S2053229616004861
_journal_volume                  72
_journal_year                    2016
_chemical_formula_iupac          'C5 H4 N2 O3 S, 1.5C4 H8 O2'
_chemical_formula_moiety         'C5 H4 N2 O3 S, 1.5(C4 H8 O2)'
_chemical_formula_sum            'C11 H16 N2 O6 S'
_chemical_formula_weight         304.32
_chemical_name_systematic
;
4-Oxo-2-sulfanylidene-1,2,3,4-tetrahydropyrimidine-5-carboxylic acid
1,4-dioxane sesquisolvate
;
_space_group_crystal_system      triclinic
_space_group_IT_number           2
_space_group_name_Hall           '-P 1'
_space_group_name_H-M_alt        'P -1'
_symmetry_space_group_name_Hall  '-P 1'
_symmetry_space_group_name_H-M   'P -1'
_atom_sites_solution_hydrogens   mixed
_audit_creation_method           SHELXL-2014/7
_cell_angle_alpha                89.377(10)
_cell_angle_beta                 85.143(10)
_cell_angle_gamma                77.700(10)
_cell_formula_units_Z            2
_cell_length_a                   5.2819(7)
_cell_length_b                   10.3542(12)
_cell_length_c                   13.0071(15)
_cell_measurement_reflns_used    6794
_cell_measurement_temperature    173(2)
_cell_measurement_theta_max      26.12
_cell_measurement_theta_min      3.72
_cell_volume                     692.51(15)
_computing_cell_refinement
;
X-AREA (Stoe & Cie, 2001)
;
_computing_data_collection
;
X-AREA (Stoe & Cie, 2001)
;
_computing_data_reduction
;
X-AREA (Stoe & Cie, 2001)
;
_computing_molecular_graphics
;
Mercury (Macrae <i>et al.</i>,  2008) and XP in SHELXTL-Plus (Sheldrick,
2008)
;
_computing_publication_material
;
publCIF (Westrip, 2010)
;
_computing_structure_refinement
;
SHELXL2014 (Sheldrick, 2015)
;
_computing_structure_solution
;
SHELXS97 (Sheldrick, 2008)
;
_diffrn_ambient_temperature      173(2)
_diffrn_measured_fraction_theta_full 0.992
_diffrn_measured_fraction_theta_max 0.989
_diffrn_measurement_device_type  'Stoe IPDS II two-circle'
_diffrn_measurement_method       \w
_diffrn_radiation_type           MoK\a
_diffrn_radiation_wavelength     0.71073
_diffrn_reflns_av_R_equivalents  0.0446
_diffrn_reflns_limit_h_max       5
_diffrn_reflns_limit_h_min       -6
_diffrn_reflns_limit_k_max       12
_diffrn_reflns_limit_k_min       -12
_diffrn_reflns_limit_l_max       15
_diffrn_reflns_limit_l_min       -15
_diffrn_reflns_number            5885
_diffrn_reflns_theta_full        25.000
_diffrn_reflns_theta_max         25.825
_diffrn_reflns_theta_min         3.722
_exptl_absorpt_coefficient_mu    0.261
_exptl_absorpt_correction_T_max  1.000
_exptl_absorpt_correction_T_min  0.528
_exptl_absorpt_correction_type   multi-scan
_exptl_absorpt_process_details
;
(X-AREA; Stoe & Cie, 2001)
;
_exptl_crystal_colour            colourless
_exptl_crystal_density_diffrn    1.459
_exptl_crystal_description       block
_exptl_crystal_F_000             320
_exptl_crystal_size_max          0.300
_exptl_crystal_size_mid          0.210
_exptl_crystal_size_min          0.160
_refine_diff_density_max         0.300
_refine_diff_density_min         -0.221
_refine_ls_extinction_method     none
_refine_ls_goodness_of_fit_ref   1.037
_refine_ls_hydrogen_treatment    mixed
_refine_ls_matrix_type           full
_refine_ls_number_parameters     190
_refine_ls_number_reflns         2645
_refine_ls_number_restraints     3
_refine_ls_restrained_S_all      1.037
_refine_ls_R_factor_all          0.0431
_refine_ls_R_factor_gt           0.0362
_refine_ls_shift/su_max          0.000
_refine_ls_shift/su_mean         0.000
_refine_ls_structure_factor_coef Fsqd
_refine_ls_weighting_details
'w=1/[\s^2^(Fo^2^)+(0.0652P)^2^+0.0475P] where P=(Fo^2^+2Fc^2^)/3'
_refine_ls_weighting_scheme      calc
_refine_ls_wR_factor_gt          0.0975
_refine_ls_wR_factor_ref         0.1004
_reflns_number_gt                2272
_reflns_number_total             2645
_reflns_threshold_expression     'I > 2\s(I)'
_cod_data_source_file            eg3200sup1.cif
_cod_data_source_block           VII
_cod_depositor_comments
'Adding full bibliography for 2020465--2020472.cif.'
_cod_database_code               2020471
_cod_database_fobs_code          2020471
_shelx_space_group_comment
;
The symmetry employed for this shelxl refinement is uniquely defined
by the following loop, which should always be used as a source of
symmetry information in preference to the above space-group names.
They are only intended as comments.
;
_shelx_estimated_absorpt_t_min   0.926
_shelx_estimated_absorpt_t_max   0.959
_shelx_hkl_file
;
  -5   1   2    3.38    3.17   0
  -5   2   0   70.26    3.11   0
  -5   3  -2   10.01    3.16   0
  -5   4  -3    4.81    2.48   0
  -5   5  -4    2.29    3.16   0
  -4   4  -5    1.88    3.12   0
  -3  -1   3   50.10    4.38   0
  -3  -1  12   44.66    6.23   0
  -3   3  -5   11.74    3.13   0
  -3   4  -6  550.06    6.13   0
  -3   7  -8   33.85    3.53   0
  -2   6  -8   36.14    2.42   0
  -2   8  -9    4.23    3.59   0
  -1  -1  14   19.49    3.68   0
   0  -1  13   83.44    3.96   0
   0   8  -9    1.17    3.00   0
   1  -1   7  200.89    4.43   0
   1  -1   8    3.46    2.89   0
   1  -1   9    3.63    2.76   0
   1  -1  10   47.11    2.65   0
   1   0  15   50.88    3.84   0
   1   7  -8    3.43    3.74   0
   1   9  -9   40.03    3.88   0
   2   0  12  268.10    4.96   0
   3   1   6   71.30    2.87   0
   3   1  11  144.35    4.08   0
   3   1  12   22.59    2.64   0
   3   2   2 1268.26   10.56   0
   4   4   1    1.95    3.21   0
   5   4   9    1.20    2.30   0
   5   4  10  221.31    4.05   0
   5   5   4  113.25    4.26   0
  -4   1  -1  335.14    5.10   0
  -4   3  -4   63.49    2.95   0
  -4   5  -6   47.99    2.81   0
  -3   2  -4 1529.04   10.11   0
  -3   5  -7   41.84    2.68   0
  -2   0  -1    4.49    4.01   0
  -2   1  -3  760.91    8.38   0
  -1   7  -9   43.15    3.66   0
   0   6  -8   24.93    3.54   0
   2   0   6  724.50    7.28   0
   2   0  10  109.15    3.94   0
   2   0  11   52.41    2.74   0
   2   7  -7  136.61    6.43   0
   3   1   7  159.89    3.69   0
   3   1   8  217.70    4.73   0
   3   1   9  338.63    5.26   0
   3   1  10    3.08    2.45   0
   3   4  -2  876.82   12.74   0
   4   3   4   50.19    2.66   0
   4   6  -2  399.56    8.73   0
   5   7   0    7.31    3.50   0
  -5   0   6   57.47    5.26   0
  -5   0   7   46.13    5.40   0
  -5   1   1  107.81    4.39   0
  -5   2  -1   52.01    2.85   0
  -5   4  -4  335.57    5.70   0
  -4   0   1   58.46    3.93   0
  -4   2  -3    3.06    2.09   0
  -4   6  -7   84.04    3.16   0
  -3   6  -8  155.07    4.20   0
  -2  -1  13   51.91    5.29   0
  -2   3  -6   78.49    3.61   0
  -2   4  -7  447.03    5.85   0
  -2   7  -9    2.75    2.33   0
  -1   0  -1   16.91    6.10   0
  -1   1  -3   31.84    4.55   0
  -1   9 -10   40.93    3.89   0
   0  -1  12  165.32    4.75   0
   0   2  -4  489.47    9.28   0
   1   0   2  295.94    8.44   0
   1   0  14    8.85    3.39   0
   2   0   7  373.26    5.28   0
   2   0   8   48.27    2.73   0
   2   0   9    1.42    2.17   0
   2   1  15   60.04    3.39   0
   3   3   0  431.11    7.71   0
   4   3   5  171.81    4.29   0
   4   3  12    7.55    3.44   0
   4   3  13   33.28    2.80   0
   5   5   5   53.00    3.82   0
   5   6   2   14.26    3.48   0
   5   8  -1   81.37    4.77   0
   5   9  -2    4.19    4.92   0
  -5   0   5  112.73    5.28   0
  -5   0   8   35.60    5.48   0
  -5   3  -3  194.28    4.03   0
  -5   5  -5   56.51    3.02   0
  -4  -1   6   37.45    5.31   0
  -4  -1   7    8.54    4.75   0
  -4  -1   8  197.65   10.08   0
  -3   1  -3  819.81    7.94   0
  -2   5  -8    4.46    3.23   0
  -1  -1  13  107.82    4.81   0
  -1   3  -6   36.14    3.57   0
  -1   4  -7  633.29    6.73   0
  -1   5  -8  286.90    5.23   0
   0   7  -9    2.18    3.25   0
   0   9 -10   77.23    4.39   0
   2   1   2 3130.79   18.27   0
   2   1  14    0.74    3.70   0
   3   2   3  436.06    6.50   0
   3   2  14  191.44    3.96   0
   4   3   6  570.27    6.48   0
   4   3  11  123.20    4.30   0
   4   4   2   44.28    3.76   0
   4   7  -3    6.47    4.70   0
   4   8  -4   12.55    5.21   0
   5   5   6  348.45    5.54   0
  -5   0   4   39.65    4.16   0
  -5   1   0   18.20    3.68   0
  -5   2  -2   94.34    4.16   0
  -4  -1   5  201.27    7.20   0
  -4   1  -2  203.59    4.18   0
  -4   3  -5   73.29    3.09   0
  -4   4  -6   90.56    3.25   0
  -4   5  -7    7.39    3.54   0
  -3  -1   2  155.50    5.66   0
  -3   0  -1   44.21    3.01   0
  -3   3  -6   95.07    4.00   0
  -3   4  -7   54.79    3.57   0
  -3   7  -9   27.54    2.55   0
  -2   2  -5   84.93    3.25   0
  -2   6  -9   37.59    3.40   0
  -2   8 -10  121.04    4.48   0
  -1   8 -10    6.31    3.36   0
   0  -1   4   77.16    4.49   0
   0  -1  11   39.88    3.70   0
   0   0  15    9.57    3.85   0
   1   0  13   52.29    3.84   0
   1   8  -9  235.61    5.96   0
   3   2  13    5.36    2.56   0
   3   9  -7    0.79    5.99   0
   4   3   7  245.75    4.25   0
   4   3   8   33.04    3.55   0
   4   3   9  395.23    5.55   0
   4   3  10   66.93    3.05   0
   4   5   0  665.19    8.72   0
   5   5   7  232.09    4.42   0
   5   5   8   -1.58    2.60   0
   5   5   9  237.19    4.46   0
   5   5  10    0.07    2.49   0
   5   6   3   35.68    3.67   0
   5   7   1    6.07    3.51   0
  -5   0   3   94.87    4.61   0
  -5   3  -4   77.83    4.01   0
  -5   4  -5   25.27    3.58   0
  -4   0   0  330.09    5.89   0
  -4   2  -4  285.80    4.50   0
  -4   6  -8   24.81    3.62   0
  -3   2  -5  451.45    6.02   0
  -3   5  -8  179.14    3.76   0
  -1  -1  12   84.63    4.33   0
  -1   2  -5   11.44    3.81   0
  -1   6  -9  502.33    5.92   0
   0  -1  10  680.83    8.30   0
   2   1  13   11.26    2.54   0
   2   8  -8  114.68    6.13   0
   2  10  -9   54.47    4.69   0
   3   2   4    6.08    3.06   0
   3   2  12  304.37    4.58   0
  -4  -1   4  307.85    7.27   0
  -3   6  -9  142.08    3.51   0
  -2  -1  12    9.86    4.57   0
  -2   7 -10   19.22    3.85   0
  -1   0  15   99.62    4.55   0
   0  -1   5   69.81    4.80   0
   0  -1   9    1.10    3.17   0
   0   0  14   25.88    3.57   0
   0   4  -7  229.87    5.53   0
   0   5  -8  723.53    8.35   0
   0   8 -10   18.00    3.53   0
   1   0  12  157.75    3.76   0
   1   1  15   69.59    4.12   0
   1   5  -7  107.93    5.33   0
   2   1   3  271.01    6.09   0
   2   1  12    0.53    3.04   0
   3   2  11  223.96    4.05   0
   4   4   3  111.45    3.54   0
   5   6   4    3.65    2.48   0
  -6   2   0   71.59    3.43   0
  -5   0   2   68.15    3.92   0
  -5   1  -1  170.43    4.00   0
  -5   2  -3    2.20    2.32   0
  -4   1  -3   28.27    3.15   0
  -4   3  -6   30.82    3.36   0
  -4   4  -7  206.63    3.95   0
  -4   5  -8    1.88    3.22   0
  -3  -1  11   46.26    5.49   0
  -3   1  -4  263.73    4.94   0
  -3   7 -10    3.41    3.50   0
  -2  -1   1   51.84    4.68   0
  -2   0  -2  714.13    9.14   0
  -2   1  -4   27.50    2.61   0
  -2   3  -7  570.75    6.62   0
  -2   4  -8  109.54    3.98   0
  -1   7 -10    3.26    2.27   0
   0  -1   6 1387.59   12.97   0
   0  -1   8  168.93    5.11   0
   0   6  -9  462.99    6.73   0
   1   0   3 1586.13   14.13   0
   1   0  11   18.80    3.20   0
   1   6  -8  185.89    5.52   0
   2   1  11   22.84    3.37   0
   2   2  15    4.87    2.55   0
   3   2   5  339.08    4.95   0
   3   2   6   61.27    3.56   0
   3   2   9  242.38    4.74   0
   3   2  10   14.15    2.51   0
   3   3   1    4.26    3.19   0
   3   3  14   15.91    3.52   0
   4   4   4  171.02    4.37   0
   4   4  11   83.49    3.97   0
   4   4  12   86.72    3.14   0
   5   6   5   19.97    2.59   0
   5   6   6   31.68    3.61   0
   5   7   2   61.24    3.99   0
   5   8   0    6.69    3.63   0
  -6   2  -1    2.94    3.49   0
  -5   3  -5    9.43    3.29   0
  -5   4  -6  103.42    3.25   0
  -4  -1   3  940.34   10.84   0
  -4   0  -1    3.17    2.30   0
  -4   2  -5   68.73    3.71   0
  -3  -1   1  142.22    5.09   0
  -3   0  -2    2.83    2.32   0
  -3   3  -7  696.81    6.86   0
  -3   4  -8   12.33    3.20   0
  -3   5  -9   23.64    3.19   0
  -2   5  -9    1.29    2.24   0
  -1  -1  11    7.87    3.29   0
  -1   4  -8  212.93    4.84   0
   0  -1   7  267.48    5.57   0
   0   3  -6  349.10    6.91   0
   1   0  10   16.93    2.95   0
   1   1  14   10.46    3.34   0
   1   4  -6  151.21    5.83   0
   1   9 -10    2.23    3.59   0
   2   1  10  223.74    4.74   0
   2   2  14  355.35    5.57   0
   3   2   7  156.81    3.81   0
   3   2   8   72.28    2.98   0
   3   3  13   86.20    3.91   0
   3   5  -3   97.95    6.24   0
   4   4   5  297.95    5.16   0
   4   4  10  270.06    5.10   0
   4   5   1   92.08    4.24   0
   4   6  -1   30.49    4.27   0
   5   6   7   98.85    3.34   0
   5   6   8  113.30    3.66   0
   5   6   9   30.70    2.92   0
   5   9  -1    0.35    3.77   0
  -6   1   2   -1.22    3.66   0
  -5   0   1    1.27    3.21   0
  -5   1  -2   13.87    3.44   0
  -5   2  -4   25.22    3.23   0
  -3   2  -6   36.27    3.62   0
  -2   2  -6  135.69    3.66   0
  -2   6 -10   29.79    2.65   0
  -1   0  14  158.80    5.08   0
  -1   3  -7   19.40    3.06   0
  -1   5  -9  178.07    3.91   0
  -1   8 -11    9.24    3.52   0
   0   0  13   94.35    3.48   0
   0   7 -10  194.02    4.91   0
   1   0   4  227.16    6.19   0
   1   0   9   37.60    3.13   0
   1   7  -9   68.02    4.25   0
   2   1   4   39.24    2.93   0
   2   1   9   40.09    3.24   0
   2   2   0 2040.39   17.94   0
   4   4   6  177.73    4.39   0
   4   4   7  157.91    4.21   0
   4   4   8  150.58    4.33   0
   4   4   9   99.24    3.20   0
   5   7   3   33.34    3.41   0
  -6   1   1   16.78    3.67   0
  -6   2  -2   74.91    4.12   0
  -5   4  -7  215.58    4.77   0
  -4  -1   2   67.91    4.19   0
  -4   1  -4  856.98    7.75   0
  -4   3  -7   23.99    3.34   0
  -4   4  -8   55.21    3.69   0
  -3   6 -10    6.77    2.63   0
  -2  -1  11   33.13    4.13   0
  -2   0  14    2.01    3.94   0
  -1  -1  10    5.94    3.32   0
  -1   1  -4   24.33    3.07   0
  -1   6 -10   33.62    3.67   0
   0   1  15   49.93    4.12   0
   1   0   8  547.62    6.92   0
   2   1   5  520.97    6.43   0
   2   1   6   28.97    3.40   0
   2   1   7  133.85    4.21   0
   2   1   8    1.75    1.95   0
   2   2  13  138.67    4.34   0
   2   9  -9  149.08    6.48   0
   3   3   2  806.46    8.66   0
   3   3  12   12.89    2.30   0
   3   4  -1   14.11    3.67   0
   4   5  12   18.05    3.53   0
   5   7   4   26.36    3.34   0
   5   8   1   11.21    3.47   0
  -6   1   0   17.01    3.65   0
  -5   0   0   36.34    2.75   0
  -5   1  -3   63.08    3.85   0
  -5   3  -6   18.74    2.49   0
  -4   0  -2 1645.78   10.57   0
  -4   2  -6   16.39    3.38   0
  -4   5  -9   48.92    2.85   0
  -3   0  -3   21.92    3.37   0
  -3   1  -5   19.42    3.31   0
  -2   7 -11    6.42    2.64   0
  -1   2  -6  123.08    4.59   0
   0   0  12   34.39    3.51   0
   1   0   5 5411.12   22.15   0
   1   0   6  206.64    5.48   0
   1   0   7 1207.21    9.87   0
   1   1  13   55.86    2.89   0
   2   3  15   14.63    3.67   0
   3   3  11    7.08    3.26   0
   3   4  14    6.38    3.55   0
   4   5   2   50.77    3.01   0
   4   5  11   34.04    3.75   0
   5   7   5   91.30    4.15   0
   5   7   6   45.42    3.89   0
   5   7   8    9.02    3.63   0
  -5   2  -5   72.09    3.22   0
  -4  -1   1  154.27    5.07   0
  -3  -1   0  259.10    5.56   0
  -3   3  -8  269.65    4.27   0
  -3   4  -9    4.28    2.34   0
  -3   5 -10   10.33    3.40   0
  -2   0  -3   11.27    3.53   0
  -2   1  -5  286.78    5.04   0
  -2   3  -8  470.94    6.06   0
  -2   4  -9 1279.64    8.58   0
  -2   5 -10   74.46    4.00   0
  -1  -1   9   -0.24    3.24   0
  -1   0  -2  303.50    7.67   0
  -1   0  13   19.01    3.64   0
  -1   7 -11    1.28    2.53   0
   0   8 -11   64.39    4.21   0
   1   2  15   18.39    2.60   0
   1   8 -10   20.86    3.87   0
   2   2  12   55.98    2.80   0
   3   3   3  386.73    6.11   0
   3   3  10  101.15    3.93   0
   4   5   3   97.42    3.93   0
   4   5  10    3.04    3.38   0
   4   7  -2   81.35    4.93   0
   5   7   7   62.38    3.25   0
   5   8   2   31.56    3.85   0
   5   9   0   10.33    3.77   0
  -6   1  -1   80.33    4.21   0
  -5   0  -1   67.84    3.06   0
  -5   3  -7   40.72    3.70   0
  -4   0  -3   50.63    3.46   0
  -4   1  -5 1164.79    8.84   0
  -4   3  -8    6.77    3.45   0
  -4   4  -9  135.95    4.18   0
  -3  -1  10   10.56    5.40   0
  -3   2  -7 2601.13   11.98   0
  -3   6 -11  151.48    4.47   0
  -2  -1   0 2033.13   17.73   0
  -2   2  -7  393.90    5.63   0
  -2   6 -11   71.03    4.08   0
  -1   1  15  216.17    5.63   0
   0   0  11    8.96    3.35   0
   0   1  -3  170.93    7.67   0
   0   1  14  320.85    5.98   0
   0   2  -5   10.87    2.82   0
   0   5  -9  197.70    5.26   0
   1   1  12    3.79    2.30   0
   2   2  11  117.14    4.12   0
   2   3  14   24.65    3.57   0
   3   3   9    6.92    3.20   0
   3   4  13    1.85    2.36   0
   4   5   4  240.63    4.98   0
   4   5   9  103.35    4.06   0
   4   6   0   91.76    4.44   0
   5   8   3    9.32    3.60   0
  -6   0   3    2.20    3.83   0
  -6   1  -2    6.59    3.55   0
  -5   1  -4   60.70    2.94   0
  -5   2  -6  292.86    5.35   0
  -4  -1   0  107.72    4.43   0
  -4   2  -7   15.05    3.39   0
  -3   0  13    1.21    4.96   0
  -2  -1  10   43.55    4.48   0
  -2   0  13   20.24    4.61   0
  -1   4  -9   49.74    3.65   0
  -1   5 -10   94.18    4.02   0
   0   4  -8   72.30    4.10   0
   0   6 -10   16.59    3.37   0
   1   1  11  248.31    5.04   0
   1   2  14   35.97    3.56   0
   1   3  -5   59.88    5.57   0
   3   3   4  187.05    4.09   0
   3   3   5   52.48    3.42   0
   3   3   6   10.50    3.05   0
   3   3   7   13.48    3.15   0
   3   3   8  391.11    5.22   0
   3   4  12  120.61    4.25   0
   4   5   5  109.05    4.14   0
   4   5   6   10.95    3.13   0
   4   5   7   46.88    3.61   0
   4   5   8    2.10    2.19   0
   5   8   4   62.28    3.93   0
   5   9   1   15.68    3.69   0
  -6   0   2   40.79    4.11   0
  -5  -1   3    2.42    3.45   0
  -5  -1   4    2.84    3.70   0
  -5  -1   5   35.82    4.33   0
  -5   0  -2   28.70    2.66   0
  -3  -1  -1  288.71    5.95   0
  -3   0  -4  308.88    5.43   0
  -3   1  -6  272.30    5.13   0
  -3   4 -10    9.81    3.31   0
  -1  -1   8   25.36    3.88   0
  -1   3  -8  144.67    3.76   0
  -1   6 -11  194.31    4.93   0
   0   0  10  447.82    6.74   0
   1   9 -11    3.61    3.93   0
   2   2   1 2718.98   18.38   0
   2   2  10   37.86    2.74   0
   2   3  13    4.31    3.41   0
   2   6  -7   27.70    5.29   0
   2   7  -8    0.57    5.00   0
   3   4   0 2092.94   15.58   0
   4   6   1  342.73    6.25   0
   4   6  11   18.31    3.56   0
   4   8  -3    2.87    4.38   0
   4  10  -5    3.72    5.48   0
   5   8   5  109.15    3.67   0
   5   8   6    6.76    3.55   0
   5   8   7   -3.03    3.71   0
  -6   0   1   -0.48    3.70   0
  -6   1  -3   -0.87    3.65   0
  -5  -1   2    4.42    3.37   0
  -5  -1   6   35.62    4.88   0
  -5   1  -5   21.05    3.50   0
  -5   3  -8   13.98    3.51   0
  -4  -1  -1    3.42    3.25   0
  -4   0  -4  277.41    4.97   0
  -4   1  -6   12.23    3.50   0
  -3   3  -9   82.97    3.02   0
  -3   5 -11   34.38    3.79   0
  -2   1  -6  271.97    5.24   0
  -2   3  -9    3.81    3.11   0
  -2   4 -10 1680.84   10.34   0
  -2   5 -11    2.73    3.22   0
  -1   0  12  384.24    6.62   0
  -1   1  -5  136.64    5.06   0
   0   1  13    2.75    3.52   0
   0   2  15  157.97    4.80   0
   0   3  -7  280.38    6.09   0
   0   7 -11    0.42    2.34   0
   1   1   0  192.94    9.32   0
   1   1  10   -1.47    2.84   0
   1   2  13    1.71    3.18   0
   1   5  -8  113.79    5.52   0
   1   6  -9   24.60    3.60   0
   2   2   9   95.96    3.89   0
   2   3  -2   33.55    5.26   0
   3   4  11   47.80    2.82   0
   3   5  13   14.90    3.50   0
   3   6  -4 1054.11   18.94   0
   4   6  10    7.43    3.49   0
   4   9  -4    5.05    5.08   0
   5   9   2   16.23    3.88   0
  -6   0   0   68.77    4.31   0
  -5  -1   1  373.96    6.59   0
  -5   0  -3   -0.15    2.38   0
  -5   2  -7  494.53    5.40   0
  -4   2  -8   11.90    3.26   0
  -4   3  -9   97.82    3.27   0
  -4   4 -10  101.79    3.20   0
  -3   2  -8  206.07    3.94   0
  -2   0  -4  121.64    3.77   0
  -2   6 -12   21.82    3.73   0
  -1  -1   7    1.75    3.34   0
  -1   1  14   74.88    4.45   0
  -1   2  -7  201.34    4.90   0
  -1   7 -12    0.81    2.40   0
   1   3  15    0.87    2.57   0
   1   7 -10   91.81    5.40   0
   2   2   2  844.37   10.08   0
   2   2   8    3.22    3.20   0
   2   3  12    8.71    3.11   0
   2   8  -9    4.88    5.06   0
   3   4  10  180.91    4.44   0
   4   6   2    6.03    3.12   0
   4   6   9   72.75    3.68   0
   4   7  -1   64.62    4.38   0
   5   9   3    3.45    3.45   0
  -6   0  -1   10.62    3.55   0
  -6   1  -4   79.33    4.21   0
  -5  -1   0  142.61    4.64   0
  -5   1  -6  101.65    4.05   0
  -3  -1  -2   37.68    3.74   0
  -3   0  -5  985.76    8.38   0
  -2  -1  -1  371.40    7.31   0
  -2  -1   9   12.16    4.32   0
  -2   2  -8  249.39    4.42   0
   0   0   9  198.76    4.54   0
   0   8 -12   52.31    4.01   0
   1   1   9  268.66    5.05   0
   2   2   7    7.38    3.18   0
   2   4  14   13.75    2.73   0
   3   4   1   72.71    4.21   0
   3   4   9   76.92    3.83   0
   3   5  -2    1.71    3.87   0
   3   5  12   40.68    3.70   0
   4   6   3   53.47    3.63   0
   4   6   8  127.09    4.17   0
   4   7  11    4.22    3.57   0
   5   9   4    1.55    2.39   0
   5   9   5   57.61    4.17   0
  -6   0  -2   92.40    4.39   0
  -5  -1   7   -0.17    4.74   0
  -5   0  -4   12.15    2.57   0
  -5   2  -8   29.04    3.49   0
  -4  -1  -2   19.10    2.45   0
  -4   0  -5 2549.87   12.08   0
  -4   1  -7    7.09    3.17   0
  -3   1  -7  254.93    4.41   0
  -3   3 -10   72.60    3.58   0
  -3   4 -11   26.12    3.55   0
  -2   0  12  116.96    5.20   0
  -1  -1   6 1120.44   14.32   0
  -1   0  -3 1550.05   14.05   0
  -1   0  11   -0.48    3.19   0
  -1   4 -10    1.67    3.15   0
  -1   5 -11    3.95    3.40   0
   0   1  12   14.26    2.49   0
   0   2  14  675.92    7.46   0
   1   2  12    7.23    2.32   0
   1   3  14   16.20    3.74   0
   1   4  -7  170.19    6.33   0
   2   2   3 1952.10   13.81   0
   2   2   6  946.47    8.63   0
   2   3  11   21.35    3.42   0
   3   4   8  149.98    4.24   0
   4   6   4   88.74    3.88   0
   4   6   5    2.04    3.15   0
   4   6   6   42.05    3.55   0
   4   6   7  334.07    4.87   0
  -6   1  -5    7.31    2.62   0
  -5  -1  -1   83.72    3.37   0
  -4   2  -9  156.83    4.42   0
  -4   3 -10   81.29    3.09   0
  -3   0  12   55.55    5.38   0
  -3   2  -9  444.24    5.77   0
  -3   5 -12   64.32    3.16   0
  -2   1  -7  103.91    4.01   0
  -2   1  14   39.71    4.27   0
  -2   4 -11   71.30    3.91   0
  -1   2  15    1.79    3.70   0
  -1   3  -9   -1.09    3.10   0
  -1   6 -12  489.55    6.68   0
   0   0   8    6.51    3.18   0
   0   4  -9   53.50    3.95   0
   0   5 -10   30.08    3.42   0
   0   6 -11    4.94    3.34   0
   1   1   8  598.23    6.72   0
   1   8 -11   27.30    3.94   0
   2   2   4 1316.57   10.43   0
   2   2   5 3071.54   15.01   0
   2   4  13   20.85    2.56   0
   3   4   2   73.07    3.91   0
   3   4   7   50.65    3.38   0
   3   5  11   17.06    2.48   0
   3   6  13  120.51    3.55   0
   4   7   0  184.37    5.08   0
   4   7  10  226.74    4.21   0
  -6   0  -3   19.80    3.56   0
  -5  -1  -2 1309.92    9.94   0
  -5   0  -5  123.13    4.15   0
  -5   1  -7    5.59    2.50   0
  -4  -1  -3  161.67    4.48   0
  -3  -1  -3    9.04    3.36   0
  -2  -1  -2 3062.00   18.20   0
  -2   0  -5   48.62    2.88   0
  -2   3 -10  305.61    4.70   0
  -2   5 -12   11.79    2.35   0
  -1   1  -6    7.49    3.58   0
  -1   1  13    7.13    3.42   0
   0   2  -6  318.20    6.40   0
   0   3  15   92.64    4.29   0
   1   1   7  149.22    4.63   0
   1   2  11   19.55    3.35   0
   1   4  15   10.30    3.80   0
   2   3  10   41.70    2.67   0
   2   5  14   10.94    3.49   0
   2   9 -10   30.26    5.30   0
   3   4   3 1876.59   12.07   0
   3   4   4  126.05    4.10   0
   3   4   5    1.27    2.75   0
   3   4   6   86.55    3.05   0
   3   5  10   44.05    3.58   0
   4   7   9   10.84    2.47   0
   4   8  -2   51.72    4.25   0
  -6  -1   1   75.14    4.30   0
  -6  -1   2   15.22    3.82   0
  -6  -1   3   44.89    4.16   0
  -6   0  -4  135.54    4.55   0
  -5   2  -9   48.32    3.90   0
  -4   0  -6  207.08    4.08   0
  -4   1  -8   36.16    2.59   0
  -3  -1   9    0.74    5.00   0
  -3   0  -6   25.05    2.41   0
  -3   1  -8  163.29    3.68   0
  -2   2  -9  324.95    5.24   0
  -1  -1   5   22.84    4.66   0
  -1   2  -8  144.24    4.21   0
   0   0   7  158.38    5.15   0
   0   1  11  243.88    4.57   0
   0   2  13   74.60    4.12   0
   0   7 -12  207.16    4.75   0
   1   1   1 1058.88   15.32   0
   1   3  13    4.64    2.38   0
   2   4  12   36.55    2.54   0
   2   5  -6    1.44    5.96   0
   3   6  12  221.03    4.15   0
   4   7   1   10.64    3.32   0
   4   7   7    6.06    3.26   0
   4   7   8   85.19    3.29   0
   4   8  10   85.09    4.04   0
  -6  -1   0    2.19    3.72   0
  -6  -1   4   12.29    4.16   0
  -5  -1  -3  345.99    5.62   0
  -5   0  -6    3.66    3.26   0
  -5   1  -8   21.48    3.62   0
  -4  -1  -4   18.98    3.10   0
  -4   2 -10   70.40    3.76   0
  -4   3 -11   -1.20    2.38   0
  -3   3 -11    8.39    2.28   0
  -3   4 -12   30.88    2.96   0
  -2  -1   8  123.96    6.27   0
  -1   0  10    2.77    3.40   0
   0   1  -4   69.11    5.24   0
   0   3  -8  100.36    3.75   0
   1   1   6   65.66    3.36   0
   2   3   9  149.43    3.68   0
   3   5  -1  337.64    7.51   0
   3   5   9    3.75    2.41   0
   4   7   2   17.50    3.22   0
   4   7   6    7.66    3.25   0
   4   9  -3   10.56    4.57   0
  -6  -1  -1    2.06    3.68   0
  -6   0  -5  123.32    4.46   0
  -4  -2   1   28.60    3.66   0
  -4  -2   2   47.22    3.90   0
  -4  -2   3   91.76    4.92   0
  -4   0  -7  357.24    5.42   0
  -3  -1  -4  437.27    5.75   0
  -3   2 -10  133.03    3.36   0
  -2   0  11  102.62    4.94   0
  -2   1  -8   64.25    3.33   0
  -2   1  13    5.07    4.45   0
  -2   4 -12   93.53    3.89   0
  -1   0  -4  273.63    6.69   0
  -1   2  14   19.49    3.58   0
  -1   4 -11  243.84    5.20   0
  -1   5 -12  537.23    6.66   0
   0   0   6  974.64   11.10   0
   1   1   5  240.63    5.72   0
   1   2  10   23.49    2.29   0
   1   3  12  692.61    7.12   0
   1   4  14   31.32    2.74   0
   1   6 -10   77.14    5.13   0
   2   3   8  145.43    4.30   0
   2   4  11    7.27    3.12   0
   2   5  13   91.23    3.21   0
   3   5   8  265.74    4.99   0
   3   6  11  104.84    3.26   0
   4   7   3    7.81    2.23   0
   4   7   4   39.60    2.68   0
   4   7   5   46.78    2.83   0
   4   8  -1   58.94    4.19   0
   4   8   9   24.37    2.82   0
  -6  -1  -2    3.46    3.49   0
  -5  -1  -4  192.07    4.00   0
  -5   0  -7    9.04    3.27   0
  -4  -2   0   80.45    4.10   0
  -4  -2   4   79.75    5.56   0
  -4  -1  -5  104.93    3.80   0
  -4   1  -9   28.67    2.47   0
  -3  -2   2 1277.09   14.62   0
  -3  -2   3 1364.91   17.48   0
  -3   0  -7  229.99    4.31   0
  -3   1  -9   31.64    3.26   0
  -2  -1  -3  266.99    6.01   0
  -2   0  -6  782.56    7.62   0
  -2   3 -11   35.91    2.77   0
  -2   5 -13   10.95    2.61   0
  -1  -1   1 1461.05   29.35   0
  -1  -1   4  922.21   17.74   0
  -1   1  12    1.27    2.20   0
  -1   3 -10  935.20    8.51   0
  -1   6 -13   75.38    4.19   0
   0   1  10   50.73    2.85   0
   0   3  14   60.06    3.06   0
   1   1   2 3258.87   22.25   0
   1   1   3 3020.33   19.57   0
   1   1   4 1040.07   10.61   0
   1   5  -9  247.92    6.88   0
   1   7 -11   58.05    4.45   0
   2   3  -1  388.22    9.05   0
   3   5   7  216.92    4.72   0
   3   6  10  176.28    4.57   0
   3   7  -5   85.48    7.71   0
   3   7  12    1.23    2.52   0
   4   8   8  322.53    4.88   0
   4  10  -4  115.61    5.70   0
  -6  -1  -3   26.12    3.77   0
  -6   0  -6   38.71    3.01   0
  -5  -2   1  134.75    4.76   0
  -5  -2   2  121.69    5.35   0
  -5  -1  -5    7.14    3.26   0
  -5   1  -9    2.20    2.43   0
  -4  -2  -1    1.70    3.26   0
  -4   0  11    4.69    5.64   0
  -4   2 -11    6.06    3.51   0
  -3  -2   1   15.20    3.60   0
  -3  -1  -5  251.00    5.10   0
  -3   1  13    5.49    4.97   0
  -3   3 -12   45.04    3.66   0
  -2   2 -10   57.07    2.81   0
  -1   0   9  109.19    4.61   0
  -1   1  -7  188.36    4.94   0
   0   0   5  465.83    8.61   0
   0   2  12  763.17    7.35   0
   0   4 -10   66.75    4.09   0
   0   5 -11    2.90    3.29   0
   0   6 -12   19.33    3.54   0
   1   2   9   33.40    2.49   0
   1   4  13  209.42    4.94   0
   2   3   7   41.66    2.70   0
   2   4  -4  557.68   23.23   0
   2   4  10   50.43    3.51   0
   2   5  12   50.04    3.64   0
   3   5   0   27.61    3.64   0
   3   5   6  653.44    6.89   0
   4   8   0    3.93    3.40   0
   4   8   7   37.31    2.76   0
  -6  -1  -4   14.95    3.75   0
  -5  -2   0  667.18    8.25   0
  -5  -2   3   36.01    4.06   0
  -4   0  -8  386.98    4.99   0
  -4   1 -10   28.30    3.62   0
  -3  -2   0  198.44    5.68   0
  -3   0  11   -0.31    4.68   0
  -3   2 -11   19.19    3.25   0
  -2   2  14   74.05    4.67   0
  -1   2  -9  746.61    7.96   0
   0   2  -7  943.58   10.32   0
   0   7 -13    1.50    3.64   0
   1   3  -6  219.09    7.11   0
   1   3  11  235.40    4.93   0
   1   8 -12   19.73    4.08   0
   2   3   6  170.55    4.57   0
   2   6  13   30.72    3.60   0
   3   5   5    2.67    2.82   0
   3   6  -3    2.09    4.02   0
   3   6   9    3.45    2.28   0
   3   7  11   32.54    2.69   0
   4   8   1   30.08    3.66   0
   4   8   5    5.44    3.29   0
   4   8   6    1.27    2.41   0
   4   9  -2  136.63    5.48   0
   4   9   8    4.04    3.71   0
  -5  -2  -1   61.71    3.17   0
  -5  -1  -6   17.29    3.33   0
  -5   0  -8   80.61    3.11   0
  -5   1 -10   12.92    3.48   0
  -4  -2  -2  436.75    5.97   0
  -4  -2   5  518.05   13.23   0
  -4  -1  -6   52.21    2.80   0
  -3  -2  -1   30.74    3.62   0
  -3  -2   4   59.52    6.96   0
  -3   0  -8    6.69    2.32   0
  -3   1 -10   67.11    3.67   0
  -2  -1  -4   35.99    3.66   0
  -2   0  -7  341.83    5.54   0
  -2   1  -9  278.57    5.01   0
  -2   4 -13   13.20    3.63   0
  -1   2  13   -1.09    3.10   0
   0   0   4   52.09    5.25   0
   0   1   9    3.59    2.00   0
   0   3  13   23.64    3.52   0
   1   2   8 1105.48    9.07   0
   1   4  -8  129.02    5.60   0
   1   5  14   11.48    2.59   0
   2   3   5   44.38    3.54   0
   2   4   9   40.70    3.54   0
   2   5  11    2.82    3.06   0
   3   5   1    5.59    2.30   0
   3   5   2  439.11    6.65   0
   3   5   3   13.73    2.99   0
   3   5   4   31.67    3.09   0
   3   6   8   99.92    3.97   0
   4   8   2   99.50    4.34   0
   4   8   3    5.47    3.46   0
   4   8   4  358.84    5.38   0
  -6  -1  -5   -1.46    3.64   0
  -5  -2  -2  559.18    6.47   0
  -5  -2   4   47.58    4.53   0
  -4  -2  -3  561.85    6.90   0
  -4   0  -9   17.46    3.34   0
  -4   2 -12  110.79    4.23   0
  -3  -1  -6   66.32    3.64   0
  -2   0  10  671.16   10.02   0
  -2   1  12  106.19    5.59   0
  -2   3 -12  127.09    3.49   0
  -1  -1   0  188.92    9.28   0
  -1   0  -5 4822.70   21.35   0
  -1   1  11   10.88    2.36   0
  -1   3 -11    8.45    3.18   0
  -1   4 -12   39.96    2.83   0
  -1   5 -13   54.84    3.04   0
   0   2  11   35.30    3.58   0
   0   3  -9   19.45    2.52   0
   0   4  14   10.11    3.66   0
   1   4  12  616.36    6.97   0
   2   3   0 2169.40   17.72   0
   2   3   4  645.63    7.78   0
   2   6  12  133.83    4.40   0
   2   7  -9   19.08    5.37   0
   3   7  10   37.74    2.83   0
   3   8  11    6.70    3.48   0
   4   9  -1   36.97    4.04   0
   4   9   7  116.43    3.78   0
   4  10  -3   80.44    4.97   0
  -6  -2   0  161.48    5.07   0
  -6  -1  -6    2.03    3.87   0
  -5  -2  -3  211.15    5.00   0
  -5  -1  -7    4.59    3.14   0
  -5   0  -9  164.38    3.76   0
  -4  -1  -7   92.81    4.06   0
  -4   1 -11   87.21    4.14   0
  -3  -2  -2 1252.02   10.33   0
  -3   2 -12   64.57    3.80   0
  -3   3 -13  115.25    3.51   0
  -2  -1   7   20.80    4.43   0
  -2   2 -11   28.70    2.61   0
  -1   3  14    2.68    2.53   0
   0   1  -5   69.08    4.87   0
   1   3  10  154.85    3.63   0
   1   5  13   44.26    3.86   0
   2   3   1 1757.46   14.78   0
   2   3   2 1363.43   12.26   0
   2   3   3   25.79    4.05   0
   2   4   8   35.77    3.79   0
   2   5  10  482.69    6.10   0
   2   7  13    1.71    2.54   0
   2   8 -10    6.66    5.43   0
   3   6   7   37.82    3.63   0
   3   7   9  190.64    4.75   0
   4   9   5  330.69    5.82   0
   4   9   6    5.74    2.42   0
  -6  -2  -2   74.37    4.21   0
  -6  -2  -1    9.88    3.82   0
  -6  -2   1   19.98    3.85   0
  -6  -2   2   18.22    4.27   0
  -5  -2  -4  173.08    4.79   0
  -4  -2  -4  139.94    4.17   0
  -3  -2  -3  431.10    6.59   0
  -3   0  -9  146.54    3.59   0
  -2  -1  -5  472.70    6.75   0
  -1   0   8  279.89    6.50   0
  -1   1  -8    2.94    2.17   0
  -1   2 -10  119.69    4.29   0
   0   0   3 3652.95   27.09   0
   0   1   8   12.85    3.38   0
   0   3  12  348.82    5.86   0
   0   5 -12   49.93    3.94   0
   1   2   7 1370.69   10.03   0
   1   6  14   34.77    2.87   0
   3   6  -2   65.15    5.01   0
   3   6   6  785.27    7.54   0
   3   8  10   37.71    3.75   0
   4   9   0   25.95    3.80   0
   4   9   1    0.54    3.50   0
   4   9   3  189.32    5.12   0
   4   9   4  166.02    4.91   0
   4  10   7    2.98    2.57   0
  -6  -2  -3   22.16    3.53   0
  -6  -2   3    0.59    4.97   0
  -5  -2   5   10.06    4.88   0
  -5  -1  -8  284.93    5.18   0
  -5   0 -10  152.81    4.56   0
  -4  -1  -8  173.55    4.57   0
  -4   0 -10    3.34    3.46   0
  -3  -1  -7  148.05    3.81   0
  -3   1 -11  337.22    4.61   0
  -2   0  -8   44.03    2.74   0
  -2   1 -10  204.70    4.12   0
  -2   2  13   22.84    4.00   0
  -2   3 -13  131.99    4.44   0
  -2   4 -14   -1.69    3.68   0
  -1  -1  -1 1089.67   15.78   0
  -1   2  12    7.78    3.58   0
   0   2  10  216.71    4.94   0
   0   4 -11  248.77    5.50   0
   0   6 -13   38.10    4.01   0
   1   4  11  264.18    5.16   0
   1   6 -11  126.49    5.40   0
   2   4   7   33.76    3.59   0
   2   6  11   35.48    2.71   0
   2   7  12   22.80    3.69   0
   3   7   8   36.81    3.52   0
   3   8  -6  123.57    9.12   0
   4   9   2 1266.66   10.07   0
   4  10  -2    1.00    3.66   0
   4  10   6  214.52    4.51   0
  -6  -2  -4   -0.56    3.43   0
  -5  -2  -5  236.29    4.33   0
  -4  -2  -5  113.59    3.26   0
  -4   1 -12   92.86    4.07   0
  -3  -2  -4    1.45    3.13   0
  -3  -1   8   83.08    6.92   0
  -3   1  12    1.06    3.77   0
  -3   2 -13   61.88    3.97   0
  -2   2 -12  204.46    4.87   0
  -1   0  -6  185.95    4.71   0
  -1   1  10  218.29    5.63   0
  -1   4 -13   26.00    3.52   0
  -1   5 -14   88.23    4.33   0
   0   2  -8  818.70    9.26   0
   0   4  13   35.71    2.67   0
   0   5  14   -0.62    3.73   0
   1   2   6  401.47    6.54   0
   1   3   9  171.68    3.86   0
   1   5 -10   49.94    4.46   0
   1   5  12    3.38    3.32   0
   1   7 -12   77.29    4.72   0
   2   5   9 1094.58    7.99   0
   2   6  -8   21.93    5.28   0
   3   6   5   38.93    2.65   0
   3   8   9   14.26    3.54   0
   3   9  10   20.59    3.72   0
   4  10  -1   -0.60    3.58   0
   4  10   5   82.63    3.31   0
  -6  -2  -5   77.13    4.11   0
  -5  -2  -6  292.48    5.19   0
  -5  -1  -9   72.63    3.88   0
  -4  -2  -6    3.66    3.25   0
  -3  -1  -8  221.94    4.86   0
  -3   0 -10  177.55    3.83   0
  -2  -1  -6   25.13    2.62   0
  -1   3 -12    7.08    2.48   0
  -1   3  13    8.28    2.53   0
  -1   4  14    6.93    3.67   0
   0   1   7   50.92    4.07   0
   0   3 -10   26.23    3.72   0
   1   6  13    5.86    2.70   0
   2   4   6   99.31    3.90   0
   2   6  10  204.35    4.57   0
   3   6  -1   19.68    3.43   0
   3   6   3  185.86    4.67   0
   3   6   4    3.96    2.25   0
   3   7   7  538.46    5.89   0
   4  10   0   49.15    4.15   0
   4  10   2  139.90    4.91   0
   4  10   3   43.34    4.03   0
   4  10   4   51.20    3.09   0
  -6  -2  -6   23.05    3.86   0
  -6  -2   4    1.78    3.94   0
  -4  -1  -9   37.91    2.62   0
  -4   0 -11  189.24    3.87   0
  -3  -2  -5  324.76    5.40   0
  -3   0  10   17.18    4.78   0
  -3   1 -12   -0.30    2.33   0
  -2   0  -9    0.89    2.07   0
  -2   0   9  357.54    7.96   0
  -2   1 -11  228.68    4.75   0
  -2   1  11   13.58    3.54   0
  -1  -1  -2 2958.41   21.67   0
  -1   1  -9    6.08    2.07   0
  -1   2 -11   10.99    3.27   0
   0   1  -6 1321.79   12.85   0
   0   3  11    4.69    3.17   0
   1   2  -4 1094.04   21.16   0
   1   2   5  154.99    4.88   0
   1   3   8   18.83    2.99   0
   1   4  10 1800.64   10.98   0
   2   5   8   11.95    3.48   0
   2   7  11  250.48    4.33   0
   2   8  12    9.48    2.55   0
   3   6   0  104.05    4.44   0
   3   6   1  195.72    5.12   0
   3   6   2  133.55    4.52   0
   3   7  -4  266.00    8.39   0
   3   7   6   97.01    3.74   0
   3   8   8  517.06    6.31   0
   3   9   9   36.04    3.74   0
   4  10   1   16.49    2.77   0
   4  11  -2    8.79    3.65   0
   4  11   4    8.74    3.76   0
  -5  -2  -7  107.20    3.36   0
  -5  -1 -10   21.02    3.54   0
  -4  -2  -7   98.17    4.10   0
  -3   0 -11   84.69    3.78   0
  -2  -2  -1 2479.69   18.07   0
  -2  -2   0 2055.03   18.25   0
  -2   3 -14    1.29    3.65   0
  -1   0  -7 1257.27   10.35   0
  -1   0   7  494.61    8.43   0
  -1   2  11   24.26    3.44   0
   0   2   9  478.86    6.81   0
   0   4  12   57.05    3.96   0
   0   5 -13   33.82    3.87   0
   1   3  -7    3.87    3.16   0
   1   4  -9   34.57    3.87   0
   1   5  11   43.79    3.63   0
   1   7  13   62.97    4.00   0
   2   4   5  839.95    7.82   0
   4  11  -1   -0.68    3.44   0
   4  11   3   56.45    4.05   0
  -6  -2  -7  189.14    4.18   0
  -5  -3  -3   61.22    3.81   0
  -5  -3  -2   19.27    3.39   0
  -5  -3  -1   10.43    2.62   0
  -5  -3   0  126.60    4.58   0
  -5  -2  -8    8.21    3.36   0
  -4  -3  -1  256.25    5.83   0
  -4  -1 -10   64.28    2.97   0
  -4   0 -12   92.50    3.93   0
  -3  -2  -6   79.50    3.65   0
  -3  -1  -9  330.38    4.72   0
  -3   2 -14    5.41    2.73   0
  -2  -2  -2  889.59   10.47   0
  -2  -2   1    1.32    4.52   0
  -2  -1  -7  156.39    3.92   0
  -2   2 -13   26.51    2.74   0
  -2   2  12  125.98    4.86   0
  -1  -1  -3 3374.96   20.82   0
  -1   4 -14    9.64    3.45   0
   0   4 -12    8.11    3.42   0
   0   5  13   14.35    2.71   0
   1   6  12  182.32    3.97   0
   2   5   7 2099.84   11.76   0
   2   6   9  516.99    5.72   0
   2   7  10    3.27    3.36   0
   2   8  11   37.06    3.68   0
   3   7   5 1637.48   10.13   0
   3   8   7  173.53    3.93   0
   3   9  -7    0.50    6.28   0
   3   9   8    8.23    3.47   0
   3  10   9    2.73    3.61   0
   4  11   0   40.28    4.11   0
   4  11   1    9.83    3.78   0
   4  11   2   -1.69    2.54   0
  -6  -3  -2   99.49    4.64   0
  -6  -3  -1    6.13    3.65   0
  -5  -3  -4  308.79    5.51   0
  -5  -3   1   13.69    3.50   0
  -4  -3  -3  127.38    4.32   0
  -4  -3  -2   10.49    2.41   0
  -4  -3   0   38.93    3.82   0
  -4  -3   1  504.70    8.63   0
  -4  -2  -8   33.24    3.41   0
  -4   0  10   52.72    5.70   0
  -3   1 -13    2.21    2.35   0
  -2   0 -10  110.91    3.39   0
  -2   1 -12    4.16    3.18   0
  -2   3  13    1.67    3.70   0
  -1   1 -10   39.99    3.42   0
  -1   1   9  555.84    7.25   0
  -1   3 -13   39.23    3.64   0
  -1   3  12   33.81    3.68   0
  -1   4  13    2.88    3.34   0
   0   1   6   43.50    4.24   0
   0   2  -9  327.13    5.71   0
   1   2   4    0.31    3.68   0
   1   3   7   98.07    4.12   0
   1   4   9  765.32    7.47   0
   2   4   4   23.97    2.68   0
   3   7   4  504.89    6.57   0
   3   8   6   97.71    3.92   0
  -6  -3  -4    3.77    3.40   0
  -6  -3  -3   28.10    2.85   0
  -6  -3   0  490.04    7.53   0
  -5  -3  -5   30.33    3.52   0
  -5  -3   2   20.02    3.84   0
  -5  -2  -9   47.77    3.69   0
  -5  -1 -11   83.66    3.41   0
  -4  -3  -4   53.25    3.45   0
  -4  -1 -11    7.31    3.35   0
  -3  -2  -7  173.68    4.55   0
  -3  -1 -10    0.47    3.22   0
  -3   0 -12    1.14    3.09   0
  -2  -2  -3 1920.02   13.53   0
  -2  -1  -8   -0.13    2.96   0
  -2  -1   6  380.77   10.68   0
  -1  -1  -4 1153.72   11.54   0
  -1   0  -8  560.93    7.00   0
  -1   2 -12   39.98    3.57   0
   0   3 -11   33.35    3.50   0
   0   3  10   70.20    3.05   0
   1   5  10  138.41    4.44   0
   1   6 -12   18.26    3.78   0
   1   7 -13    7.71    4.81   0
   1   7  12   10.05    3.26   0
   2   4   3  472.19    7.01   0
   2   6   8  889.69    7.83   0
   2   9  11   15.42    3.70   0
   3   7  -3  193.68    6.73   0
   3   7   3   44.14    3.48   0
   3   9   7   89.47    4.11   0
   3  10   8  128.94    4.45   0
  -6  -3  -5    2.86    3.24   0
  -6  -3   1  160.59    5.54   0
  -5  -3  -6   84.22    4.00   0
  -5  -2   6  103.35    8.79   0
  -4  -3  -5  140.36    4.16   0
  -4  -2  -9  105.98    3.91   0
  -4   0 -13   11.96    2.57   0
  -3   1  11   53.32    4.30   0
  -2  -2  -4 1125.80   10.20   0
  -2   2 -14   57.25    4.23   0
   0   1  -7  261.67    5.54   0
   0   2   8   18.51    3.11   0
   0   4  11  135.21    4.31   0
   0   5  12   56.34    3.67   0
   0   6  13   19.65    2.82   0
   1   5 -11    1.57    3.49   0
   1   6  11   85.82    3.22   0
   2   5   6   26.22    2.46   0
   2   7   9    8.05    2.46   0
   2   8  10  275.93    4.46   0
   3   7   2  301.58    5.66   0
   3   8   5 1256.92    9.33   0
  -6  -3  -6  210.85    4.99   0
  -6  -3   2  146.42    6.17   0
  -5  -3  -7   23.85    3.42   0
  -5  -2 -10   34.08    3.49   0
  -4  -3  -6  642.49    6.70   0
  -4  -3   2   19.46    3.51   0
  -4  -1   8  211.42   11.00   0
  -3  -2  -8   72.89    3.69   0
  -3   1 -14   31.49    2.65   0
  -3   2  12    2.57    3.80   0
  -2  -2   2  275.79   10.33   0
  -2   0 -11   54.89    2.74   0
  -2   1 -13   73.67    3.83   0
  -2   1  10   24.22    3.54   0
  -1   2  10   44.21    3.66   0
   0   5 -14   64.12    4.10   0
   1   2   3  208.60    5.55   0
   1   3   6 1113.50    9.55   0
   1   4   8    1.89    3.03   0
   1   8  12   14.93    3.59   0
   2   4  -3  146.34    7.67   0
   2   4   2  870.99    9.77   0
   2   6   7 1776.70   10.83   0
   3   7  -2    5.48    3.39   0
   3   7  -1    9.01    4.18   0
   3   7   0  167.76    5.00   0
   3   7   1   18.14    3.44   0
   3   9   6  120.74    3.48   0
   3  10   7   55.56    2.85   0
  -6  -3  -7    2.25    3.53   0
  -5  -3   3   59.28    5.32   0
  -4  -2 -10    7.24    3.26   0
  -4  -1 -12    7.55    2.38   0
  -4   1  11    1.68    4.83   0
  -3  -3  -3  386.76    6.27   0
  -3  -3  -2  778.82    8.67   0
  -3  -3  -1    5.50    3.28   0
  -3  -1 -11  150.10    3.57   0
  -3   0 -13    2.48    3.28   0
  -2  -2  -5 2695.83   14.35   0
  -2  -1  -9   42.54    2.61   0
  -1  -1  -5  229.45    5.14   0
  -1   0  -9   38.73    3.16   0
  -1   0   6  364.47    7.74   0
  -1   1 -11    2.14    2.23   0
  -1   3 -14   11.85    2.60   0
  -1   3  11  341.69    6.13   0
  -1   5  13    3.74    3.56   0
   0   2 -10  165.65    5.09   0
   0   4 -13   18.99    3.53   0
   0   7  13   54.48    4.00   0
   1   3  -8  490.35    9.28   0
   1   4 -10  364.64    7.90   0
   1   7  11    6.53    3.26   0
   2   4   1  136.62    5.19   0
   2   5   5    1.27    2.12   0
   2   7 -10   86.22    7.53   0
   2   7   8  270.52    5.08   0
   2   8 -11    0.34    5.47   0
   2   8   9   26.27    3.41   0
   2   9  10    0.50    2.27   0
   3   8  -5    3.45    4.51   0
   3   8   4  216.51    4.27   0
  -5  -3  -8   15.32    2.58   0
  -5  -2 -11   25.73    2.82   0
  -4  -3  -7  221.61    4.24   0
  -3  -3  -4  162.65    4.52   0
  -3  -3   0  402.55    7.66   0
  -3  -2  -9  260.49    4.89   0
  -2  -2  -6  897.13    8.51   0
  -2   0   8  149.30    5.43   0
  -2   2  11   12.31    3.52   0
  -2   3  12   27.86    3.68   0
  -2   4  13   62.37    4.37   0
  -1   1   8   69.45    4.11   0
  -1   2 -13   25.03    3.57   0
  -1   4  12    9.47    2.50   0
   0   0  -3 3411.44   26.56   0
   0   1  -8  201.39    5.43   0
   0   1   5  190.94    5.38   0
   0   3 -12  115.11    4.47   0
   0   3   9   49.86    2.75   0
   0   6  12    4.43    3.41   0
   1   5   9   14.13    2.49   0
   1   6  10   63.44    3.01   0
   2   4   0  235.62    6.42   0
   3   8   3   75.83    3.89   0
   3   9   5   21.75    2.66   0
   3  10   6    6.38    2.28   0
  -6  -3   3  347.95    8.85   0
  -5  -3  -9    1.75    3.30   0
  -4  -3  -8   36.37    3.51   0
  -4  -2 -11   18.48    3.54   0
  -4  -1 -13   13.60    2.60   0
  -3  -3  -5   60.13    3.49   0
  -3  -1 -12   17.68    3.38   0
  -3   0   9    0.18    4.49   0
  -2  -1 -10  217.33    4.71   0
  -2   0 -12  241.10    4.24   0
  -2   2 -15    1.55    2.62   0
  -1  -1  -6   70.46    3.40   0
   0   2   7   87.54    4.29   0
   0   4  10    9.05    2.43   0
   0   5  11   15.93    3.21   0
   1   2  -5 2404.83   25.56   0
   1   2   2 1308.52   13.67   0
   1   4   7  125.70    4.09   0
   1   8  11    6.05    3.69   0
   2   4  -2 2111.72   20.60   0
   2   4  -1  434.49    8.72   0
   2   5   4  471.37    6.44   0
   2   6   6   86.41    3.94   0
   2   9   9   24.15    3.68   0
   3   8   2   11.95    3.29   0
   3   9   4   96.51    4.22   0
   3  10   5    9.21    3.73   0
   3  11   6    6.83    3.61   0
  -5  -4  -3  233.02    5.29   0
  -4  -3   3   12.45    4.65   0
  -3  -3  -6    5.86    3.07   0
  -3  -3   1   20.84    4.62   0
  -3  -2 -10   10.92    3.27   0
  -3   0 -14   74.00    3.27   0
  -2  -2  -7    7.23    3.22   0
  -2   1 -14   63.21    3.16   0
  -1   0 -10   19.82    3.13   0
  -1   1 -12  102.83    4.16   0
  -1   6  13  198.84    5.31   0
   0   0  -4   51.78    5.50   0
   1   3   5   27.60    2.74   0
   1   6 -13    1.53    4.47   0
   2   7   7   78.12    3.18   0
   2   8   8   40.18    2.66   0
   2  10   9    1.73    3.55   0
   3   8  -4    7.36    4.54   0
   3   8   1   64.34    3.89   0
  -6  -4  -5   15.31    3.71   0
  -6  -4  -4   10.12    2.58   0
  -6  -4  -3  211.38    4.68   0
  -6  -4  -2    9.00    3.80   0
  -5  -4  -5   19.55    3.55   0
  -5  -4  -4   51.22    3.02   0
  -5  -4  -2  265.76    4.94   0
  -5  -4  -1   10.70    3.50   0
  -5  -3 -10   12.12    2.54   0
  -4  -3  -9  376.84    4.97   0
  -4  -2 -12   83.78    3.91   0
  -2   0 -13  196.77    4.69   0
  -1  -1  -7  150.45    4.69   0
  -1   2 -14  222.47    5.06   0
  -1   2   9  572.77    7.75   0
  -1   3 -15   31.54    2.96   0
  -1   5  12    6.19    3.52   0
   0   2 -11    1.99    3.29   0
   0   4 -14    3.13    3.58   0
   0   7  12   37.52    3.13   0
   1   5 -12   12.27    3.76   0
   1   5   8   22.12    2.45   0
   1   6   9   40.46    3.55   0
   1   7  10   52.57    3.00   0
   1   9  11   49.14    4.01   0
   2   5   3   32.57    3.55   0
   2   6   5  184.35    4.68   0
   3   8  -3   75.18    5.11   0
   3   8   0  111.87    4.35   0
   3   9  -6   -0.95    4.38   0
   3   9   3    1.65    2.44   0
   3  10   4  118.78    4.20   0
   3  11   5   -0.51    2.67   0
  -6  -4  -6    8.69    2.48   0
  -6  -4  -1   41.04    4.06   0
  -5  -4  -7    4.47    3.40   0
  -5  -4  -6   -0.78    2.41   0
  -5  -4   0   64.53    4.63   0
  -5  -3 -11   76.96    4.00   0
  -4  -3 -10   75.51    3.98   0
  -3  -3  -7   10.68    2.53   0
  -3  -2 -11  204.37    4.66   0
  -3  -1 -13    8.92    2.54   0
  -3  -1   7   22.12    5.54   0
  -3   1  10   99.30    5.07   0
  -3   3  12    9.32    3.85   0
  -2  -2  -8    0.88    2.16   0
  -2  -1 -11   25.33    2.59   0
  -2   1   9   28.52    3.85   0
  -1   3  10   35.29    3.66   0
  -1   4  11   11.56    3.57   0
   0   0  -5  466.70    8.69   0
   0   1  -9   -0.36    3.10   0
   0   3 -13    2.55    3.33   0
   0   3   8 1063.72    8.75   0
   0   6  11   82.46    3.96   0
   0   8  12   16.31    3.70   0
   1   2   1 2455.02   20.94   0
   2   6  -9   65.78    8.03   0
   2   7   6  473.69    6.23   0
   2   8   7   29.70    3.54   0
   2   9   8    1.95    2.34   0
   3   8  -2   69.82    4.22   0
   3   8  -1  260.55    5.91   0
   3   9   2   10.33    3.31   0
   3  10  -7    5.09    5.44   0
   3  11   4   45.78    3.95   0
  -6  -4   0  353.03    6.77   0
  -5  -4  -8   26.61    3.75   0
  -5  -3   4    1.21    4.38   0
  -4  -4  -5  329.03    5.42   0
  -4  -4  -4  185.25    4.06   0
  -4  -4  -3  105.99    3.48   0
  -4  -4  -2   51.91    3.85   0
  -4  -2 -13   26.26    3.71   0
  -3  -3  -8  338.37    5.44   0
  -3   2  11   15.89    3.77   0
  -2   1 -15    4.46    2.51   0
  -2   4  12  224.70    4.73   0
  -1  -1  -8  569.84    6.98   0
  -1   0 -11   16.18    3.11   0
  -1   1 -13  164.26    4.64   0
   0   1   4 1545.38   15.06   0
   0   4   9  171.74    3.74   0
   0   5  10   83.72    3.14   0
   1   3  -9   22.12    3.55   0
   1   3   4  186.54    5.21   0
   1   4 -11   18.22    3.81   0
   1   4   6  174.61    4.17   0
   1   8  10   20.07    2.60   0
   2  10   8   44.33    2.77   0
   3   9   1   33.17    3.67   0
   3  10   3   44.07    2.88   0
  -4  -4  -6  167.71    3.83   0
  -4  -4  -1    2.42    3.18   0
  -4  -3 -11   99.56    4.13   0
  -3  -3  -9    9.32    3.13   0
  -3  -2 -12  318.83    5.43   0
  -3  -1 -14  150.58    4.62   0
  -2  -2  -9   90.22    3.07   0
  -2  -1 -12   -0.76    2.99   0
  -2   0 -14   93.87    4.11   0
  -2   2  10    6.04    3.28   0
  -2   3  11   14.06    2.53   0
  -1   0   5  769.26   11.64   0
  -1   1   7  136.07    4.97   0
  -1   6  12  199.92    5.16   0
   0   0  -6 1065.69   11.52   0
   0   2   6  685.57    8.22   0
   0   7  11    5.25    3.41   0
   1   2  -6   43.76    4.38   0
   1   5   7   11.89    3.25   0
   1   6   8    1.22    3.10   0
   1   7   9    2.02    2.32   0
   1   9  10    2.69    3.46   0
   2   5   2  380.69    6.07   0
   2   6   4    3.34    2.07   0
   2   9   7   46.74    3.69   0
   3   9  -5  143.90    6.50   0
   3   9   0  193.44    5.17   0
   3  10   2   46.47    3.71   0
   3  11   3   80.89    3.33   0
   3  12   3    1.92    3.56   0
  -6  -4   1   22.15    3.94   0
  -6  -3   4   34.51    5.50   0
  -5  -4  -9   -2.20    2.21   0
  -5  -4   1    9.10    3.44   0
  -4  -4  -7  142.43    3.40   0
  -4   0   9   45.34    5.42   0
  -3  -3   2  486.42   10.49   0
  -1  -1  -9  280.40    5.11   0
  -1   2 -15    5.43    3.44   0
   0   1 -10  733.87    8.52   0
   0   2 -12  153.95    4.70   0
   2   7   5  234.09    4.24   0
   2   8   6   34.17    2.66   0
   2  10   7   65.04    3.77   0
   3   9  -4   29.80    4.86   0
   3   9  -1  105.59    4.52   0
   3  10   1  100.48    4.19   0
   3  11   2  105.69    4.25   0
  -5  -4 -10  206.75    4.68   0
  -4  -4  -8  144.66    3.61   0
  -4  -4   0   37.41    3.81   0
  -4  -3 -12    2.62    3.34   0
  -4   1  10   14.36    4.85   0
  -3  -3 -10   99.56    3.90   0
  -3  -2 -13    6.35    3.34   0
  -2  -2 -10   33.91    2.60   0
  -2   0   7  417.23    8.66   0
  -2   5  12    2.43    3.61   0
  -1   0 -12  159.15    4.38   0
  -1   1 -14   15.97    3.39   0
  -1   2   8  413.44    6.70   0
  -1   5  11   68.91    3.03   0
  -1   7  12   55.34    4.19   0
   0   3 -14    3.70    3.38   0
   0   3   7  298.84    5.55   0
   0   4 -15    0.84    3.74   0
   0   6  10   28.80    2.45   0
   0   8  11   45.92    2.87   0
   1   2   0 2616.21   24.91   0
   1   4   5  980.84    9.08   0
   1   5 -13   13.73    4.45   0
   1   8   9   71.86    2.92   0
   2   5   1   52.60    3.80   0
   2   6   3  521.52    6.63   0
   2  11   7    3.54    3.44   0
   3   9  -3  271.39    6.76   0
   3   9  -2  133.56    4.83   0
   3  10  -6    9.66    4.62   0
   3  10   0   70.89    4.01   0
   3  12   2   89.76    4.31   0
  -6  -5  -5    0.94    3.52   0
  -6  -5  -4   26.96    3.75   0
  -4  -4  -9   96.91    3.20   0
  -2  -3  -5   41.11    2.83   0
  -2  -3  -4  584.57    7.21   0
  -2  -3  -3   19.20    2.90   0
  -2  -1 -13   14.58    2.47   0
  -2   0 -15   43.26    3.87   0
  -1   3   9  346.64    6.00   0
  -1   4  10  506.85    6.11   0
   0   0  -7  168.89    4.61   0
   0   4   8  197.75    4.66   0
   0   5   9  251.98    4.35   0
   1   3 -10  381.36    8.00   0
   1   3   3  152.45    5.28   0
   1   7   8   46.82    2.63   0
   1   9   9   53.68    3.78   0
   2   7   4   45.52    3.54   0
   2   8   5   30.65    3.44   0
   2   9   6   13.94    2.28   0
   3  10  -1    3.71    3.40   0
   3  11   1    3.18    2.52   0
   3  12   1   -0.40    3.59   0
  -6  -5  -6    6.05    2.71   0
  -6  -5  -3    2.99    3.70   0
  -6  -4   2   74.53    5.64   0
  -5  -5  -6  280.96    5.42   0
  -5  -5  -5   42.46    3.79   0
  -5  -5  -4  122.30    4.47   0
  -5  -4   2  298.37    7.91   0
  -4  -4 -10  298.45    5.29   0
  -4  -3 -13   27.60    3.00   0
  -3  -4  -6   89.05    3.87   0
  -3  -4  -5   -0.77    2.80   0
  -3  -4  -4  130.83    3.65   0
  -3  -4  -3 1871.24   12.19   0
  -3  -3 -11    4.74    2.34   0
  -3   3  11   15.91    3.91   0
  -2  -3  -7   48.03    3.59   0
  -2  -3  -6  175.28    4.05   0
  -2  -3  -2 1264.31   11.66   0
  -2  -2 -11  114.56    3.28   0
  -2   4  11    3.28    3.53   0
  -1  -1 -10    0.96    2.18   0
  -1   6  11    2.14    3.47   0
   0   1 -11   42.78    3.62   0
   0   2 -13    7.48    3.53   0
   0   7  10  165.39    3.75   0
   1   2  -7  216.68    6.82   0
   1   4 -12   83.99    5.73   0
   1   5   6    9.81    2.42   0
   1   6   7   63.87    3.07   0
   1  10   9    3.89    2.60   0
   2   5   0   78.24    4.44   0
   2  10   6  133.87    3.70   0
   2  11   6   98.81    4.63   0
   3  10  -5    0.85    3.56   0
   3  10  -4    4.48    4.03   0
   3  10  -3   44.95    4.75   0
   3  10  -2   24.58    3.79   0
   3  11   0    2.88    2.53   0
   3  12   0   31.94    3.92   0
  -6  -5  -2   98.03    4.62   0
  -5  -5  -8    2.69    3.34   0
  -5  -5  -7  225.71    4.54   0
  -5  -5  -3   15.33    2.69   0
  -5  -5  -2   60.08    3.89   0
  -4  -4 -11   73.85    4.10   0
  -4  -4   1    6.55    3.47   0
  -4  -3   4    8.68    5.26   0
  -3  -4  -7   65.49    3.88   0
  -3  -4  -2   63.14    3.84   0
  -3  -2 -14  175.13    3.97   0
  -3   0   8   19.40    3.83   0
  -3   2  10  132.96    5.81   0
  -2  -1 -14   -0.21    3.58   0
  -2  -1   5  122.56    7.19   0
  -2   1   8    1.68    3.56   0
  -2   3  10    0.68    3.38   0
  -1  -2  -5  170.32    5.08   0
  -1  -2  -4    0.48    2.68   0
  -1  -2  -3  213.96    6.48   0
  -1   0 -13   59.80    4.00   0
   0   0  -8    4.98    3.33   0
   0   2   5   94.37    4.82   0
   0   8  10  258.99    5.17   0
   1   8   8  139.06    3.54   0
   2   6   2    8.26    3.08   0
   2   9   5    1.02    3.10   0
   3  11  -5   21.85    4.71   0
   3  11  -2  176.15    5.42   0
   3  11  -1    7.39    2.64   0
   3  12  -1    2.80    3.58   0
  -6  -5  -1   34.62    4.01   0
  -5  -5  -9  245.38    5.29   0
  -3  -4  -8  143.25    3.60   0
  -3  -3 -12   13.24    2.69   0
  -3   1   9   53.83    4.44   0
  -2  -3  -8  173.17    3.87   0
  -2  -3  -1 1926.61   15.57   0
  -2  -2 -12   50.37    2.70   0
  -2   2   9  140.98    4.92   0
  -1  -2  -6  376.88    5.95   0
  -1  -1 -11  246.06    5.03   0
  -1   1 -15   -0.53    2.26   0
  -1   5  10  164.07    4.66   0
  -1   7  11   33.07    2.90   0
   0   1   3 1852.52   17.68   0
   0   3 -15   25.19    3.84   0
   0   6   9  206.10    3.97   0
   0   9  10   42.25    3.72   0
   1   4   4   18.04    3.41   0
   1   7   7  164.52    4.47   0
   1   9   8  161.81    3.72   0
   2   5  -1  344.50    7.21   0
   2   7 -11    6.07    6.59   0
   2   7   3   18.69    2.93   0
   2   8   4  120.07    3.35   0
   2  10   5   36.02    3.48   0
   3  11  -4   11.24    3.84   0
   3  11  -3   -0.35    3.46   0
   3  12  -2    5.63    3.71   0
  -5  -5 -10   -2.26    3.47   0
  -5  -5  -1    2.04    3.26   0
  -4  -5  -7   47.45    3.49   0
  -4  -5  -6   10.68    3.25   0
  -4  -5  -5   93.66    3.32   0
  -4  -5  -4  236.26    5.01   0
  -4  -4 -12   78.77    3.02   0
  -3  -4  -9   82.08    3.02   0
  -3  -4  -1   82.70    4.40   0
  -3  -3 -13   85.23    3.87   0
  -2  -3  -9  155.68    3.83   0
  -2   5  11  160.54    4.14   0
  -1  -2  -7 1319.33   10.05   0
  -1  -2  -2 1368.60   14.46   0
  -1   1   6  404.76    7.57   0
  -1   4   9   23.94    3.38   0
  -1   8  11   62.23    4.09   0
   0   0  -9  213.40    5.28   0
   0   1 -12  179.75    4.78   0
   0   3   6    2.92    3.43   0
   0   5   8  122.37    3.45   0
   1   2  -8  149.78    5.63   0
   1   5   5    7.42    3.32   0
   1   6   6  510.63    6.58   0
   1  10   8  154.44    3.66   0
   2   9   4   54.73    3.56   0
   2  11   5  357.21    5.31   0
   2  12   5    8.35    2.71   0
  -6  -5   0   16.77    4.67   0
  -4  -5  -8   -2.51    2.19   0
  -4  -5  -3   96.25    3.98   0
  -3  -4 -10  180.77    4.49   0
  -3   4  11    2.68    3.62   0
  -2  -3 -10   46.68    3.51   0
  -2  -2 -13  133.93    3.45   0
  -2  -1 -15   58.38    3.29   0
  -1  -2  -8 1084.98    8.71   0
  -1  -1 -12    2.37    3.26   0
  -1   0 -14    6.37    2.33   0
  -1   3   8   42.37    3.72   0
  -1   6  10  290.42    5.43   0
   0   2 -14    8.02    3.38   0
   0   4   7  516.62    6.22   0
   0   7   9   48.26    2.66   0
   1   3 -11   20.80    3.72   0
   1   3   2 2290.66   16.33   0
   1   5 -14  106.62    5.32   0
   1   8   7    3.18    2.26   0
   2   6   1  418.33    6.21   0
   2   8   3   79.91    3.76   0
   2  10   4   11.96    3.36   0
  -5  -5   0    6.51    4.12   0
  -4  -5  -9  109.84    3.33   0
  -4  -5  -2   45.54    3.83   0
  -4   2  10  285.22    7.03   0
  -3  -4 -11   39.25    3.73   0
  -3  -3 -14   22.23    3.54   0
  -2  -3   0 2182.76   18.37   0
  -2   4  10  235.13    5.50   0
  -2   6  11    0.76    2.49   0
  -1  -2  -9   36.78    3.15   0
  -1   2   7 1479.57   11.54   0
   0   0 -10  430.00    6.69   0
   0   8   9   11.57    2.35   0
   1   2  -1  503.06   14.05   0
   1   4 -13    0.88    3.39   0
   1   9   7  156.12    4.54   0
   1  10   7   61.14    3.89   0
   2   5  -2   17.97    3.76   0
   2   7   2  493.20    6.23   0
   2  11   4  174.32    4.24   0
   2  12   4   61.04    3.21   0
  -6  -6  -5   27.45    3.90   0
  -6  -6  -4    4.89    3.64   0
  -6  -4   3   54.08    5.71   0
  -4  -5 -10    4.12    2.48   0
  -4  -4   2    2.93    3.41   0
  -3  -4   0 2175.64   16.29   0
  -3   3  10   45.07    3.98   0
  -2  -3 -11   17.63    2.38   0
  -2  -2 -14  362.98    5.89   0
  -1  -1 -13   43.54    3.85   0
  -1   0 -15   50.89    3.94   0
  -1   7  10   25.68    3.70   0
   0   1 -13   89.26    4.13   0
   0   6   8   24.69    2.54   0
   0   9   9   50.54    2.78   0
   0  10   9   18.28    3.58   0
   1   2  -9  133.99    5.24   0
   1   7   6   19.85    2.58   0
   1  11   7  132.59    3.72   0
   2   6   0    3.49    3.22   0
   2   9   3   51.89    3.75   0
  -6  -6  -3    4.43    3.72   0
  -5  -6  -8  118.65    4.77   0
  -5  -6  -7   90.30    4.39   0
  -5  -6  -6   32.24    2.68   0
  -5  -6  -5   18.63    3.43   0
  -5  -4   3    6.04    4.32   0
  -4  -5 -11   26.55    2.73   0
  -4  -5  -1   94.09    4.44   0
  -4   1   9   81.73    4.90   0
  -3  -4 -12  122.66    3.36   0
  -2  -3 -12    9.03    3.09   0
  -2   3   9    2.31    3.27   0
  -1  -2 -10   23.32    2.45   0
  -1  -2  -1 3401.08   24.77   0
  -1   0   4  213.54    7.64   0
  -1   5   9  264.46    4.68   0
  -1   8  10    8.16    2.73   0
   0   0 -11   11.37    3.34   0
   0   2 -15   17.70    3.90   0
   0   2   4 1237.24   12.26   0
   0   5   7  109.54    3.97   0
   0   7   8  277.33    5.21   0
   1   4   3  156.30    4.44   0
   1   5   4 2157.20   12.91   0
   1   6   5    5.73    2.33   0
   1   8   6  128.37    4.23   0
   2   5  -3  238.63    7.35   0
   2   6 -10    1.06    6.59   0
   2   7   1  114.23    4.27   0
   2   8   2   14.03    3.15   0
   2  10   3   55.36    2.95   0
   2  11   3  363.79    5.98   0
   2  12   3  157.96    3.99   0
  -6  -5   1   12.25    3.91   0
  -5  -6  -9   30.98    2.66   0
  -5  -6  -4    4.70    2.39   0
  -4  -5 -12   16.70    2.63   0
  -4  -1   7    7.09    4.67   0
  -4   0   8   20.21    5.02   0
  -3  -5  -7  203.10    4.81   0
  -3  -5  -6  702.42    7.20   0
  -3  -5  -5    2.32    3.03   0
  -3  -4 -13    4.98    3.38   0
  -3  -3   3    2.26    4.72   0
  -2  -4  -7   33.48    3.46   0
  -2  -4  -6   90.46    4.05   0
  -2  -4  -5  990.27    8.96   0
  -2  -2 -15    2.47    3.91   0
  -2   5  10   56.23    3.11   0
  -1  -2 -11   23.44    3.34   0
   0   4   6 1004.54    9.03   0
   0   8   8  138.72    4.40   0
   1   3 -12  170.94    5.67   0
   1   9   6    2.41    3.33   0
   1  10   6   67.61    3.89   0
   1  11   6    4.53    3.56   0
   2   9   2  461.80    6.39   0
  -6  -6  -2   28.50    4.03   0
  -5  -6  -3   39.36    3.84   0
  -5  -5   1    1.18    4.20   0
  -4   3  10  218.05    6.33   0
  -3  -5  -9    6.56    3.18   0
  -3  -5  -8  267.93    4.42   0
  -3  -5  -4   28.89    3.06   0
  -3   2   9   93.47    4.75   0
  -2  -4  -8   25.29    2.75   0
  -2  -4  -4   22.27    3.62   0
  -2  -3 -13    1.36    3.32   0
  -2   0   6   11.23    3.65   0
  -2   1   7  117.74    5.32   0
  -2   2   8  835.16    9.48   0
  -2   6  10   31.44    3.78   0
  -1  -1 -14   13.87    2.50   0
  -1   4   8    1.81    2.19   0
  -1   6   9    2.24    2.43   0
   0  -1  -7   53.07    4.05   0
   0  -1  -6   41.71    4.23   0
   0  -1  -5  205.84    6.23   0
   0   1 -14   24.36    3.73   0
   0   3   5  758.43    8.51   0
   0   9   8   12.48    3.65   0
   0  10   8  166.53    4.58   0
   1   2 -10   35.95    3.84   0
   1   3   1 1160.64   13.21   0
   1   4 -14   19.85    4.69   0
   1   7   5  328.45    5.43   0
   2   5  -4  108.00    6.49   0
   2   6  -1   58.27    4.05   0
   2  10   2   62.52    3.83   0
   2  11   2    8.81    3.46   0
   2  12   2   26.44    2.70   0
  -5  -6  -2   12.84    3.53   0
  -4  -6  -8  120.25    4.14   0
  -4  -6  -7  318.24    5.47   0
  -4  -6  -6   36.89    3.49   0
  -4  -6  -5    1.63    3.24   0
  -4  -5   0  809.76    9.78   0
  -3  -5 -10   48.62    3.60   0
  -3  -5  -3   13.52    2.97   0
  -3  -4 -14    6.39    3.62   0
  -3   4  10   89.66    3.58   0
  -2  -4 -10   51.84    3.61   0
  -2  -4  -9   39.83    2.77   0
  -2   7  10   42.85    4.04   0
  -1  -2 -12    5.00    3.29   0
  -1   3   7   69.34    3.75   0
  -1   7   9   20.28    3.46   0
   0  -1  -8   12.73    3.17   0
   0   0 -12   31.97    3.65   0
   0   6   7  159.61    3.76   0
   1   8   5  119.52    4.22   0
   1  12   5   74.95    4.23   0
   2   7   0  960.43    9.54   0
   2   8   1    6.63    2.22   0
  -6  -6  -1   58.16    4.39   0
  -5   0   8   31.85    5.55   0
  -4  -6 -10   11.41    3.55   0
  -4  -6  -9   84.07    3.09   0
  -4  -6  -4   79.58    3.91   0
  -3  -5 -11   17.91    3.48   0
  -3  -4   1   12.84    4.48   0
  -3  -1   6  192.52    8.03   0
  -3   1   8  100.61    4.61   0
  -2  -4  -3  423.94    6.46   0
  -2  -3 -14   24.75    2.68   0
  -2   4   9   53.03    3.07   0
  -1  -3  -7   80.75    3.96   0
  -1  -3  -6  998.80    9.29   0
  -1  -1 -15   73.48    3.83   0
  -1   1   5  589.23    9.13   0
  -1   2   6  279.47    6.07   0
  -1   5   8   10.70    3.09   0
  -1   8   9    5.46    2.44   0
  -1   9   9    5.91    3.59   0
   0  -1  -9    5.43    2.99   0
   0  -1  -4 1389.57   14.03   0
   0   1   2 2190.63   22.44   0
   0   7   7  296.12    5.28   0
   1   3 -13  101.89    5.88   0
   1   4   2    2.05    3.73   0
   1   6   4  843.84    7.70   0
   1   9   5  794.28    7.84   0
   1  10   5  127.20    4.30   0
   1  11   5   -0.00    3.44   0
   2   5  -6    2.52    6.65   0
   2   5  -5    6.09    4.79   0
   2   9   1  129.50    3.71   0
   2  10   1   10.51    3.45   0
   2  11   1   24.06    3.60   0
   2  12   1  109.33    3.57   0
  -4  -6 -11   17.50    3.65   0
  -3  -5 -12   40.89    3.78   0
  -3  -5  -2  407.65    6.69   0
  -3   0   7  199.92    6.49   0
  -3   5  10    1.60    2.50   0
  -2  -4 -11    2.70    2.44   0
  -1  -3  -9  193.53    4.66   0
  -1  -3  -8   18.27    2.33   0
  -1  -3  -5   31.53    2.73   0
  -1  -2 -13    4.92    3.36   0
   0   0 -13   97.59    4.32   0
   0   1 -15    5.79    3.49   0
   0   5   6    1.83    2.26   0
   0   8   7  156.24    4.55   0
   0   9   7    1.74    3.36   0
   0  10   7    2.73    3.48   0
   0  11   7   14.07    2.65   0
   1   2 -11  232.24    5.96   0
   1   5   3  561.95    6.96   0
   2   6  -2  704.39    9.78   0
   2   8   0  478.18    7.02   0
  -6  -5   2    0.89    4.86   0
  -5  -7  -8    3.42    3.83   0
  -5  -7  -7   62.44    4.29   0
  -5  -7  -6   51.13    3.91   0
  -5  -6  -1   47.26    4.00   0
  -4  -6  -3   49.66    2.97   0
  -4   2   9  236.08    6.27   0
  -3  -5 -13    9.94    3.49   0
  -3   3   9   20.43    3.52   0
  -2  -4 -12   31.83    2.54   0
  -2  -4  -2  863.64    9.98   0
  -2  -3 -15   16.02    2.70   0
  -2  -3   1  444.36    9.93   0
  -2   3   8   55.20    3.90   0
  -2   5   9   35.77    2.85   0
  -1  -3 -10  151.68    4.30   0
  -1  -3  -4  268.54    6.01   0
  -1   6   8  453.23    6.29   0
   0  -1 -10   49.52    2.91   0
   1   7   4   92.77    3.29   0
   1  12   4    7.87    3.52   0
   2   7  -1  311.33    6.17   0
   2   9   0   58.52    3.78   0
   2  10   0    9.91    3.49   0
   2  11   0  331.74    5.99   0
   2  12   0    0.93    2.51   0
  -6  -6   0  133.59    5.53   0
  -5  -7  -5   75.42    3.99   0
  -5  -1   7    1.22    5.55   0
  -2  -4 -13   15.73    3.49   0
  -2   6   9   -0.14    3.37   0
  -1  -3 -11  268.73    5.17   0
  -1  -2 -14   36.22    2.99   0
  -1  -2   0 2611.59   25.74   0
  -1   4   7  265.15    5.25   0
  -1   7   8   69.91    3.94   0
   0  -1 -11  249.25    5.33   0
   0  -1  -3 1770.39   17.80   0
   0   0 -14   23.95    3.64   0
   0   4   5 4388.35   18.38   0
   0   6   6  220.35    5.01   0
   1   1  -7    3.15    4.26   0
   1   8   4  104.14    3.31   0
   1   9   4   -0.45    3.43   0
   1  10   4   35.24    3.57   0
   1  11   4    1.32    2.35   0
   2  12  -1    5.05    3.69   0
  -5  -7  -4   26.79    3.70   0
  -5  -5   2    1.24    4.62   0
  -5  -2   6   88.07    9.41   0
  -4  -6  -2    3.80    2.33   0
  -4  -5   1    4.40    3.51   0
  -4  -4   3    0.02    5.12   0
  -3  -6  -9    3.54    3.33   0
  -3  -6  -8  101.16    4.17   0
  -3  -6  -7   37.57    3.88   0
  -3  -6  -6  792.89    7.85   0
  -3  -5  -1    5.32    3.35   0
  -3   4   9   68.85    4.29   0
  -2   7   9  115.83    4.66   0
  -2   8   9   -5.62    3.93   0
  -1  -3  -3  140.46    5.30   0
  -1   8   8   69.16    3.25   0
  -1   9   8  129.24    3.65   0
   0   2   3 2270.22   17.62   0
   0   3   4 1214.78   11.13   0
   0   7   6   32.87    3.61   0
   0  11   6   -3.07    3.69   0
   1   1  -8   26.08    3.88   0
   1   1  -6 1032.51   13.80   0
   1   2 -12    5.85    3.48   0
   1   3 -14    9.98    3.94   0
   1   6   3  786.98    7.67   0
   1  12   3    4.83    3.41   0
   2   6  -3   18.62    3.67   0
   2   7  -2  601.65    8.47   0
   2   8  -1  198.12    4.86   0
   2   9  -1    4.96    3.29   0
   2  11  -1   45.78    3.81   0
  -5  -6   0   52.00    4.33   0
  -4  -7  -9    7.48    3.58   0
  -4  -7  -8   87.82    4.25   0
  -4  -7  -7    6.81    3.46   0
  -4   1   8    3.77    4.80   0
  -4   3   9   43.18    4.21   0
  -3  -6 -11   90.44    4.22   0
  -3  -6 -10  172.35    3.98   0
  -3  -6  -5   31.64    3.46   0
  -3   2   8   76.80    4.21   0
  -2  -5  -9 1106.61    8.68   0
  -2  -5  -8    8.10    2.69   0
  -2  -5  -7 1726.81   10.59   0
  -2  -5  -6   28.17    3.49   0
  -2  -4 -14   13.11    2.91   0
  -2   2   7   13.36    3.44   0
  -2   4   8   51.78    4.00   0
  -1  -3 -12  615.27    6.52   0
  -1  -2 -15   16.15    2.85   0
  -1   5   7   24.36    3.26   0
   0  -1 -12   13.57    3.41   0
   0   8   6  433.22    5.43   0
   0   9   6   12.38    3.51   0
   0  10   6    5.62    2.48   0
   1   1  -9    2.69    3.22   0
   1   3   0    6.37    3.36   0
   1   5   2 1292.71   10.97   0
   1   7   3   86.48    3.80   0
   1  11   3   29.24    3.77   0
   2  10  -1  135.41    4.03   0
   2  12  -2   65.54    4.25   0
  -6  -7  -2   53.18    4.54   0
  -5  -7  -3   29.91    2.95   0
  -4  -7 -11   11.30    3.72   0
  -4  -7 -10  205.19    4.24   0
  -4  -7  -6    6.84    2.68   0
  -4  -6  -1  323.62    6.42   0
  -3  -6 -12  211.34    5.02   0
  -3  -6  -4    3.51    3.26   0
  -3   5   9   11.34    3.85   0
  -2  -5 -11    4.06    3.31   0
  -2  -5 -10  467.49    5.61   0
  -2  -5  -5    4.02    3.25   0
  -2  -4  -1  122.47    4.51   0
  -1  -3 -13   10.90    3.56   0
  -1   3   6   32.15    2.71   0
   0   0 -15   13.45    3.90   0
   0   5   5   33.34    2.89   0
   1   1 -10    6.27    4.42   0
   1   1  -5   23.01    4.21   0
   1   2 -13    4.63    4.41   0
   1   4   1   94.23    5.17   0
   1   8   3  128.77    4.20   0
   1   9   3  110.93    4.08   0
   1  10   3  169.93    4.66   0
   2   8  -2   44.85    4.16   0
   2  11  -2  156.28    5.08   0
   2  12  -3  122.27    5.12   0
  -6  -4   4   35.35    8.16   0
  -5   1   8   40.41    5.83   0
  -4  -7  -5   42.18    2.99   0
  -4   4   9   18.21    4.05   0
  -3  -6 -13  100.90    4.55   0
  -3   6   9    2.25    3.88   0
  -2  -5 -12   52.12    3.78   0
  -2  -5  -4  443.58    6.52   0
  -2   5   8   10.26    3.47   0
  -1   6   7   18.14    3.52   0
  -1   9   7  284.30    5.52   0
  -1  10   7    3.53    2.68   0
   0  -1 -13    1.19    2.63   0
   0   6   5   40.23    3.73   0
   0  11   5  247.97    5.22   0
   1  12   2  135.55    3.98   0
   2   6  -4    7.31    3.46   0
   2   7  -3  391.97    7.51   0
   2   9  -2   25.06    3.70   0
   2  10  -2   25.69    2.92   0
  -6  -6   1   19.01    4.49   0
  -5  -8  -7    2.07    3.89   0
  -5  -7  -2   57.44    4.09   0
  -4  -7  -4   41.74    3.73   0
  -3  -6  -3  144.54    4.88   0
  -2  -5 -13   89.00    4.18   0
  -2   1   6   29.48    4.02   0
  -2   6   8   44.05    4.06   0
  -2   7   8   20.70    3.71   0
  -2   8   8   46.60    4.43   0
  -1  -4  -9  778.39    7.69   0
  -1  -4  -8    2.51    3.34   0
  -1  -4  -7  112.13    4.18   0
  -1  -3 -14   15.82    2.46   0
  -1  -3  -2 1944.16   15.27   0
  -1   2   5 1269.36   12.21   0
  -1   7   7    4.41    2.52   0
  -1   8   7    2.56    2.32   0
   0  -2 -10  193.77    4.95   0
   0  -2  -9  473.31    6.93   0
   0  -2  -8   19.82    2.47   0
   0  -2  -7   84.06    3.57   0
   0  -2  -6  701.40    9.01   0
   0  -1 -14  303.90    6.00   0
   0   4   4  123.86    4.95   0
   0   7   5  126.23    4.50   0
   0   9   5   10.05    3.45   0
   0  10   5    3.14    2.62   0
   1   1 -11    8.17    3.54   0
   1   3 -15    8.53    4.00   0
   1   6   2 1256.93    9.95   0
   1  11   2    1.77    3.76   0
   2  10  -3   21.58    3.74   0
   2  11  -3   13.66    2.82   0
   2  12  -4   18.36    2.97   0
  -6  -7  -1   14.41    4.30   0
  -5  -8  -6    5.82    2.55   0
  -4   0   7  218.74    7.74   0
  -3  -5   0   28.68    3.88   0
  -3  -4   2  988.91   14.65   0
  -3   1   7   -1.98    3.59   0
  -3   3   8    7.28    2.64   0
  -2  -5 -14    3.70    3.71   0
  -2   3   7  144.24    4.93   0
  -1  -4 -11  255.63    5.11   0
  -1  -4 -10 1799.99   10.77   0
  -1  -4  -6  169.07    4.23   0
  -1  -3 -15    5.03    3.94   0
  -1   4   6  407.94    6.32   0
   0  -2 -11   46.45    3.89   0
   0  -1  -2 1988.33   21.27   0
   0   8   5  253.74    4.47   0
   1   2 -14   50.68    4.35   0
   1   7   2   49.26    3.55   0
   1   9   2  254.21    5.22   0
   1  10   2   11.74    3.73   0
   1  12   1    0.07    4.00   0
   2   8  -3    0.05    3.63   0
   2   9  -3    4.54    3.45   0
   2  11  -4   21.03    4.07   0
  -5  -8  -5   98.92    3.72   0
  -5  -6   1   33.74    4.57   0
  -5  -4   4   -0.03    6.84   0
  -4  -7  -3    6.10    2.60   0
  -4   2   8  124.55    5.38   0
  -3  -7 -10   35.37    3.69   0
  -3  -7  -9  185.79    4.84   0
  -3  -7  -8   32.55    3.71   0
  -2  -5  -3   27.83    2.84   0
  -1  -4 -12  612.50    7.18   0
  -1  -4  -5 1031.10    9.39   0
  -1  10   6  200.45    5.14   0
   0  -2 -12  830.03    8.36   0
   0  -2  -5  108.10    5.15   0
   0  -1 -15   44.86    4.43   0
   0  11   4    3.64    2.61   0
   1   1 -12   86.59    4.61   0
   1   5   1  162.01    5.50   0
   1   8   2   48.66    2.92   0
   2   6  -5   76.67    5.28   0
   2   7  -4  440.00    8.30   0
   2  10  -4    1.71    3.62   0
   2  11  -5  118.06    5.23   0
  -6  -5   3    9.93    6.07   0
  -5  -8  -4   50.50    4.02   0
  -5  -7  -1    3.57    3.54   0
  -4  -8 -10   78.62    3.37   0
  -4  -8  -9   20.63    3.08   0
  -4  -8  -8  339.65    5.91   0
  -4  -8  -7   37.89    3.81   0
  -4  -6   0   98.08    4.72   0
  -3  -7 -12    0.50    3.86   0
  -3  -7 -11   30.31    2.80   0
  -3  -7  -7  553.97    6.47   0
  -3  -7  -6  106.98    4.19   0
  -3  -6  -2  153.43    4.77   0
  -3   4   8  586.90    7.08   0
  -2  -6 -10  189.05    4.88   0
  -2  -6  -9  544.39    6.49   0
  -2  -6  -8  821.53    7.77   0
  -2  -4   0  248.67    6.72   0
  -2   0   5   59.02    4.69   0
  -2   4   7   69.48    4.06   0
  -1  -4 -13  214.00    5.13   0
  -1   1   4  188.10    6.63   0
  -1   5   6   80.44    3.28   0
  -1   9   6   33.54    3.74   0
   0   3   3    6.70    4.21   0
   0   5   4  120.34    3.81   0
   0  10   4  211.49    5.00   0
   0  12   3   18.80    3.81   0
   1  11   1   20.35    2.84   0
   1  12   0    3.98    3.84   0
   2   8  -4  395.04    7.56   0
   2   9  -4  365.11    6.78   0
   2  11  -6    6.95    4.77   0
  -4  -8  -6    1.04    3.53   0
  -4  -7  -2   19.59    3.54   0
  -4  -5   2   35.94    4.40   0
  -4   3   8  114.86    5.19   0
  -3  -7  -5 1810.95   11.40   0
  -3   5   8  103.80    3.64   0
  -3   6   8   52.38    4.15   0
  -3   7   8   28.82    3.13   0
  -2  -6 -12  137.59    4.69   0
  -2  -6 -11   34.77    2.76   0
  -2  -6  -7 1765.79   10.69   0
  -2  -6  -6   83.94    4.09   0
  -2   8   7    5.70    3.55   0
  -2   9   7   24.70    2.90   0
  -1  -4 -14   37.65    3.94   0
  -1  -4  -4   24.34    3.64   0
  -1   0   3  851.23   15.96   0
  -1   6   6  207.06    4.29   0
  -1   7   6  104.79    4.28   0
  -1   8   6   -0.97    2.52   0
  -1  11   5  124.94    4.77   0
   0  -2 -13   86.29    4.46   0
   0   6   4   50.50    3.76   0
   0   8   4   10.84    3.52   0
   0   9   4  175.96    4.79   0
   1   1 -13   96.27    4.95   0
   1   1  -4 1011.63   19.09   0
   1   2 -15    4.03    4.10   0
   1   4   0 2785.59   19.15   0
   1   6   1    9.88    3.57   0
   1  10   1  630.89    6.77   0
   2  10  -5   33.35    4.19   0
   2  11  -7   15.02    3.95   0
  -6  -7   0   10.02    4.26   0
  -5  -8  -3    5.39    3.84   0
  -5   0   7   40.90    4.74   0
  -4  -8  -5    1.06    3.57   0
  -4   4   8    9.76    4.07   0
  -3   0   6   69.25    5.34   0
  -3   2   7  124.21    4.88   0
  -2  -6 -13   22.55    3.91   0
  -2  -5  -2  380.70    6.30   0
  -2  -1   4   22.32    5.89   0
  -2   2   6  262.05    6.02   0
  -2   5   7  135.84    3.92   0
  -2   6   7  371.46    6.02   0
  -2   7   7   39.04    3.85   0
  -1   3   5  386.08    6.39   0
   0  -2 -14  583.26    7.32   0
   0  -2  -4 1073.11   11.34   0
   0   7   4   37.72    2.95   0
   0  11   3  146.47    3.74   0
   1   0  -9  108.13    4.78   0
   1   0  -8  270.88    6.55   0
   1   3  -1    3.92    4.39   0
   1   7   1  216.36    5.01   0
   1   8   1   33.04    3.34   0
   1   9   1  108.04    3.61   0
   1  11   0  194.75    4.93   0
   2   6  -6  521.71   11.80   0
   2   7  -5   19.30    3.87   0
   2   8  -5    7.98    3.50   0
   2   9  -5   49.08    4.29   0
   2  10  -6   41.13    4.31   0
  -4  -1   6   39.87    6.34   0
  -4   5   8    5.10    3.88   0
  -3  -7  -4  621.48    7.25   0
  -2  -6  -5  167.33    4.06   0
  -1  -5 -10  122.27    4.59   0
  -1  -5  -9   12.64    3.28   0
  -1  -4 -15   10.51    2.88   0
  -1  -3  -1 1131.00   12.92   0
  -1  10   5   41.62    3.07   0
   0   2   2 4095.36   25.01   0
   0  10   3   17.48    3.53   0
   0  12   2   15.08    2.52   0
   1   0 -11    0.01    3.35   0
   1   0 -10    1.97    3.59   0
   1   0  -7  468.23    8.35   0
   1   1 -14   20.08    3.99   0
   1  12  -1   99.76    3.69   0
   2   9  -6   16.28    4.96   0
   2  10  -7   20.51    4.14   0
  -6  -6   2   17.02    5.41   0
  -5  -7   0    7.00    3.67   0
  -5  -5   3  150.39    7.62   0
  -4  -8  -4  385.06    6.33   0
  -4   1   7   35.39    4.25   0
  -3  -6  -1  166.74    5.17   0
  -3  -5   1  305.28    7.74   0
  -2   9   6    7.39    3.46   0
  -1  -5 -12    3.48    3.43   0
  -1  -5 -11   40.60    2.58   0
  -1  -5  -8   24.69    2.55   0
  -1  -5  -7   18.56    3.31   0
  -1  -4  -3  167.06    5.17   0
  -1   4   5  172.94    4.90   0
  -1   9   5   63.57    3.09   0
  -1  11   4   23.98    3.98   0
   0  -3 -11   -3.03    3.59   0
   0  -3 -10   57.98    3.04   0
   0  -3  -9   45.69    2.83   0
   0  -3  -8  968.98    8.52   0
   0  -2 -15  138.05    5.14   0
   0   4   3   28.28    2.95   0
   0   9   3    3.43    3.43   0
   1   5   0  945.20   10.60   0
   1  10   0    2.19    2.33   0
   1  11  -1   67.55    4.17   0
   2   7  -6  121.58    6.26   0
   2   8  -6   11.65    4.60   0
   2  10  -9   52.50    5.67   0
   2  10  -8   54.71    4.95   0
  -5  -9  -5   54.90    4.41   0
  -5  -8  -2   28.12    4.02   0
  -4  -7  -1   11.59    3.40   0
  -4  -6   1   32.54    4.61   0
  -3  -8 -11    5.66    2.57   0
  -3  -8 -10   26.96    2.85   0
  -3  -8  -9   16.19    2.67   0
  -3  -8  -8  543.21    6.44   0
  -3  -7  -3   28.65    3.60   0
  -3   3   7  261.30    5.14   0
  -3   7   7    4.07    3.78   0
  -2  -6  -4    0.09    2.21   0
  -2   3   6   43.23    3.74   0
  -1  -5 -13   49.31    4.09   0
  -1  -5  -6    8.90    3.32   0
  -1   5   5  154.17    4.42   0
  -1   7   5  439.04    6.27   0
  -1   8   5   59.50    3.09   0
   0  -3 -12  385.59    6.12   0
   0  -3  -7  259.30    4.97   0
   0   5   3  464.02    6.76   0
   0   8   3  417.78    6.18   0
   0  11   2   97.70    3.48   0
   0  12   1  131.71    4.78   0
   1   0 -12  382.88    6.92   0
   1   0  -6  369.53    8.48   0
   1   1 -15    3.08    4.75   0
   1   9   0    1.03    2.45   0
   1  12  -2   88.53    3.51   0
   2   6  -7   30.73    5.23   0
   2   9  -7   40.91    4.62   0
  -5   1   7    7.06    4.16   0
  -4  -9  -8    2.50    2.39   0
  -4  -9  -7  120.70    4.94   0
  -4  -8  -3    6.70    3.61   0
  -3  -8  -7  165.14    3.89   0
  -3   4   7  824.07    8.14   0
  -3   5   7  103.29    4.55   0
  -3   6   7   12.07    3.99   0
  -2  -7 -12   22.35    3.66   0
  -2  -7 -11  247.31    4.48   0
  -2  -7 -10    6.60    2.58   0
  -2  -7  -9    8.18    2.33   0
  -2  -7  -8  274.27    5.13   0
  -2  -5  -1   56.89    4.07   0
  -2  -3   2   34.97    5.68   0
  -2   7   6   41.57    4.01   0
  -2   8   6   64.78    3.14   0
  -1  -5 -14   11.07    3.92   0
  -1   2   4 1463.94   13.52   0
  -1   6   5  243.24    4.48   0
  -1  10   4    1.40    3.54   0
   0  -3 -13   22.22    2.69   0
   0  -3  -6    2.85    3.58   0
   0  -2  -3 2401.08   18.36   0
   0   6   3  986.47    9.01   0
   0   7   3  115.94    4.26   0
   0  10   2  114.41    4.22   0
   1   0 -13   17.57    3.65   0
   1   6   0  410.15    6.93   0
   1   7   0  632.04    7.60   0
   1   8   0   22.05    2.61   0
   1  10  -1   12.09    3.61   0
   2   7  -7  140.33    6.93   0
   2   8  -7   47.81    5.23   0
   2   9 -10   28.93    5.62   0
   2   9  -9  131.95    6.92   0
   2   9  -8    6.53    3.84   0
  -5  -9  -4    4.44    3.65   0
  -5  -6   2   53.07    5.70   0
  -4  -9  -6    9.05    3.86   0
  -4   2   7  234.12    6.12   0
  -3  -8  -6   87.42    3.24   0
  -2  -7 -13    3.91    2.57   0
  -2  -7  -7   82.52    3.38   0
  -2  -6  -3  530.50    6.97   0
  -2   1   5    8.09    3.60   0
  -2   4   6   58.20    3.08   0
  -2   5   6    5.35    3.27   0
  -2   6   6  391.70    6.10   0
  -2  10   5    7.11    2.80   0
  -1  -5  -5    8.63    2.40   0
  -1   9   4    3.25    3.32   0
  -1  11   3    4.32    3.61   0
   0  -3 -14   63.52    4.13   0
   0  11   1    2.49    3.50   0
   1  11  -2  565.56    6.69   0
   1  12  -3   17.22    2.71   0
   2   6  -8   24.02    6.23   0
   2   8 -11    1.97    5.65   0
   2   8  -8  122.40    6.77   0
  -5  -8  -1    9.19    3.67   0
  -5   2   7   58.94    4.76   0
  -4   3   7  173.90    5.58   0
  -4   4   7   -0.80    3.73   0
  -4   5   7   66.69    4.33   0
  -3  -8  -5 1201.73    9.36   0
  -3  -7  -2  238.78    5.49   0
  -3  -1   5  105.18    6.29   0
  -3   1   6  166.43    5.67   0
  -2  -7  -6  485.10    6.38   0
  -2   9   5    6.30    3.63   0
  -1  -4  -2    2.24    3.83   0
   0  -3 -15   90.72    4.53   0
   0  -3  -5  933.71    9.74   0
   0   3   2 1229.69   12.56   0
   0   9   2  264.44    5.31   0
   0  12   0   21.96    2.85   0
   1   0 -14  173.90    5.43   0
   1   4  -1   98.61    5.52   0
   1   9  -1  100.82    4.27   0
   1  12  -4   31.10    4.03   0
   2   7 -11    5.25    6.94   0
   2   7  -8    0.61    4.60   0
   2   8 -10    4.78    5.52   0
   2   8  -9    4.28    4.66   0
  -5  -9  -3    3.04    3.74   0
  -5  -1   6   30.93    4.77   0
  -4  -9  -5  283.61    5.21   0
  -4  -8  -2  103.92    4.62   0
  -4  -7   0  174.90    5.41   0
  -3  -6   0  113.55    4.77   0
  -3   8   6   73.52    3.44   0
  -2  -4   1  448.15    9.65   0
  -1  -6 -12  166.98    4.84   0
  -1  -6 -11   83.85    3.23   0
  -1  -6 -10   62.44    2.96   0
  -1  -6  -9   36.67    3.63   0
  -1  -6  -8    2.96    3.34   0
  -1  -5  -4 1642.57   11.81   0
  -1   3   4   16.13    3.94   0
  -1   8   4    5.21    2.43   0
  -1  10   3  146.10    4.69   0
   0  -4 -11  144.01    4.50   0
   0  -4 -10   10.39    3.35   0
   0  -4  -9  167.07    4.48   0
   0   8   2  320.28    5.48   0
   0  10   1  242.12    5.13   0
   1  -1 -11   12.92    3.39   0
   1  -1 -10  228.51    5.85   0
   1  -1  -9  547.93    8.07   0
   1   8  -1  152.78    4.70   0
   1  10  -2  128.41    4.72   0
   1  11  -3  154.21    4.82   0
   2   6  -9   67.19    8.60   0
   2   7  -9   18.80    5.63   0
  -5  -7   1   15.82    3.98   0
  -3  -9 -10   26.48    2.81   0
  -3  -9  -9   40.07    3.60   0
  -3  -8  -4  222.18    5.07   0
  -3   7   6   58.40    3.00   0
  -2  -7  -5  254.46    4.57   0
  -2   8   5  154.95    3.90   0
  -2  10   4   24.26    3.67   0
  -1  -6 -14   28.76    3.85   0
  -1  -6 -13    4.25    2.45   0
  -1  -6  -7   52.57    3.77   0
  -1  -2   1  533.19   14.97   0
  -1   7   4   57.63    3.07   0
  -1  11   2    1.75    3.55   0
   0  -4 -13   39.81    3.94   0
   0  -4 -12   52.01    3.03   0
   0  -4  -8  209.62    4.83   0
   0   4   2 2483.37   15.60   0
   0   7   2   35.63    3.54   0
   0  11   0    2.69    3.64   0
   0  12  -1   13.34    3.88   0
   1  -1 -12   -2.05    3.31   0
   1  -1  -8   72.82    4.38   0
   1   0 -15   99.59    5.00   0
   1   0  -5  844.16   12.62   0
   1   5  -1  464.51    8.08   0
   1   7  -1    7.99    3.23   0
   2   6 -10    1.40    7.06   0
   2   7 -10   76.89    7.18   0
  -4  -9  -4  162.19    4.32   0
  -4   0   6   38.02    4.58   0
  -3  -9  -8    8.12    2.61   0
  -3  -9  -7   83.59    4.23   0
  -3   2   6   10.58    2.71   0
  -3   6   6  154.05    3.98   0
  -2  -8 -12    7.67    3.74   0
  -2  -8 -11   26.62    2.72   0
  -2  -8 -10  250.85    4.56   0
  -2  -8  -9   20.21    3.67   0
  -2  -6  -2    8.63    2.32   0
  -2   2   5    3.43    3.42   0
  -2   7   5   72.47    3.85   0
  -1   4   4    0.54    2.39   0
  -1   5   4  575.82    7.17   0
  -1   6   4   98.70    3.43   0
  -1   9   3    5.02    3.35   0
   0  -4 -14   14.57    3.81   0
   0  -4  -7  488.46    6.72   0
   0  -3  -4 1032.30   10.60   0
   0   5   2   55.98    3.97   0
   0   6   2   15.08    3.46   0
   0   9   1  367.70    6.12   0
   1  -1 -13    8.57    3.74   0
   1  -1  -7  136.03    5.18   0
   1   6  -1   49.26    3.12   0
   1   9  -2  537.09    7.07   0
   1  10  -3  131.43    4.86   0
   1  11  -4   41.22    4.29   0
  -5  -9  -2   13.98    3.99   0
  -4 -10  -7    5.53    3.82   0
  -4  -2   5  506.56   13.78   0
  -3  -7  -1   12.18    3.63   0
  -3   3   6    3.07    2.49   0
  -3   4   6    8.80    3.57   0
  -3   5   6   -1.06    2.56   0
  -2  -8  -8   35.52    2.77   0
  -2  -7  -4   44.14    2.74   0
  -2  -5   0   68.45    4.59   0
  -2   6   5  894.71    8.33   0
  -2   9   4   -0.74    2.62   0
  -1  -6  -6  524.38    6.28   0
  -1  -5  -3  584.82    7.81   0
  -1  -3   0    6.06    4.57   0
  -1  10   2   15.44    3.59   0
   0  12  -2   22.36    4.17   0
   1  -1 -14   79.37    4.68   0
  -5  -8   0    5.68    3.96   0
  -5   0   6   47.34    4.64   0
  -4 -10  -6  241.25    5.64   0
  -4  -9  -3  193.35    5.29   0
  -4  -8  -1   31.18    3.80   0
  -4   1   6  449.18    8.02   0
  -4   6   6   51.57    3.27   0
  -3  -9  -6  104.57    3.67   0
  -3  -8  -3   65.41    3.22   0
  -3   8   5   44.51    3.14   0
  -2  -8  -7   16.80    2.62   0
  -2   3   5   62.63    3.33   0
  -2   4   5  986.58    9.44   0
  -2   5   5  713.44    7.24   0
  -2  10   3   30.96    3.76   0
  -1   1   3   44.67    4.97   0
  -1   8   3 1043.52    8.04   0
  -1  11   1   14.63    3.75   0
   0  -4  -6  839.27    8.16   0
   0  -2  -2 4543.90   27.13   0
   0   8   1   12.41    3.25   0
   0  10   0  112.50    3.63   0
   0  11  -1  146.50    3.96   0
   1   8  -2  250.70    4.93   0
   1  11  -5  466.27    7.39   0
  -4  -6   2  381.57    9.42   0
  -4   4   6    0.04    3.68   0
  -4   5   6   17.75    2.95   0
  -3  -9  -5   16.29    3.41   0
  -3   7   5   69.88    4.47   0
  -3   9   4   81.35    4.51   0
  -2  -8  -6   41.02    3.78   0
  -2  -7  -3   15.25    3.19   0
  -2   8   4  292.24    4.79   0
  -1  -7 -13   51.47    4.14   0
  -1  -7 -12   14.37    2.66   0
  -1  -7 -11    5.39    2.51   0
  -1  -7 -10   44.64    2.94   0
  -1  -7  -9    5.77    3.52   0
  -1  -6  -5    6.79    2.31   0
  -1  -4  -1   99.95    5.39   0
  -1   7   3  692.18    7.53   0
   0  -5 -12   49.28    3.97   0
   0  -5 -11   14.26    3.53   0
   0  -5 -10   81.13    3.93   0
   1  -2 -11   22.83    3.56   0
   1  -2 -10   39.09    3.87   0
   1  -1 -15  186.49    4.89   0
   1  -1  -6  377.80    7.79   0
   1   3  -2   65.81    5.78   0
   1   7  -2    4.19    3.44   0
   1   9  -3  371.31    6.25   0
   1  10  -4  234.81    5.70   0
  -5   1   6    3.04    3.83   0
  -5   2   6   15.85    4.23   0
  -5   3   6   36.56    4.39   0
  -4 -10  -5   76.21    3.74   0
  -4  -5   3  601.97   14.27   0
  -4   2   6    3.44    2.43   0
  -4   3   6   20.04    3.84   0
  -3  -5   2    3.36    4.25   0
  -3   0   5  501.97    9.72   0
  -2  -9 -11   10.39    3.84   0
  -2  -6  -1  402.53    6.82   0
  -2   0   4   87.91    5.37   0
  -2   7   4    5.07    3.58   0
  -2   9   3   53.39    3.92   0
  -1  -7  -8   40.46    2.75   0
  -1   9   2    0.41    2.48   0
   0  -5 -13   18.80    3.73   0
   0  -5  -9  232.56    4.53   0
   0  -4  -5 4766.29   19.77   0
   0   2   1 1374.61   16.41   0
   0   7   1    6.54    2.47   0
   0   9   0 1209.88    8.84   0
   0  10  -1    4.72    3.60   0
   0  11  -2   59.32    4.15   0
   0  12  -3   37.77    3.09   0
   1  -2 -13    1.43    3.48   0
   1  -2 -12    7.45    2.52   0
   1  -2  -9  622.40    8.34   0
   1  11  -6    1.37    3.80   0
  -5  -9  -1   15.87    4.14   0
  -4  -9  -2 1352.87   11.54   0
  -4  -7   1   67.60    4.82   0
  -3 -10  -8  102.16    3.78   0
  -3  -9  -4   77.53    4.23   0
  -3  -8  -2    8.72    2.51   0
  -3  -6   1   20.88    3.78   0
  -3   6   5    1.65    2.65   0
  -2  -9 -10    4.61    2.58   0
  -2  -9  -9   26.50    3.97   0
  -2  -8  -5   23.31    2.77   0
  -2  10   2   83.16    4.35   0
  -1  -7  -7  194.31    4.77   0
  -1  -6  -4  850.26    8.50   0
  -1   2   3   19.85    4.58   0
  -1   6   3   90.48    3.48   0
  -1  10   1  201.02    4.25   0
  -1  11   0   85.40    3.38   0
   0  -5 -14    2.13    2.74   0
   0  -5  -8  123.66    3.62   0
   0  -3  -3    5.82    2.96   0
   0   6   1  122.97    4.61   0
   1  -2 -14   16.11    4.13   0
   1  -2  -8  445.70    7.15   0
   1   6  -2   38.03    3.94   0
   1   8  -3   36.81    4.06   0
   1  10  -5  261.17    6.07   0
   1  11  -7  115.90    5.19   0
  -4 -10  -4   48.81    3.18   0
  -4   6   5   69.55    4.37   0
  -3 -10  -7   51.93    3.14   0
  -3   5   5  410.98    6.65   0
  -3   8   4    1.17    2.52   0
  -2  -9  -8    3.21    2.42   0
  -2   6   4  649.49    7.47   0
  -1  -7  -6   22.36    3.58   0
  -1  -5  -2 1103.54   10.28   0
  -1   5   3  834.74    8.18   0
  -1   8   2  307.17    4.92   0
   0  -5  -7  102.14    3.31   0
   0   3   1  951.63   12.11   0
   0   5   1   51.20    4.29   0
   0   8   0  149.45    4.59   0
   0  12  -4    1.11    2.90   0
   1  -2 -15   -1.18    3.82   0
   1   0  -4  214.41    8.00   0
   1   4  -2  411.58    9.07   0
   1   5  -2  295.09    7.03   0
   1   9  -4    5.15    2.49   0
   2   4 -11  133.91   11.76   0
  -5  -2   5   11.54    5.69   0
  -4  -8   0    5.74    3.50   0
  -3 -10  -6    9.26    3.32   0
  -3  -7   0  154.87    5.44   0
  -3  -4   3  373.01   13.38   0
  -3   1   5    6.95    3.50   0
  -3   4   5 1092.64   10.08   0
  -3   9   3   64.90    4.26   0
  -2  -9  -7   45.07    3.91   0
  -2  -8  -4  110.39    3.45   0
  -2  -7  -2  492.22    6.85   0
  -2   5   4  295.31    5.73   0
  -2   8   3  157.13    3.86   0
  -1  -8 -12   13.19    3.82   0
  -1  -8 -11    0.73    3.65   0
  -1   3   3 1348.72   11.99   0
  -1   4   3   79.69    3.63   0
  -1   9   1  207.31    5.06   0
   0  -4  -4  107.53    4.96   0
   0   4   1  137.70    4.62   0
   0   9  -1  252.89    5.32   0
   0  10  -2  731.79    8.00   0
   0  11  -3   63.40    3.49   0
   1  -2  -7 1433.56   11.59   0
   1  -1  -5  568.85    9.41   0
   1  10  -6   39.88    4.17   0
   2   4 -12   57.35    8.69   0
  -5  -8   1   74.18    5.72   0
  -5  -7   2  231.54    8.04   0
  -4 -10  -3   30.57    3.94   0
  -4   5   5   35.68    3.89   0
  -3  -9  -3    4.67    3.53   0
  -3   2   5  184.52    5.71   0
  -3   3   5  179.65    5.42   0
  -3   7   4   24.30    2.83   0
  -2  -9  -6   20.75    3.37   0
  -2   1   4 1021.75   12.18   0
  -2   4   4    2.63    3.19   0
  -2   9   2  173.41    4.85   0
  -1  -8 -10   21.71    2.72   0
  -1  -8  -9   64.85    4.00   0
  -1  -7  -5  315.05    5.96   0
  -1  -6  -3  794.28    8.45   0
  -1   7   2  966.68    8.22   0
  -1  10   0    1.04    2.63   0
  -1  11  -1    8.90    2.51   0
   0  -6 -13   27.62    4.08   0
   0  -6 -12    1.38    2.55   0
   0  -6 -11   72.76    3.26   0
   0  -6 -10   30.45    3.50   0
   0  -5  -6    1.81    2.33   0
   0   7   0  856.95    8.41   0
   1  -3 -13    4.65    3.62   0
   1  -3 -12   29.24    2.94   0
   1  -3 -11  317.05    5.36   0
   1  -3 -10   36.19    3.85   0
   1   7  -3   30.47    3.02   0
   1   9  -5   63.58    4.23   0
  -5   4   5   91.62    4.94   0
  -4  -9  -1    0.82    3.74   0
  -4  -1   5  192.27    7.12   0
  -4   4   5  102.06    4.67   0
  -4   7   4   -1.06    2.92   0
  -3 -10  -5   10.36    2.69   0
  -3  -8  -1   55.53    3.99   0
  -3   8   3   60.32    4.29   0
  -2   2   4    7.93    3.61   0
  -2   3   4    1.43    3.22   0
  -2   7   3   18.96    2.81   0
  -2  10   1  117.29    3.66   0
  -1  -8  -8  143.31    3.73   0
   0  -6  -9  184.27    4.07   0
   0  11  -4    6.37    3.75   0
   1  -3 -14    3.80    3.81   0
   1  -3  -9  315.44    5.44   0
   1  -2  -6  281.92    6.37   0
   1   8  -4   70.63    3.49   0
   1  10  -7   51.72    4.26   0
   2   3 -12    1.43    5.37   0
   2   3 -11    8.08    5.75   0
   2   4 -13   22.05    7.78   0
  -5  -9   0    7.92    4.04   0
  -5  -6   3    2.97    5.65   0
  -4   3   5   38.88    4.06   0
  -3   6   4   14.55    2.57   0
  -3   9   2   13.92    3.79   0
  -2 -10  -9    2.71    2.63   0
  -2  -9  -5    2.75    3.28   0
  -2  -8  -3   72.82    3.18   0
  -2  -6   0    2.90    3.37   0
  -2  -5   1  315.20    7.42   0
  -1  -8  -7    1.59    3.34   0
  -1   6   2  367.81    5.56   0
  -1   8   1   92.24    3.43   0
  -1  11  -2   74.33    4.55   0
   0  -6  -8   17.24    2.65   0
   0  -5  -5   37.07    3.79   0
   0   6   0   18.42    3.66   0
   0   8  -1  174.63    4.00   0
   0   9  -2  289.16    5.81   0
   0  10  -3  330.93    5.98   0
   1  -3  -8   46.14    4.06   0
   1   6  -3  160.10    5.40   0
   2   3 -13    1.22    5.69   0
  -6  -4   4   34.93    8.71   0
  -5  -1   5   33.70    5.62   0
  -5   3   5    0.53    2.71   0
  -4 -11  -4    5.35    4.12   0
  -4   0   5   11.79    3.87   0
  -4   2   5  130.88    5.41   0
  -4   6   4    8.63    4.15   0
  -3 -10  -4  107.89    4.56   0
  -3  -9  -2    7.71    3.58   0
  -3  -2   4   66.38    7.69   0
  -3   5   4    6.82    3.61   0
  -2 -10  -8   37.86    3.13   0
  -2  -7  -1   94.87    4.58   0
  -2   6   3 1144.71    9.44   0
  -2   8   2    3.93    2.48   0
  -2   9   1   22.36    3.99   0
  -1  -7  -4   86.67    3.37   0
  -1  -5  -1  140.71    5.56   0
  -1  -4   0 2883.83   20.30   0
  -1   9   0  136.28    3.77   0
  -1  10  -1   53.88    3.04   0
   0  -6  -7  142.75    3.81   0
   0  -3  -2 1205.62   12.96   0
   0  11  -5   64.32    4.43   0
   1   9  -6   18.78    3.78   0
   1  10  -8   36.74    3.42   0
   2   3 -10   49.99    7.50   0
  -5   0   5  126.61    6.53   0
  -5   1   5    1.27    4.02   0
  -5   2   5   31.92    4.53   0
  -4 -10  -2  120.75    4.46   0
  -4   1   5  128.77    5.26   0
  -3 -11  -6    7.81    4.18   0
  -3   7   3   94.15    3.60   0
  -2 -10  -7   59.08    3.35   0
  -2  -9  -4   41.78    3.79   0
  -2  10   0   18.60    3.02   0
  -1  -9 -11   49.80    3.35   0
  -1  -9 -10   -0.60    2.62   0
  -1  -8  -6  139.04    3.81   0
  -1  -6  -2 1289.39   11.03   0
  -1   5   2  185.28    4.56   0
  -1   7   1   87.06    4.60   0
  -1  11  -3   22.94    4.08   0
   0  -7 -13   41.43    4.39   0
   0  -7 -12   35.56    3.29   0
   0  -7 -11    3.59    3.90   0
   0  -7 -10  140.67    4.94   0
   0  -4  -3   29.50    3.13   0
   0  10  -4   21.51    3.92   0
   1  -4 -14   11.25    4.12   0
   1  -4 -13    2.70    3.74   0
   1  -4 -12    7.37    2.81   0
   1  -4 -11   10.93    2.75   0
   1  -4 -10  502.41    7.27   0
   1  -3  -7   58.10    3.27   0
   1   5  -3    0.91    3.83   0
   1   7  -4   80.03    4.55   0
   1   8  -5    5.61    3.74   0
   1  10  -9    9.92    4.46   0
   2   2 -13    4.93    4.90   0
   2   2 -12    8.69    5.29   0
   2   2 -11   10.28    5.27   0
   2   3 -14   63.84    7.69   0
   2   4 -14    1.51    8.13   0
  -4  -8   1   66.16    4.86   0
  -4   5   4  186.00    5.45   0
  -4   7   3   51.58    3.45   0
  -3  -7   1    6.92    3.85   0
  -3   4   4   29.52    3.91   0
  -3   8   2   15.02    3.78   0
  -2 -10  -6  137.63    4.67   0
  -2  -8  -2   11.42    3.58   0
  -2  -4   2 2143.61   22.84   0
  -2   5   3  102.90    4.41   0
  -2   7   2  606.89    7.25   0
  -1  -9  -9   46.94    3.24   0
  -1  -9  -8  156.03    4.96   0
  -1  10  -2   27.01    3.89   0
   0  -7  -9   43.28    4.01   0
   0  -6  -6  210.64    4.49   0
   0  -5  -4  127.37    4.85   0
   0  -2  -1 1485.30   17.61   0
   0   5   0    2.67    2.80   0
   0   7  -1   82.74    3.30   0
   0   9  -3  684.96    7.98   0
   0  11  -6   15.09    3.93   0
   1  -4  -9   19.81    3.71   0
   1  -2  -5 1345.18   13.10   0
   1  -1  -4  174.89    6.71   0
   1   9  -7   11.72    4.09   0
   2   2 -10   58.64    6.67   0
  -4 -11  -3   47.44    4.43   0
  -4  -9   0   19.50    4.14   0
  -4  -7   2   80.80    5.32   0
  -3 -11  -5    4.76    4.14   0
  -3 -10  -3   34.16    3.16   0
  -3  -8   0  103.46    4.78   0
  -3   6   3   44.77    4.04   0
  -3   9   1  138.75    3.98   0
  -2   8   1   24.04    3.75   0
  -2  10  -1    4.99    4.14   0
  -1  -8  -5  102.03    3.65   0
  -1  -7  -3   77.10    4.01   0
  -1   4   2   91.20    3.92   0
  -1   8   0 1792.66   11.05   0
  -1   9  -1    2.21    2.55   0
   0  -7  -8  256.25    5.42   0
   0   8  -2    1.74    2.34   0
   0  11  -7   39.45    4.37   0
   1  -4  -8    0.48    3.40   0
   1  -3  -6   30.93    3.75   0
   2   1 -12    6.74    5.14   0
   2   1 -11   30.91    5.34   0
   2   2 -14   70.64    6.55   0
  -5   4   4   95.36    4.05   0
  -4 -10  -1   15.48    4.19   0
  -4   4   4    6.42    3.94   0
  -4   6   3  225.94    5.99   0
  -3  -9  -1   24.67    4.11   0
  -3  -6   2   66.90    4.87   0
  -3   3   4  481.68    7.37   0
  -2 -10  -5   35.01    3.87   0
  -2  -9  -3   47.52    3.95   0
  -2   4   3   12.83    3.46   0
  -2   9   0   84.07    3.52   0
  -1  -9  -7  137.34    4.01   0
  -1  -3   1    1.06    4.77   0
  -1   3   2  310.86    6.88   0
  -1   6   1  173.05    4.97   0
  -1  11  -4   95.28    3.93   0
   0  -7  -7  264.02    5.59   0
   0  -6  -5   41.73    3.85   0
   0   4   0   16.99    3.28   0
   0  10  -5    7.56    3.71   0
   1  -5 -13    4.11    3.92   0
   1  -5 -12    4.19    3.75   0
   1  -5 -11   67.01    4.37   0
   1   4  -3   15.49    3.94   0
   1   6  -4  377.72    7.66   0
   1   8  -6  385.41    7.02   0
   1   9  -8    5.37    3.85   0
   2   1 -14    1.88    5.14   0
   2   1 -13   39.73    4.79   0
  -5  -9   1    3.40    5.21   0
  -5  -4   4   -0.01    7.32   0
  -3 -11  -4   47.97    4.28   0
  -3   2   4   62.58    4.42   0
  -3   7   2  398.42    6.36   0
  -2 -11  -7    8.84    3.87   0
  -2   6   2  398.31    6.30   0
  -1  -9  -6   -1.50    3.60   0
  -1  -8  -4  101.31    4.44   0
  -1   0   2 1226.36   20.84   0
  -1  10  -3   16.45    3.90   0
   0  -8 -12   13.96    2.93   0
   0  -8 -11   41.48    3.33   0
   0  -8 -10  204.39    5.49   0
   0   6  -1    2.02    2.42   0
   0   9  -4  177.55    4.94   0
   1  -5 -10  151.36    4.95   0
   1  -4  -7  279.13    5.68   0
   1   7  -5  182.98    5.80   0
   1   9  -9   37.79    5.47   0
   2   1 -10   38.17    4.66   0
   2   2  -9  208.94    9.60   0
   2   3  -9   12.20    7.03   0
  -5   3   4   10.28    3.15   0
  -5   5   3   29.79    4.33   0
  -4 -11  -2    2.55    3.99   0
  -4   3   4    6.42    3.72   0
  -4   7   2   41.73    3.36   0
  -3 -10  -2   49.66    4.18   0
  -3  -1   4  456.17   10.75   0
  -3   1   4  213.52    6.11   0
  -3   5   3   25.42    2.89   0
  -3   8   1   93.23    3.65   0
  -3   9   0  229.64    4.48   0
  -2 -10  -4    5.32    3.69   0
  -2  -8  -1    5.73    3.20   0
  -2  -7   0  882.86    9.64   0
  -2   3   3   58.14    4.24   0
  -2   7   1   -0.03    3.55   0
  -2  10  -2   52.77    4.22   0
  -1 -10  -9    5.61    2.61   0
  -1  -6  -1    5.35    3.70   0
  -1   2   2 1584.36   14.98   0
  -1   7   0 1077.93    9.04   0
  -1   8  -1   36.22    4.02   0
  -1   9  -2  138.50    4.58   0
  -1  11  -5   67.56    3.46   0
   0  -8  -9   12.14    3.70   0
   0  -7  -6   32.97    3.76   0
   0  -5  -3  409.91    6.80   0
   0  -4  -2 2501.36   16.25   0
   0   3   0 1225.41   14.33   0
   0   7  -2  206.18    5.01   0
   0   8  -3  189.20    5.08   0
   0  10  -6   28.68    3.91   0
   1  -5  -9  264.46    5.59   0
   1   8  -7  175.04    5.53   0
   2   0 -14    0.51    5.20   0
   2   0 -13   15.40    4.29   0
   2   0 -12  102.56    5.77   0
   2   0 -11   97.52    5.42   0
  -6  -3   4   37.33    6.36   0
  -5  -8   2   25.32    4.70   0
  -5   2   4   55.44    4.46   0
  -4  -6   3   39.04    6.75   0
  -4   5   3   14.70    3.92   0
  -3   0   4    8.45    3.86   0
  -2 -11  -6  102.58    4.73   0
  -2  -9  -2  385.26    6.64   0
  -2  -6   1   61.21    4.50   0
  -2   8   0    6.17    3.54   0
  -2   9  -1   -0.26    2.75   0
  -1 -10  -8  144.95    3.95   0
  -1  -9  -5  696.97    7.85   0
  -1  -7  -2   38.92    2.76   0
  -1  -5   0  794.28   10.44   0
  -1   1   2  655.50   11.72   0
  -1   5   1   31.11    3.03   0
   0  -8  -8  130.28    4.42   0
   0  -6  -4   45.13    3.00   0
   1  -5  -8    0.87    3.28   0
   1  -4  -6  406.83    6.59   0
   1  -3  -5  386.06    6.59   0
   1  -2  -4 1215.43   12.99   0
   1   0  -3  811.58   16.14   0
   1   3  -3 1751.43   23.39   0
   1   9 -10    1.61    3.98   0
   2   0 -10  669.04   10.33   0
   2   1  -9   12.54    4.83   0
  -6  -2   4    6.39    5.43   0
  -6  -1   4   12.37    5.49   0
  -4   2   4   46.87    4.29   0
  -3 -11  -3   79.10    3.57   0
  -3   4   3   93.45    4.48   0
  -3   6   2   89.79    4.22   0
  -2   2   3 1196.86   12.06   0
  -2   5   2 1134.99    9.25   0
  -1 -10  -7   53.71    4.36   0
  -1  -8  -3  145.22    4.52   0
  -1  10  -4  110.67    3.90   0
   0  -7  -5  119.51    4.83   0
   0  -3  -1  947.12   12.48   0
   0   2   0 1326.08   18.55   0
   0   5  -1   99.65    5.07   0
   0   9  -5   17.77    3.87   0
   0  10  -7    3.07    3.89   0
   1  -6 -13  166.94    4.54   0
   1  -6 -12  172.36    4.35   0
   1  -6 -11    1.27    3.63   0
   1   5  -4  215.91    6.78   0
   1   7  -6    2.55    3.92   0
   1   9 -11    2.21    4.58   0
   2  -1 -14   39.21    5.42   0
   2  -1 -13    4.75    4.19   0
   2  -1 -12   98.49    5.30   0
   2  -1 -11   12.09    3.99   0
  -5   1   4  191.93    6.17   0
  -5   4   3   37.89    4.66   0
  -4 -10   0   42.94    4.49   0
  -4  -9   1   30.25    4.58   0
  -4   6   2    7.31    2.97   0
  -4   7   1    9.38    4.18   0
  -3  -9   0  191.82    5.65   0
  -3  -8   1  245.01    6.37   0
  -3   7   1   10.10    3.66   0
  -3   8   0  179.37    5.23   0
  -3   9  -1    1.55    2.84   0
  -2 -11  -5  319.76    5.34   0
  -2 -10  -3   69.85    4.21   0
  -2  10  -3    7.37    2.79   0
  -1   6   0  162.05    4.91   0
  -1   9  -3   47.95    3.88   0
   0  -9 -10   32.21    4.09   0
   0  -8  -7  159.83    4.20   0
   0   8  -4  190.13    5.20   0
   1  -6 -10  257.80    5.10   0
   1  -6  -9    0.98    3.52   0
   1  -5  -7   24.60    3.45   0
   1   6  -5   53.64    4.45   0
   1   8  -8   56.30    4.61   0
   2  -1 -10   24.01    3.98   0
   2   0  -9  360.87    8.25   0
  -4 -11  -1    6.61    4.12   0
  -4  -3   4    8.06    5.49   0
  -4   1   4    1.99    3.72   0
  -4   4   3   26.77    3.05   0
  -4   8   0   12.32    3.07   0
  -3 -10  -1   84.11    3.71   0
  -2  -1   3  381.59   12.28   0
  -2   1   3   94.97    4.46   0
  -2   6   1  339.64    5.38   0
  -2   9  -2  134.96    3.89   0
  -1 -10  -6   55.37    3.35   0
  -1  -9  -4    0.41    2.56   0
  -1   4   1  197.39    5.71   0
  -1   7  -1   -1.94    3.57   0
  -1   8  -2   24.39    2.85   0
  -1  10  -5   11.79    3.95   0
   0  -9  -9   40.32    4.39   0
   0  -8  -6  449.76    6.46   0
   0  -6  -3  921.09    9.23   0
   0   6  -2    5.08    3.59   0
   0   7  -3   26.51    3.42   0
   0   9  -6   42.16    4.26   0
   0  10  -8   68.49    3.74   0
   1  -4  -5  190.88    5.30   0
   2  -2 -13   17.54    4.37   0
   2  -2 -12  107.77    5.23   0
  -5   0   4   48.47    4.66   0
  -5   3   3   96.53    4.89   0
  -5   5   2  148.02    4.47   0
  -4  -8   2   55.10    5.02   0
  -4   0   4    5.23    3.82   0
  -3 -11  -2  106.66    4.69   0
  -3  -7   2    9.04    4.72   0
  -3  -5   3  103.58    7.08   0
  -3   3   3  278.73    6.07   0
  -3   5   2  117.67    4.51   0
  -2 -11  -4  170.14    5.36   0
  -2  -9  -1  120.84    4.91   0
  -2  -8   0  428.76    7.48   0
  -2  -5   2   17.69    4.22   0
  -2   0   3  178.78    6.87   0
  -2   4   2   27.14    2.86   0
  -2   7   0  807.19    7.62   0
  -2   8  -1  298.37    5.13   0
  -2  10  -4   25.08    3.98   0
  -1  -7  -1  168.44    4.97   0
  -1  -4   1   83.72    5.71   0
   0  -9  -8   11.69    3.84   0
   0  -7  -4   38.75    4.09   0
   0  -5  -2   59.30    3.44   0
   0  10  -9   29.98    4.33   0
   1  -7 -12   48.24    4.50   0
   1  -7 -11   20.39    4.36   0
   1  -6  -8  415.78    5.86   0
   1  -5  -6   85.02    4.17   0
   1  -3  -4   15.58    4.25   0
   1  -1  -3   36.04    5.16   0
   1   8  -9  264.82    7.01   0
   2  -2 -14   77.12    5.61   0
   2  -2 -11   14.18    3.66   0
   2  -1  -9   24.44    4.15   0
   2   1  -8  130.54    7.03   0
  -5  -3   4    1.23    4.95   0
  -5  -2   4   51.48    5.98   0
  -5  -1   4    1.37    4.20   0
  -4  -2   4   82.48    6.31   0
  -4  -1   4  338.49    8.96   0
  -4   3   3   40.58    4.21   0
  -4   5   2   26.98    3.01   0
  -3   6   1   85.32    4.53   0
  -3   8  -1   86.22    4.54   0
  -3   9  -2   56.70    3.30   0
  -2 -10  -2   51.88    4.28   0
  -1 -11  -7  138.54    4.84   0
  -1 -10  -5  117.38    3.87   0
  -1  -9  -3   98.76    4.43   0
  -1  -8  -2   46.44    2.95   0
  -1   9  -4   24.86    2.76   0
  -1  10  -6   -4.55    4.02   0
   0  -9  -7    3.40    3.72   0
   0  -8  -5  246.92    5.51   0
   0   4  -1 1044.14   12.06   0
   1  -7 -10   27.14    4.13   0
   1  -6  -7   18.24    3.62   0
   1   7  -7  806.25   10.35   0
   2  -2 -10    6.66    3.56   0
   2   0  -8  149.91    5.98   0
   2   2  -8    1.19    5.36   0
  -5  -7   3   14.07    6.29   0
  -4   6   1  105.85    4.04   0
  -4   7   0  103.42    4.57   0
  -4   8  -1   38.50    3.32   0
  -3 -12  -3    2.98    2.84   0
  -3   7   0   53.61    3.14   0
  -2 -12  -5    4.52    4.06   0
  -2  -7   1  294.98    6.66   0
  -2   5   1  134.67    4.81   0
  -2   9  -3   29.61    2.99   0
  -2  10  -5   51.66    4.70   0
  -1  -6   0  356.57    6.48   0
  -1   3   1   69.44    5.01   0
  -1   5   0  585.85    7.38   0
  -1   8  -3   96.40    4.14   0
   0  -4  -1  138.75    4.75   0
   0   8  -5   32.24    3.04   0
   0   9  -7   92.73    3.73   0
   1  -7  -9    9.06    2.71   0
   1   8 -10   23.86    4.62   0
   2  -3 -13    2.37    2.92   0
   2  -3 -12   21.62    2.84   0
   2  -3 -11   13.43    3.83   0
   2  -2  -9  139.78    5.45   0
   2  -1  -8   -0.13    4.76   0
  -5  -9   2    7.05    5.73   0
  -5   2   3  222.74    6.10   0
  -5   4   2   34.12    3.15   0
  -3 -10   0   62.58    4.48   0
  -3   2   3  248.13    6.01   0
  -3   4   2   99.69    4.40   0
  -3   9  -3   78.52    4.58   0
  -2 -11  -3  324.40    5.71   0
  -2   3   2  662.66    8.76   0
  -2   6   0   97.30    4.59   0
  -2   7  -1  111.66    4.56   0
  -2   8  -2   57.06    3.24   0
  -1 -11  -6    2.05    2.64   0
  -1 -10  -4   35.50    2.80   0
  -1   6  -1  559.43    7.36   0
  -1   7  -2  113.47    4.51   0
  -1   9  -5   64.71    4.40   0
  -1  10  -7   15.72    3.17   0
   0 -10  -9   17.93    2.89   0
   0  -9  -6   15.88    3.69   0
   0  -7  -3   81.85    4.42   0
   0   5  -2  561.73    8.70   0
   0   7  -4    2.27    3.70   0
   1  -7  -8   76.06    4.22   0
   1  -6  -6  205.47    5.11   0
   1  -5  -5  134.45    3.85   0
   1  -4  -4   -1.44    3.63   0
   1  -2  -3   21.76    4.67   0
   1   4  -4  922.08   13.94   0
   1   6  -6  205.15    6.22   0
   1   8 -11   26.91    4.53   0
   2  -3 -10    0.37    3.83   0
  -6   0   3   -1.13    4.23   0
  -5   5   1   29.94    3.20   0
  -4 -11   0   43.19    4.67   0
  -4 -10   1   -0.57    4.11   0
  -4   2   3  105.07    4.87   0
  -4   4   2   51.41    4.36   0
  -3 -11  -1    1.14    2.58   0
  -3  -9   1  109.84    4.94   0
  -3   8  -2   34.67    4.24   0
  -2 -12  -4   62.84    4.73   0
  -2   9  -4  122.55    4.77   0
  -2  10  -6  120.36    5.13   0
  -1  10  -8    7.88    4.22   0
   0 -10  -8  135.83    3.91   0
   0  -8  -4    9.84    3.85   0
   0  -6  -2    8.39    2.63   0
   0   6  -3   49.76    3.99   0
   0   8  -6  232.00    5.70   0
   0   9  -8    0.76    2.76   0
   1  -8 -11   53.35    3.49   0
   1  -8 -10    9.89    4.19   0
   1   5  -5   12.64    4.08   0
   1   7  -8    7.59    3.64   0
   1   8 -12   19.24    4.73   0
   2  -4 -13   65.67    4.80   0
   2  -4 -12  218.99    6.34   0
   2  -4 -11    5.47    3.98   0
   2  -3  -9    3.47    3.63   0
   2  -2  -8  827.96   10.33   0
  -4  -7   3    8.13    6.29   0
  -4   5   1    5.72    3.99   0
  -4   7  -1    6.99    4.32   0
  -3 -12  -2   88.43    4.10   0
  -3   5   1   10.51    3.75   0
  -3   7  -1   68.37    4.33   0
  -2 -10  -1   13.09    4.14   0
  -2  -9   0   59.25    4.39   0
  -1 -11  -5   -0.51    2.75   0
  -1 -10  -3  150.51    4.95   0
  -1  -9  -2  228.62    4.58   0
  -1  -8  -1   30.84    2.70   0
  -1  -5   1  466.56    8.74   0
  -1   8  -4   73.64    4.23   0
   0 -10  -7    0.08    3.98   0
   0  -9  -5    7.81    3.75   0
   0  -5  -1   65.94    4.64   0
   0   9  -9   53.62    4.97   0
   1  -8  -9    4.14    4.05   0
   1  -7  -7    3.10    2.36   0
   1  -3  -3 1398.50   13.14   0
   2  -4 -10  214.67    6.06   0
   2   0  -7  425.47    9.66   0
  -6  -1   3   41.62    6.02   0
  -5   1   3   78.60    4.92   0
  -5   3   2   16.53    3.05   0
  -4  -9   2  124.89    6.14   0
  -4   6   0    9.49    2.81   0
  -3  -8   2   68.32    4.93   0
  -3   1   3 1074.90   11.77   0
  -3   6   0   10.27    2.99   0
  -3   9  -4   36.53    3.34   0
  -2 -11  -2    7.70    2.86   0
  -2  -8   1  197.36    6.14   0
  -2  -6   2  642.88   10.33   0
  -2   4   1  252.59    5.90   0
  -2   8  -3   33.46    3.05   0
  -1  -7   0  563.06    7.69   0
  -1   4   0  480.35    7.75   0
  -1   9  -6   37.06    3.16   0
   0  -2   0 1144.07   16.99   0
   0   3  -1  122.03    6.99   0
   1  -8  -8   66.14    4.60   0
   1  -6  -5  241.12    5.46   0
   1  -5  -4  583.75    7.73   0
   1   7  -9   61.62    4.93   0
   2  -5 -12    3.37    4.11   0
   2  -4  -9   46.69    4.70   0
   2  -3  -8   50.05    4.47   0
   2  -1  -7  102.49    5.37   0
   2   1  -7   22.39    5.10   0
  -5   4   1   79.58    4.80   0
  -4   1   3    5.71    4.05   0
  -4   3   2  338.10    6.65   0
  -3  -6   3    3.19    4.97   0
  -3   3   2   -2.04    2.42   0
  -3   8  -3   88.77    4.84   0
  -2 -12  -3  148.80    5.51   0
  -2   2   2  798.25   10.05   0
  -2   5   0   74.76    4.45   0
  -2   7  -2    6.34    3.90   0
  -2   9  -5   -1.63    2.88   0
  -1 -11  -4   -0.79    2.83   0
  -1   2   1  917.84   12.25   0
  -1   7  -3  227.35    4.81   0
   0 -10  -6    5.76    2.95   0
   0  -8  -3  381.11    6.36   0
   0  -7  -2   45.65    4.00   0
   0   7  -5   55.15    3.40   0
   0   8  -7   19.12    4.04   0
   0   9 -10   70.05    3.96   0
   1  -7  -6   82.33    3.74   0
   1   6  -7    6.89    4.15   0
   2  -5 -11  142.64    4.31   0
   2  -2  -7   12.31    3.96   0
  -6  -2   3    0.81    6.01   0
  -6   1   2    1.13    4.63   0
  -5   0   3   87.27    5.26   0
  -5   5   0    5.19    3.17   0
  -4   7  -2   53.98    4.66   0
  -3 -12  -1    0.98    4.27   0
  -3 -11   0    3.06    4.23   0
  -3   9  -5   17.37    3.08   0
  -2   6  -1   72.83    3.63   0
  -1 -12  -5   55.52    4.66   0
  -1   5  -1  822.93    8.76   0
  -1   6  -2 1213.51    9.84   0
  -1   8  -5    0.66    3.78   0
  -1   9  -7  205.94    4.56   0
   0  -9  -4  143.52    4.04   0
   0  -3   0 1066.24   13.46   0
   1  -9  -9    8.95    4.23   0
   1  -8  -7   -0.21    2.66   0
   1  -4  -3   73.87    3.83   0
   1   7 -10   90.20    6.51   0
   2  -5 -10   48.51    3.41   0
   2  -4  -8   45.55    4.27   0
  -5   2   2   62.41    4.67   0
  -4 -11   1   -0.08    4.63   0
  -4   4   1  117.19    3.97   0
  -4   5   0    0.69    3.90   0
  -4   6  -1  104.98    4.83   0
  -3 -10   1    4.99    4.12   0
  -3   0   3 1023.26   12.94   0
  -3   4   1   46.96    3.01   0
  -3   6  -1   12.64    3.96   0
  -3   7  -2    0.95    2.71   0
  -2 -11  -1   25.69    4.28   0
  -2 -10   0   11.72    4.08   0
  -2   8  -4   73.16    3.42   0
  -2   9  -6   58.86    3.66   0
  -1 -11  -3   24.87    4.33   0
  -1 -10  -2    7.14    3.02   0
  -1  -9  -1   99.84    3.87   0
  -1  -6   1   53.80    4.45   0
  -1   9  -8   15.94    4.45   0
   0 -11  -7   13.39    3.13   0
   0 -10  -5    5.35    2.89   0
   0  -6  -1  134.83    4.31   0
   0   4  -2 2602.67   18.81   0
   0   5  -3  636.23    9.29   0
   0   6  -4 2567.13   15.52   0
   0   8  -8    8.65    4.10   0
   1  -9  -8  131.32    5.05   0
   1  -8  -6   -3.29    3.84   0
   1  -7  -5  371.86    5.69   0
   1  -6  -4  102.07    3.64   0
   2  -6 -11    1.36    4.26   0
   2  -5  -9   39.53    3.39   0
   2  -3  -7  143.29    4.52   0
  -6  -3   3  328.17    9.76   0
  -4   0   3  101.51    5.37   0
  -3   5   0   20.06    2.99   0
  -3   8  -4   80.09    3.73   0
  -2 -12  -2   23.83    3.35   0
  -2  -7   2  636.49    9.48   0
  -2   7  -3  194.24    5.25   0
  -1 -12  -4    4.99    4.19   0
  -1  -8   0   21.66    2.91   0
  -1   7  -4   71.51    4.18   0
   0 -11  -6    4.05    4.10   0
   0  -9  -3   -0.45    3.90   0
   0  -8  -2  275.45    6.11   0
   0  -4   0   18.64    4.84   0
   0   7  -6   54.28    4.32   0
   1  -5  -3 1014.93    9.90   0
   1   5  -6   24.40    4.39   0
   1   7 -11   65.00    5.47   0
   2  -6 -10   22.46    4.31   0
   2  -5  -8    6.24    3.73   0
   2  -4  -7   64.57    4.36   0
   2  -1  -6   31.91    4.53   0
   2   4 -11  138.02   12.81   0
  -6  -4   3   37.06    6.64   0
  -6   0   2   39.67    4.69   0
  -5  -8   3   10.77    6.84   0
  -5  -1   3    0.46    4.01   0
  -5   3   1   -1.11    2.74   0
  -5   4   0   12.57    4.31   0
  -5   5  -1   26.55    4.60   0
  -4 -10   2    1.88    5.39   0
  -4   2   2  103.70    4.95   0
  -4   7  -3   79.66    4.77   0
  -3  -9   2  146.73    5.65   0
  -3   2   2    1.82    2.74   0
  -2  -9   1   -0.83    2.59   0
  -2   1   2  170.73    6.66   0
  -2   3   1  692.87    8.65   0
  -2   8  -5  194.09    5.41   0
  -2   9  -7   31.84    3.60   0
  -1   3   0  678.45    9.86   0
  -1   8  -6  186.47    4.52   0
  -1   9  -9    6.73    4.10   0
   0 -10  -4  195.87    4.44   0
   0   8  -9    2.47    3.93   0
   1  -9  -7  283.26    5.37   0
   1  -2  -2 1601.10   15.90   0
   1   6  -8  195.27    6.47   0
   1   7 -13   10.20    5.80   0
   1   7 -12   75.70    5.43   0
   2  -6  -9    4.75    3.97   0
   2  -3  -6   38.83    4.22   0
   2  -2  -6  259.25    5.87   0
   2   0  -6    9.68    4.90   0
  -6  -5   3   10.25    7.08   0
  -5   1   2    8.70    4.14   0
  -4  -8   3    1.59    5.41   0
  -4   6  -2  239.10    5.64   0
  -3 -12   0   21.44    4.45   0
  -3  -7   3  176.91    7.70   0
  -3   7  -3    5.03    2.72   0
  -3   8  -5    4.38    4.15   0
  -2   4   0  472.22    7.43   0
  -2   5  -1   57.48    4.35   0
  -2   6  -2  137.40    4.15   0
  -2   9  -8   14.39    4.46   0
  -1 -11  -2    2.11    3.97   0
  -1 -10  -1  592.90    7.70   0
  -1  -7   1    6.43    3.44   0
  -1   6  -3   72.26    4.07   0
  -1   9 -10   42.52    4.64   0
   0 -11  -5  232.58    5.56   0
   0  -7  -1    6.35    2.67   0
   0  -5   0    2.29    4.31   0
   1  -9  -6   17.53    4.01   0
   1  -8  -5   58.54    3.31   0
   1  -7  -4   60.80    3.20   0
   1  -6  -3   78.93    4.45   0
   1  -3  -2  292.48    6.46   0
   1  -1  -2  686.40   12.92   0
   1   4  -5   32.55    5.35   0
   2  -7 -10   35.78    4.69   0
   2  -6  -8   42.19    4.26   0
   2  -5  -7  135.20    4.99   0
  -4   3   1  155.57    4.50   0
  -4   4   0  837.42    9.01   0
  -4   5  -1   26.69    4.13   0
  -3 -11   1    9.20    4.44   0
  -3  -1   3   55.20    5.25   0
  -3   3   1   80.64    4.17   0
  -3   6  -2  615.65    7.49   0
  -2 -12  -1  113.15    5.23   0
  -2 -11   0  232.32    6.18   0
  -1 -12  -3    2.62    4.12   0
  -1  -9   0    1.83    3.69   0
  -1   1   1   43.24    7.06   0
  -1   4  -1   14.05    4.23   0
  -1   5  -2  759.30    8.99   0
  -1   7  -5  186.64    5.20   0
  -1   8  -7   85.05    4.73   0
   0 -10  -3   12.19    4.16   0
   0  -9  -2  200.64    5.59   0
   0   6  -5  447.43    7.53   0
   0   7  -7   29.14    4.15   0
   0   8 -10   16.43    3.06   0
   1  -4  -2  113.30    5.19   0
   1   3  -4 1118.75   19.58   0
   2  -7  -9  104.81    5.04   0
   2  -4  -6   56.04    4.16   0
  -6  -1   2   14.20    4.39   0
  -6   1   1   12.25    3.28   0
  -5  -2   3   37.90    4.82   0
  -5   2   1    4.15    4.06   0
  -5   5  -2   94.33    5.38   0
  -4  -1   3  957.86   12.54   0
  -4   7  -4    8.46    2.88   0
  -3   4   0  130.64    4.82   0
  -3   5  -1  385.91    5.90   0
  -3   7  -4   80.42    4.86   0
  -3   8  -6   75.85    4.56   0
  -2 -10   1  122.42    5.36   0
  -2  -8   2   43.73    4.62   0
  -2   7  -4   21.17    2.99   0
  -2   8  -6   38.71    3.21   0
   0 -11  -4    1.63    4.40   0
   0  -8  -1   12.87    3.78   0
   0  -6   0   16.90    3.98   0
   0   2  -1  145.71    9.07   0
   0   8 -11   66.61    5.03   0
   1 -10  -7    1.95    2.82   0
   1  -9  -5   55.85    4.44   0
   1  -8  -4    6.36    3.96   0
   1   6  -9   22.32    4.25   0
   2  -7  -8   19.56    4.72   0
   2  -6  -7  335.39    6.39   0
   2  -5  -6    2.30    3.81   0
   2   2  -7  218.66   15.43   0
  -5   3   0   44.30    4.66   0
  -5   4  -1   33.95    4.54   0
  -4   1   2   40.22    4.52   0
  -4   6  -3    8.03    4.23   0
  -3 -10   2   27.13    4.34   0
  -3   1   2   46.71    4.69   0
  -2   6  -3  179.01    5.49   0
  -1  -8   1  183.95    5.43   0
  -1  -4   2  404.46    9.59   0
  -1  -3   2   60.75    6.33   0
  -1   8  -8   76.78    4.74   0
   0   5  -4   87.34    4.94   0
   0   7  -8   25.97    4.06   0
   0   8 -12   39.93    3.65   0
   1 -10  -6  189.28    5.58   0
   1  -7  -3  599.19    7.14   0
   1  -5  -2  198.69    4.92   0
   2  -8  -9    0.23    4.61   0
   2  -3  -5   61.04    4.57   0
   2  -2  -5    2.64    3.94   0
  -5   0   2   72.71    4.95   0
  -4 -11   2   11.39    4.92   0
  -4   7  -5  126.77    5.21   0
  -3  -8   3   60.16    5.43   0
  -3   6  -3   15.32    4.11   0
  -3   8  -7    8.04    4.24   0
  -2  -5   3  198.88    8.44   0
  -2  -4   3  123.85    8.50   0
  -2   2   1 2225.63   16.84   0
  -2   7  -5  157.29    5.35   0
  -2   8  -7    1.10    2.95   0
  -1 -12  -2  142.76    4.52   0
  -1 -11  -1   21.19    3.12   0
  -1 -10   0   -0.20    3.86   0
  -1  -5   2  309.81    7.77   0
  -1   6  -4   73.81    3.40   0
  -1   7  -6  171.21    5.40   0
  -1   8  -9   89.54    4.83   0
   0 -11  -3  125.04    4.98   0
   0 -10  -2  105.14    4.60   0
   0  -7   0  825.70    9.00   0
   1  -6  -2  355.82    6.48   0
   1   5  -7  106.24    5.57   0
   1   6 -10   72.08    6.09   0
   2  -7  -7   41.42    4.25   0
   2  -6  -6  354.03    6.56   0
   2  -4  -5 1072.80   10.57   0
   2  -1  -5   10.07    4.13   0
   2   1  -6  350.22   11.40   0
   2   4 -12   60.33    9.45   0
  -6  -2   2   19.27    5.07   0
  -6   0   1   -0.04    4.43   0
  -5  -9   3   29.25    7.51   0
  -5  -3   3   59.55    6.33   0
  -5   5  -3   46.13    4.78   0
  -4  -9   3    9.26    4.68   0
  -4   2   1  231.93    6.05   0
  -4   5  -2   15.33    2.71   0
  -3 -12   1    5.98    4.47   0
  -3   7  -5  127.57    5.03   0
  -2 -12   0    0.97    4.23   0
  -2  -9   2   28.53    4.26   0
  -2   0   2  741.16   12.76   0
  -2   5  -2   91.85    4.72   0
  -2   8  -8    3.64    4.51   0
  -1  -6   2   35.00    4.38   0
   0  -9  -1  400.69    6.67   0
   0   3  -2    8.04    5.36   0
   0   4  -3   41.24    5.08   0
   0   6  -6   66.74    3.75   0
   1 -10  -5   36.58    4.43   0
   1  -9  -4    0.90    2.70   0
   1  -8  -3 1135.18    9.48   0
   1   0  -2 1184.02   21.37   0
   2  -8  -8   44.28    3.68   0
   2  -5  -5  732.10    8.44   0
  -6   1   0   21.79    4.61   0
  -5   1   1  116.99    5.50   0
  -4  -2   3   95.41    6.80   0
  -4   3   0   -3.54    2.70   0
  -4   4  -1   -1.72    2.63   0
  -4   6  -4   14.21    4.40   0
  -4   7  -6    6.81    4.50   0
  -3   2   1   55.99    4.20   0
  -3   5  -2  253.79    5.13   0
  -3   8  -8  100.28    4.03   0
  -2 -11   1   59.95    4.68   0
  -2  -6   3   16.27    4.25   0
  -2   3   0  883.91    9.72   0
  -2   4  -1  467.54    6.92   0
  -1  -9   1  106.20    4.88   0
  -1   5  -3    6.02    3.92   0
  -1   8 -10    3.69    4.21   0
   0   7  -9    1.26    2.82   0
   1  -7  -2  999.19    9.71   0
   1   6 -11  144.64    7.48   0
   2  -8  -7    7.78    4.32   0
   2  -7  -6   37.30    3.36   0
   2  -6  -5  805.11    9.19   0
   2   4 -14    1.49    7.75   0
   2   4 -13   21.63    8.12   0
  -6   2  -1    7.31    4.76   0
  -5   2   0   70.56    4.90   0
  -5   3  -1   10.26    4.20   0
  -5   4  -2   33.18    3.60   0
  -4   0   2  300.08    7.37   0
  -3 -11   2  195.35    6.55   0
  -3  -9   3  301.23    8.53   0
  -3  -2   3 1391.82   20.61   0
  -3   3   0  363.90    6.54   0
  -3   4  -1  258.69    5.12   0
  -3   6  -4  140.98    5.04   0
  -3   7  -6   -2.66    3.99   0
  -2   6  -4  503.83    6.71   0
  -2   7  -6   15.66    2.74   0
  -2   8  -9    3.16    3.32   0
  -1 -12  -1    4.52    3.16   0
  -1 -11   0  160.39    5.64   0
  -1  -7   2    3.65    3.70   0
  -1   2   0 5137.91   28.43   0
  -1   4  -2 4311.71   21.34   0
  -1   6  -5    0.55    3.65   0
  -1   7  -7   95.38    3.90   0
  -1   8 -11   15.73    4.64   0
   0 -12  -3   12.88    4.37   0
   0 -11  -2   98.34    5.04   0
   0  -8   0  125.15    4.08   0
   0  -4   1  877.07   11.92   0
   0   7 -10  163.35    5.74   0
   1 -10  -4    0.73    4.19   0
   1  -9  -3   -0.47    3.86   0
   1  -4  -1  207.72    6.12   0
   1  -3  -1   53.30    5.16   0
   2  -4  -4    4.00    3.56   0
   2  -3  -4    2.38    3.71   0
   2   0  -5   59.43    5.24   0
   3  -3 -12    6.26    4.65   0
   3  -3 -11   14.95    4.63   0
   3  -2 -12    0.90    4.64   0
   3  -2 -11   11.80    5.67   0
   3  -1 -13    4.67    6.04   0
  -6  -3   2  131.82    7.36   0
  -5  -1   2    5.34    4.19   0
  -5   5  -4    4.16    4.45   0
  -4   5  -3    1.94    4.05   0
  -2 -10   2   31.15    4.69   0
  -2  -7   3  421.28    8.68   0
  -2   8 -10  148.86    5.65   0
  -1   3  -1  364.19    8.06   0
   0 -10  -1  204.89    4.83   0
   0  -5   1   87.73    4.42   0
   0  -3   1  101.86    7.18   0
   0   5  -5  501.21    8.56   0
   0   6  -7  566.14    8.70   0
   1 -11  -5  125.00    4.31   0
   1  -8  -2  311.49    6.14   0
   1  -5  -1   37.13    3.40   0
   1   5  -8   99.42    5.73   0
   1   6 -13    1.26    6.13   0
   1   6 -12   14.58    4.79   0
   2  -9  -7   16.45    4.57   0
   2  -8  -6   61.29    3.72   0
   2  -7  -5   66.96    4.40   0
   2  -5  -4  241.48    5.80   0
   2  -2  -4    4.88    4.04   0
   3  -4 -11    4.14    4.59   0
   3  -3 -10   46.00    4.92   0
   3  -1 -12    0.76    4.64   0
  -6  -1   1   71.36    5.41   0
  -5  -4   3    3.55    5.84   0
  -4 -10   3   79.15    6.03   0
  -4   4  -2    3.92    4.16   0
  -4   6  -5    0.65    3.17   0
  -3   0   2  163.89    6.62   0
  -3   5  -3   80.35    4.76   0
  -3   7  -7   50.83    4.75   0
  -2 -12   1    7.74    4.62   0
  -2   5  -3  209.91    5.76   0
  -2   7  -7  129.98    5.11   0
  -1 -10   1    9.55    3.00   0
  -1  -8   2  232.23    6.24   0
  -1   7  -8  151.01    4.49   0
   0  -9   0 1478.55   11.02   0
   0  -6   1    1.13    2.89   0
   0   7 -12  206.18    6.56   0
   0   7 -11    0.95    3.12   0
   1  -6  -1  165.43    4.60   0
   1  -2  -1 1096.21   13.55   0
   1   4  -6  162.87    7.25   0
   2  -6  -4  534.69    7.97   0
   3  -5 -10   -0.48    4.67   0
   3  -4 -10   86.84    4.59   0
   3  -2 -10  120.22    6.12   0
   3  -1 -11   47.41    5.56   0
  -6   0   0   78.04    5.61   0
  -5   4  -3    3.38    3.39   0
  -5   5  -5   52.95    5.11   0
  -4   1   1    2.67    4.53   0
  -4   3  -1   16.87    4.23   0
  -3 -12   2    1.82    4.78   0
  -3   6  -5   99.11    4.96   0
  -2  -8   3   -0.79    4.48   0
  -2   6  -5   31.54    4.49   0
  -1 -12   0    0.52    4.78   0
  -1   5  -4  148.80    5.35   0
   0 -12  -2   11.35    4.35   0
   0 -11  -1   11.47    4.51   0
   0  -7   1   83.79    4.54   0
   0   7 -13    3.27    4.60   0
   1 -11  -4   27.13    3.36   0
   1 -10  -3  136.03    4.35   0
   1  -9  -2   -5.18    4.08   0
   1  -7  -1   87.29    5.11   0
   2  -9  -6    4.94    2.97   0
   2  -8  -5  168.27    4.63   0
   2  -1  -4 1053.59   13.61   0
   3  -5  -9   14.22    4.54   0
   3  -4  -9   55.86    5.18   0
   3  -3  -9   17.08    4.41   0
   3  -2  -9  105.48    5.88   0
   3  -1 -10   99.35    6.23   0
   3   0 -13    2.58    6.18   0
   3   0 -12   51.88    6.90   0
  -6   1  -1   74.77    5.45   0
  -6   2  -2   72.50    4.20   0
  -5   0   1   -0.81    3.29   0
  -5   3  -2   14.04    4.71   0
  -4   2   0  255.23    5.51   0
  -4   5  -4   11.64    3.10   0
  -4   6  -6  152.80    4.52   0
  -3 -10   3   49.10    5.24   0
  -3   4  -2  900.48    9.29   0
  -3   7  -8   35.26    3.50   0
  -2 -11   2  174.50    6.14   0
  -2   1   1  396.68    9.17   0
  -2   4  -2   79.63    5.07   0
  -2   7  -8   19.71    3.36   0
  -1 -11   1   57.78    5.16   0
  -1  -9   2  471.01    7.91   0
  -1   6  -6  139.48    4.40   0
  -1   7  -9   40.45    3.61   0
   0 -10   0  116.98    5.18   0
   0   6  -8   26.60    4.68   0
   2  -7  -4   -0.35    3.09   0
   2  -4  -3   16.47    4.03   0
   3  -6  -9    0.91    4.60   0
   3  -4  -8  577.52    9.11   0
  -6  -4   2   59.70    6.02   0
  -6  -2   1   13.21    4.78   0
  -5  -2   2  119.59    6.11   0
  -5   1   0   23.07    3.54   0
  -5   2  -1   44.57    3.66   0
  -5   4  -4  310.18    6.98   0
  -4  -3   3   14.55    5.87   0
  -3   1   1  511.71    8.75   0
  -3   3  -1    3.98    3.81   0
  -3   6  -6    0.09    4.15   0
  -3   7  -9   30.77    4.80   0
  -2  -9   3    2.99    4.10   0
  -2   2   0 1720.67   14.99   0
  -2   3  -1  476.03    8.15   0
  -2   7  -9    0.65    4.73   0
  -1   7 -10    2.48    4.32   0
   0  -8   1  172.81    4.46   0
   0   4  -4  408.51    8.03   0
   1 -11  -3    5.28    3.20   0
   1 -10  -2   12.99    4.24   0
   1  -8  -1   98.33    3.97   0
   1   5  -9  251.67    7.58   0
   2  -9  -5    5.99    3.20   0
   2  -8  -4  299.05    6.25   0
   2  -6  -3 1089.12   10.34   0
   2  -5  -3   88.74    3.78   0
   2  -3  -3   55.41    4.75   0
   3  -5  -8   97.22    5.21   0
   3  -3  -8    8.74    3.16   0
   3  -1  -9   50.60    5.27   0
   3   0 -11    1.55    4.87   0
  -4  -1   2   65.04    5.27   0
  -4   4  -3   25.05    3.38   0
  -4   5  -5  231.13    5.98   0
  -4   6  -7   85.68    4.00   0
  -3   2   0  191.90    5.09   0
  -3   5  -4  135.05    4.18   0
  -2   5  -4  304.52    5.76   0
  -2   6  -6   96.29    4.03   0
  -1   0   1  345.74   13.50   0
  -1   4  -3  122.73    5.74   0
  -1   6  -7   14.27    4.14   0
  -1   7 -11    4.31    4.68   0
   0 -12  -1  139.03    4.71   0
   0  -9   1  201.57    5.84   0
   0  -2   1  183.06    8.61   0
   0   5  -6  981.61   10.78   0
   0   6  -9  503.43    8.48   0
   1  -9  -1  225.26    5.97   0
   1  -5   0  572.15    8.53   0
   2  -7  -3   15.15    4.52   0
   2   3  -9   10.83    8.42   0
   3  -6  -8   51.78    3.81   0
   3  -4  -7  828.32   10.15   0
   3  -2  -8   74.71    5.11   0
  -6  -1   0    0.39    4.85   0
  -5  -5   3  167.24    9.87   0
  -5   3  -3  171.42    5.89   0
  -4   3  -2   33.99    4.44   0
  -4   6  -8   21.76    4.86   0
  -3 -11   3    1.34    4.94   0
  -3   6  -7   15.53    4.39   0
  -2 -12   2   75.93    5.47   0
  -2 -10   3   17.31    4.49   0
  -2   7 -10   20.67    3.76   0
  -1 -12   1  114.36    5.49   0
  -1 -10   2  106.28    4.45   0
  -1   5  -5   34.63    4.28   0
  -1   7 -12    2.99    3.39   0
   0 -11   0    5.17    3.17   0
   1 -11  -2    9.62    4.41   0
   1  -7   0  897.97    9.77   0
   1  -6   0  150.97    4.66   0
   1  -4   0  469.72    7.59   0
   1  -1  -1   51.40    5.75   0
   1   5 -10   45.36    6.67   0
   2 -10  -5    2.88    3.24   0
   2  -9  -4   -1.05    3.03   0
   2  -2  -3 1233.87   13.04   0
   3  -7  -8   24.96    3.37   0
   3  -6  -7    8.99    4.66   0
   3  -5  -7  106.55    4.40   0
   3  -3  -7  250.77    6.80   0
   3   0 -10   18.11    5.03   0
  -6   0  -1    8.13    4.57   0
  -6   1  -2   13.30    3.54   0
  -5  -1   1  394.94    7.86   0
  -5   4  -5   27.08    4.78   0
  -4   0   1   56.21    5.05   0
  -3   4  -3   67.04    4.75   0
  -3   5  -5   12.72    4.13   0
  -2   6  -7  360.19    5.76   0
  -2   7 -11    6.94    3.31   0
  -1  -7   3   24.29    4.34   0
  -1  -6   3  132.46    5.99   0
  -1   6  -8   12.49    4.25   0
   0 -10   1    4.89    4.26   0
   0   3  -3   57.76    6.25   0
   0   6 -10   13.89    4.59   0
   1 -10  -1  175.79    5.68   0
   1  -8   0 2062.78   13.50   0
   1  -3   0  768.89   10.90   0
   1   3  -5   58.16    6.84   0
   1   4  -7  155.31    7.54   0
   2  -8  -3  136.32    4.29   0
   3  -7  -7   -0.68    4.82   0
   3  -2  -7  131.93    5.86   0
   3  -1  -8   98.02    5.53   0
  -6  -5   2    0.25    5.25   0
  -5   0   0   36.73    4.86   0
  -5   1  -1  171.24    5.97   0
  -5   2  -2  125.49    4.43   0
  -4   1   0    1.08    4.16   0
  -4   2  -1    2.61    2.87   0
  -4   4  -4   69.19    3.68   0
  -4   5  -6   52.63    3.70   0
  -3  -1   2  183.92    7.33   0
  -3   6  -8  130.58    5.21   0
  -2  -1   2  123.35    7.74   0
  -2   4  -3   24.85    3.17   0
  -2   5  -5  340.43    6.53   0
  -1 -11   2  549.02    7.29   0
  -1  -8   3   39.68    4.71   0
  -1  -5   3    3.33    4.63   0
  -1   3  -2 1677.19   14.59   0
   0 -12   0   17.94    4.81   0
   0  -7   2  205.16    5.70   0
   0  -6   2    6.35    3.05   0
   0  -5   2  549.71    9.36   0
   0   5  -7   96.40    5.59   0
   0   6 -11    8.26    4.40   0
   1   5 -11    0.93    5.44   0
   2 -10  -4   19.45    3.41   0
   2  -9  -3   47.29    4.76   0
   2  -7  -2  589.81    8.03   0
   2  -6  -2  437.43    6.41   0
   2  -5  -2 1347.14   10.77   0
   2  -4  -2   31.32    4.22   0
   2   0  -4  102.44    7.04   0
   3  -6  -6  137.73    5.58   0
   3  -5  -6    3.64    3.11   0
   3  -4  -6   11.71    4.33   0
   3   0  -9    0.85    5.77   0
  -6  -3   1  174.44    6.90   0
  -5  -3   2   23.51    5.90   0
  -5   3  -4   68.14    5.11   0
  -5   4  -6   98.10    5.13   0
  -3  -8   4    5.69    4.87   0
  -3  -7   4  250.32   10.03   0
  -3   3  -2    7.36    4.07   0
  -2 -11   3   12.31    3.34   0
  -2   6  -8   37.47    3.34   0
  -1  -9   3  299.76    6.88   0
  -1   2  -1  220.17    8.36   0
  -1   6  -9  508.01    7.86   0
   0 -11   1  140.19    5.54   0
   0  -8   2   -0.32    2.64   0
   0   6 -13   34.10    5.14   0
   0   6 -12   22.49    4.76   0
   1 -11  -1   17.95    4.57   0
   1  -9   0  144.55    4.45   0
   1   5 -12   14.31    5.97   0
   2  -8  -2    3.31    4.27   0
   2  -3  -2  621.25    9.27   0
   2   1  -5  138.32    9.58   0
   3  -7  -6   55.45    3.93   0
   3  -3  -6    4.34    2.93   0
   3   1 -13   10.14    8.43   0
  -6   1  -3    0.90    4.80   0
  -4   3  -3  191.48    5.62   0
  -4   5  -7    5.41    3.37   0
  -3  -9   4   28.76    5.28   0
  -3  -3   3    1.81    6.09   0
  -3   4  -4   55.71    4.68   0
  -3   5  -6   12.25    3.22   0
  -3   6  -9  152.54    4.54   0
  -2   3  -2    5.98    4.43   0
  -2   6  -9   39.15    4.67   0
  -1 -12   2   89.30    5.50   0
  -1   1   0 4808.01   33.45   0
  -1   4  -4 1772.14   14.37   0
  -1   5  -6  396.31    6.44   0
   0  -9   2  349.66    6.95   0
   0  -4   2 2277.57   18.47   0
   0   4  -5  499.76    8.60   0
   1 -10   0    4.74    4.56   0
   1   5 -14   98.60    6.79   0
   1   5 -13   10.96    4.91   0
   2 -10  -3   24.76    3.36   0
   2  -1  -3  105.14    6.24   0
   3  -8  -6   65.68    5.41   0
   3  -6  -5    7.36    4.43   0
   3  -5  -5  374.17    7.15   0
   3  -4  -5 1114.31   11.09   0
   3  -2  -6    9.93    4.64   0
   3  -1  -7    0.29    4.34   0
   3   1 -12   37.19    8.20   0
  -6  -2   0  149.57    6.41   0
  -6  -1  -1    5.01    4.99   0
  -6   0  -2   86.98    5.86   0
  -5   2  -3    5.14    4.65   0
  -5   4  -7  207.98    6.30   0
  -4  -9   4    2.55    6.18   0
  -4  -8   4    8.13    7.08   0
  -4  -2   2   51.14    6.22   0
  -4   4  -5    2.16    3.21   0
  -4   5  -8   -1.12    4.44   0
  -3 -10   4    2.78    5.77   0
  -3  -6   4  984.36   21.67   0
  -3   0   1  866.93   11.91   0
  -3   1   0  294.79    7.17   0
  -3   2  -1  123.41    4.41   0
  -3   6 -10    3.54    3.44   0
  -2 -12   3  154.21    6.43   0
  -2  -8   4  376.34    8.63   0
  -2  -7   4  409.75   10.03   0
  -2   5  -6  131.41    4.35   0
  -1 -10   3  138.42    5.85   0
  -1  -4   3   18.79    5.71   0
  -1   6 -10   33.60    3.71   0
   0 -12   1   19.12    4.82   0
   0 -10   2  600.62    8.59   0
   0   2  -2 2207.30   24.37   0
   0   5  -8  663.35    9.98   0
   1  -7   1    3.18    4.18   0
   1  -6   1  543.87    7.41   0
   1  -5   1  781.94    9.87   0
   1  -2   0 5347.84   30.53   0
   2  -9  -2  168.59    4.64   0
   3  -7  -5   78.25    4.17   0
  -6  -6   2   16.21    7.13   0
  -5   1  -2   11.76    4.73   0
  -5   3  -5    8.75    3.41   0
  -4 -10   4  107.19    8.36   0
  -4  -4   3    0.76    6.78   0
  -4   2  -2  187.93    5.94   0
  -3   5  -7   43.92    4.76   0
  -3   6 -11  158.64    4.99   0
  -2  -9   4  344.94    7.98   0
  -2   2  -1  110.23    6.27   0
  -2   4  -4   12.19    3.13   0
  -2   6 -11   59.81    5.20   0
  -2   6 -10   28.47    3.67   0
  -1   5  -7  172.88    5.98   0
  -1   6 -12  384.90    7.96   0
  -1   6 -11  194.21    5.24   0
   1 -11   0   85.69    5.38   0
   1  -8   1   30.23    3.42   0
   1   4  -8  128.70    7.16   0
   2 -10  -2   78.15    5.13   0
   2  -7  -1   -0.83    3.04   0
   2  -6  -1  372.42    6.15   0
   2  -5  -1  165.20    4.55   0
   2  -2  -2  761.62   11.30   0
   3  -8  -5   48.97    3.96   0
   3  -3  -5  183.03    5.30   0
   3   0  -8   24.36    6.18   0
   3   1 -11   50.62    8.15   0
  -6  -4   1   30.37    5.64   0
  -6   1  -4   79.36    5.70   0
  -5  -6   3    3.69    6.98   0
  -5  -2   1  137.83    6.06   0
  -5   0  -1   69.90    5.24   0
  -4   1  -1  384.32    7.37   0
  -4   3  -4   65.54    5.17   0
  -4   4  -6   81.77    4.05   0
  -4   5  -9   43.50    3.84   0
  -3 -11   4   13.63    5.52   0
  -3   3  -3   83.92    5.07   0
  -3   4  -5   29.43    4.72   0
  -2 -10   4    5.89    4.69   0
  -2  -6   4    6.16    4.49   0
  -2   0   1   28.63    5.64   0
  -2   1   0  532.27   10.35   0
  -2   5  -7   54.29    4.76   0
  -2   6 -12   25.47    5.22   0
  -1 -11   3  125.44    4.65   0
  -1   6 -13   65.28    4.35   0
   0 -11   2   66.71    5.19   0
   0   5  -9  180.58    6.56   0
   1  -9   1   -0.51    3.08   0
   1  -4   1   14.52    3.40   0
   2  -9  -1   24.75    4.83   0
   2  -8  -1   24.47    3.29   0
   2  -4  -1  270.39    5.86   0
   3  -7  -4   20.96    4.78   0
   3  -6  -4   21.41    3.42   0
   3  -5  -4    4.00    2.78   0
   3  -4  -4   21.35    4.41   0
  -6   0  -3   22.04    4.96   0
  -5  -1   0  155.62    6.02   0
  -5   2  -4   28.84    4.67   0
  -5   3  -6   20.47    3.69   0
  -4  -1   1  150.63    6.40   0
  -4   0   0  340.01    7.62   0
  -3   5  -8  205.93    4.96   0
  -1   3  -3   67.65    5.46   0
  -1   4  -5 1295.76   12.35   0
   0  -8   3  165.64    5.74   0
   0  -7   3   25.38    4.19   0
   0  -3   2    9.56    5.81   0
   0   4  -6  205.97    6.85   0
   1 -10   1   63.05    3.60   0
   3  -8  -4    3.38    3.10   0
   3  -2  -5  176.66    6.57   0
   3  -1  -6  186.06    6.99   0
  -6  -3   0  480.19    9.29   0
  -6   1  -5   11.88    5.07   0
  -5  -4   2  286.14    9.80   0
  -4   4  -7  228.09    5.23   0
  -3   5  -9   28.67    4.54   0
  -2 -11   4   18.00    5.09   0
  -2   3  -3   62.32    4.86   0
  -2   4  -5  547.40    8.04   0
  -2   5  -8    5.61    4.41   0
  -1 -12   3   19.54    3.63   0
  -1  -8   4   75.48    5.43   0
  -1   5  -8  308.07    6.03   0
   0 -12   2   28.64    5.00   0
   0  -9   3  725.70    8.87   0
   0  -6   3   45.78    4.67   0
   0   3  -4  607.85   11.42   0
   0   5 -10   27.06    4.60   0
   1 -11   1    4.73    4.70   0
   2 -10  -1  119.93    4.44   0
   2  -7   0  860.51    9.49   0
   2  -3  -1  699.97    9.91   0
   2   3 -10   47.82    8.13   0
   3  -9  -4   83.93    4.25   0
   3  -7  -3   92.90    5.46   0
   3  -6  -3   42.86    4.71   0
   3  -3  -4  458.40    8.25   0
   3   1 -10    8.60    6.92   0
  -6  -2  -1   14.22    5.43   0
  -6  -1  -2    2.96    3.34   0
  -5   1  -3   61.94    5.13   0
  -5   3  -7   46.50    3.63   0
  -4   2  -3    1.19    2.93   0
  -4   3  -5   72.24    5.01   0
  -4   4  -8   49.60    5.19   0
  -3   2  -2   56.59    3.63   0
  -3   4  -6  537.63    7.04   0
  -3   5 -10    8.68    4.68   0
  -1  -9   4    6.33    4.28   0
  -1  -7   4   86.09    5.43   0
  -1   5  -9  175.83    6.08   0
   0 -10   3  343.40    7.17   0
   0   5 -11    5.96    4.42   0
   1  -8   2   31.14    4.60   0
   1  -7   2  109.56    5.05   0
   1  -6   2 1058.80   10.78   0
   1  -3   1  366.25    8.49   0
   1   4  -9   32.69    5.07   0
   2  -8   0    5.89    3.00   0
   2  -6   0  106.59    4.23   0
   2  -5   0   65.57    4.89   0
   3  -8  -3   66.65    4.93   0
   3  -5  -3   25.65    3.47   0
   3   0  -7  195.44    8.59   0
   4  -4  -9   16.24    4.91   0
  -6   0  -4  164.80    6.07   0
  -5   2  -5   61.83    4.15   0
  -5   3  -8   13.36    5.07   0
  -3   3  -4   80.32    4.27   0
  -3   5 -11   28.72    5.26   0
  -2 -12   4   18.46    5.38   0
  -2   5  -9    2.95    3.17   0
  -1 -10   4  194.48    5.44   0
  -1  -6   4  391.25    8.92   0
   0 -11   3   61.68    5.30   0
   0  -5   3  613.95    9.46   0
   0   5 -14   61.95    5.52   0
   0   5 -13   31.01    5.32   0
   0   5 -12   46.13    5.17   0
   1  -9   2  118.90    4.46   0
   1   3  -6  230.61    9.71   0
   2  -9   0   91.26    4.14   0
   3  -9  -3   63.77    4.11   0
   3  -4  -3  100.17    4.08   0
   4  -5  -8    2.25    4.95   0
   4  -3 -10  182.95    7.73   0
  -6  -5   1   12.90    5.48   0
  -5   0  -2   26.82    3.58   0
  -4   1  -2  154.59    5.85   0
  -4   3  -6   21.74    4.66   0
  -4   4  -9  156.48    4.82   0
  -3   1  -1  309.49    7.22   0
  -3   4  -7   56.38    4.98   0
  -3   5 -12   60.40    4.02   0
  -2  -5   4   90.87    7.85   0
  -2   2  -2 4126.19   22.25   0
  -2   4  -6   83.82    4.15   0
  -2   5 -10   71.91    4.21   0
  -1 -11   4   44.50    5.33   0
  -1   4  -6  185.12    5.95   0
  -1   5 -10  106.29    5.44   0
   0   4  -7  196.16    6.82   0
   1 -10   2   26.27    3.48   0
   1  -5   2  666.56    8.69   0
   1   4 -10  334.21    9.71   0
   2 -10   0   18.31    3.33   0
   2  -4   0  471.28    7.33   0
   2  -1  -2  193.40    7.61   0
   2   0  -3  212.48    8.94   0
   2   3 -11    7.14    8.05   0
   3  -8  -2   14.64    4.61   0
   3  -7  -2  384.55    7.19   0
   3  -6  -2   72.34    4.99   0
   3  -2  -4   58.84    5.29   0
   3  -1  -5    8.85    4.54   0
   4  -5  -7   63.00    5.45   0
   4  -4  -8   12.87    4.97   0
   4  -3  -9   39.25    5.40   0
  -6  -1  -3   26.41    5.36   0
  -5  -3   1   14.42    4.60   0
  -5  -2   0  751.85   10.89   0
  -5  -1  -1   72.34    5.29   0
  -5   1  -4   53.05    5.27   0
  -5   2  -6  292.41    5.94   0
  -4  -3   2   19.54    6.03   0
  -4   2  -4  268.48    6.52   0
  -4   4 -10  107.70    4.43   0
  -3  -2   2 1464.54   19.22   0
  -2   3  -4 1150.40   11.69   0
  -2   5 -13    7.49    4.95   0
  -2   5 -12   15.99    5.18   0
  -2   5 -11   -0.65    3.32   0
  -1 -12   4   30.69    5.23   0
  -1   2  -2   47.87    5.03   0
  -1   5 -14   98.33    6.01   0
  -1   5 -13   55.81    5.30   0
  -1   5 -12  463.90    8.31   0
  -1   5 -11    2.63    3.43   0
   0 -12   3   40.82    3.98   0
   1 -11   2   81.45    4.20   0
   2  -8   1  282.74    6.76   0
   2  -7   1  100.48    5.24   0
   2  -2  -1 2332.35   18.41   0
   2   3 -14   68.00    8.19   0
   3  -9  -2   10.04    4.79   0
   3  -5  -2  131.31    4.54   0
   3  -3  -3  314.98    6.44   0
   3   1  -9    0.91    7.05   0
   4  -6  -6   50.39    5.41   0
   4  -4  -7   -3.99    5.00   0
   4  -3  -8  109.95    6.26   0
  -6  -4   0  372.46    9.02   0
  -6  -2  -2   78.08    5.84   0
  -6   0  -5  112.94    6.27   0
  -4   0  -1    0.96    4.62   0
  -4   3  -7   16.37    4.77   0
  -3  -1   1  161.88    7.10   0
  -3   0   0 2108.51   16.95   0
  -3   2  -3  273.18    6.57   0
  -3   3  -5   11.91    3.22   0
  -3   4  -8   15.28    3.36   0
  -2   4  -7  407.10    7.33   0
  -1   3  -4    5.54    3.68   0
   0  -9   4  134.50    5.72   0
   0  -8   4  161.91    5.86   0
   0  -4   3   51.62    5.99   0
   1  -4   2 4055.44   22.31   0
   1  -1   0 4893.48   35.25   0
   1   2  -4 1002.82   25.33   0
   1   4 -14   21.99    5.46   0
   1   4 -12   92.68    7.72   0
   1   4 -11   17.69    5.06   0
   2  -9   1   -1.69    3.42   0
   2  -6   1   96.41    4.29   0
   2   3 -13    3.14    7.26   0
   2   3 -12    1.54    7.26   0
   3  -4  -2   99.65    5.33   0
   4  -5  -6   17.06    4.71   0
   4  -2 -10  268.87    8.74   0
  -6  -3  -1    8.73    3.77   0
  -5   0  -3   -0.87    4.88   0
  -5   2  -7  522.00    7.06   0
  -4  -2   1   31.18    5.20   0
  -4  -1   0  103.60    5.87   0
  -3   4  -9    7.03    4.53   0
  -2 -10   5   33.91    5.30   0
  -2  -9   5   45.53    5.38   0
  -1  -5   4  188.47    7.72   0
  -1  -3   3 1722.85   26.47   0
  -1   4  -7  639.75    8.37   0
   0 -10   4   22.32    4.89   0
   0  -7   4    3.24    4.32   0
   0   4  -8   57.94    5.30   0
   1 -10   3   18.87    5.00   0
   1  -9   3   51.72    4.77   0
   1  -8   3   97.17    4.04   0
   1  -7   3  276.29    6.52   0
   1   0  -1  318.52   13.98   0
   1   4 -13    1.60    5.17   0
   2 -10   1    7.20    3.73   0
   2  -5   1   58.45    5.13   0
   2  -3   0 1008.57   10.97   0
   3  -9  -1  163.09    6.15   0
   3  -8  -1  112.40    5.41   0
   3  -7  -1    7.08    3.07   0
   3  -6  -1   84.57    4.98   0
   3   0  -6   72.03    5.99   0
   4  -6  -5   61.26    5.23   0
   4  -4  -6    0.87    4.67   0
   4  -3  -7  185.55    6.74   0
   4  -2  -9  229.75    8.16   0
  -6  -1  -4    5.96    5.33   0
  -6   0  -6   40.09    5.77   0
  -5  -7   3   11.42    7.62   0
  -5  -5   2    3.00    6.57   0
  -5   1  -5   22.78    3.71   0
  -5   2  -8   39.04    5.14   0
  -4   1  -3   25.95    4.84   0
  -4   2  -5   65.48    4.23   0
  -4   3  -8    5.93    3.56   0
  -3 -11   5   18.92    6.04   0
  -3 -10   5    1.39    5.25   0
  -3  -9   5  148.18    8.81   0
  -3   3  -6  114.78    5.55   0
  -3   4 -10   10.55    4.88   0
  -2 -11   5  121.65    6.67   0
  -2  -8   5    7.50    4.71   0
  -2   1  -1   89.43    5.37   0
  -2   4  -8  114.79    5.56   0
   0 -11   4    6.10    3.75   0
   0   3  -5  855.51   13.05   0
   1 -11   3   17.10    5.10   0
   1  -6   3   69.26    4.76   0
   1  -2   1  201.77    8.74   0
   3  -5  -1    5.15    4.41   0
   3  -2  -3  221.43    6.85   0
   4  -5  -5   35.17    4.83   0
   4  -2  -8  125.55    7.81   0
  -6  -6   1   27.45    6.13   0
  -5  -1  -2 1393.82   12.91   0
  -5   2  -9   46.73    5.57   0
  -4   3  -9  107.07    5.81   0
  -3   1  -2   55.51    5.20   0
  -3   4 -12   41.13    5.23   0
  -3   4 -11   23.84    3.85   0
  -2   3  -5  867.10    9.76   0
  -2   4  -9 1095.24   10.81   0
  -1 -11   5  358.08    8.22   0
  -1 -10   5  267.73    7.36   0
  -1  -9   5   62.17    5.53   0
  -1  -8   5    1.24    4.68   0
  -1   1  -1  908.31   16.31   0
  -1   4  -8  231.19    6.68   0
   0  -6   4 2707.12   17.68   0
   0   2  -3  101.73    8.07   0
   0   4  -9   52.10    5.50   0
   2  -9   2  117.74    5.86   0
   2  -8   2   51.94    4.95   0
   2  -7   2    8.08    4.66   0
   2  -4   1  422.40    7.93   0
   3  -3  -2    3.86    3.36   0
   3  -1  -4  213.74    7.31   0
   4  -7  -4    5.06    5.10   0
   4  -6  -4    5.68    4.96   0
   4  -4  -5  105.76    5.87   0
   4  -3  -6   19.86    4.97   0
  -6  -2  -3   25.48    4.11   0
  -5   0  -4   12.12    5.10   0
  -5   1  -6   97.58    4.57   0
  -4   2  -6    3.11    4.79   0
  -4   3 -10   75.91    5.66   0
  -3   2  -4 1462.99   12.07   0
  -3   3  -7  734.03    9.13   0
  -2   2  -3  365.33    7.29   0
  -2   4 -10 1757.97   13.39   0
  -1   3  -5  788.51   10.93   0
   0  -2   2 2093.62   25.43   0
   0   4 -15   -0.34    5.25   0
   1  -5   3   10.60    4.61   0
   2 -10   2   52.60    3.89   0
   2  -6   2  129.39    5.99   0
   3  -9   0  230.01    6.65   0
   3  -8   0  201.38    5.17   0
   3  -7   0   53.16    5.02   0
   3  -4  -1   43.47    4.52   0
   4  -5  -4  176.07    6.48   0
   4  -2  -7  241.15    7.49   0
   4  -1 -11   -0.23    5.67   0
  -6  -1  -5    5.20    3.94   0
  -4   0  -2 1747.55   13.51   0
  -4   3 -11    4.25    3.45   0
  -1   4  -9   44.31    3.79   0
   0   4 -10   71.36    4.45   0
   1  -3   2 1851.62   16.26   0
   3  -6   0   13.34    3.44   0
  -6  -1  -5    1.52    3.18   0
  -5  -1  -5    3.08    3.06   0
  -5   2  -6  267.00    4.67   0
  -5   3  -6   17.23    2.36   0
  -5   4  -6  108.45    3.14   0
  -4  -8   3    1.94    3.90   0
  -4   3  -6   33.47    2.97   0
  -4   4  -6   94.96    3.41   0
  -4   5  -6   45.91    3.26   0
  -3  -9   8    0.86    3.33   0
  -3  -1  -4  469.12    6.39   0
  -3   1  -5   21.01    2.72   0
  -3   8  -5    2.82    2.10   0
  -2  -8   8  120.87    4.04   0
  -2  -5   1  304.62    8.02   0
  -2  -1  -3  277.01    6.53   0
  -2   1  -4   30.44    3.49   0
  -2   9  -4  142.66    3.32   0
  -1  -7   9   62.21    3.45   0
  -1   2  -3 3524.06   17.18   0
  -1   9  -3   50.25    3.27   0
  -1  11  -2   79.90    3.12   0
   0  -6  13   34.76    2.46   0
   0  -4   5  556.23    6.69   0
   0   5  -2  571.63    7.41   0
   0   6  -2    4.35    1.99   0
   0   7  -2  188.62    4.43   0
   0  12   0   18.36    3.30   0
   1  -4  13   25.44    2.43   0
   1  -4  14    9.87    2.24   0
   1  -3   8  149.17    4.00   0
   1   0   3 1669.05   14.90   0
   1  10   1  632.44    7.76   0
   2  -1  11  245.74    4.36   0
   2  -1  15    3.29    3.13   0
   2   0   8   48.52    2.39   0
   2   4   4   25.53    4.65   0
   3   4  11   41.53    3.34   0
   3   5  10   44.89    3.68   0
   3   7   9  191.79    6.51   0
  -6  -3  -4    0.44    3.10   0
  -5  -3  -4  283.50    5.73   0
  -5   1  -6  121.15    3.82   0
  -4  -9   6   36.79    3.79   0
  -4   2  -6   13.09    2.93   0
  -4   6  -6  145.28    3.27   0
  -4   7  -6    4.17    3.17   0
  -3  -9   9    5.91    3.10   0
  -3  -8   5    2.77    2.90   0
  -3   9  -5   21.38    3.15   0
  -2  -7   5   17.30    3.15   0
  -2   5  -5  352.36    5.11   0
  -2   6  -5   20.80    2.87   0
  -1  -7  10   95.96    3.66   0
   0  -5   8  704.85    6.57   0
   0   8  -2    2.39    2.66   0
   1  -2   6  143.19    4.12   0
   2  -1  12    0.85    1.99   0
   2  -1  13   63.08    2.72   0
   2  -1  14   64.41    2.74   0
   2  10   4    7.08    4.36   0
   3   4  12  132.96    4.17   0
   3   4  13    2.60    3.12   0
   3   4  14    2.77    3.20   0
   3   9  10   24.02    4.52   0
  -4  -1  -5  120.13    4.07   0
  -3   4  -6  600.16    5.99   0
  -3   5  -6   12.15    2.96   0
  -3   6  -6    2.20    2.77   0
  -2  -8   9    4.86    2.16   0
  -2  -8  10    7.44    3.02   0
  -2   4  -5  480.03    5.27   0
  -2   7  -5  150.77    3.20   0
  -2  10  -4   27.31    2.55   0
  -1  -7  11   59.46    2.78   0
  -1  -7  12   89.17    3.71   0
  -1  -6   6  177.38    3.81   0
  -1   6  -4   73.66    3.30   0
  -1  10  -3   16.46    2.11   0
   0  -2   2 2245.18   17.53   0
   0   4  -2 2188.08   14.14   0
   0  11  -1  165.62    4.36   0
   1  -3   9   -0.88    2.10   0
   1   6   0  384.23    7.17   0
   1   7   0  575.08    8.08   0
   1   8   0   21.62    3.68   0
   1  12   2  147.24    4.84   0
   2   0   9    0.38    1.73   0
   2   1   7  160.82    4.18   0
   3   5  11   13.35    3.30   0
   3   5  12   42.29    3.51   0
   3   6  10  182.03    5.47   0
  -6  -2  -5   94.71    4.03   0
  -5   0  -6    0.28    2.91   0
  -4  -9   7   24.27    3.72   0
  -4   1  -6   11.38    2.94   0
  -3   3  -6  105.41    3.45   0
  -3   7  -6    2.03    2.85   0
  -2  -8  11   -1.20    3.04   0
  -2  -6   3   16.85    3.04   0
  -2   3  -5  782.69    6.81   0
  -2   8  -5  239.94    3.81   0
  -1  -4   2  413.53    7.54   0
  -1   5  -4  137.27    3.30   0
  -1   7  -4   79.36    2.61   0
  -1   8  -4   75.81    3.32   0
   0  -5   9  191.26    3.62   0
   0  -5  10   32.11    2.95   0
   0   9  -2  310.64    4.53   0
   1  -3  10  879.74    6.63   0
   1  -3  15   39.51    3.29   0
   1  11   1   20.69    3.17   0
   2   0  10  116.59    3.64   0
   2   0  15   41.38    3.51   0
   2   2   6  948.50    9.48   0
   3   5  13    9.02    3.24   0
   3   6  11   94.44    4.46   0
   3   7  10   34.27    3.68   0
   3   8  10   33.23    4.27   0
  -6   0  -6   48.01    2.67   0
  -5  -2  -5  224.35    4.85   0
  -5   3  -7   36.88    3.30   0
  -5   4  -7  218.57    4.36   0
  -3  -8   6  121.44    4.05   0
  -3  -7   3  174.35    5.09   0
  -3  -6   1   19.10    3.92   0
  -3   0  -5  945.39    7.94   0
  -3   8  -6   70.48    2.62   0
  -2  -7   6  124.41    3.97   0
  -2   9  -5   -0.97    2.58   0
  -1  -6   7    6.67    2.44   0
  -1  -5   4  202.20    4.29   0
  -1   4  -4 1785.36   10.51   0
  -1  11  -3   17.63    2.37   0
   0  -5  11    2.45    2.75   0
   0  -5  12   46.00    3.19   0
   0  -5  13   36.67    3.20   0
   0  -5  14   55.14    2.55   0
   0  -4   6  206.75    4.00   0
   0  10  -2  611.61    6.61   0
   1  -3  11    8.96    2.14   0
   1  -3  12    9.85    1.92   0
   1  -3  13   36.47    2.40   0
   1  -3  14   13.89    2.19   0
   1  -2   7  219.50    4.40   0
   1   5   0  867.60   11.45   0
   1   9   0    3.06    2.75   0
   2   0  11   49.59    2.46   0
   2   0  12  266.06    4.69   0
   2   0  13  206.22    4.33   0
   2   0  14  100.74    3.04   0
   2   1   8    0.92    2.49   0
   2   3   5   41.00    3.54   0
   3   6  12  196.29    5.34   0
   3   6  13   95.28    4.49   0
   3   7  11   29.66    3.96   0
   3   8  11    6.10    4.03   0
  -5   2  -7  579.24    5.94   0
  -4  -4  -3  114.55    5.26   0
  -4   4  -7  198.97    3.54   0
  -4   5  -7    4.79    2.00   0
  -4   6  -7   76.81    2.71   0
  -3  -3  -3  402.16    8.27   0
  -3   2  -6   27.95    2.19   0
  -2   0  -4  118.47    4.45   0
  -2   2  -5   83.50    3.45   0
  -2  10  -5   56.41    3.40   0
  -1  -6   8  215.87    4.32   0
  -1   1  -3   30.72    4.08   0
  -1   9  -4   20.27    2.14   0
   0  -3   4  554.47    6.84   0
   0   3  -2   10.55    3.61   0
   0  12  -1   21.79    3.17   0
   1  -1   5  127.60    3.63   0
   2  12   5    7.22    4.60   0
   3   7  12    0.55    3.29   0
  -6  -1  -6    4.79    3.10   0
  -5  -1  -6   18.58    2.74   0
  -4  -8   4   11.61    3.34   0
  -4  -3  -4   55.99    3.51   0
  -4   0  -6  219.52    3.98   0
  -4   3  -7   25.04    2.05   0
  -3  -8   7  138.69    4.10   0
  -2  -7   7  128.55    3.86   0
  -2   6  -6  104.49    3.37   0
  -1  -6   9   26.91    2.75   0
  -1   3  -4    7.08    2.02   0
  -1  10  -4  116.06    3.60   0
   0  -4   7  273.44    4.58   0
   1  -2   8  149.75    3.36   0
   1  10   0    1.71    2.67   0
   1  12   1    4.30    3.69   0
   2   1   9   51.62    3.17   0
   2   1  15   64.52    3.64   0
   2   8   3   73.72    5.63   0
  -6  -4  -4   11.84    4.00   0
  -5   1  -7    5.75    2.05   0
  -4  -2  -5  110.71    4.05   0
  -4   2  -7    9.79    1.86   0
  -3  -8   8    9.74    2.96   0
  -3  -4  -2   63.22    5.86   0
  -3  -2  -4    4.97    2.92   0
  -3   1  -6  236.18    4.31   0
  -3   5  -7   48.41    3.08   0
  -3   6  -7   25.81    2.91   0
  -3   7  -7   47.00    3.05   0
  -2   5  -6  125.82    3.05   0
  -2   7  -6   18.64    2.07   0
  -2   8  -6   46.16    2.94   0
  -1  -6  10   80.82    3.21   0
  -1  -6  11  128.94    3.77   0
  -1  -6  12   23.02    3.05   0
  -1  -6  13   -1.59    2.95   0
  -1  -5   5   12.63    2.58   0
   0  -4   8   63.23    3.13   0
   0  -4  15    2.37    2.98   0
   0   6  -3   48.35    3.00   0
   0   7  -3   25.65    2.10   0
   0   8  -3  183.72    4.15   0
   0  11  -2   65.08    2.71   0
   1  -2   9  787.72    6.96   0
   1  -2  14  187.46    4.20   0
   1  -2  15    6.18    1.96   0
   2   1  10  243.27    4.39   0
   2   1  11   26.79    2.96   0
   2   1  13   11.40    2.91   0
   2   1  14   -2.06    2.96   0
   2   2   7    8.32    2.73   0
   2   7   3   15.97    5.92   0
   2  11   4  178.00    6.60   0
  -6  -5  -3    2.47    3.83   0
  -6  -3  -5   -0.55    3.06   0
  -5  -8   3    9.95    4.01   0
  -3  -8   9    6.63    2.96   0
  -3   4  -7   53.61    2.49   0
  -3   8  -7    8.26    2.81   0
  -2  -7   8    3.47    1.94   0
  -2  -7   9   20.28    3.07   0
  -2  -6   4    6.17    2.64   0
  -2   4  -6   75.81    2.67   0
  -2   9  -6   54.19    3.10   0
  -1   6  -5    0.43    2.54   0
  -1   7  -5  233.60    4.27   0
  -1   8  -5    0.02    2.39   0
  -1  11  -4  113.04    3.12   0
   0  -4   9   50.06    3.14   0
   0  -4  14    0.28    2.79   0
   0   5  -3  561.21    6.93   0
   0   9  -3  726.46    7.00   0
   1  -2  10  118.00    3.04   0
   1  -2  11   13.74    2.93   0
   1  -2  12   35.36    3.06   0
   1  -2  13   20.33    2.26   0
   1  -1   6    3.69    2.88   0
   1   0   4  226.62    5.78   0
   1  11   0  157.45    4.46   0
   2   1  12    3.40    1.93   0
   2   9   3   46.07    4.67   0
  -6  -2  -6   26.79    3.26   0
  -5  -4  -4   47.41    4.27   0
  -5  -3  -5   24.32    3.11   0
  -5   0  -7    8.11    2.76   0
  -5   3  -8   13.28    3.12   0
  -4  -8   5   22.22    3.48   0
  -4  -5  -2   43.18    5.79   0
  -4  -1  -6   49.75    3.19   0
  -4   1  -7    6.58    1.83   0
  -4   4  -8   53.93    3.15   0
  -4   5  -8   -0.62    2.82   0
  -4   6  -8   25.52    3.06   0
  -3  -8  10    2.87    2.12   0
  -3  -7   4  251.11    5.45   0
  -3  -1  -5  254.36    5.04   0
  -3   3  -7  617.64    5.67   0
  -2  -7  10   75.63    2.89   0
  -2  -7  11    6.13    2.15   0
  -2  -7  12   40.95    2.64   0
  -2   1  -5  277.25    4.66   0
  -2   3  -6   86.26    3.37   0
  -2  10  -6  120.68    3.72   0
  -1   2  -4 1066.46    9.23   0
  -1   5  -5   38.35    2.26   0
  -1   9  -5   71.85    3.25   0
   0  -4  10   78.49    3.24   0
   0  -4  11  294.73    4.56   0
   0  -4  12    9.65    2.84   0
   0  -4  13   15.07    2.15   0
   0  -3   5  827.28    7.78   0
   0  10  -3  303.51    5.10   0
   0  12  -2   25.90    3.19   0
   2   2   8    1.93    2.52   0
   2   2  15    3.10    2.93   0
   2   3   6  182.93    5.08   0
  -5  -2  -6  316.46    5.44   0
  -5   2  -8   44.13    3.40   0
  -4   3  -8    6.45    2.73   0
  -1  -5   6   27.96    2.75   0
  -1  -4   3   16.00    3.34   0
  -1  -3   1    2.83    3.48   0
  -1   4  -5 1465.42    9.47   0
  -1  10  -5    2.53    2.96   0
   0  -2   3  124.98    5.25   0
   1  -1   7  216.69    4.49   0
   1  -1  15    2.51    2.83   0
   1   4   0 2523.22   22.53   0
   1   7  -1    7.74    2.87   0
   1   8  -1  175.81    4.72   0
   1   9  -1   91.93    3.76   0
   2   2   9  115.84    3.76   0
   2   2  13  132.99    3.99   0
   2   2  14  337.83    4.69   0
   2   5   4  473.15   12.51   0
   2  10   3   54.99    5.41   0
  -5  -5  -3   19.18    4.71   0
  -4  -8   6   54.86    3.69   0
  -4  -7   2   79.59    5.22   0
  -3   0  -6   26.62    3.04   0
  -3   2  -7 2706.05   11.52   0
  -3   6  -8  154.28    3.87   0
  -2  -6   5   70.33    3.60   0
  -2  -5   2   16.22    3.72   0
  -2   6  -7  332.22    4.72   0
  -2   7  -7  116.12    3.40   0
  -1  -5   7   96.62    3.34   0
  -1  -5  14  110.56    3.83   0
   0  -3   6  352.17    5.50   0
   0  -3  15   28.01    3.21   0
   0   4  -3   46.53    3.76   0
   0  11  -3   64.35    3.52   0
   1  -1  14   11.74    2.84   0
   1  12   0    4.45    3.07   0
   2   2  10   43.37    3.06   0
   2   2  11   96.46    3.61   0
   2   2  12   66.98    3.38   0
   2   3  15   19.04    3.24   0
   2   4   5  929.44   11.98   0
  -5  -1  -7    1.28    2.90   0
  -5   1  -8   24.30    2.42   0
  -4   0  -7  321.69    4.59   0
  -4   2  -8   13.84    2.78   0
  -3  -7   5   79.79    3.77   0
  -3   5  -8  174.24    3.30   0
  -3   7  -8   30.63    2.31   0
  -3   8  -8  106.72    3.77   0
  -2  -4   0  199.21    9.30   0
  -2   2  -6  139.79    3.78   0
  -2   5  -7   65.41    3.18   0
  -2   8  -7   -1.57    1.93   0
  -2   9  -7   33.79    3.02   0
  -1  -5   8  112.19    3.41   0
  -1  -5  12   10.84    2.95   0
  -1  -5  13   12.84    2.32   0
  -1  11  -5   64.52    2.85   0
   0  -3  14    2.39    3.07   0
   0   8  -4  187.83    4.11   0
   1  -1   8    2.71    1.98   0
   1  -1   9    7.77    2.63   0
   1  -1  12   96.73    3.65   0
   1  -1  13  170.83    3.49   0
   1   6  -1   49.46    3.60   0
   1  10  -1   12.55    2.87   0
   2   3   7   49.44    3.46   0
   2   3  14   23.52    3.15   0
   2  12   4   61.53    5.20   0
  -6  -6  -2   25.49    5.29   0
  -5  -8   4  113.75    4.88   0
  -4  -8   7   31.43    3.42   0
  -4  -8   8    6.56    3.15   0
  -4   5  -9   57.24    3.28   0
  -3   4  -8   14.05    2.05   0
  -2  -6   6  477.38    6.27   0
  -2  -6  13   13.88    3.14   0
  -2  -2  -3 1841.25   17.03   0
  -2  -1  -4   37.97    3.69   0
  -2   4  -7  471.75    5.53   0
  -1  -5   9  267.54    4.50   0
  -1  -5  10   48.49    2.96   0
  -1  -5  11    3.31    1.87   0
  -1   3  -5  861.98    7.72   0
  -1   6  -6  130.43    3.60   0
  -1   7  -6  198.25    4.03   0
  -1   8  -6  210.89    3.96   0
   0  -3   7  288.59    4.94   0
   0  -3  13   -0.30    2.99   0
   0   2  -2 2149.63   16.97   0
   0   6  -4 2588.52   12.72   0
   0   7  -4    1.38    1.64   0
   0   9  -4  172.45    4.16   0
   0  12  -3   44.64    3.47   0
   1  -1  10   41.46    2.26   0
   1  -1  11    4.54    1.97   0
   1   0   5 4628.00   19.84   0
   1   0  15   54.04    3.63   0
   1   1   3 3225.55   22.27   0
   1  11  -1   59.11    3.63   0
   2   3  13   -0.70    2.84   0
  -6  -3  -6  219.50    5.32   0
  -5   0  -8   74.32    3.55   0
  -4   1  -8   39.15    3.09   0
  -4   4  -9  146.69    3.99   0
  -3  -7   6  180.54    4.68   0
  -3  -6   2   61.50    4.35   0
  -3   1  -7  232.40    3.91   0
  -3   3  -8  271.89    4.62   0
  -2  -6   7   30.52    2.99   0
  -2  -6  12    2.65    3.39   0
  -2   0  -5   55.72    3.68   0
  -1  -4   4  923.20    9.19   0
  -1   0  -3 1405.82   13.75   0
  -1   9  -6   34.62    2.18   0
  -1  10  -6    3.49    2.99   0
   0  -3   8  106.16    3.58   0
   0  -3   9   23.52    3.13   0
   0  -3  10   25.59    2.98   0
   0  -3  11   25.64    3.06   0
   0  -3  12  109.35    2.98   0
   0  10  -4   16.38    2.20   0
   2   3   8  176.49    4.53   0
   2   3  12    5.07    2.98   0
   2  11   3  333.81    8.22   0
  -6  -4  -5   16.62    3.40   0
  -6  -2  -7  198.80    4.96   0
  -5  -8   5   30.14    4.41   0
  -5   2  -9   47.49    2.70   0
  -4  -3  -5  162.33    4.75   0
  -4  -2  -6    3.02    2.80   0
  -4   3  -9   98.92    3.74   0
  -3  -7   7   12.47    3.13   0
  -3  -7   8   60.76    3.38   0
  -3  -7   9   18.95    2.93   0
  -3  -7  10    3.26    2.97   0
  -3  -7  11   -1.25    2.08   0
  -2  -6   8   25.30    2.94   0
  -2  -6   9   68.29    3.37   0
  -2  -6  10    3.69    2.94   0
  -2  -6  11   -0.82    2.25   0
  -2   3  -7  644.04    6.32   0
  -1  -4  14   16.69    3.12   0
  -1   1  -4   19.51    3.52   0
  -1   5  -6  372.58    4.65   0
   0  -2   4  476.74    7.18   0
   0  -2  15   17.46    3.19   0
   0   5  -4   79.56    3.57   0
   0  11  -4    6.15    2.77   0
   1   0   6  197.66    4.84   0
   1   0  14    8.66    2.22   0
   1  12  -1  110.20    4.19   0
   2   3   9  146.68    3.78   0
   2   3  10   43.73    3.18   0
   2   3  11   19.19    2.12   0
   2   4  14   13.67    3.32   0
  -5  -7   1   14.94    4.66   0
  -4  -7   3    7.25    3.80   0
  -4  -1  -7   95.04    3.63   0
  -3  -2  -5  375.62    6.43   0
  -3  -1  -6   73.59    3.46   0
  -3   2  -8  209.55    4.23   0
  -3   5  -9   30.76    2.92   0
  -3   6  -9  135.88    3.26   0
  -3   7  -9   20.58    2.21   0
  -2   1  -6  253.87    4.29   0
  -2   6  -8   47.83    3.04   0
  -2   7  -8   21.90    2.20   0
  -2   8  -8    7.11    1.96   0
  -2   9  -8   10.00    3.02   0
  -1  -1  -2 3439.05   28.53   0
   0  -2  14    9.20    2.96   0
   0   3  -3   63.94    3.35   0
   1   0  12  162.21    3.94   0
   1   0  13   50.86    2.54   0
   1   5  -1  453.56    7.84   0
   1   8  -2  278.00    5.42   0
   1   9  -2  526.57    6.76   0
   2   4   6  100.49    4.47   0
   2   4  13   19.57    3.02   0
  -6  -5  -4   23.86    4.45   0
  -5  -3  -6  102.61    4.20   0
  -5  -2  -7  122.37    4.07   0
  -5   1  -9   -1.24    2.01   0
  -4   0  -8  483.57    5.84   0
  -4   2  -9  208.56    4.25   0
  -3   4  -9    6.96    2.67   0
  -2  -5   3  208.88    5.47   0
  -2   5  -8    3.78    1.90   0
  -1  -4   5   37.42    3.30   0
  -1  -4  13    1.26    2.10   0
  -1   2  -5   13.21    2.89   0
  -1   4  -6  183.32    3.66   0
  -1   8  -7   71.85    3.34   0
   0  -2  13    8.61    2.98   0
   0   8  -5   38.76    3.10   0
   0   9  -5   18.10    2.92   0
   0  12  -4    1.34    2.18   0
   1   0   7 1355.10    9.76   0
   1   0  11   23.53    3.09   0
   1   1  15   69.04    2.85   0
   1   7  -2    4.15    2.73   0
   1  10  -2  126.07    4.22   0
   2   4  12   37.75    3.32   0
   2   5  14    5.41    3.07   0
  -5  -4  -5   22.96    3.59   0
  -5  -1  -8  301.74    5.19   0
  -4  -6   0   85.26    7.28   0
  -4  -4  -4  195.22    5.93   0
  -4   4 -10  110.20    3.92   0
  -3  -3  -4  169.55    5.92   0
  -3   0  -7  253.66    4.32   0
  -2  -5  13  155.27    4.34   0
  -2   2  -7  452.67    5.49   0
  -2   4  -8  118.66    3.71   0
  -1  -4  11   19.13    2.98   0
  -1  -4  12   85.14    2.91   0
  -1  -3  15    7.63    3.25   0
  -1   6  -7   17.53    2.77   0
  -1   7  -7   97.90    2.77   0
  -1   9  -7  208.84    3.84   0
  -1  10  -7   18.80    3.21   0
   0  -2   5    9.98    3.07   0
   0  -2  12  153.76    3.99   0
   0   4  -4  392.53    6.19   0
   0   7  -5   67.39    3.29   0
   0  10  -5    2.88    2.90   0
   1   0   8  563.95    5.98   0
   1   0   9   34.55    2.22   0
   1   0  10   18.45    2.02   0
   1   1  14   14.85    3.16   0
   1  11  -2  529.82    6.92   0
   2   4   7   39.68    3.30   0
   2   4  11    6.33    2.81   0
   2   9   2  406.85    9.96   0
   2  10   2   57.51    5.36   0
   2  12   3  142.67    6.36   0
  -5   0  -9  147.30    4.35   0
  -4  -7   4   35.48    3.52   0
  -4   1  -9   23.98    3.07   0
  -3  -6   3    3.50    3.04   0
  -3   1  -8  210.37    4.23   0
  -3   3  -9   82.92    3.38   0
  -1  -4   6  145.76    3.50   0
  -1  -4   7  160.78    3.93   0
  -1  -4   9   36.86    2.93   0
  -1  -4  10  384.02    5.28   0
  -1   3  -6   38.52    3.06   0
   0  -2  11    2.47    2.73   0
   0  -1   2 4535.71   28.15   0
   0  -1  15    5.25    2.00   0
   0   6  -5  401.54    5.37   0
   0  11  -5   58.80    3.41   0
   1   1   4 1114.55   11.90   0
   1   1  13   54.84    3.41   0
   2   4   8   31.98    3.31   0
   2   4   9   45.44    3.41   0
   2   4  10   44.12    2.57   0
   2   5   5    0.69    3.25   0
   2   5  13   83.02    3.24   0
  -6  -3  -7    1.24    3.94   0
  -4   3 -10   81.73    2.87   0
  -3  -6  12    0.31    2.26   0
  -3   6 -10    6.52    2.10   0
  -3   7 -10    3.18    2.27   0
  -2  -5   4   90.59    3.95   0
  -2  -5  12  144.19    3.45   0
  -2   3  -8  481.97    5.77   0
  -2   6  -9   43.18    3.03   0
  -2   7  -9    4.36    2.07   0
  -2   8  -9    4.42    2.21   0
  -1  -4   8  120.87    3.15   0
  -1  -3   2   59.86    4.33   0
  -1  -3  14   12.84    2.41   0
  -1   5  -7  158.02    3.51   0
   0  -2   6  336.91    5.06   0
   0  -2   7 1065.51    8.40   0
   0  -2   9  322.61    4.97   0
   0  -2  10  183.02    4.28   0
   0  -1  14   26.15    3.19   0
   1   1  12    3.00    2.78   0
   1   2  15   14.15    2.39   0
   1   6  -2   36.18    3.36   0
   1  12  -2   91.06    3.93   0
   2   5  12   53.78    3.60   0
   2   8   2    9.39    4.32   0
   2  11   2    6.41    3.89   0
  -5   1 -10    8.76    3.10   0
  -4  -7   5   23.76    3.36   0
  -4  -7   6    1.86    2.93   0
  -4  -7   8   22.79    3.26   0
  -4  -7   9   68.77    3.83   0
  -3  -6  11    2.59    3.23   0
  -3   2  -9  404.41    5.13   0
  -3   5 -10    8.64    2.16   0
  -2  -5  10   15.15    2.83   0
  -2  -5  11    1.06    2.03   0
  -2   0  -6  802.16    7.95   0
  -2   5  -9    1.33    2.74   0
  -1  -3  13  108.16    3.75   0
   0  -2   8  730.33    6.61   0
   0   5  -5  478.36    5.97   0
   1   2   2 1303.89   21.91   0
   1   2  14   32.13    3.38   0
   1   9  -3  316.89    5.39   0
   1  10  -3  113.81    4.00   0
   2   5  11    0.48    2.78   0
   2   6  13   23.03    3.38   0
  -6  -4  -6    7.05    3.49   0
  -5  -7   2  216.40    6.99   0
  -4  -7   7  206.25    4.96   0
  -4  -2  -7  115.39    4.01   0
  -4  -1  -8  176.85    4.27   0
  -4   2 -10   79.99    2.95   0
  -4   4 -11   71.40    3.56   0
  -3  -6   4 1040.78    9.93   0
  -3  -6  10  118.30    3.20   0
  -3   4 -10   12.62    2.05   0
  -2  -5   5    6.52    2.11   0
  -2  -5   6    0.73    2.93   0
  -2  -5   9   14.40    2.67   0
  -2  -4  14    0.88    2.13   0
  -2  -1  -5  476.34    7.05   0
  -2   1  -7  120.25    3.68   0
  -1  -2  15    5.31    3.08   0
  -1   4  -7  627.46    6.38   0
  -1   7  -8  166.29    4.00   0
  -1   8  -8   66.22    2.65   0
  -1   9  -8   17.98    2.11   0
  -1  10  -8    6.59    3.19   0
   0  -1  13   80.81    2.69   0
   0   0  15   14.20    3.08   0
   0   8  -6  250.12    4.55   0
   0   9  -6   35.87    2.50   0
   0  10  -6   28.67    2.98   0
   1   1   5  241.35    5.79   0
   1   1  10    0.53    2.51   0
   1   1  11  213.11    3.80   0
   1   3  15    1.22    3.12   0
   1   8  -3   42.55    3.40   0
   1  11  -3  128.76    4.13   0
   2   5   6   29.62    3.94   0
   2   5  10  507.79    6.80   0
   2   6  12  127.87    4.33   0
   2   7  13    2.90    3.02   0
  -5  -3  -7   18.05    3.17   0
  -5  -2  -8   10.41    3.10   0
  -5  -1  -9   68.13    3.81   0
  -4  -3  -6  605.58    7.90   0
  -4   0  -9   15.70    2.32   0
  -3  -6   5   88.16    3.99   0
  -3  -6   6    6.01    2.93   0
  -3  -6   7  297.54    5.18   0
  -3  -6   8  104.31    4.02   0
  -3  -6   9  219.39    4.09   0
  -3  -5   0   28.88    5.21   0
  -3  -1  -7  159.05    4.30   0
  -3   0  -8   10.93    2.74   0
  -2  -5   7   40.70    2.49   0
  -2  -5   8   13.77    2.10   0
  -2  -4  13   22.58    3.22   0
  -2  -3  -2 1267.67   23.60   0
  -2   2  -8  290.43    4.79   0
  -2   4  -9 1276.99    8.13   0
  -1  -3  12  165.16    3.35   0
  -1   1  -5  130.71    4.30   0
  -1   6  -8   13.27    3.00   0
   0  -1  12  189.85    4.20   0
   0   2  -3   95.07    5.01   0
   0   3  -4  642.64    7.85   0
   0   7  -6   46.99    2.41   0
   0  11  -6   21.11    3.23   0
   1   1   6   74.21    4.07   0
   1   1   9  266.99    4.68   0
   1   2  13   -0.76    2.12   0
   1   4  -1   97.06    5.43   0
   1   7  -3   28.18    3.18   0
   2   5   7 1995.80   14.86   0
   2   5   8    8.64    3.24   0
   2   5   9 1120.06   10.26   0
   2  12   2   27.73    4.55   0
  -5  -5  -4  118.05    5.95   0
  -5   0 -10  155.96    4.32   0
  -4   1 -10   26.10    3.11   0
  -4   3 -11    3.05    3.13   0
  -3  -2  -6   66.27    3.67   0
  -3   1  -9   36.25    3.05   0
  -3   3 -10   74.45    2.72   0
  -3   6 -11  144.27    3.32   0
  -2   6 -10   30.28    3.23   0
  -2   7 -10   20.44    2.26   0
  -2   8 -10  128.21    3.19   0
  -1  -3   3 1603.82   13.42   0
  -1  -3  11   16.95    2.18   0
  -1  -2  14   60.57    3.36   0
  -1   2  -6  123.39    3.45   0
   0  -1  11   39.75    3.20   0
   0   0  14   24.77    3.06   0
   0   6  -6   79.93    3.18   0
   1   1   7  156.76    4.39   0
   1   1   8  555.07    6.10   0
   1   2  12    7.42    2.66   0
   1   3  14   18.09    3.14   0
   1   5  -2  256.51    5.84   0
   1  12  -3   15.45    2.46   0
   2   6  11   38.88    3.44   0
   2   7  12   22.15    3.43   0
  -5  -7   3   14.32    4.10   0
  -3  -5  12    3.88    3.18   0
  -3   5 -11   35.79    2.33   0
  -2  -4  12   59.58    2.72   0
  -2   3  -9    2.53    2.90   0
  -1  -3  10  341.16    4.48   0
  -1   0  -4  253.10    5.70   0
  -1   3  -7   16.33    2.91   0
  -1   5  -8  281.34    4.18   0
  -1   9  -9    5.82    2.93   0
   0  -1   3  152.64    5.45   0
   0  -1  10  755.96    7.00   0
   0   4  -5  488.51    5.93   0
   1   4  15   10.97    2.27   0
   2   6   4    3.25    4.38   0
   2   6  10  189.11    5.02   0
   2  10   1   10.57    4.09   0
   2  11   1   23.43    4.39   0
  -6  -5  -5    0.86    4.85   0
  -5  -7   4   23.61    4.16   0
  -5  -4  -6   -0.22    3.32   0
  -4   2 -11    7.17    3.22   0
  -3   2 -10  136.42    3.89   0
  -3   4 -11   26.62    3.25   0
  -2  -4   1  429.07    9.46   0
  -2  -4  11  132.39    3.97   0
  -2  -3  14   59.64    3.63   0
  -2  -2  -4 1097.48   12.03   0
  -2   5 -10   63.84    2.67   0
  -1  -3   9   21.24    2.16   0
  -1  -2  13    1.06    2.18   0
  -1  -1  15    6.06    3.10   0
  -1   7  -9   37.53    3.14   0
  -1   8  -9   96.70    2.92   0
   0   0  13   78.16    2.82   0
   0   1  15   42.97    2.72   0
   0   8  -7   13.27    2.87   0
   0   9  -7   95.74    2.95   0
   0  10  -7    0.43    2.91   0
   0  11  -7   37.80    3.36   0
   1   2  11   17.52    2.19   0
   1   3  13    8.86    3.17   0
   1   6  -3  153.36    4.56   0
   1   9  -4    5.03    2.79   0
   1  10  -4  189.85    3.99   0
   1  11  -4   39.90    3.59   0
   2   7  11  225.19    5.57   0
   2   8  12    3.23    3.19   0
   2   9   1  128.73    5.95   0
  -5  -7   5  132.61    5.00   0
  -5  -7   6    7.63    3.64   0
  -4  -6   1   28.49    4.53   0
  -4  -6  10  133.78    4.31   0
  -4  -1  -9   37.08    3.38   0
  -3  -5  11   15.18    2.32   0
  -2   4 -10 1603.90    9.28   0
  -1  -3   4 1160.23   10.26   0
  -1  -3   5   60.74    3.88   0
  -1  -3   7    3.72    2.77   0
  -1  -3   8  458.92    5.26   0
  -1  -2  12    5.67    2.94   0
  -1   4  -8  208.74    3.87   0
  -1   6  -9  530.52    5.84   0
   0  -1   4   83.54    4.73   0
   0  -1   8  207.97    4.47   0
   0  -1   9   -0.91    1.91   0
   0   0  12   32.42    3.22   0
   0   1  -2 4354.61   27.47   0
   0   5  -6 1005.41    7.68   0
   0   7  -7   23.66    2.93   0
   1   2  10   22.91    2.95   0
   1   4  14   33.49    3.27   0
   1   8  -4   69.23    2.80   0
   1  12  -4   30.68    3.44   0
   2   6   9  531.91    7.39   0
   2  12   1  115.62    5.77   0
  -5  -2  -9   43.82    3.62   0
  -5  -1 -10   20.14    3.39   0
  -4  -6   9    1.63    3.10   0
  -4  -4  -5  342.54    7.64   0
  -4  -2  -8   30.41    3.22   0
  -4   0 -10    1.81    2.02   0
  -3  -5  10  264.83    5.01   0
  -3  -3  -5   54.79    4.38   0
  -3   3 -11    9.36    2.91   0
  -2  -4  10   12.88    2.06   0
  -2  -3  13    7.23    2.84   0
  -2   0  -7  352.94    5.04   0
  -2   1  -8   68.22    2.56   0
  -2   2  -9  305.76    4.76   0
  -2   6 -11   70.53    3.51   0
  -2   7 -11    4.64    2.12   0
  -1  -3   6  219.75    4.29   0
  -1  -1  14   21.54    3.16   0
   0  -1   5   74.49    3.97   0
   0  -1   6 1482.83   10.43   0
   0  -1   7  315.65    5.32   0
   0   1  14  329.84    4.54   0
   1   3   0    5.17    4.64   0
   1   3  12  725.02    6.96   0
   1   7  -4   72.02    3.67   0
   2   6   5  182.90    7.12   0
   2   6   8  789.30    9.50   0
   2   7  10    3.72    3.20   0
   2   8  11   27.51    3.64   0
  -5  -3  -8   13.29    3.24   0
  -4  -6   8   16.60    3.11   0
  -4   1 -11   81.60    3.01   0
  -3  -5   9   63.91    3.63   0
  -3  -1  -8  245.88    4.89   0
  -3   0  -9  130.91    3.26   0
  -3   1 -10   77.58    3.34   0
  -3   5 -12   53.68    2.76   0
  -2  -4   9   34.28    2.38   0
  -2  -1  -6   28.06    3.17   0
  -1  -2  11  255.63    4.48   0
  -1   2  -7  219.64    4.50   0
  -1   5  -9  171.26    3.42   0
  -1   8 -10    2.76    3.14   0
  -1   9 -10   38.40    3.34   0
   0   0  11    7.73    3.03   0
   0   2  15  142.30    3.66   0
   0   3  -5  922.43    8.68   0
   0   6  -7  476.89    5.18   0
   1   2   9   33.04    2.22   0
   1   4  13  198.97    4.63   0
   1   5  14   10.62    3.12   0
   2   6   6   86.83    5.09   0
   2   6   7 1723.67   14.58   0
   2   7   2  494.33   18.22   0
   2   8   1    5.26    4.30   0
   2   9  11    9.51    4.42   0
  -4  -6   2  354.32    7.89   0
  -4  -6   7    1.32    2.87   0
  -4  -3  -7  239.25    5.39   0
  -4   2 -12  115.42    3.94   0
  -3  -4  -3 1956.79   24.29   0
  -3  -4  12    0.98    3.36   0
  -3   2 -11   14.60    3.03   0
  -3   4 -12   37.98    3.28   0
  -2  -4   2 2324.49   17.52   0
  -2  -4   8  205.26    4.28   0
  -2  -3  12    2.38    1.91   0
  -2  -2  14   69.82    3.58   0
  -2   3 -10  289.65    4.23   0
  -2   5 -11    2.55    2.22   0
  -1  -1  13  108.52    3.85   0
  -1   0  15   90.40    3.03   0
  -1   1  -6    4.76    2.15   0
  -1   3  -8  120.09    3.11   0
  -1   7 -10    4.52    2.95   0
   0   1  13   -0.56    1.96   0
   0   4  -6  244.23    4.80   0
   0   8  -8    7.18    2.86   0
   0   9  -8    4.07    2.11   0
   0  10  -8   67.84    2.80   0
   1   2   3  224.87    7.52   0
   1   2   8 1188.67    9.20   0
   1   3  11  285.24    4.93   0
   1   5  -3    0.67    3.04   0
   1   9  -5   66.26    3.52   0
   1  10  -5  224.28    4.25   0
   1  11  -5  492.58    6.74   0
   2   7   9    5.97    2.95   0
   2   8  10  260.05    6.26   0
   2  10   0   14.41    4.08   0
   2  11   0  302.82    7.40   0
  -4  -6   6  129.42    4.40   0
  -3  -5   1  324.84    8.07   0
  -3  -5   8  695.36    6.59   0
  -3  -2  -7  160.20    4.49   0
  -2  -4   7  841.66    7.69   0
  -1  -2  10   35.68    2.43   0
  -1  -1  -3 2970.52   22.26   0
  -1   4  -9   50.23    3.31   0
  -1   6 -10   31.91    3.06   0
   0   0  10  385.87    4.87   0
   0   2  -4  445.52    6.75   0
   0   2  14  560.84    5.74   0
   0   3  15   88.83    4.01   0
   0   5  -7  118.86    3.65   0
   0   7  -8   24.63    3.12   0
   1   2   7 1454.41   10.84   0
   1   4  12  608.57    7.04   0
   1   6  -4  391.86    6.12   0
   1   6  14   32.89    3.52   0
   1   8  -5    1.05    2.85   0
   2   9   0   61.44    4.88   0
   2  12   0    0.72    4.10   0
  -4  -6   3   35.75    3.88   0
  -4  -6   4  109.35    4.41   0
  -4  -6   5    9.90    3.10   0
  -4  -5  -3   96.57    8.70   0
  -4  -1 -10   71.45    3.70   0
  -4   0 -11  213.16    4.60   0
  -3  -5   7 1344.80    9.78   0
  -3  -4  11   52.96    3.66   0
  -3   3 -12   49.46    3.40   0
  -2  -4   3  147.27    4.96   0
  -2  -4   5 4433.09   18.44   0
  -2  -4   6   13.98    3.00   0
  -2  -3  11    7.79    2.17   0
  -2  -2  13    9.92    3.29   0
  -2   1  -9  288.85    4.76   0
  -2   4 -11   80.55    2.91   0
  -2   6 -12   18.90    3.11   0
  -1  -2   9  124.95    4.01   0
  -1  -1  12   95.15    3.68   0
  -1   0  -5 4954.85   20.78   0
  -1   0  14  170.45    3.61   0
   0   1  12   12.90    2.36   0
   1   2   4    0.45    3.50   0
   1   2   5  132.36    5.00   0
   1   2   6  436.15    6.97   0
   1   3  10  156.97    3.68   0
   1   4  -2  384.60    7.17   0
   1   5  13   53.86    3.54   0
   2   7   8  266.46    6.44   0
   2   9  10    1.71    3.22   0
  -5  -4  -7    2.81    3.33   0
  -5  -2 -10   34.22    3.62   0
  -5  -1 -11   75.25    3.25   0
  -4  -5  10    8.14    3.19   0
  -4  -2  -9  112.00    4.01   0
  -4   1 -12   97.86    4.15   0
  -3  -5   2    1.33    3.65   0
  -3  -5   6   39.11    3.56   0
  -3  -3  13   24.60    3.51   0
  -3   0 -10  155.12    4.06   0
  -2  -4   4  533.98    7.09   0
  -2   0  -8   49.84    3.01   0
  -2   2 -10   53.50    2.62   0
  -1   1  15  196.42    3.80   0
  -1   5 -10  105.10    3.59   0
  -1   8 -11   17.67    3.22   0
   0   0   9  193.01    3.81   0
   0   2  13   63.60    3.70   0
   0   6  -8   30.22    3.02   0
   0   9  -9   61.24    3.66   0
   0  10  -9   33.23    3.66   0
   1   7  -5  169.39    3.91   0
   1  10  -6   36.39    3.43   0
   1  11  -6    0.19    3.15   0
   2   8   9   24.66    3.90   0
  -6  -5  -6    6.63    4.41   0
  -5  -5  -5   42.35    4.96   0
  -3  -5   3   96.43    4.28   0
  -3  -5   4    2.33    2.98   0
  -3  -5   5  329.32    5.98   0
  -3  -4  10    2.78    3.12   0
  -3  -1  -9  364.13    5.51   0
  -3   1 -11  331.81    4.53   0
  -2  -3  10   44.10    2.39   0
  -2  -2  -5 2712.88   17.27   0
  -2  -1  14   -1.38    3.05   0
  -2   3 -11   31.65    2.45   0
  -2   5 -12   17.74    2.39   0
  -1  -2   8  130.82    3.39   0
  -1  -1  11   10.08    2.94   0
  -1   0  13   16.82    3.14   0
  -1   2  -8  158.99    4.08   0
  -1   3  -9    2.07    2.94   0
  -1   7 -11   -1.25    2.14   0
   0   0   8    4.19    2.90   0
   0   1  11  221.43    3.99   0
   0   3  14   68.14    3.82   0
   0   4  -7  241.86    4.63   0
   0   8  -9   -1.35    2.10   0
   1   3   9  159.42    3.82   0
   1   4  11  232.14    4.30   0
   1   5  12    1.58    3.11   0
   1   6  13    1.83    3.21   0
   1   9  -6   15.76    2.39   0
   2   7   7   87.81    4.44   0
   2  10  -1  126.16    5.10   0
   2  11  -1   63.49    4.38   0
   2  12  -1    5.05    4.16   0
  -5  -6   7    4.40    3.28   0
  -5  -3  -9   -0.95    3.20   0
  -4  -5   9   58.05    3.66   0
  -4  -4  -6  197.87    6.13   0
  -3  -3  -6    8.39    3.62   0
  -3  -3  12   42.28    3.46   0
  -3   2 -12   74.23    3.02   0
  -2  -3   9   14.18    2.96   0
  -2  -2  12    6.16    2.07   0
  -2  -1  -7  155.36    4.34   0
  -2   4 -12   82.58    3.67   0
  -1  -2   7  233.58    4.79   0
  -1   1  -7  183.65    4.00   0
  -1   1  14   88.01    3.93   0
  -1   4 -10    2.30    2.86   0
  -1   6 -11  211.38    4.51   0
   0   1  -3  178.46    6.66   0
   0   3  -6  342.38    5.14   0
   0   5  -8  704.74    6.78   0
   0   7  -9    1.26    2.79   0
   1   5  -4  210.28    4.88   0
   1   6  -5   52.06    3.39   0
   1   8  -6  365.63    5.01   0
   2   7   6  482.38    9.57   0
   2   8   0  562.10   10.47   0
   2   8   8   42.81    3.88   0
   2   9  -1    2.27    3.85   0
   2   9   9   30.22    3.77   0
  -5  -6  -1   42.16    6.43   0
  -5  -6   6    5.67    3.51   0
  -4  -3  -8   35.19    3.42   0
  -4   0 -12   69.87    3.73   0
  -3  -4   9    5.09    2.96   0
  -3  -2  -8   72.21    3.88   0
  -3   3 -13  111.58    3.30   0
  -1  -2   0 2451.33   35.99   0
  -1  -1  10    6.48    3.06   0
  -1   0  12  362.08    5.34   0
  -1   2  15    1.76    2.20   0
   0   0   7  168.50    4.01   0
   0   1  10   56.09    3.24   0
   0   2  -5   10.49    3.17   0
   0   2  12  811.28    6.70   0
   0   3  13   21.89    3.24   0
   1   3   8   15.57    2.33   0
   1   4  10 2185.63   12.18   0
   1   7  13   65.87    3.85   0
   2  10   9    3.93    3.57   0
  -5  -6   5    7.06    3.43   0
  -4  -5   8    0.59    2.10   0
  -4  -4  11   20.95    2.48   0
  -4  -1 -11   10.76    2.17   0
  -3  -2  13    2.89    3.21   0
  -2  -3   8  268.55    4.86   0
  -2  -2  11   10.54    2.24   0
  -2  -1  13   43.61    2.64   0
  -2   1 -10  199.72    3.69   0
  -2   2 -11   29.20    3.16   0
  -2   5 -13   10.29    3.17   0
  -1  -2   6   41.46    2.76   0
  -1   0  -6  182.16    5.03   0
  -1   5 -11    4.57    2.08   0
  -1   7 -12   -1.06    3.13   0
   0   0   6 1157.80    9.96   0
   0   4  14   12.82    2.52   0
   0   6  -9  438.36    5.01   0
   0   8 -10   15.68    3.28   0
   0   9 -10   76.52    2.97   0
   1   4  -3   18.01    3.70   0
   1   5  11   46.30    3.57   0
   1   6  12  179.43    4.62   0
   1   7  -6    2.28    1.97   0
   1   9  -7   11.50    3.11   0
   1  10  -7   48.39    2.75   0
   1  11  -7  100.91    3.33   0
   2   7   5  279.78    8.80   0
   2  10  -2   32.02    4.23   0
   2  11  -2  151.95    5.40   0
   2  12  -2   83.05    5.13   0
  -5  -6   4   11.90    4.25   0
  -5  -4  -8   28.05    4.43   0
  -5  -2 -11   23.33    2.63   0
  -4  -5   7   -0.82    3.21   0
  -4  -2 -10    7.19    3.18   0
  -3  -4   8   82.83    3.90   0
  -3  -3  11   18.90    2.65   0
  -3   0 -11   70.88    2.98   0
  -3   1 -12    1.93    2.10   0
  -3   2 -13   52.96    3.80   0
  -2   0  -9    1.22    1.91   0
  -2   0  14    3.61    2.21   0
  -2   3 -12  128.35    3.30   0
  -1  -2   5 2367.18   14.17   0
  -1  -1  -4 1031.11   11.93   0
  -1  -1   9    1.93    3.07   0
  -1   1  13    8.74    2.20   0
  -1   2  -9  870.37    7.53   0
  -1   2  14   18.78    3.35   0
  -1   3 -10  939.99    7.61   0
   0   1   9    5.19    2.77   0
   0   2  11   44.75    3.17   0
   0   4  -8   70.50    3.48   0
   1   3  -1    3.72    3.83   0
   1   3   7   98.45    4.18   0
   1   4   9  775.96    7.96   0
   1   8  -7  216.81    4.73   0
   2   7   1  100.49    7.14   0
   2   8   7   28.38    3.92   0
   2   9   8    0.21    3.34   0
  -5  -6   3    5.38    4.30   0
  -5  -3 -10    9.70    4.09   0
  -4  -4  10    0.95    2.48   0
  -3  -1 -10    3.72    2.17   0
  -2  -3   7  736.78    7.27   0
  -2  -2  10   62.58    3.61   0
  -2  -1  12   14.46    3.17   0
  -2   4 -13   15.35    3.09   0
  -1   0  11    0.75    2.97   0
  -1   1  -8    3.32    2.84   0
  -1   4 -11  263.48    4.63   0
  -1   6 -12  443.27    5.30   0
   0   0   5  516.77    7.52   0
   0   3  -7  260.50    4.55   0
   0   3  12  354.34    5.54   0
   0   4  13   34.56    3.54   0
   0   5  -9  210.68    4.53   0
   0   5  14    1.70    3.30   0
   0   7 -10  169.08    3.70   0
   1   5  -5   12.74    2.86   0
   1   6  -6  188.02    4.65   0
   1   7  12   16.93    3.42   0
   2   8  -1  216.40    6.35   0
   2   9  -2   30.75    3.73   0
   2  10   8   42.15    4.91   0
  -5  -6   0   51.32    5.05   0
  -5  -6   1   29.98    4.86   0
  -5  -6   2   53.08    4.96   0
  -5  -5   8   29.22    3.75   0
  -4  -5   6   17.11    3.26   0
  -4   0 -13   13.59    3.40   0
  -3  -4   7    4.35    2.98   0
  -3  -3  10   62.03    3.65   0
  -3  -2  12  170.48    4.41   0
  -2  -3  -3   20.67    4.85   0
  -2  -2  -6  921.90    9.82   0
  -2  -1  -8    2.13    1.79   0
  -2   0  13   13.80    3.29   0
  -1  -2   4 1009.92   10.03   0
  -1   5 -12  528.34    6.14   0
   0   2  -6  357.97    5.88   0
   0   6 -10   16.13    3.12   0
   1   3   6 1070.39   10.43   0
   1   5  10  160.32    4.38   0
   1   6  11  108.24    4.04   0
   1   7  -7  873.04    7.87   0
   1   9  -8    8.38    3.07   0
   1  10  -8   38.02    2.72   0
   2   7   4   47.58    5.88   0
   2  10  -3   22.52    4.40   0
   2  11  -3   16.14    3.55   0
   2  12  -3  133.21    5.21   0
  -4  -4   9   18.49    3.39   0
  -4  -3  -9  388.23    6.50   0
  -4  -1 -12    8.88    2.46   0
  -3  -4  -4  134.85    6.97   0
  -3  -3  -7   11.66    3.30   0
  -3  -2  -9  264.17    5.22   0
  -3  -1  13   13.64    3.37   0
  -2  -3   6  203.88    4.75   0
  -2   1 -11  192.70    3.71   0
  -2   1  14   37.55    3.59   0
  -2   2 -12  181.23    3.68   0
  -2   3 -13  162.69    4.28   0
  -1  -2   1  493.08   11.77   0
  -1  -1   8   30.09    2.45   0
  -1   1  12    2.42    2.09   0
  -1   2  13    3.41    3.00   0
  -1   3  14    6.19    3.62   0
   0   0   4   58.43    4.06   0
   0   1  -4   69.00    3.92   0
   0   1   8   12.81    2.13   0
   0   2  10  193.05    3.78   0
   0   8 -11   63.59    2.98   0
   1   4  -4 1047.66   10.23   0
   1   4   8    0.70    3.10   0
   1   8  -8   57.60    3.65   0
   1   8  12   10.60    3.38   0
   2   8   6   42.15    4.73   0
   2   9   7   50.09    5.19   0
  -5  -5  -6  300.36    8.67   0
  -5  -5   7   24.23    3.75   0
  -4  -5   5    9.07    3.38   0
  -4  -4  -7  153.19    5.52   0
  -4  -3  11   -2.06    2.64   0
  -4  -2 -11   18.16    3.46   0
  -3  -4   6  228.11    5.05   0
  -3  -3   9    8.78    3.16   0
  -3  -2  11   80.84    3.94   0
  -3   0 -12   -0.52    2.25   0
  -3   1 -13    5.42    2.52   0
  -3   2 -14    9.81    3.52   0
  -2  -2   9  195.72    3.87   0
  -2  -1  11   29.67    2.48   0
  -2   0 -10  101.12    3.13   0
  -2   4 -14    5.31    3.22   0
  -1   0  -7 1121.98    9.06   0
  -1   0  10    2.74    2.20   0
  -1   2 -10  131.71    4.16   0
  -1   3 -11    9.58    2.40   0
  -1   4 -12   46.21    3.65   0
  -1   6 -13   63.22    2.94   0
   0   0   3 2958.65   21.48   0
   0   3  -8  103.65    3.98   0
   0   3  11    0.78    2.79   0
   0   4  -9   62.25    3.59   0
   0   4  12   49.17    3.72   0
   0   5 -10   29.14    3.37   0
   0   5  13   15.86    3.54   0
   0   7 -11   -0.56    2.07   0
   1   7  11    6.81    3.38   0
   2   7   0  919.36   14.23   0
   2   8  -2   44.12    3.88   0
   2   9  -3    2.79    2.99   0
  -5  -4  -9   -1.17    4.32   0
  -4  -4   8    8.05    3.30   0
  -3  -1 -11  142.25    3.69   0
  -2  -3   5 4593.10   18.98   0
  -2   0  12  107.95    4.15   0
  -1  -1  -5  237.11    6.13   0
  -1  -1   7    6.48    3.09   0
  -1   1  -9    6.88    2.92   0
  -1   1  11   11.07    3.33   0
   0   1   7   48.07    3.70   0
   0   6 -11    1.46    3.03   0
   1   3  -2   70.52    4.81   0
   1   3   5   36.30    3.82   0
   1   5  -6   20.72    2.22   0
   1   5   9   13.90    3.28   0
   1   6  -7    5.53    2.19   0
   1   6  10   71.61    3.82   0
   1   7  -8    6.02    2.96   0
   1   9  -9   34.97    3.66   0
   1  10  -9   10.78    2.57   0
   2  10  -4    4.06    3.07   0
   2  10   7   64.12    5.32   0
   2  11  -4   15.45    3.66   0
   2  12  -4   22.95    3.83   0
  -6  -6   2   13.68    4.82   0
  -5  -5   6    3.34    3.50   0
  -5  -3 -11   64.13    4.38   0
  -4  -5   4  449.93    7.05   0
  -4  -3  10   16.86    3.44   0
  -3  -4   5   22.84    3.30   0
  -3  -1  12   36.51    3.54   0
  -2  -2  -7    5.46    2.78   0
  -2  -2   8    2.60    2.74   0
  -2  -1  -9   43.75    3.09   0
  -2  -1  10   38.44    3.39   0
  -2   1 -12    3.25    3.00   0
  -2   1  13    6.67    3.21   0
  -2   2 -13   29.77    3.43   0
  -2   2  14   79.59    3.99   0
  -1   0   9  110.79    4.06   0
  -1   2  12    6.03    3.02   0
  -1   3  13    6.22    3.18   0
  -1   4  14    7.84    2.71   0
  -1   5 -13   49.07    2.71   0
   0   2  -7 1111.76    8.98   0
   0   2   9  417.62    5.35   0
   0   6  13   23.17    3.27   0
   0   8 -12   43.65    2.90   0
   1   4   7  126.05    4.48   0
   1   8  -9  258.13    5.02   0
   1   8  11    4.12    3.42   0
   2   7  -1  295.44    7.68   0
   2   7   3   18.17    6.71   0
   2   8  -3    1.65    3.92   0
   2  11   7    7.71    4.46   0
  -6  -6   1   16.71    4.82   0
  -4  -3 -10   65.50    3.81   0
  -4  -1 -13   14.55    2.53   0
  -3  -3   8   84.21    3.15   0
  -3  -2 -10   12.76    3.10   0
  -3  -2  10    1.64    3.01   0
  -3   0 -13    0.35    3.05   0
  -3   0  13    3.60    3.33   0
  -3   1 -14   32.06    3.52   0
  -2  -3   4  503.93    7.41   0
  -2   0 -11   60.82    3.46   0
  -2   3 -14    2.81    2.25   0
  -1   2 -11   11.31    3.10   0
  -1   3 -12    6.45    2.98   0
   0   1  -5   63.89    3.32   0
   0   3  10   73.70    3.50   0
   0   4 -10   71.10    3.62   0
   0   5  12   42.80    3.46   0
   0   7 -12  191.37    3.86   0
   1   4  -5   30.45    2.71   0
   2   8   5   25.83    5.16   0
   2   9  -4  359.27    6.33   0
   2   9   6   13.26    4.37   0
   2  11  -5  102.97    4.50   0
  -6  -6  -2   28.81    6.50   0
  -6  -6   0  118.53    6.60   0
  -5  -4   8   23.23    3.61   0
  -4  -5  -4  220.13   10.98   0
  -4  -5   3  573.41    8.17   0
  -4  -4  -8  148.97    5.88   0
  -4  -4   7   33.72    3.50   0
  -4  -2 -12   77.82    3.95   0
  -4  -2  11   28.99    3.91   0
  -3  -4   4    4.41    3.14   0
  -3  -3  -8  320.82    6.23   0
  -3  -1 -12   19.10    3.31   0
  -2   0  11   93.03    3.88   0
  -1  -1   6  926.79    8.48   0
  -1   0  -8  497.05    5.97   0
  -1   1  10  205.58    4.64   0
  -1   4 -13   27.72    2.46   0
   0   1   6   38.31    3.72   0
   0   3  -9   17.82    2.53   0
   0   4  11  119.27    3.40   0
   0   5 -11    2.81    2.14   0
   1   3  -3 1706.91   14.41   0
   1   3   4  239.92    6.85   0
   1   5  -7  103.15    3.65   0
   1   5   8   21.06    3.43   0
   1   6  -8  174.38    3.74   0
   1   7  -9   66.76    3.66   0
   1   7  10   48.22    3.56   0
   1   9 -10   -1.89    3.40   0
   1   9  11   43.46    2.99   0
   2   7  -2  584.91    9.25   0
   2  10  -5   33.26    3.44   0
  -6  -6  -1   57.49    6.36   0
  -5  -5  -7  236.88    7.46   0
  -5  -5   5    4.95    2.28   0
  -4  -5   2   36.84    4.26   0
  -4  -3   9   34.76    2.56   0
  -3  -4  -5    0.76    3.47   0
  -3  -3   7    5.30    2.92   0
  -3  -1  11   53.57    3.36   0
  -2  -3  -4  559.94   10.61   0
  -2  -2   7  185.27    3.88   0
  -2  -1   9   10.97    3.15   0
  -2   1  12  101.55    3.94   0
  -2   2  13   23.32    3.40   0
  -1  -1  -6   69.89    4.23   0
  -1   0   8  255.67    5.01   0
  -1   1 -10   36.87    2.36   0
  -1   2  11   17.16    3.13   0
  -1   4  13   -1.92    3.17   0
  -1   5 -14   71.71    3.00   0
   0   2  -8  749.43    7.50   0
   0   2   8   14.89    2.17   0
   0   6 -12   18.39    2.42   0
   1   4  -6  172.27    4.46   0
   1   6   9   31.83    2.58   0
   1   8 -10   23.27    3.44   0
   2   8  -4  413.75    6.79   0
   2   9  -5   42.97    3.63   0
   2  11  -6    4.55    3.40   0
  -5  -4 -10  215.94    5.81   0
  -4  -4   6    4.01    3.11   0
  -3  -2   9  214.38    4.52   0
  -3   0  12   51.53    2.74   0
  -3   1  13    9.81    3.54   0
  -2  -3   3  254.25    5.66   0
  -2  -2  -8    2.17    3.01   0
  -2  -1 -10  222.98    4.18   0
  -2   1 -13   63.25    2.82   0
  -2   2 -14   53.29    2.68   0
  -1   3 -13   36.71    3.40   0
  -1   3  12   28.95    2.50   0
   0   1  -6 1470.92   10.98   0
   0   4 -11  295.95    4.88   0
   0   6  12    0.81    2.19   0
   0   7 -13    2.22    2.33   0
   1   4   6  196.43    5.46   0
   1   6  -9   21.32    3.25   0
   1   8  10   20.96    3.33   0
   2   7  -3  394.84    7.00   0
   2  10  -6   45.43    3.67   0
   2  10   6  131.96    6.61   0
  -5  -5   4   16.86    3.37   0
  -5  -4   7   84.89    4.16   0
  -4  -5   1    4.70    4.11   0
  -4  -3 -11  119.64    4.46   0
  -4  -2  10   12.64    3.43   0
  -3  -4   3  317.86    5.92   0
  -3  -3  -9    8.85    3.16   0
  -3  -2 -11  197.57    4.23   0
  -3   0 -14   64.08    3.05   0
  -2   0 -12  211.47    4.07   0
  -2   0  10  764.91    7.22   0
  -1  -1   5   18.42    2.57   0
  -1   0  -9   38.32    3.05   0
  -1   2 -12   28.32    2.41   0
  -1   4 -14   10.76    2.36   0
  -1   5  13   -0.06    3.54   0
   0   3 -10   22.33    2.41   0
   0   3   9   42.67    2.48   0
   0   4  10   12.26    3.09   0
   0   5 -12   50.07    2.61   0
   0   5  11   11.22    2.46   0
   0   6 -13   28.01    3.27   0
   0   7  12   34.23    3.59   0
   1   3  -4 1072.44   10.38   0
   1   5  -8  100.81    3.01   0
   1   7 -10   96.07    3.94   0
   1   9 -11    2.44    3.23   0
   2   8  -5    9.45    2.94   0
   2   9  -6   21.64    3.25   0
   2  11   6   99.69    6.68   0
  -4  -4  -9   96.22    5.52   0
  -4  -3   8    8.23    2.41   0
  -4  -2 -13   20.30    2.62   0
  -4  -1  11    6.38    3.27   0
  -3  -3   6   13.32    3.05   0
  -3  -1 -13    8.59    3.40   0
  -3  -1  10   10.49    2.97   0
  -2  -3   2   32.27    3.85   0
  -2  -2   6  130.35    3.64   0
  -2  -1   8  127.18    4.06   0
  -2   1  11    7.81    3.18   0
  -2   2  12  105.92    4.02   0
  -2   3  13    2.77    2.11   0
  -1  -1  -7  154.51    4.75   0
  -1   1 -11    1.56    2.11   0
  -1   1   9  504.88    5.85   0
  -1   4  12   12.33    3.21   0
   0   1   5  176.12    4.77   0
   0   2  -9  350.67    5.35   0
   0   2   7   89.71    3.97   0
   1   3   3  147.08    7.16   0
   1   4  -7  173.02    4.25   0
   1   5   7   15.47    3.15   0
   1   7   9    2.44    3.09   0
   1   8 -11   31.47    3.64   0
   1   9  10    1.70    2.35   0
   2   7  -4  446.48    7.21   0
   2  10  -7   20.38    3.70   0
   2  11  -7   12.35    3.37   0
  -5  -5   3  143.31    4.98   0
  -4  -5   0  680.47   11.80   0
  -4  -4   5  202.90    5.10   0
  -3  -4  -6   90.72    5.09   0
  -3  -4   2  900.54   10.85   0
  -3  -2   8   -0.72    2.82   0
  -3   0  11    6.80    3.03   0
  -3   1  12    1.31    3.31   0
  -2  -3  -5   41.23    4.03   0
  -2  -2  -9  100.52    4.01   0
  -2  -1 -11   24.43    2.42   0
  -2   1 -14   75.12    3.87   0
  -2   2 -15   -0.37    2.36   0
  -1   0   7  464.20    5.96   0
  -1   2  10   36.70    2.65   0
  -1   3 -14    9.68    3.32   0
  -1   3  11  358.74    5.35   0
  -1   6  13  188.26    4.83   0
   0   1  -7  245.02    4.69   0
   0   4 -12    7.31    3.09   0
   0   5 -13   31.98    3.38   0
   0   6  11   62.18    3.86   0
   0   8  12   14.97    3.49   0
   1   3  -5   65.51    4.10   0
   1   5  -9  264.77    4.95   0
   1   6 -10   80.63    3.71   0
   1   6   8    1.88    2.18   0
   2   8  -6   10.99    3.16   0
   2   8   4  123.33    7.16   0
   2   9  -7   41.43    3.84   0
   2   9   5    1.64    4.28   0
  -5  -5  -8   -1.15    4.21   0
  -5  -4   6    3.95    3.22   0
  -5  -3   8  111.14    4.50   0
  -4  -5  -5  103.79    7.66   0
  -4  -3 -12    1.02    3.38   0
  -4  -2   9    7.39    3.39   0
  -3  -2 -12  339.67    5.80   0
  -2   0 -13  180.80    4.56   0
  -2   4  13   58.59    3.90   0
  -1  -1   4  914.28   10.18   0
  -1   0 -10   18.92    3.00   0
  -1   2 -13   18.50    2.25   0
   0   0  -3 3772.67   24.27   0
   0   3 -11   28.29    2.36   0
   0   3   8  978.25    8.62   0
   0   5  10   80.28    3.73   0
   1   4   5  839.21   10.59   0
   1   7 -11   56.67    2.81   0
   1   8   9   74.59    4.06   0
   2   7  -5   17.37    3.49   0
   2  10  -8   60.09    3.83   0
  -6  -5   3    6.59    3.62   0
  -4  -3   7  114.37    3.53   0
  -4  -1  10    2.89    3.34   0
  -3  -3 -10  104.60    4.19   0
  -3  -3   5   77.06    3.91   0
  -3  -1 -14  145.70    4.62   0
  -3  -1   9    1.50    3.24   0
  -2  -2   5  324.80    5.99   0
  -2   0   9  316.24    4.83   0
  -2   3  12   24.58    3.57   0
  -1  -1  -8  591.97    7.06   0
  -1   1 -12   88.21    3.15   0
  -1   1   8   68.68    3.70   0
  -1   5  12    6.48    3.35   0
   0   1  -8  194.37    4.63   0
   0   2 -10  161.15    4.39   0
   0   4   9  179.57    4.39   0
   0   7  11    4.43    3.18   0
   1   3  -6  256.95    5.31   0
   1   4  -8  123.62    3.39   0
   1   8 -12   16.70    2.51   0
   2   6  -2  654.01    9.90   0
   2   6  -1   62.32    5.02   0
   2   8  -7   46.63    3.75   0
  -5  -5   2   -2.03    3.48   0
  -5  -2   9   44.67    3.01   0
  -4  -5  -1   85.71    6.09   0
  -4  -4 -10  302.42    6.27   0
  -4  -4   4   29.23    3.60   0
  -4   0  11    4.34    2.44   0
  -3  -4   1   12.39    4.36   0
  -3  -2   7   -0.21    2.84   0
  -3   0  10   14.63    3.18   0
  -3   2  12    4.66    3.28   0
  -2  -3  -6  170.09    5.49   0
  -2  -3   1  445.75    9.45   0
  -2  -2 -10   36.54    3.38   0
  -2  -1 -12   -1.23    3.22   0
  -2  -1   7   19.51    2.24   0
  -2   1 -15    0.75    3.42   0
  -2   1  10   25.32    2.49   0
  -2   2  11   11.57    2.27   0
  -1   0   6  338.56    5.86   0
  -1   2   9  660.60    6.94   0
  -1   3 -15   35.12    3.67   0
  -1   4  11   11.76    3.19   0
   0   0  -4   49.57    4.05   0
   0   1   4 1599.38   14.26   0
   0   2   6  748.64    8.63   0
   0   3 -12  132.10    4.08   0
   0   4 -13   16.83    3.16   0
   0   5 -14   60.68    3.82   0
   1   5 -10   48.70    2.56   0
   1   6 -11  125.74    3.55   0
   1   7 -12   86.47    4.19   0
   1   7   8   50.56    3.72   0
   1   9   9   56.32    3.90   0
   2   6  -3   20.59    3.45   0
   2   6   0    3.71    4.43   0
   2   7  -6  135.23    4.46   0
   2   9  -8    6.10    2.34   0
   2  10   5   35.08    5.19   0
  -5  -4   5   39.60    2.90   0
  -5  -3   7   19.48    3.62   0
  -4  -2   8   20.65    3.50   0
  -3  -4  -7   65.88    4.32   0
  -3  -2 -13    3.45    3.46   0
  -3   1  11   58.89    2.88   0
  -2   0 -14  110.27    4.22   0
  -1   0 -11   19.16    2.53   0
  -1   1 -13  143.37    4.22   0
  -1   2 -14  191.58    3.99   0
  -1   3  10   29.78    2.64   0
  -1   6  12  235.48    5.25   0
   0   0  -5  483.09    7.62   0
   0   6  10   37.04    3.48   0
   0   8  11   52.37    4.09   0
   1   3  -7    2.19    2.88   0
   1   4  -9   31.61    2.44   0
   1   5   6   12.49    3.46   0
   1   6   7   72.23    4.13   0
   1  10   9    3.89    3.50   0
   2   6  -4    4.93    3.14   0
   2   8  -8  113.50    4.29   0
   2  10  -9   54.14    3.23   0
  -6  -5   2    1.52    3.54   0
  -5  -5  -9  221.88    7.34   0
  -4  -5  -6    9.61    5.25   0
  -4  -3 -13   30.47    3.63   0
  -4  -3   6    1.37    2.24   0
  -3  -3 -11    3.41    3.20   0
  -2  -3  -7   44.26    3.67   0
  -2   0   8  148.73    4.44   0
  -2   4  12  224.19    4.12   0
  -1  -2  -3  207.71    8.42   0
  -1  -1  -9  243.60    4.36   0
  -1   7  12   52.85    4.06   0
   0   1  -9    0.36    2.19   0
   0   2 -11   -0.20    2.17   0
   1   5 -11    2.79    3.04   0
   1   6 -12   19.04    3.30   0
   2   6  -5   75.84    4.09   0
   2   7  -7  111.61    3.40   0
   2   9  -9  119.67    3.90   0
   2  11   5  345.38    9.42   0
   2  12   5    6.93    4.74   0
  -5  -5   1    1.78    3.41   0
  -5  -2   8    1.11    3.81   0
  -4  -4 -11   86.32    4.40   0
  -4  -4   3    0.27    3.38   0
  -4  -1   9    3.78    2.23   0
  -4   0  10   46.99    3.65   0
  -4   1  11    2.56    3.67   0
  -3  -3   4  134.79    4.64   0
  -3  -1   8   71.88    3.07   0
  -3   3  12    4.97    2.59   0
  -2  -2 -11  119.37    4.22   0
  -2  -2   4 1008.04   10.33   0
  -2  -1 -13   14.21    2.52   0
  -2   1   9   31.75    3.48   0
  -2   2  10    7.57    3.26   0
  -2   3  11   11.63    2.23   0
  -1  -2  -4    2.26    3.82   0
  -1  -1   3 8675.18   33.22   0
  -1   0 -12  158.87    4.15   0
  -1   1   7  149.22    4.55   0
  -1   2 -15    1.54    3.45   0
  -1   5  11   71.03    3.00   0
   0   0  -6  991.20    9.15   0
   0   3 -13    0.55    2.30   0
   0   3   7  246.45    4.70   0
   0   4 -14    1.25    2.30   0
   0   4   8  214.76    5.09   0
   0   5   9  243.64    4.46   0
   0   7  10  162.28    4.64   0
   1   3  -8  524.82    6.28   0
   1   4 -10  374.91    5.64   0
   1   7 -13    3.62    2.51   0
   1   8   8  151.55    4.86   0
   2   6  -6  530.70    7.25   0
   2   7  -8    3.92    3.14   0
   2   8  -9    6.07    3.33   0
  -6  -4   4   38.81    4.00   0
  -5  -4   4    4.15    3.39   0
  -5  -3   6  181.66    5.11   0
  -3  -4  -8  133.31    5.04   0
  -3  -2 -14  183.33    5.03   0
  -3  -2   6    6.50    2.99   0
  -3   0   9    3.08    2.48   0
  -3   1  10  106.60    4.21   0
  -3   2  11   16.40    2.57   0
  -2  -3  -8  171.17    5.07   0
  -2  -1   6  325.75    5.22   0
  -2   0 -15   40.59    2.97   0
  -2   5  12    5.07    2.52   0
  -1  -2  -5  162.68    5.68   0
  -1  -1 -10    3.78    2.97   0
  -1   1 -14   12.69    3.46   0
  -1   4  10  546.23    6.40   0
   0   1 -10  829.29    7.80   0
   0   2 -12  166.07    4.44   0
   1   2  -4 1135.18   11.49   0
   1   2  -3 9999.99   35.43   0
   1   5 -12   13.97    3.44   0
   1   6 -13    3.07    3.60   0
   2   9 -10   27.10    2.82   0
  -4  -2   7   38.64    2.88   0
  -1   0   5  700.91    8.05   0
  -1   2   8  377.75    5.31   0
  -1   3   9  292.74    4.60   0
  -1   6  11   -0.20    2.70   0
   0   0  -7  161.41    4.14   0
;
_shelx_hkl_checksum              32433
_shelx_res_file
;
    vs3_17.res created by SHELXL-2014/7
TITL vs3_17 in P-1
CELL 0.71073   5.2819  10.3542  13.0071  89.377  85.143  77.700
ZERR    2.00   0.0007   0.0012   0.0015   0.010   0.010   0.010
LATT  1
SFAC C H N O S
UNIT 22 32 4 12 2
SIZE 0.30 0.21 0.16
REM colorless block
ACTA 50
L.S. 10
BOND $H
CONF
FMAP 2
PLAN 10
DFIX 0.88 0.02 N1A H1A
DFIX 0.88 0.02 N3A H3A
DFIX 0.84 0.02 O52A H52A
HTAB
HTAB C6A O51A_$3
HTAB N1A O1Z
HTAB N3A O1X
HTAB O52A O41A
EQIV $1 -x+1, -y, -z
EQIV $2 -x+2, -y+1, -z+1
EQIV $3 -x, -y+1, -z
MPLA C2Z C6Z C2Z_$1 C6Z_$1
MPLA N1A C2A S21A N3A C4A O41A C5A C51A O51A O52A C6A
MPLA C2X C6X C2X_$2 C6X_$2
TEMP -100
WGHT    0.065200    0.047500
FVAR       1.12778
N1A   3    0.575756    0.338435    0.120700    11.00000    0.02382    0.02158 =
         0.02480   -0.00338   -0.00475   -0.00502
H1A   2    0.596621    0.265926    0.085991    11.00000   -1.20000
C2A   1    0.745506    0.345828    0.193515    11.00000    0.02148    0.02323 =
         0.02410    0.00193   -0.00222   -0.00655
S21A  5    0.998578    0.225377    0.212486    11.00000    0.02646    0.02590 =
         0.03883   -0.00132   -0.00924   -0.00069
N3A   3    0.687558    0.460870    0.250097    11.00000    0.02314    0.02483 =
         0.02524   -0.00298   -0.00793   -0.00467
H3A   2    0.799284    0.470188    0.296434    11.00000   -1.20000
C4A   1    0.482084    0.566082    0.239696    11.00000    0.02343    0.02300 =
         0.02443   -0.00017   -0.00303   -0.00659
O41A  4    0.454016    0.665214    0.295406    11.00000    0.03160    0.02646 =
         0.03432   -0.00799   -0.00889   -0.00352
C5A   1    0.310393    0.549619    0.161679    11.00000    0.02222    0.02346 =
         0.02294    0.00160   -0.00384   -0.00588
C51A  1    0.073745    0.651515    0.146149    11.00000    0.02604    0.02400 =
         0.02909    0.00175   -0.00293   -0.00447
O51A  4   -0.075138    0.641002    0.082190    11.00000    0.03151    0.03502 =
         0.04012   -0.00245   -0.01694    0.00146
O52A  4    0.028720    0.757597    0.207646    11.00000    0.02996    0.02740 =
         0.03841   -0.00330   -0.01017    0.00149
H52A  2    0.150158    0.744229    0.244607    11.00000   -1.20000
C6A   1    0.365953    0.434945    0.106117    11.00000    0.02189    0.02498 =
         0.02302    0.00164   -0.00446   -0.00735
AFIX  43
H6A   2    0.253636    0.422440    0.055521    11.00000   -1.20000
AFIX   0
O1X   4    1.027145    0.508144    0.391226    11.00000    0.03723    0.03159 =
         0.02407   -0.00220   -0.01104   -0.00537
C2X   1    0.944194    0.625679    0.454470    11.00000    0.03953    0.02702 =
         0.03084   -0.00265   -0.01319   -0.00482
AFIX  23
H2X1  2    0.824989    0.693609    0.417319    11.00000   -1.20000
H2X2  2    1.097155    0.661811    0.468326    11.00000   -1.20000
AFIX   0
C6X   1    1.192214    0.405864    0.445146    11.00000    0.02934    0.03391 =
         0.03131   -0.00520   -0.01128   -0.00224
AFIX  23
H6X1  2    1.352988    0.435011    0.458868    11.00000   -1.20000
H6X2  2    1.242150    0.325281    0.401438    11.00000   -1.20000
AFIX   0
O1Y   4    0.382000    0.891023    0.489329    11.00000    0.06031    0.03852 =
         0.06353   -0.00122   -0.00798   -0.02055
C2Y   1    0.320643    0.976878    0.576904    11.00000    0.06616    0.04744 =
         0.05682    0.00014    0.00820   -0.01798
AFIX  23
H2Y1  2    0.273378    0.926556    0.638097    11.00000   -1.20000
H2Y2  2    0.168681    1.048149    0.564802    11.00000   -1.20000
AFIX   0
C6Y   1    0.455042    0.963595    0.402528    11.00000    0.07437    0.04479 =
         0.04949    0.00145   -0.01724   -0.01517
AFIX  23
H6Y1  2    0.305676    1.034475    0.386824    11.00000   -1.20000
H6Y2  2    0.503165    0.904113    0.341683    11.00000   -1.20000
AFIX   0
O1Z   4    0.629477    0.104603    0.011980    11.00000    0.02832    0.02008 =
         0.03798   -0.00145   -0.01094   -0.00589
C2Z   1    0.701182   -0.019267    0.065535    11.00000    0.02867    0.02204 =
         0.03774    0.00040   -0.01228   -0.00413
AFIX  23
H2Z1  2    0.766762   -0.003245    0.132295    11.00000   -1.20000
H2Z2  2    0.842262   -0.079513    0.023785    11.00000   -1.20000
AFIX   0
C6Z   1    0.529481    0.082826   -0.084313    11.00000    0.02728    0.02326 =
         0.03053   -0.00156   -0.00445   -0.00301
AFIX  23
H6Z1  2    0.666828    0.024919   -0.129409    11.00000   -1.20000
H6Z2  2    0.477076    0.168214   -0.119820    11.00000   -1.20000
AFIX   0
HKLF 4
REM  vs3_17 in P-1
REM R1 =  0.0362 for    2272 Fo > 4sig(Fo)  and  0.0431 for all    2645 data
REM    190 parameters refined using      3 restraints
END
WGHT      0.0652      0.0475
REM Instructions for potential hydrogen bonds
HTAB N1A O1Z
HTAB N3A O1X
HTAB O52A O41A
HTAB C6A O51A_$3
EQIV $4 -x+1, -y+1, -z+1
HTAB C2Y S21A_$4
HTAB C6Y O41A
EQIV $5 -x+2, -y, -z
HTAB C6Z S21A_$5
HTAB C6Z O51A_$3
REM Highest difference peak  0.300,  deepest hole -0.221,  1-sigma level  0.050
Q1    1   0.3834  0.5628  0.1931  11.00000  0.05    0.30
Q2    1   0.2177  0.5987  0.1544  11.00000  0.05    0.25
Q3    1   0.4775  0.9500  0.6248  11.00000  0.05    0.23
Q4    1   0.3312  0.5067  0.1357  11.00000  0.05    0.23
Q5    1   0.9565  0.3026  0.1680  11.00000  0.05    0.21
Q6    1   0.8117  0.2807  0.2262  11.00000  0.05    0.19
Q7    1   0.6596  0.0392  0.0375  11.00000  0.05    0.19
Q8    1   0.2504  1.0853  0.4809  11.00000  0.05    0.18
Q9    1   0.8976  0.5961  0.5034  11.00000  0.05    0.18
Q10   1   0.4629  0.6123  0.3487  11.00000  0.05    0.17
;
_shelx_res_checksum              25264
loop_
_space_group_symop_operation_xyz
'x, y, z'
'-x, -y, -z'
loop_
_atom_site_type_symbol
_atom_site_label
_atom_site_fract_x
_atom_site_fract_y
_atom_site_fract_z
_atom_site_U_iso_or_equiv
_atom_site_adp_type
_atom_site_calc_flag
_atom_site_occupancy
N N1A 0.5758(3) 0.33844(13) 0.12070(9) 0.0232(3) Uani d 1
H H1A 0.597(4) 0.2659(16) 0.0860(13) 0.028 Uiso d 1
C C2A 0.7455(3) 0.34583(15) 0.19351(11) 0.0227(3) Uani d 1
S S21A 0.99858(8) 0.22538(4) 0.21249(3) 0.03074(15) Uani d 1
N N3A 0.6876(3) 0.46087(13) 0.25010(9) 0.0241(3) Uani d 1
H H3A 0.799(4) 0.4702(19) 0.2964(13) 0.029 Uiso d 1
C C4A 0.4821(3) 0.56608(15) 0.23970(11) 0.0233(3) Uani d 1
O O41A 0.4540(2) 0.66521(11) 0.29541(8) 0.0308(3) Uani d 1
C C5A 0.3104(3) 0.54962(15) 0.16168(11) 0.0226(3) Uani d 1
C C51A 0.0737(3) 0.65151(15) 0.14615(12) 0.0265(3) Uani d 1
O O51A -0.0751(2) 0.64100(12) 0.08219(9) 0.0360(3) Uani d 1
O O52A 0.0287(2) 0.75760(12) 0.20765(9) 0.0326(3) Uani d 1
H H52A 0.150(4) 0.744(2) 0.2446(15) 0.039 Uiso d 1
C C6A 0.3660(3) 0.43494(15) 0.10612(11) 0.0228(3) Uani d 1
H H6A 0.2536 0.4224 0.0555 0.027 Uiso calc 1
O O1X 1.0271(2) 0.50814(11) 0.39123(8) 0.0307(3) Uani d 1
C C2X 0.9442(4) 0.62568(16) 0.45447(12) 0.0322(4) Uani d 1
H H2X1 0.8250 0.6936 0.4173 0.039 Uiso calc 1
H H2X2 1.0972 0.6618 0.4683 0.039 Uiso calc 1
C C6X 1.1922(3) 0.40586(17) 0.44515(12) 0.0316(4) Uani d 1
H H6X1 1.3530 0.4350 0.4589 0.038 Uiso calc 1
H H6X2 1.2422 0.3253 0.4014 0.038 Uiso calc 1
O O1Y 0.3820(3) 0.89102(14) 0.48933(12) 0.0525(4) Uani d 1
C C2Y 0.3206(5) 0.9769(2) 0.57690(18) 0.0567(6) Uani d 1
H H2Y1 0.2734 0.9266 0.6381 0.068 Uiso calc 1
H H2Y2 0.1687 1.0481 0.5648 0.068 Uiso calc 1
C C6Y 0.4550(5) 0.9636(2) 0.40253(17) 0.0551(6) Uani d 1
H H6Y1 0.3057 1.0345 0.3868 0.066 Uiso calc 1
H H6Y2 0.5032 0.9041 0.3417 0.066 Uiso calc 1
O O1Z 0.6295(2) 0.10460(10) 0.01198(8) 0.0282(3) Uani d 1
C C2Z 0.7012(3) -0.01927(15) 0.06553(13) 0.0291(3) Uani d 1
H H2Z1 0.7668 -0.0032 0.1323 0.035 Uiso calc 1
H H2Z2 0.8423 -0.0795 0.0238 0.035 Uiso calc 1
C C6Z 0.5295(3) 0.08283(15) -0.08431(12) 0.0272(3) Uani d 1
H H6Z1 0.6668 0.0249 -0.1294 0.033 Uiso calc 1
H H6Z2 0.4771 0.1682 -0.1198 0.033 Uiso calc 1
loop_
_atom_site_aniso_label
_atom_site_aniso_U_11
_atom_site_aniso_U_22
_atom_site_aniso_U_33
_atom_site_aniso_U_12
_atom_site_aniso_U_13
_atom_site_aniso_U_23
N1A 0.0238(7) 0.0216(6) 0.0248(6) -0.0050(5) -0.0047(5) -0.0034(5)
C2A 0.0215(7) 0.0232(7) 0.0241(7) -0.0066(6) -0.0022(6) 0.0019(5)
S21A 0.0265(2) 0.0259(2) 0.0388(2) -0.00069(16) -0.00924(17) -0.00132(16)
N3A 0.0231(7) 0.0248(7) 0.0252(6) -0.0047(5) -0.0079(5) -0.0030(5)
C4A 0.0234(8) 0.0230(7) 0.0244(7) -0.0066(6) -0.0030(6) -0.0002(6)
O41A 0.0316(6) 0.0265(6) 0.0343(6) -0.0035(5) -0.0089(5) -0.0080(5)
C5A 0.0222(8) 0.0235(7) 0.0229(7) -0.0059(6) -0.0038(6) 0.0016(5)
C51A 0.0260(8) 0.0240(8) 0.0291(7) -0.0045(6) -0.0029(6) 0.0017(6)
O51A 0.0315(7) 0.0350(7) 0.0401(6) 0.0015(5) -0.0169(5) -0.0025(5)
O52A 0.0300(7) 0.0274(6) 0.0384(6) 0.0015(5) -0.0102(5) -0.0033(5)
C6A 0.0219(8) 0.0250(7) 0.0230(7) -0.0074(6) -0.0045(6) 0.0016(5)
O1X 0.0372(7) 0.0316(6) 0.0241(5) -0.0054(5) -0.0110(5) -0.0022(4)
C2X 0.0395(10) 0.0270(8) 0.0308(8) -0.0048(7) -0.0132(7) -0.0026(6)
C6X 0.0293(9) 0.0339(9) 0.0313(8) -0.0022(7) -0.0113(7) -0.0052(6)
O1Y 0.0603(10) 0.0385(8) 0.0635(9) -0.0206(7) -0.0080(8) -0.0012(7)
C2Y 0.0662(15) 0.0474(12) 0.0568(12) -0.0180(11) 0.0082(11) 0.0001(10)
C6Y 0.0744(16) 0.0448(12) 0.0495(11) -0.0152(11) -0.0172(11) 0.0015(9)
O1Z 0.0283(6) 0.0201(5) 0.0380(6) -0.0059(4) -0.0109(5) -0.0014(4)
C2Z 0.0287(8) 0.0220(7) 0.0377(8) -0.0041(6) -0.0123(7) 0.0004(6)
C6Z 0.0273(8) 0.0233(8) 0.0305(7) -0.0030(6) -0.0044(6) -0.0016(6)
loop_
_atom_type_symbol
_atom_type_description
_atom_type_scat_dispersion_real
_atom_type_scat_dispersion_imag
_atom_type_scat_source
C C 0.0033 0.0016 'International Tables Vol C Tables 4.2.6.8 and 6.1.1.4'
H H 0.0000 0.0000 'International Tables Vol C Tables 4.2.6.8 and 6.1.1.4'
N N 0.0061 0.0033 'International Tables Vol C Tables 4.2.6.8 and 6.1.1.4'
O O 0.0106 0.0060 'International Tables Vol C Tables 4.2.6.8 and 6.1.1.4'
S S 0.1246 0.1234 'International Tables Vol C Tables 4.2.6.8 and 6.1.1.4'
loop_
_geom_angle_atom_site_label_1
_geom_angle_atom_site_label_2
_geom_angle_atom_site_label_3
_geom_angle_site_symmetry_1
_geom_angle_site_symmetry_3
_geom_angle
C6A N1A C2A . . 123.32(13)
C6A N1A H1A . . 118.1(13)
C2A N1A H1A . . 118.3(13)
N3A C2A N1A . . 114.52(13)
N3A C2A S21A . . 122.58(11)
N1A C2A S21A . . 122.90(12)
C2A N3A C4A . . 126.59(13)
C2A N3A H3A . . 116.6(13)
C4A N3A H3A . . 116.8(12)
O41A C4A N3A . . 119.91(13)
O41A C4A C5A . . 124.74(14)
N3A C4A C5A . . 115.34(13)
C6A C5A C4A . . 118.19(14)
C6A C5A C51A . . 120.59(13)
C4A C5A C51A . . 121.15(13)
O51A C51A O52A . . 120.62(15)
O51A C51A C5A . . 123.09(14)
O52A C51A C5A . . 116.30(13)
C51A O52A H52A . . 104.6(15)
N1A C6A C5A . . 122.02(13)
N1A C6A H6A . . 119.0
C5A C6A H6A . . 119.0
C6X O1X C2X . . 110.73(11)
O1X C2X C6X . 2_766 110.26(14)
O1X C2X H2X1 . . 109.6
C6X C2X H2X1 2_766 . 109.6
O1X C2X H2X2 . . 109.6
C6X C2X H2X2 2_766 . 109.6
H2X1 C2X H2X2 . . 108.1
O1X C6X C2X . 2_766 110.90(14)
O1X C6X H6X1 . . 109.5
C2X C6X H6X1 2_766 . 109.5
O1X C6X H6X2 . . 109.5
C2X C6X H6X2 2_766 . 109.5
H6X1 C6X H6X2 . . 108.0
C6Y O1Y C2Y . . 108.89(16)
O1Y C2Y C6Y . 2_676 111.2(2)
O1Y C2Y H2Y1 . . 109.4
C6Y C2Y H2Y1 2_676 . 109.4
O1Y C2Y H2Y2 . . 109.4
C6Y C2Y H2Y2 2_676 . 109.4
H2Y1 C2Y H2Y2 . . 108.0
O1Y C6Y C2Y . 2_676 110.69(18)
O1Y C6Y H6Y1 . . 109.5
C2Y C6Y H6Y1 2_676 . 109.5
O1Y C6Y H6Y2 . . 109.5
C2Y C6Y H6Y2 2_676 . 109.5
H6Y1 C6Y H6Y2 . . 108.1
C6Z O1Z C2Z . . 110.04(11)
O1Z C2Z C6Z . 2_655 110.44(13)
O1Z C2Z H2Z1 . . 109.6
C6Z C2Z H2Z1 2_655 . 109.6
O1Z C2Z H2Z2 . . 109.6
C6Z C2Z H2Z2 2_655 . 109.6
H2Z1 C2Z H2Z2 . . 108.1
O1Z C6Z C2Z . 2_655 110.14(13)
O1Z C6Z H6Z1 . . 109.6
C2Z C6Z H6Z1 2_655 . 109.6
O1Z C6Z H6Z2 . . 109.6
C2Z C6Z H6Z2 2_655 . 109.6
H6Z1 C6Z H6Z2 . . 108.1
loop_
_geom_bond_atom_site_label_1
_geom_bond_atom_site_label_2
_geom_bond_site_symmetry_2
_geom_bond_distance
N1A C6A . 1.350(2)
N1A C2A . 1.3716(19)
N1A H1A . 0.862(15)
C2A N3A . 1.371(2)
C2A S21A . 1.6559(15)
N3A C4A . 1.379(2)
N3A H3A . 0.898(14)
C4A O41A . 1.2385(19)
C4A C5A . 1.451(2)
C5A C6A . 1.361(2)
C5A C51A . 1.481(2)
C51A O51A . 1.2131(19)
C51A O52A . 1.334(2)
O52A H52A . 0.821(16)
C6A H6A . 0.9500
O1X C6X . 1.4379(19)
O1X C2X . 1.443(2)
C2X C6X 2_766 1.504(3)
C2X H2X1 . 0.9900
C2X H2X2 . 0.9900
C6X C2X 2_766 1.504(3)
C6X H6X1 . 0.9900
C6X H6X2 . 0.9900
O1Y C6Y . 1.421(3)
O1Y C2Y . 1.425(3)
C2Y C6Y 2_676 1.491(4)
C2Y H2Y1 . 0.9900
C2Y H2Y2 . 0.9900
C6Y C2Y 2_676 1.491(4)
C6Y H6Y1 . 0.9900
C6Y H6Y2 . 0.9900
O1Z C6Z . 1.4379(18)
O1Z C2Z . 1.4464(18)
C2Z C6Z 2_655 1.505(2)
C2Z H2Z1 . 0.9900
C2Z H2Z2 . 0.9900
C6Z C2Z 2_655 1.505(2)
C6Z H6Z1 . 0.9900
C6Z H6Z2 . 0.9900
loop_
_geom_hbond_atom_site_label_D
_geom_hbond_atom_site_label_H
_geom_hbond_atom_site_label_A
_geom_hbond_site_symmetry_A
_geom_hbond_distance_DH
_geom_hbond_distance_HA
_geom_hbond_distance_DA
_geom_hbond_angle_DHA
C6A H6A O51A 2_565 0.95 2.26 3.1892(18) 165.9
N1A H1A O1Z . 0.862(15) 1.905(15) 2.7670(17) 177.6(19)
N3A H3A O1X . 0.898(14) 1.894(15) 2.7889(17) 174.3(18)
O52A H52A O41A . 0.821(16) 1.814(17) 2.5998(16) 160(2)
loop_
_geom_torsion_atom_site_label_1
_geom_torsion_atom_site_label_2
_geom_torsion_atom_site_label_3
_geom_torsion_atom_site_label_4
_geom_torsion_site_symmetry_4
_geom_torsion
C6A N1A C2A N3A . -0.9(2)
C6A N1A C2A S21A . 178.59(11)
N1A C2A N3A C4A . -0.6(2)
S21A C2A N3A C4A . 179.93(12)
C2A N3A C4A O41A . -179.16(14)
C2A N3A C4A C5A . 1.2(2)
O41A C4A C5A C6A . 179.95(14)
N3A C4A C5A C6A . -0.4(2)
O41A C4A C5A C51A . -3.1(2)
N3A C4A C5A C51A . 176.56(13)
C6A C5A C51A O51A . -2.7(2)
C4A C5A C51A O51A . -179.58(15)
C6A C5A C51A O52A . 176.76(14)
C4A C5A C51A O52A . -0.2(2)
C2A N1A C6A C5A . 1.7(2)
C4A C5A C6A N1A . -0.9(2)
C51A C5A C6A N1A . -177.92(13)
C6X O1X C2X C6X 2_766 -56.90(19)
C2X O1X C6X C2X 2_766 57.26(19)
C6Y O1Y C2Y C6Y 2_676 -57.8(3)
C2Y O1Y C6Y C2Y 2_676 57.5(3)
C6Z O1Z C2Z C6Z 2_655 -58.19(18)
C2Z O1Z C6Z C2Z 2_655 58.01(18)
