#------------------------------------------------------------------------------
#$Date: 2017-07-25 11:58:46 +0300 (Tue, 25 Jul 2017) $
#$Revision: 199066 $
#$URL: file:///home/coder/svn-repositories/cod/cif/2/02/07/2020765.cif $
#------------------------------------------------------------------------------
#
# This file is available in the Crystallography Open Database (COD),
# http://www.crystallography.net/. The original data for this entry
# were provided by IUCr Journals, http://journals.iucr.org/.
#
# The file may be used within the scientific community so long as
# proper attribution is given to the journal article from which the
# data were obtained.
#
data_2020765
loop_
_publ_author_name
'Mohana, Marimuthu'
'Thomas Muthiah, Packianathan'
'Butcher, Ray J.'
_publ_section_title
;
 Supramolecular interactions in carboxylate and sulfonate salts of
 2,6-diamino-4-chloropyrimidinium
;
_journal_coeditor_code           KU3199
_journal_issue                   7
_journal_name_full               'Acta Crystallographica Section C'
_journal_page_first              536
_journal_page_last               540
_journal_paper_doi               10.1107/S2053229617008798
_journal_volume                  73
_journal_year                    2017
_chemical_formula_iupac          'C4 H6 Cl N4 +, C8 H4 N O6 -'
_chemical_formula_moiety         'C4 H6 Cl N4 +, C8 H4 N O6 -'
_chemical_formula_sum            'C12 H10 Cl N5 O6'
_chemical_formula_weight         355.70
_chemical_name_systematic
;
2,6-Diamino-4-chloropyrimidinium 2-carboxy-3-nitrobenzoate
;
_space_group_crystal_system      triclinic
_space_group_IT_number           2
_space_group_name_Hall           '-P 1'
_space_group_name_H-M_alt        'P -1'
_symmetry_space_group_name_Hall  '-P 1'
_symmetry_space_group_name_H-M   'P -1'
_atom_sites_solution_hydrogens   mixed
_audit_creation_method           SHELXL-2016/6
_cell_angle_alpha                93.721(5)
_cell_angle_beta                 93.714(4)
_cell_angle_gamma                104.230(5)
_cell_formula_units_Z            2
_cell_length_a                   7.1403(4)
_cell_length_b                   8.6745(6)
_cell_length_c                   11.5730(7)
_cell_measurement_reflns_used    8897
_cell_measurement_temperature    120(2)
_cell_measurement_theta_max      41.1
_cell_measurement_theta_min      2.9
_cell_volume                     690.94(8)
_computing_cell_refinement
;
CrysAlis PRO (Agilent, 2012)
;
_computing_data_collection
;
CrysAlis PRO (Agilent, 2012)
;
_computing_data_reduction
;
CrysAlis PRO (Agilent, 2012)
;
_computing_molecular_graphics
;
PLATON (Spek, 2009), Mercury (Macrae <i>et al.</i>, 2008) and
POVRay (Cason,
2004)
;
_computing_publication_material
;
PLATON (Spek, 2009) and publCIF (Westrip, 2010)
;
_computing_structure_refinement
;
SHELXL2016 (Sheldrick, 2015b)
;
_computing_structure_solution
;
SHELXT (Sheldrick, 2015a)
;
_diffrn_ambient_temperature      120(2)
_diffrn_detector_area_resol_mean 10.6501
_diffrn_measured_fraction_theta_full 0.999
_diffrn_measured_fraction_theta_max 0.969
_diffrn_measurement_device_type  'SuperNova CCD'
_diffrn_measurement_method       '\w scans'
_diffrn_radiation_type           MoK\a
_diffrn_radiation_wavelength     0.71073
_diffrn_reflns_av_R_equivalents  0.0346
_diffrn_reflns_limit_h_max       13
_diffrn_reflns_limit_h_min       -12
_diffrn_reflns_limit_k_max       15
_diffrn_reflns_limit_k_min       -15
_diffrn_reflns_limit_l_max       19
_diffrn_reflns_limit_l_min       -21
_diffrn_reflns_number            17128
_diffrn_reflns_theta_full        25.000
_diffrn_reflns_theta_max         41.146
_diffrn_reflns_theta_min         2.885
_exptl_absorpt_coefficient_mu    0.323
_exptl_absorpt_correction_T_max  0.9532
_exptl_absorpt_correction_T_min  0.8527
_exptl_absorpt_correction_type   multi-scan
_exptl_absorpt_process_details
;
(CrysAlis PRO; Agilent, 2012)
;
_exptl_crystal_colour            colorless
_exptl_crystal_density_diffrn    1.710
_exptl_crystal_density_method    'not measured'
_exptl_crystal_description       prism
_exptl_crystal_F_000             364
_exptl_crystal_size_max          0.510
_exptl_crystal_size_mid          0.180
_exptl_crystal_size_min          0.150
_refine_diff_density_max         0.654
_refine_diff_density_min         -0.472
_refine_ls_extinction_method     none
_refine_ls_goodness_of_fit_ref   1.082
_refine_ls_hydrogen_treatment    mixed
_refine_ls_matrix_type           full
_refine_ls_number_parameters     237
_refine_ls_number_reflns         8897
_refine_ls_number_restraints     0
_refine_ls_restrained_S_all      1.082
_refine_ls_R_factor_all          0.0746
_refine_ls_R_factor_gt           0.0459
_refine_ls_shift/su_max          0.001
_refine_ls_shift/su_mean         0.000
_refine_ls_structure_factor_coef Fsqd
_refine_ls_weighting_details
'w=1/[\s^2^(Fo^2^)+(0.0479P)^2^+0.0574P] where P=(Fo^2^+2Fc^2^)/3'
_refine_ls_weighting_scheme      calc
_refine_ls_wR_factor_gt          0.1062
_refine_ls_wR_factor_ref         0.1275
_reflns_number_gt                6381
_reflns_number_total             8897
_reflns_threshold_expression     'I > 2\s(I)'
_cod_data_source_file            ku3199sup1.cif
_cod_data_source_block           I
_cod_database_code               2020765
_shelx_space_group_comment
;
The symmetry employed for this shelxl refinement is uniquely defined
by the following loop, which should always be used as a source of
symmetry information in preference to the above space-group names.
They are only intended as comments.
;
_shelx_estimated_absorpt_t_min   0.853
_shelx_estimated_absorpt_t_max   0.953
_shelx_hkl_file
;
   0   0  -2 4333.09 186.583   2
   0   0  -2 4344.40 214.561   1
   0   0  -3 6637.19 334.030   7
   0   0  -3 6701.73 284.960   2
   0   0  -3 6485.54 320.724   1
   0   0  -4 161729. 1779.26   4
   0   0  -4 164753. 1918.08   7
   0   0  -4 158002. 1613.38   2
   0   0  -5 484.842 143.256   7
   0   0  -5 329.025 102.834   4
   0   0  -5 405.679 110.523   2
   0   0  -6 3330.60 320.673   4
   0   0  -6 3267.10 298.403   2
   0   0  -6 3637.33 359.081   7
   0   0  -7 886.766 171.683   2
   0   0  -7 813.170 83.3421   3
   0   0  -7 928.833 185.463   4
   0   0  -8 41331.3 1282.87   4
   0   0  -8 41811.9 1213.44   2
   0   0  -9 19274.8 889.755   2
   0   0  -9 17968.6 897.926   4
   0   0 -10 105400. 2299.30   4
   0   0 -10 110985. 2278.61   2
   0   0 -11 314.706 167.716   4
   0   0 -11 185.570 162.477   2
   0   0 -12 21814.3 1135.25   2
   0   0 -12 21337.7 1143.37   4
   0   0 -13 25866.3 1303.60   2
   0   0 -13 26869.3 1333.59   4
   0   0 -14 468.732 201.219   4
   0   0 -14 405.882 219.408   2
   0   0 -15 1281.99 325.150   4
   0   0 -15 1954.20 407.247   2
   0   0 -16 1795.06 415.383   2
   0   0 -16 1501.51 377.139   4
   0   0 -17 219.140 208.136   2
   0   0 -18 764.142 330.856   2
   0   0 -19 2673.29 552.932   2
   0   0 -20 165.276 178.947   2
   0   1 -21-424.858 278.210   2
   0   1 -20 1948.72 469.117   2
   0   1 -19 126.678 148.253   2
   0   1 -18 1036.25 347.948   2
   0   1 -17 372.403 207.427   2
   0   1 -16 17345.4 1167.97   4
   0   1 -16 18802.6 1259.04   2
   0   1 -15 643.016 234.028   4
   0   1 -15 940.392 309.652   2
   0   1 -14 8750.66 798.952   2
   0   1 -14 8352.77 768.499   4
   0   1 -13 2527.37 421.266   4
   0   1 -13 2456.71 408.318   2
   0   1 -12 7541.55 675.274   4
   0   1 -12 8402.38 715.746   2
   0   1 -11 35752.6 1391.16   4
   0   1 -11 34144.4 1336.54   2
   0   1 -10 218.204 161.716   2
   0   1 -10 503.231 172.407   4
   0   1  -9 5603.71 500.924   4
   0   1  -9 5601.25 481.339   2
   0   1  -8 39239.6 1184.37   2
   0   1  -8 40468.1 1438.45   7
   0   1  -8 36944.3 1195.41   4
   0   1  -7 9305.89 555.217   4
   0   1  -7 9878.61 669.268   7
   0   1  -7 9146.87 531.290   2
   0   1  -6 37807.4 986.616   2
   0   1  -6 39074.4 1224.07   7
   0   1  -6 36748.5 1022.90   4
   0   1  -5 259808. 2486.33   4
   0   1  -5 249550. 2321.48   2
   0   1  -4 7008.36 348.844   2
   0   1  -4 7025.80 367.903   4
   0   1  -3 69.1729 43.2166   4
   0   1  -3 152.506 52.6352   2
   0   1  -2 11046.5 315.155   2
   0   1  -2 10761.1 346.247   4
   0   1  -1 134546. 904.525   2
   0   1  -1 135072. 1038.04   4
   0  -1  -1 650.838 70.0841   1
   0  -1  -2 396361. 2120.30   1
   0  -1  -3 327934. 2045.57   2
   0  -1  -3 308838. 2285.45   1
   0  -1  -4 499.808 113.585   1
   0  -1  -4 642.476 112.652   2
   0  -1  -5 32634.7 957.254   1
   0  -1  -5 34324.3 844.288   2
   0  -1  -6 35182.9 951.997   2
   0  -1  -6 34387.4 1079.66   1
   0  -1  -7 9728.59 542.381   2
   0  -1  -7 9431.52 622.558   1
   0  -1  -8 72.1337 84.5869   2
   0  -1  -9 3825.33 410.909   2
   0  -1  -9 3810.17 436.569   4
   0  -1 -10 15662.7 867.334   2
   0  -1 -10 15216.6 904.321   4
   0  -1 -11 3296.45 440.144   2
   0  -1 -11 3214.73 439.856   4
   0  -1 -12 23972.9 1239.87   4
   0  -1 -12 24243.8 1209.32   2
   0  -1 -13 33866.3 1495.11   2
   0  -1 -13 34741.8 1548.14   4
   0  -1 -14 3714.79 537.730   4
   0  -1 -14 3978.53 550.907   2
   0  -1 -15 2337.75 444.814   2
   0  -1 -15 2352.45 443.242   4
   0  -1 -16 9068.47 895.696   2
   0  -1 -16 8963.09 869.622   4
   0  -1 -17-144.069 225.578   2
   0  -1 -18 18556.6 1371.51   2
   0  -1 -19 4899.64 734.760   2
   0  -1 -20 922.662 338.719   2
   0   2 -21 514.187 288.202   2
   0   2 -20-36.9458 164.960   2
   0   2 -19 1752.41 468.571   2
   0   2 -18 1328.56 382.239   2
   0   2 -17 3184.18 551.671   2
   0   2 -16 10874.4 964.067   2
   0   2 -16 11111.6 941.816   4
   0   2 -15 8257.94 795.724   4
   0   2 -15 10173.7 894.465   2
   0   2 -14 9704.22 835.568   2
   0   2 -14 9230.85 813.246   4
   0   2 -13 12216.8 899.422   4
   0   2 -13 13578.5 943.377   2
   0   2 -12 191.923 141.658   2
   0   2 -12 186.024 116.456   4
   0   2 -11 579.547 216.237   2
   0   2 -11 831.396 238.413   4
   0   2 -10 7187.24 598.381   4
   0   2 -10 7742.89 607.309   2
   0   2  -9 1715.69 275.317   2
   0   2  -9 1902.28 377.293   7
   0   2  -9 1458.37 275.063   4
   0   2  -9 1517.93 105.349   5
   0   2  -8 9554.57 586.757   2
   0   2  -8 10304.1 772.679   7
   0   2  -8 9438.65 610.846   4
   0   2  -7 32446.5 1058.30   4
   0   2  -7 31259.8 982.087   2
   0   2  -7 32005.5 1261.35   7
   0   2  -6 39063.6 1091.61   4
   0   2  -6 39252.5 1019.00   2
   0   2  -5 20973.1 680.933   2
   0   2  -5 19999.2 718.491   4
   0   2  -4 12036.1 470.689   2
   0   2  -4 12496.0 529.596   4
   0   2  -3 6883.70 322.171   2
   0   2  -3 7415.25 376.453   4
   0   2  -2 566725. 2691.95   2
   0   2  -2 570298. 2960.61   4
   0  -2   1 691.493 118.376   1
   0   2  -1 671.685 100.531   4
   0  -2   0 3831.12 238.830   1
   0   2   0 4081.19 206.100   7
   0   2   1 33216.7 444.901   7
   0  -2  -1 32920.6 661.726   1
   0  -2  -2 999999. 3853.37   1
   0  -2  -3 77233.2 1201.92   1
   0  -2  -4 2442.02 218.324   2
   0  -2  -4 2150.93 237.969   1
   0  -2  -5 110.384 85.0939   2
   0  -2  -5 11.8552 88.4980   1
   0  -2  -6 71904.1 1376.49   2
   0  -2  -6 71666.2 1592.46   1
   0  -2  -7 2238.39 312.609   1
   0  -2  -7 2246.14 276.006   2
   0  -2  -8 28802.2 1020.16   2
   0  -2  -8 29068.8 1163.55   1
   0  -2  -9 2323.80 319.693   2
   0  -2  -9 2521.40 384.028   1
   0  -2 -10 37068.7 1482.54   1
   0  -2 -10 36814.1 1328.48   2
   0  -2 -11 263.836 173.044   2
   0  -2 -11 137.868 141.274   4
   0  -2 -12 56412.3 1972.21   4
   0  -2 -12 56317.2 1842.20   2
   0  -2 -13 47468.0 1795.21   2
   0  -2 -13 47102.0 1856.72   4
   0  -2 -14 327.596 193.913   4
   0  -2 -14 376.337 214.564   2
   0  -2 -15 23128.0 1373.97   4
   0  -2 -15 22212.2 1347.61   2
   0  -2 -16 18.3674 159.030   2
   0  -2 -16-211.079 181.864   4
   0  -2 -17 763.438 309.631   2
   0  -2 -18 664.733 290.461   2
   0  -2 -19-282.470 248.288   2
   0  -2 -20 1214.03 406.726   2
   0   3 -20 476.366 283.619   2
   0   3 -19 5384.51 769.561   2
   0   3 -18 145.611 132.931   2
   0   3 -17 478.116 260.315   2
   0   3 -16 921.385 337.786   4
   0   3 -16 574.839 270.618   2
   0   3 -15 7537.36 784.116   2
   0   3 -15 6708.32 728.278   4
   0   3 -14 12569.7 962.015   4
   0   3 -14 11009.6 898.613   2
   0   3 -13 1275.13 305.194   4
   0   3 -13 1517.33 331.985   2
   0   3 -12 10842.6 824.652   4
   0   3 -12 10803.0 805.673   2
   0   3 -11 901.781 250.323   2
   0   3 -11 1080.76 263.061   4
   0   3 -10 12326.1 799.259   4
   0   3 -10 13326.8 1038.72   7
   0   3 -10 12224.6 769.197   2
   0   3  -9 24784.4 1082.62   4
   0   3  -9 25935.5 1043.19   2
   0   3  -9 25644.2 1347.58   7
   0   3  -8 8440.13 597.946   4
   0   3  -8 8464.63 738.151   7
   0   3  -8 8707.20 568.761   2
   0   3  -7 70522.6 1506.35   2
   0   3  -7 73431.8 1657.92   4
   0   3  -7 75730.7 2058.34   7
   0   3  -6 6193.40 456.974   4
   0   3  -6 6498.91 429.749   2
   0   3  -5 7799.07 437.360   2
   0   3  -5 7901.81 484.515   4
   0   3  -4 116980. 1757.89   4
   0   3  -4 119350. 1594.39   2
   0   3  -3 190325. 1927.50   2
   0   3  -3 190445. 2082.72   4
   0   3  -2 31391.1 925.011   7
   0   3  -2 33910.2 836.972   4
   0  -3   1 25568.0 800.238   1
   0   3  -1 24675.0 728.995   7
   0   3   0 49413.7 440.907   6
   0   3   0 48606.7 887.695   7
   0  -3  -1 120051. 1573.06   1
   0   3   1 123579. 1188.20   7
   0   3   2 49854.3 614.211   7
   0  -3  -2 50856.3 1024.00   1
   0  -3  -3 103859. 1541.42   1
   0  -3  -4 2192.73 255.015   1
   0  -3  -5 310396. 2795.71   2
   0  -3  -5 313088. 3163.49   1
   0  -3  -6 6945.14 524.557   1
   0  -3  -6 7175.19 456.634   2
   0  -3  -7 38170.8 1295.94   1
   0  -3  -7 40022.2 1154.94   2
   0  -3  -8 400.376 158.593   2
   0  -3  -8 268.686 144.537   1
   0  -3  -9 1448.58 321.340   1
   0  -3  -9 1113.65 249.858   2
   0  -3 -10 5241.35 581.474   1
   0  -3 -10 5331.00 523.435   2
   0  -3 -11 3422.71 449.146   2
   0  -3 -11 2799.69 454.988   1
   0  -3 -12 11290.2 845.004   2
   0  -3 -13 14096.4 1063.15   4
   0  -3 -13 14501.3 1004.27   2
   0  -3 -14 10439.6 942.511   4
   0  -3 -14 10566.4 904.364   2
   0  -3 -15 15643.6 1145.87   2
   0  -3 -15 16622.1 1210.88   4
   0  -3 -16 2689.61 521.357   2
   0  -3 -17 7553.34 876.339   2
   0  -3 -18 1822.49 461.055   2
   0  -3 -19 714.409 334.452   2
   0  -3 -20 354.934 249.830   2
   0   4 -20 5403.07 797.474   2
   0   4 -19 733.181 299.448   2
   0   4 -18 2279.17 515.204   2
   0   4 -17 13906.3 1146.29   2
   0   4 -16 5984.37 701.485   4
   0   4 -16 5077.57 673.833   2
   0   4 -15 2749.22 476.506   4
   0   4 -15 3485.65 545.121   2
   0   4 -14 10074.4 865.047   2
   0   4 -14 9192.09 827.572   4
   0   4 -13 2855.37 459.952   4
   0   4 -13 2600.97 432.400   2
   0   4 -12-15.0253 100.414   4
   0   4 -12 50.6234 166.430   2
   0   4 -11 126.656 232.349   7
   0   4 -11 93.1354 146.774   4
   0   4 -11 95.6894 142.750   2
   0   4 -10 4637.44 480.866   2
   0   4 -10 3781.72 599.154   7
   0   4 -10 4179.26 487.620   4
   0   4  -9 18991.9 977.900   4
   0   4  -9 20010.1 937.759   2
   0   4  -9 20403.4 1271.73   7
   0   4  -8 303.283 126.129   2
   0   4  -8 284.578 130.060   4
   0   4  -8 297.033 203.532   7
   0   4  -7 6126.04 469.786   2
   0   4  -7 6026.90 499.356   4
   0   4  -7 5701.05 607.707   7
   0   4  -6 1618.75 237.779   2
   0   4  -6 1315.99 229.296   4
   0   4  -6 1274.36 290.241   7
   0   4  -5 1020.79 179.843   2
   0   4  -5 937.336 193.222   4
   0   4  -4 55574.9 1298.08   4
   0   4  -4 54972.1 1197.78   2
   0   4  -3 45979.4 1139.82   4
   0  -4   2 53728.5 1374.45   1
   0   4  -2 53390.4 1349.11   7
   0  -4   1 3506.12 339.910   1
   0   4  -1 4334.32 358.047   7
   0   4   0 47805.8 1045.33   7
   0   4   0 45293.8 457.479   6
   0  -4   0 46710.6 1178.13   1
   0   4   1 1772.49 183.361   7
   0  -4  -1 1564.03 222.348   1
   0  -4  -2 19419.8 734.577   1
   0   4   2 19872.9 506.704   7
   0  -4  -3 5222.32 392.143   1
   0   4   3 5136.00 215.350   7
   0   4   4 24615.6 386.673   7
   0  -4  -4 25408.2 904.710   1
   0  -4  -5 26872.4 990.670   1
   0  -4  -6 11809.9 702.656   1
   0  -4  -6 11863.3 621.367   2
   0  -4  -7 16123.3 879.760   1
   0  -4  -7 16709.8 780.103   2
   0  -4  -8 210.878 156.759   1
   0  -4  -8 99.4022 112.845   2
   0  -4  -9 2801.23 420.980   1
   0  -4  -9 4130.37 452.487   2
   0  -4 -10 56.0606 146.286   2
   0  -4 -10-110.713 133.355   1
   0  -4 -11 34475.7 1592.73   1
   0  -4 -11 35181.4 1427.03   2
   0  -4 -12 3402.21 485.062   2
   0  -4 -12 3223.24 523.688   1
   0  -4 -13 834.827 316.906   1
   0  -4 -13 1143.67 317.949   2
   0  -4 -14 3948.38 615.898   4
   0  -4 -14 3377.84 527.088   2
   0  -4 -15 6505.62 774.710   4
   0  -4 -15 6146.30 733.720   2
   0  -4 -16 1208.81 368.658   2
   0  -4 -17 4403.98 673.942   2
   0  -4 -18 338.079 211.326   2
   0  -4 -19 1062.90 379.400   2
   0   5 -20 204.469 174.523   2
   0   5 -19 2804.22 565.214   2
   0   5 -18 16.0159 96.5632   2
   0   5 -17 5210.29 720.577   2
   0   5 -16 3187.83 559.166   2
   0   5 -16 3622.25 556.742   4
   0   5 -15-62.2647 131.108   2
   0   5 -15 348.867 191.416   4
   0   5 -14 3023.93 502.203   2
   0   5 -14 3036.47 491.449   4
   0   5 -13 13361.5 975.024   4
   0   5 -13 15635.5 1053.77   2
   0   5 -12 44.8750 125.793   2
   0   5 -12 238.341 155.899   4
   0   5 -11 50219.8 1752.78   4
   0   5 -11 48953.4 1685.90   2
   0   5 -11 49326.7 2242.83   7
   0   5 -10 27.5424 106.333   4
   0   5 -10 29.1457 142.114   2
   0   5 -10-156.618 217.608   7
   0   5  -9 23152.9 1106.03   4
   0   5  -9 22945.8 1056.81   2
   0   5  -9 21146.0 1357.79   7
   0   5  -8 106.196 196.010   7
   0   5  -8-1.82919 108.199   2
   0   5  -8-45.6934 106.224   4
   0   5  -7 26512.0 1033.75   2
   0   5  -7 26129.2 1378.49   7
   0   5  -7 24642.5 1051.91   4
   0   5  -6 20701.2 1159.96   7
   0   5  -6 20446.7 866.139   2
   0   5  -6 20174.9 914.625   4
   0   5  -5 410.916 198.063   7
   0   5  -5 350.332 134.136   4
   0   5  -5 492.632 147.897   2
   0   5  -4 30381.4 1050.43   4
   0   5  -4 31111.9 1274.74   7
   0  -5   4 31497.4 1254.09   1
   0  -5   3 19305.8 948.425   1
   0  -5   2 2367.24 331.561   1
   0   5  -1 176947. 2505.25   7
   0  -5   1 173539. 2620.29   1
   0   5   0 52712.7 1243.97   7
   0  -5   0 54547.2 1425.37   1
   0  -5  -1 46255.0 1282.04   1
   0   5   1 44479.2 1036.51   7
   0   5   2 16206.4 550.013   7
   0  -5  -2 16899.7 770.203   1
   0   5   3 141960. 1380.66   7
   0  -5  -3 148529. 2297.17   1
   0  -5  -4 5051.71 442.762   1
   0   5   4 4635.75 188.393   7
   0  -5  -5 7003.60 553.310   1
   0  -5  -6-27.4287 111.057   1
   0  -5  -7 13444.8 854.217   1
   0  -5  -7 15542.1 786.436   2
   0  -5  -8 2278.54 393.058   1
   0  -5  -8 2297.45 331.067   2
   0  -5  -9 20153.4 998.131   2
   0  -5  -9 20633.6 1164.57   1
   0  -5 -10 97.9841 134.710   2
   0  -5 -10 181.732 178.335   1
   0  -5 -11 9533.31 871.214   1
   0  -5 -11 10579.0 809.667   2
   0  -5 -12 1463.18 380.603   1
   0  -5 -12 1598.57 350.608   2
   0  -5 -13 4290.74 574.875   2
   0  -5 -13 4983.20 685.268   1
   0  -5 -14 91.1751 156.815   2
   0  -5 -15 6042.74 740.563   2
   0  -5 -15 6997.29 856.194   4
   0  -5 -16 2081.53 459.953   2
   0  -5 -17 4013.36 651.794   2
   0  -5 -18 379.156 242.720   2
   0  -5 -19 370.899 255.653   2
   0   6 -20 1567.53 459.109   2
   0   6 -19 4339.75 733.480   2
   0   6 -18-199.905 219.937   2
   0   6 -17 597.949 287.567   2
   0   6 -16 234.762 199.205   2
   0   6 -16-152.204 138.695   4
   0   6 -15 6081.94 714.234   4
   0   6 -15 5217.22 685.571   2
   0   6 -14 2304.79 457.286   2
   0   6 -14 2018.28 423.727   4
   0   6 -13 4290.10 569.475   4
   0   6 -13 3875.25 558.434   2
   0   6 -12 13199.7 962.353   2
   0   6 -12 12919.3 945.175   4
   0   6 -11 19144.1 1101.66   2
   0   6 -11 18557.9 1101.63   4
   0   6 -11 17697.8 1416.17   7
   0   6 -10 257.933 257.240   7
   0   6 -10 14.2706 97.1893   4
   0   6 -10-253.949 164.088   2
   0   6  -9 1667.49 435.528   7
   0   6  -9 1558.42 314.696   4
   0   6  -9 1675.73 317.590   2
   0   6  -8 4842.90 665.175   7
   0   6  -8 4940.75 498.393   2
   0   6  -8 4828.86 514.397   4
   0   6  -7 25404.6 1429.96   7
   0   6  -7 25527.1 1079.33   2
   0   6  -7 25162.4 1121.19   4
   0   6  -6 5844.04 531.882   4
   0   6  -6 5922.64 683.470   7
   0   6  -6 5407.02 493.877   2
   0  -6   5 3665.90 500.593   1
   0   6  -5 3073.13 470.688   7
   0   6  -4 29172.4 1336.59   7
   0  -6   4 34574.6 1424.39   1
   0  -6   3 49690.2 1654.54   1
   0   6  -3 46586.8 1588.06   7
   0  -6   2 10522.2 738.836   1
   0   6  -2 10762.2 730.904   7
   0  -6   1 8369.93 640.829   1
   0   6   0 422.270 135.025   7
   0  -6   0 433.070 187.539   1
   0  -6  -1 12529.6 739.251   1
   0   6   1 11397.7 310.168   6
   0   6   1 12980.0 642.221   7
   0  -6  -2 2661.76 355.136   1
   0   6   2 2964.06 275.953   7
   0  -6  -3 18280.5 893.506   1
   0   6   3 17538.1 568.620   7
   0   6   4 11421.9 324.314   7
   0  -6  -4 12709.5 768.415   1
   0  -6  -5 552.828 188.408   1
   0  -6  -6 29350.2 1262.31   1
   0  -6  -7 2777.92 370.910   2
   0  -6  -7 2395.18 397.163   1
   0  -6  -8 7355.22 697.695   1
   0  -6  -8 5596.42 530.096   2
   0  -6  -9 30056.7 1261.71   2
   0  -6  -9 33074.0 1553.32   1
   0  -6 -10 4041.65 500.416   2
   0  -6 -10 3210.90 523.580   1
   0  -6 -11 6799.12 667.360   2
   0  -6 -11 6793.37 768.519   1
   0  -6 -12 1543.81 357.565   2
   0  -6 -12 2208.65 475.020   1
   0  -6 -13 3734.60 547.468   2
   0  -6 -13 3875.22 629.027   1
   0  -6 -14-82.2890 191.604   2
   0  -6 -14-48.5987 173.397   1
   0  -6 -15-70.1496 141.933   2
   0  -6 -16 475.762 247.255   2
   0  -6 -17 2306.50 516.170   2
   0  -6 -18 582.684 299.199   2
   0   7 -19 2380.32 528.973   2
   0   7 -18 224.534 223.442   2
   0   7 -17 7691.18 929.077   2
   0   7 -16 8649.62 931.082   2
   0   7 -16 9388.61 902.372   4
   0   7 -15 79.4675 149.574   4
   0   7 -15 191.738 208.423   2
   0   7 -14 4998.95 653.854   4
   0   7 -14 4490.40 624.089   2
   0   7 -13 27656.5 1462.12   4
   0   7 -13 30305.2 1552.92   2
   0   7 -12 41281.7 1747.09   2
   0   7 -12 37937.9 1676.12   4
   0   7 -11 17840.9 1111.52   4
   0   7 -11 18859.7 1141.38   2
   0   7 -11 18918.0 1547.26   7
   0   7 -10 5730.88 614.620   4
   0   7 -10 6962.83 670.650   2
   0   7 -10 5476.79 823.798   7
   0   7  -9 10805.3 821.093   4
   0   7  -9 10309.6 1059.19   7
   0   7  -9 9905.98 764.078   2
   0   7  -8 386.284 252.430   7
   0   7  -8 531.912 202.331   4
   0   7  -8 396.578 191.315   2
   0   7  -7 9271.96 927.911   7
   0  -7   7 9037.58 873.613   1
   0  -7   6 924.456 317.668   1
   0   7  -6 705.325 306.590   7
   0   7  -5 29314.9 1498.36   7
   0  -7   5 32597.0 1536.07   1
   0   7  -4 4.77449 148.797   7
   0  -7   4-83.1438 182.731   1
   0   7  -3 22879.7 1203.27   7
   0  -7   3 22176.5 1184.58   1
   0  -7   2 1096.34 300.167   1
   0   7  -2 1043.86 264.937   7
   0   7  -1 23189.6 1083.76   7
   0  -7   1 24233.0 1180.50   1
   0  -7   0 5179.34 540.795   1
   0  -7  -1 18098.3 978.493   1
   0   7   1 18430.0 827.098   7
   0  -7  -2 576.281 206.841   1
   0   7   2 578.325 89.8647   6
   0   7   2 557.412 146.048   7
   0   7   3 8749.94 443.664   7
   0  -7  -3 9357.70 703.063   1
   0  -7  -4 2042.53 358.014   1
   0  -7  -5 9463.53 753.397   1
   0  -7  -6 3870.77 515.424   1
   0  -7  -7 9828.21 828.340   1
   0  -7  -8 4999.40 620.465   1
   0  -7  -8 4469.35 507.667   2
   0  -7  -9 7795.87 679.925   2
   0  -7  -9 8700.67 846.877   1
   0  -7 -10 277.949 192.236   2
   0  -7 -10 285.723 205.394   1
   0  -7 -11 807.155 259.748   2
   0  -7 -11 1064.42 327.595   1
   0  -7 -12 345.772 199.666   2
   0  -7 -12 702.380 321.564   1
   0  -7 -13 5407.87 682.365   2
   0  -7 -13 5265.62 760.362   1
   0  -7 -14 862.449 346.184   1
   0  -7 -14 647.394 270.824   2
   0  -7 -15 924.937 348.313   2
   0  -7 -15 715.486 329.954   1
   0  -7 -16 839.846 316.655   2
   0  -7 -17 335.343 238.793   2
   0  -7 -18 624.995 317.301   2
   0  -8  19 1273.31 528.371   1
   0  -8  18 1064.85 507.890   1
   0   8 -18 1452.45 456.362   2
   0   8 -17 4333.75 721.781   2
   0   8 -16 7222.45 884.396   2
   0   8 -15 1133.48 343.418   2
   0   8 -14 2068.63 456.338   2
   0   8 -13 26229.2 1499.94   2
   0   8 -12 116.221 144.571   2
   0   8 -11 879.195 294.214   2
   0   8 -11 586.346 377.406   7
   0  -8  11 933.259 353.070   1
   0   8 -10-123.145 282.863   7
   0  -8  10 80.6592 232.923   1
   0   8  -9 930.822 373.909   7
   0  -8   9 907.647 366.671   1
   0   8  -8 5561.89 789.763   7
   0  -8   8 6252.76 807.248   1
   0   8  -7 506.772 313.744   7
   0  -8   7 223.530 234.760   1
   0  -8   6 16202.3 1192.78   1
   0   8  -6 16784.4 1263.57   7
   0   8  -5 1823.49 415.786   7
   0  -8   5 1846.63 424.568   1
   0   8  -4-82.3750 143.858   7
   0  -8   4-57.3706 222.937   1
   0   8  -3 6944.69 713.125   7
   0  -8   3 7646.28 768.180   1
   0  -8   2 834.268 283.941   1
   0   8  -2 1082.57 302.912   7
   0  -8   1 9324.32 800.545   1
   0   8  -1 9465.48 742.758   7
   0  -8   0 230.509 155.860   1
   0   8   0 69.2415 116.539   7
   0  -8  -1 2333.25 397.260   1
   0  -8  -2 20507.5 1125.82   1
   0   8   2 19901.1 833.510   7
   0   8   3 5141.30 294.773   6
   0  -8  -3 5504.32 601.340   1
   0  -8  -4 12289.9 896.657   1
   0  -8  -5 24298.8 1291.75   1
   0  -8  -6 23699.4 1309.73   1
   0  -8  -7 137.275 183.848   1
   0  -8  -8 13207.0 1066.98   1
   0  -8  -8 12784.7 885.511   2
   0  -8  -9 808.963 312.052   1
   0  -8  -9 932.964 278.442   2
   0  -8 -10 7202.85 714.277   2
   0  -8 -10 7383.62 858.013   1
   0  -8 -11 409.306 212.496   2
   0  -8 -11 512.199 269.062   1
   0  -8 -12 548.103 235.610   2
   0  -8 -12 585.561 271.047   1
   0  -8 -13-108.052 162.963   1
   0  -8 -13-286.669 220.736   2
   0  -8 -14 2902.57 530.004   2
   0  -8 -14 2285.14 525.658   1
   0  -8 -15 4068.91 737.984   1
   0  -8 -15 3755.55 632.830   2
   0  -8 -16 4532.92 701.320   2
   0  -8 -17 590.087 308.716   2
   0  -9  18-26.3424 188.150   1
   0  -9  17-417.458 326.892   1
   0  -9  16 2467.67 637.679   1
   0  -9  15 5632.03 947.500   1
   0  -9  14 9177.10 1168.90   1
   0  -9  13 371.001 281.048   1
   0  -9  12 1282.69 432.092   1
   0  -9  11 2759.77 613.719   1
   0  -9  10 21296.8 1603.93   1
   0   9 -10 19602.2 1653.95   7
   0   9  -9 19910.0 1613.58   7
   0  -9   9 22120.9 1593.79   1
   0  -9   8 3807.29 671.080   1
   0   9  -8 4534.08 766.677   7
   0  -9   7 10561.4 1042.94   1
   0   9  -7 9695.03 1063.66   7
   0  -9   6 11177.9 1053.15   1
   0   9  -6 11091.1 1078.73   7
   0  -9   5 5132.36 716.189   1
   0   9  -5 4220.39 648.951   7
   0   9  -4 9353.67 913.178   7
   0  -9   4 11769.6 1022.93   1
   0   9  -3 1949.58 407.707   7
   0  -9   3 2424.36 497.890   1
   0  -9   2 768.677 323.678   1
   0   9  -2 782.060 261.446   7
   0   9  -1 6977.45 681.707   7
   0  -9   1 7236.98 762.671   1
   0  -9   0 60226.2 2093.04   1
   0   9   0 57202.9 1795.85   7
   0   9   1 21.4909 79.5267   7
   0  -9  -1 85.9609 167.210   1
   0  -9  -2 5118.58 618.369   1
   0  -9  -3 2588.96 456.807   1
   0  -9  -4 745.183 288.703   1
   0  -9  -5 7509.53 780.539   1
   0  -9  -6 676.036 298.541   1
   0  -9  -7 1864.78 434.142   1
   0  -9  -8-244.108 212.015   1
   0  -9  -8 84.4319 130.800   2
   0  -9  -9 994.612 382.210   1
   0  -9  -9 939.056 304.561   2
   0  -9 -10 1386.42 349.168   2
   0  -9 -10 1759.33 469.121   1
   0  -9 -11 431.749 270.633   1
   0  -9 -11 802.606 299.933   2
   0  -9 -12-76.0704 175.859   2
   0  -9 -12-259.887 230.555   1
   0  -9 -13-45.4541 128.637   1
   0  -9 -13-72.0381 149.298   2
   0  -9 -14-117.464 204.749   2
   0  -9 -14 529.847 331.040   1
   0  -9 -15 950.907 373.096   1
   0  -9 -15 1746.53 451.117   2
   0  -9 -16 1385.32 412.749   2
   0 -10  17 3480.84 792.992   1
   0 -10  16 6553.96 1081.48   1
   0 -10  15 14672.0 1552.65   1
   0 -10  14 5945.93 967.794   1
   0 -10  13 4094.10 807.019   1
   0 -10  12 476.980 329.737   1
   0 -10  11 3135.17 666.989   1
   0 -10  10 4549.99 773.716   1
   0 -10   9 1666.65 486.585   1
   0  10  -9 1025.47 449.963   7
   0  10  -8 12063.4 1272.27   7
   0 -10   8 10315.2 1109.52   1
   0  10  -7 856.419 373.597   7
   0 -10   7 657.957 309.495   1
   0 -10   6 7967.63 935.779   1
   0  10  -6 9988.18 1085.55   7
   0  10  -5 2542.99 544.106   7
   0 -10   5 3326.37 593.606   1
   0 -10   4 3095.74 578.381   1
   0  10  -4 2862.91 554.716   7
   0  10  -3 3202.29 552.596   7
   0 -10   3 3761.13 624.049   1
   0  10  -2 8238.03 814.061   7
   0 -10   2 8320.59 874.944   1
   0  10  -1 9928.53 853.802   7
   0 -10   1 12112.3 1023.22   1
   0 -10   0 43112.3 1892.85   1
   0 -10  -1 147.492 169.360   1
   0 -10  -2 145.305 162.594   1
   0 -10  -3-71.0430 189.600   1
   0 -10  -4 11798.7 1014.32   1
   0 -10  -5 1576.82 414.851   1
   0 -10  -6 1768.61 441.948   1
   0 -10  -7 433.670 263.495   1
   0 -10  -8-56.9023 163.224   2
   0 -10  -8 103.737 204.794   1
   0 -10  -9 188.386 188.407   2
   0 -10  -9 516.141 293.721   1
   0 -10 -10 10615.8 1142.55   1
   0 -10 -10 8487.20 849.730   2
   0 -10 -11 2074.95 489.811   2
   0 -10 -11 269.333 276.650   1
   0 -10 -12 1909.67 534.238   1
   0 -10 -12 1158.61 347.907   2
   0 -10 -13-397.552 210.921   2
   0 -10 -13 253.764 225.392   1
   0 -10 -14 1350.14 393.137   2
   0 -10 -14 1419.38 459.302   1
   0 -10 -15-317.404 207.717   2
   0 -11  16-174.622 265.730   1
   0 -11  15 4286.42 831.909   1
   0 -11  14 6069.17 1002.39   1
   0 -11  13 4080.49 835.640   1
   0 -11  12 1996.00 572.379   1
   0 -11  11 1614.69 509.970   1
   0 -11  10 2250.01 596.206   1
   0 -11   9 491.256 340.441   1
   0 -11   8 1902.44 532.740   1
   0 -11   7 10008.7 1126.69   1
   0  11  -6 3907.42 701.200   7
   0 -11   6 4130.59 711.828   1
   0  11  -5 1836.90 490.278   7
   0 -11   5 2867.77 589.180   1
   0 -11   4 553.292 304.984   1
   0  11  -4 665.376 289.997   7
   0 -11   3 7018.41 868.257   1
   0  11  -3 6181.80 780.970   7
   0  11  -2 21221.5 1361.73   7
   0 -11   2 24562.1 1559.21   1
   0 -11   1 315.011 273.394   1
   0 -11   0 451.473 276.224   1
   0 -11  -1 5556.41 734.620   1
   0 -11  -2 11760.9 1052.27   1
   0 -11  -3 522.403 277.213   1
   0 -11  -4 1156.74 374.386   1
   0 -11  -5 119.901 219.189   1
   0 -11  -6 906.995 355.361   1
   0 -11  -7 2020.15 520.722   1
   0 -11  -8 788.380 281.690   2
   0 -11  -8 1203.36 404.037   1
   0 -11  -9 282.138 194.285   2
   0 -11  -9-1.75800 138.623   1
   0 -11 -10 1739.38 487.005   1
   0 -11 -10 1544.60 386.852   2
   0 -11 -11 771.628 289.623   2
   0 -11 -11 1583.66 478.079   1
   0 -11 -12 1.95428 151.908   1
   0 -11 -12 94.9705 186.189   2
   0 -11 -13 1928.23 548.853   1
   0 -11 -13 1709.61 424.953   2
   0 -12  14 13681.3 1505.75   1
   0 -12  13 1977.52 608.439   1
   0 -12  12 1847.99 530.737   1
   0 -12  11-114.777 243.969   1
   0 -12  10 3314.02 726.638   1
   0 -12   9 1936.36 540.159   1
   0 -12   8 1993.61 534.025   1
   0 -12   7 1.81636 229.413   1
   0 -12   6 7343.26 992.955   1
   0 -12   5 334.624 266.821   1
   0 -12   4 18148.6 1469.88   1
   0 -12   3 1936.09 523.705   1
   0 -12   2 11572.0 1127.65   1
   0 -12   1 474.397 286.528   1
   0 -12   0 6986.22 872.643   1
   0 -12  -1-419.642 267.147   1
   0 -12  -2 10652.1 1077.48   1
   0 -12  -3 106.500 212.890   1
   0 -12  -4 673.945 309.803   1
   0 -12  -5 2418.97 556.967   1
   0 -12  -6 3139.67 648.466   1
   0 -12  -7-211.598 176.191   2
   0 -12  -7 122.844 199.557   1
   0 -12  -8 928.664 301.002   2
   0 -12  -8 716.996 338.436   1
   0 -12  -9 673.485 281.474   2
   0 -12  -9 701.049 362.679   1
   0 -12 -10 994.066 323.702   2
   0 -12 -10 1720.58 507.692   1
   0 -12 -11 531.504 303.051   2
   0 -12 -11 867.322 420.616   1
   0 -12 -12 4102.51 653.190   2
   0 -12 -12 4276.30 823.919   1
   0 -13  12 2941.64 690.230   1
   0 -13  11 1377.08 496.546   1
   0 -13  10 2339.73 619.568   1
   0 -13   9 690.539 372.052   1
   0 -13   8 1047.95 436.403   1
   0 -13   7 262.670 262.715   1
   0 -13   6 3737.95 728.563   1
   0 -13   5 18.0672 117.176   1
   0 -13   4 6155.29 906.424   1
   0 -13   3 5202.11 811.236   1
   0 -13   2 375.220 269.179   1
   0 -13   1 6518.67 893.518   1
   0 -13   0 1898.27 494.019   1
   0 -13  -1-22.7381 173.582   1
   0 -13  -2 2874.96 611.986   1
   0 -13  -3-101.013 206.647   1
   0 -13  -4 1376.99 468.842   1
   0 -13  -5 483.705 308.628   1
   0 -13  -6 806.273 376.944   1
   0 -13  -7 1918.34 428.354   2
   0 -13  -7 2734.65 644.380   1
   0 -13  -8 167.051 171.272   2
   0 -13  -8 667.335 332.732   1
   0 -13  -9 453.453 239.539   2
   0 -13  -9 857.563 389.816   1
   0 -13 -10-38.1284 117.780   1
   0 -14  10-261.833 243.229   1
   0 -14   9 702.217 377.970   1
   0 -14   8-219.796 271.895   1
   0 -14   7 4614.41 845.877   1
   0 -14   6 969.392 413.459   1
   0 -14   5-28.8379 221.322   1
   0 -14   4 17119.9 1519.89   1
   0 -14   3-366.186 293.569   1
   0 -14   2 1055.79 397.250   1
   0 -14   1 755.592 338.899   1
   0 -14   0-413.819 302.296   1
   0 -14  -1 782.183 338.607   1
   0 -14  -2-98.5444 240.293   1
   0 -14  -3 1862.65 543.746   1
   0 -14  -4 515.143 331.733   1
   0 -14  -5-174.721 179.709   1
   0 -14  -6 4378.90 805.057   1
   0 -14  -7-514.131 362.460   1
   0 -15   6 1874.43 554.102   1
   0 -15   5 1167.27 451.345   1
   0 -15   4 2350.45 614.614   1
   0 -15   3 2128.15 577.162   1
   0 -15   2 157.055 201.940   1
   0 -15   1 4360.24 798.410   1
   0 -15   0 116.022 227.026   1
   0 -15  -1 1879.86 551.212   1
   0 -15  -2-395.534 280.090   1
   0 -15  -3 1241.40 448.169   1
   1 -15  -4 39.8516 129.183   1
   1 -15  -3 248.212 276.767   1
   1 -15  -2 892.318 386.987   1
   1 -15  -1 2630.39 627.408   1
   1 -15   0 467.270 281.322   1
   1 -15   1 904.922 399.220   1
   1 -15   2 3993.64 752.446   1
   1 -15   3 315.708 325.231   1
   1 -15   4 774.876 406.053   1
   1 -15   5 2918.65 662.682   1
   1 -15   6 1228.24 455.772   1
   1 -15   7 225.391 207.722   1
   1 -14  -8 824.648 398.033   1
   1 -14  -7 121.411 231.052   1
   1 -14  -6 845.712 379.124   1
   1 -14  -5 447.493 307.244   1
   1 -14  -4 5654.04 917.633   1
   1 -14  -3 654.054 353.088   1
   1 -14  -2 347.164 259.874   1
   1 -14  -1 3853.59 722.138   1
   1 -14   0 5392.66 845.614   1
   1 -14   1 1385.58 464.866   1
   1 -14   2 7334.57 993.134   1
   1 -14   3-49.2634 204.413   1
   1 -14   4 3059.51 676.323   1
   1 -14   5 471.993 275.681   1
   1 -14   6 402.032 310.017   1
   1 -14   7 1367.88 488.122   1
   1 -14   8 6859.67 1012.73   1
   1 -14   9-277.713 266.066   1
   1 -14  10-178.728 272.752   1
   1 -13 -10 282.981 296.474   1
   1 -13  -9-699.964 385.773   1
   1 -13  -8-264.349 229.804   1
   1 -13  -7 773.387 380.574   1
   1 -13  -6 729.003 331.269   1
   1 -13  -5 868.135 373.634   1
   1 -13  -4 1209.65 425.307   1
   1 -13  -3 1949.46 519.825   1
   1 -13  -2 3615.62 682.546   1
   1 -13  -1 5411.55 808.204   1
   1 -13   0 2358.24 533.782   1
   1 -13   1-145.424 234.647   1
   1 -13   2 432.233 257.236   1
   1 -13   3 299.841 259.073   1
   1 -13   4 3651.46 678.354   1
  -1  13  -5 4623.43 796.247   7
   1 -13   5 3874.73 733.810   1
  -1  13  -6 1086.86 424.498   7
   1 -13   6 1861.64 546.396   1
   1 -13   7 310.667 290.766   1
  -1  13  -7-25.8945 245.421   7
   1 -13   8 161.625 228.405   1
   1 -13   9 310.654 278.949   1
   1 -13  10-440.546 306.308   1
   1 -13  11 437.320 287.320   1
   1 -13  12 7922.87 1126.32   1
   1 -13  13 264.371 280.674   1
   1 -12 -12 1882.97 552.836   1
   1 -12 -11 670.357 362.773   1
   1 -12 -10 545.864 319.758   1
   1 -12 -10 667.899 248.668   2
   1 -12  -9 413.760 323.463   1
   1 -12  -9 310.894 174.719   2
   1 -12  -8 838.016 278.259   2
   1 -12  -8 623.327 349.127   1
   1 -12  -7 2022.15 536.694   1
   1 -12  -7 1255.86 329.336   2
   1 -12  -6 2693.91 624.412   1
   1 -12  -5 362.540 299.001   1
   1 -12  -4 3143.15 619.636   1
   1 -12  -3 26.9229 217.107   1
   1 -12  -2 23330.3 1575.46   1
   1 -12  -1 9262.06 1005.05   1
   1 -12   0 589.247 310.323   1
   1 -12   1 14090.7 1222.87   1
   1 -12   2 2734.35 564.939   1
  -1  12  -3-82.2942 180.556   7
   1 -12   3 213.553 264.017   1
  -1  12  -4 2554.44 566.345   7
   1 -12   4 2294.53 552.994   1
  -1  12  -5 31.7611 178.764   7
   1 -12   5 150.951 236.654   1
  -1  12  -6 6332.48 951.651   7
   1 -12   6 6131.07 895.476   1
   1 -12   7 1424.69 481.143   1
  -1  12  -7 2113.92 592.206   7
  -1  12  -8 2325.12 613.237   7
   1 -12   8 2548.00 600.375   1
   1 -12   9 7730.52 1060.74   1
  -1  12  -9 7830.08 1154.08   7
   1 -12  10 4441.84 824.092   1
  -1  12 -10 3671.59 841.633   7
   1 -12  11 5645.23 911.958   1
   1 -12  12 4582.25 875.598   1
   1 -12  13 11122.3 1329.64   1
   1 -12  14 447.744 308.208   1
   1 -11 -14-339.685 317.225   1
   1 -11 -13-194.063 236.432   1
   1 -11 -13-561.930 260.691   2
   1 -11 -12 319.591 212.523   2
   1 -11 -12 85.0913 246.203   1
   1 -11 -11 1332.85 454.070   1
   1 -11 -11 1046.16 312.429   2
   1 -11 -10-152.081 159.101   2
   1 -11 -10 118.913 224.664   1
   1 -11  -9 2504.02 601.534   1
   1 -11  -9 2139.86 412.186   2
   1 -11  -8 238.707 161.855   2
   1 -11  -8 222.151 206.347   1
   1 -11  -7 2219.60 538.076   1
   1 -11  -7 1885.68 374.682   2
   1 -11  -6 3123.38 605.703   1
   1 -11  -5 4829.89 740.954   1
   1 -11  -4 2892.87 552.929   1
   1 -11  -3 125.984 211.920   1
   1 -11  -2 3475.89 607.362   1
   1 -11  -1 26570.8 1572.40   1
   1 -11   0 2168.39 491.259   1
  -1  11  -1 7003.66 772.324   7
   1 -11   1 8436.38 900.951   1
  -1  11  -2 1156.59 362.147   7
   1 -11   2 722.357 308.109   1
  -1  11  -3 12972.5 1152.29   7
   1 -11   3 14652.6 1211.17   1
   1 -11   4 1834.65 468.191   1
  -1  11  -4 1059.85 365.668   7
   1 -11   5 26412.3 1683.45   1
  -1  11  -5 27515.9 1808.31   7
   1 -11   6 2305.86 546.656   1
  -1  11  -6 3728.93 708.923   7
  -1  11  -7 12120.6 1289.61   7
   1 -11   7 12163.5 1205.45   1
  -1  11  -8 1538.70 523.202   7
   1 -11   8 1135.37 413.964   1
   1 -11   9 7718.38 1011.06   1
  -1  11  -9 8222.25 1141.83   7
  -1  11 -10 3721.98 817.315   7
   1 -11  10 1989.80 572.735   1
   1 -11  11-486.589 333.266   1
  -1  11 -11-1104.19 503.971   7
   1 -11  12 1957.67 588.811   1
   1 -11  13 12821.8 1396.12   1
   1 -11  14 2217.82 585.588   1
   1 -11  15 1546.12 577.570   1
   1 -11  16 2452.81 653.768   1
   1 -10 -15 418.676 272.184   1
   1 -10 -15 230.782 192.881   2
   1 -10 -14-163.200 169.784   2
   1 -10 -14 336.455 285.782   1
   1 -10 -13 610.855 243.193   2
   1 -10 -13 221.602 224.900   1
   1 -10 -12 2390.70 465.685   2
   1 -10 -12 1577.52 489.582   1
   1 -10 -11 367.918 214.133   2
   1 -10 -11-54.0482 209.986   1
   1 -10 -10 467.926 301.530   1
   1 -10 -10 290.310 162.830   2
   1 -10  -9 514.035 275.044   1
   1 -10  -9 896.657 270.397   2
   1 -10  -8 2336.84 522.112   1
   1 -10  -8 3256.43 482.429   2
   1 -10  -7 9949.71 795.529   2
   1 -10  -7 10871.5 1057.12   1
   1 -10  -6 300.330 158.389   1
   1 -10  -5 76.5472 223.181   1
   1 -10  -4 11333.9 998.400   1
   1 -10  -3 2134.18 468.523   1
   1 -10  -2 1464.97 367.790   1
  -1  10   1 787.599 250.990   7
   1 -10  -1 858.335 322.089   1
   1 -10   0 963.656 336.815   1
  -1  10   0 871.711 290.145   7
   1 -10   1 598.943 315.034   1
  -1  10  -1 15.9878 135.104   7
  -1  10  -2 19.9254 157.961   7
   1 -10   2-167.188 236.525   1
  -1  10  -3 1625.35 418.503   7
   1 -10   3 1066.17 351.882   1
   1 -10   4 1675.07 441.702   1
  -1  10  -4 1332.20 405.688   7
  -1  10  -5 729.217 332.182   7
   1 -10   5 841.001 381.813   1
  -1  10  -6 10827.8 1141.63   7
   1 -10   6 10906.8 1066.67   1
  -1  10  -7-96.2609 229.744   7
   1 -10   7-36.6492 223.708   1
  -1  10  -8 100.652 239.493   7
   1 -10   8 73.7552 215.563   1
  -1  10  -9 626.085 370.763   7
   1 -10   9 186.979 241.565   1
   1 -10  10 1181.16 416.891   1
  -1  10 -10 1970.72 604.058   7
  -1  10 -11 10811.6 1336.20   7
   1 -10  11 12198.4 1254.25   1
  -1  10 -12 2361.69 677.329   7
   1 -10  12 1632.07 515.490   1
   1 -10  13 4945.11 831.987   1
   1 -10  14 3426.60 743.160   1
   1 -10  15 5153.21 909.849   1
   1 -10  16-43.4783 233.171   1
   1 -10  17 818.128 384.834   1
   1  -9 -16 206.541 189.817   2
   1  -9 -16 268.810 220.990   1
   1  -9 -15 61.1033 194.847   1
   1  -9 -15 276.444 202.533   2
   1  -9 -14 567.428 269.318   2
   1  -9 -14 363.224 247.641   1
   1  -9 -13 1310.52 377.073   2
   1  -9 -13 775.530 364.924   1
   1  -9 -12 290.171 183.832   2
   1  -9 -12-596.668 310.511   1
   1  -9 -11 3934.06 553.325   2
   1  -9 -11 4608.83 770.757   1
   1  -9 -10 972.334 388.105   1
   1  -9 -10 692.373 246.552   2
   1  -9  -9 3866.60 648.768   1
   1  -9  -9 3853.35 508.133   2
   1  -9  -8 153.429 205.923   1
   1  -9  -8 97.8550 114.708   2
   1  -9  -7 4362.72 649.156   1
   1  -9  -7 3111.14 433.933   2
   1  -9  -6 897.638 309.111   1
   1  -9  -5 417.636 237.971   1
   1  -9  -4 5180.17 643.991   1
   1  -9  -3 15902.7 1079.59   1
   1  -9  -2 6279.74 669.552   1
  -1   9   2 5584.20 525.583   7
  -1   9   1 6947.00 620.879   7
   1  -9  -1 6775.29 699.884   1
   1  -9   0 4557.80 586.999   1
  -1   9   0 4021.91 515.279   7
  -1   9  -1 61072.7 2065.84   7
   1  -9   1 63793.5 2153.96   1
  -1   9  -2 1896.75 388.956   7
   1  -9   2 1665.29 397.769   1
   1  -9   3 33239.5 1623.89   1
  -1   9  -3 31084.5 1611.33   7
  -1   9  -4 335.114 210.939   7
   1  -9   4 465.576 279.049   1
   1  -9   5 13489.3 1093.46   1
  -1   9  -5 14372.7 1189.90   7
  -1   9  -6 183.620 247.714   7
   1  -9   6 357.886 243.369   1
   1  -9   7 11419.2 1056.08   1
  -1   9  -7 12312.1 1192.73   7
  -1   9  -8 444.307 322.357   7
   1  -9   8 471.639 260.014   1
   1  -9   9 22132.6 1541.82   1
  -1   9  -9 20807.2 1632.88   7
  -1   9 -10 4852.48 834.982   7
   1  -9  10 4583.79 763.567   1
  -1   9 -11 53781.8 2794.81   7
   1  -9  11 53225.3 2519.72   1
  -1   9 -12 10395.1 1280.12   7
   1  -9  12 11646.4 1228.85   1
  -1   9 -13 3308.78 781.075   7
   1  -9  13 5883.07 889.091   1
  -1   9 -14 5101.44 701.415   2
   1  -9  14 6036.34 947.400   1
   1  -9  15 16034.3 1535.48   1
  -1   9 -15 14832.9 1224.39   2
   1  -9  16 352.282 318.126   1
  -1   9 -16 248.569 213.131   2
   1  -9  17 4013.33 811.089   1
  -1   9 -17 3935.01 673.284   2
  -1   9 -18-94.4698 154.456   2
   1  -9  18 422.336 361.304   1
   1  -8 -17 298.579 242.648   2
   1  -8 -16-142.088 189.338   2
   1  -8 -15 1348.18 435.026   1
   1  -8 -15 2547.94 507.416   2
   1  -8 -14-1.77371 77.5122   1
   1  -8 -14 34.3040 150.712   2
   1  -8 -13 1417.23 361.927   2
   1  -8 -13 1797.01 510.186   1
   1  -8 -12 3224.54 504.249   2
   1  -8 -12 3550.38 663.847   1
   1  -8 -11 3874.85 529.731   2
   1  -8 -11 4939.31 749.224   1
   1  -8 -10 316.527 243.316   1
   1  -8 -10 79.0529 135.834   2
   1  -8  -9-262.795 148.842   2
   1  -8  -9 76.2068 179.072   1
   1  -8  -8 731.011 206.257   2
   1  -8  -8 654.922 274.877   1
   1  -8  -7 18344.7 1224.69   1
   1  -8  -7 17485.3 937.039   2
   1  -8  -6 586.328 261.326   1
   1  -8  -5 12218.4 918.766   1
   1  -8  -4 6547.41 661.823   1
   1  -8  -3 7017.89 672.640   1
   1  -8  -2 2777.32 422.434   1
   1  -8  -1 294.340 195.791   1
  -1   8   1 504.752 181.840   7
  -1   8   0 2205.68 351.897   7
   1  -8   0 1989.87 372.734   1
  -1   8  -1 14301.7 927.109   7
   1  -8   1 14341.2 958.764   1
   1  -8   2-105.458 195.758   1
  -1   8  -2-29.2103 170.661   7
  -1   8  -3 536.912 236.646   7
   1  -8   3 894.105 293.910   1
   1  -8   4 863.434 311.394   1
  -1   8  -4 401.430 225.835   7
   1  -8   5 9660.50 872.398   1
  -1   8  -5 10289.6 955.890   7
  -1   8  -6 28331.0 1640.08   7
   1  -8   6 26647.4 1478.53   1
  -1   8  -7 340.695 241.797   7
   1  -8   7 512.395 284.357   1
  -1   8  -8 3823.28 670.356   7
   1  -8   8 4654.21 672.103   1
  -1   8  -9 2840.50 604.894   7
   1  -8   9 2974.21 554.866   1
   1  -8  10 21560.6 1501.20   1
  -1   8 -10 20335.0 1604.32   7
  -1   8 -10 20904.5 1167.95   2
   1  -8  11 446.219 300.550   1
  -1   8 -11 175.873 255.387   7
  -1   8 -11 240.644 189.021   2
  -1   8 -12 253.743 187.459   2
   1  -8  12 746.043 355.947   1
  -1   8 -12 747.896 442.131   7
  -1   8 -13 62.6924 129.547   2
   1  -8  13-18.6335 182.729   1
  -1   8 -13 372.703 358.623   7
  -1   8 -14 741.904 273.283   2
   1  -8  14 239.906 250.060   1
   1  -8  15 451.399 326.632   1
  -1   8 -15 655.270 278.154   2
   1  -8  16 266.133 250.626   1
  -1   8 -16 39.3552 104.959   2
  -1   8 -17 6314.60 846.657   2
   1  -8  17 3870.41 772.458   1
  -1   8 -18 699.377 282.180   2
   1  -8  18 957.844 397.549   1
   1  -8  19 290.341 292.381   1
   1  -7 -18 2026.16 513.131   2
   1  -7 -17 2014.27 489.429   2
   1  -7 -16 540.391 286.338   4
   1  -7 -16 854.130 312.965   2
   1  -7 -15 1257.34 371.324   2
   1  -7 -15 1271.85 415.192   1
   1  -7 -14 562.278 247.651   1
   1  -7 -14 802.571 298.454   2
   1  -7 -13 1454.48 348.249   2
   1  -7 -13 1816.48 480.721   1
   1  -7 -12 4554.25 720.498   1
   1  -7 -12 6488.38 689.540   2
   1  -7 -11 17998.2 1336.37   1
   1  -7 -11 15366.1 1001.23   2
   1  -7 -10 613.692 296.158   1
   1  -7 -10 722.746 230.523   2
   1  -7  -9 17532.0 967.085   2
   1  -7  -9 19026.4 1270.95   1
   1  -7  -8 2898.64 491.334   1
   1  -7  -8 2465.78 359.339   2
   1  -7  -7-75.5109 215.796   1
   1  -7  -7 465.363 182.423   2
   1  -7  -6 3458.76 492.944   1
   1  -7  -5 6389.30 627.625   1
  -1   7   5 4626.99 314.729   7
  -1   7   4 5103.05 361.876   7
   1  -7  -4 5788.68 581.923   1
  -1   7   3 298.711 116.259   7
   1  -7  -3-7.85285 150.906   1
  -1   7   2 27664.7 985.155   7
   1  -7  -2 28244.3 1198.40   1
   1  -7  -1 62375.5 1770.25   1
   1  -7   0 181.263 180.584   1
  -1   7   0 64.5596 107.895   7
   1  -7   1 26868.3 1209.15   1
  -1   7  -1 25690.1 1139.01   7
   1  -7   2 6034.92 601.973   1
  -1   7  -2 5469.83 572.810   7
  -1   7  -3 6203.87 629.622   7
   1  -7   3 7260.50 666.691   1
  -1   7  -4 10487.5 856.959   7
   1  -7   4 12183.9 889.771   1
  -1   7  -5 918.790 294.835   7
   1  -7   5 1317.66 330.324   1
   1  -7   6 1276.65 319.355   1
  -1   7  -6 996.471 344.875   7
   1  -7   7 16009.1 1118.27   1
  -1   7  -7 17375.5 1268.85   7
  -1   7  -7 16572.6 890.265   2
   1  -7   8-93.6191 231.671   1
  -1   7  -8-413.667 283.159   7
  -1   7  -8-257.322 143.010   2
  -1   7  -9 23331.2 1575.33   7
   1  -7   9 23168.4 1422.20   1
  -1   7  -9 23842.6 1148.10   2
  -1   7 -10 6351.73 626.838   2
  -1   7 -10 6270.93 860.525   7
  -1   7 -11 42738.9 2277.31   7
  -1   7 -11 43356.4 1681.45   2
  -1   7 -12 987.957 282.802   2
  -1   7 -12 450.959 353.808   7
  -1   7 -12 642.187 225.135   4
  -1   7 -13 5053.46 622.911   2
  -1   7 -13 5421.45 615.637   4
  -1   7 -13 3880.61 748.656   7
  -1   7 -14 1503.00 379.198   2
  -1   7 -15 9252.16 916.925   2
  -1   7 -16 416.420 254.345   2
  -1   7 -17 3107.68 584.995   2
  -1   7 -18 843.993 327.177   2
  -1   7 -19 3376.90 655.385   2
   1  -6 -19 4923.03 735.297   2
   1  -6 -18 1356.56 400.340   2
   1  -6 -17 1886.41 445.040   2
   1  -6 -16 4492.38 656.944   2
   1  -6 -16 4806.69 786.593   4
   1  -6 -15-294.933 224.200   2
   1  -6 -14 1.12043 140.643   2
   1  -6 -14-275.882 256.002   1
   1  -6 -13 3703.17 532.512   2
   1  -6 -13 2783.35 558.513   1
   1  -6 -12 1387.06 411.815   1
   1  -6 -12 828.687 259.566   2
   1  -6 -11 126.173 125.659   2
   1  -6 -11 542.379 273.430   1
   1  -6 -10 1966.65 340.760   2
   1  -6 -10 2146.16 450.261   1
   1  -6  -9 376.344 159.447   2
   1  -6  -9 266.184 211.383   1
   1  -6  -8 19083.4 1156.26   1
   1  -6  -8 19534.6 931.101   2
   1  -6  -7 11557.7 855.141   1
   1  -6  -7 12006.7 692.448   2
   1  -6  -6 84824.1 1737.50   2
   1  -6  -6 82704.6 2159.09   1
   1  -6  -5 47930.6 1571.16   1
   1  -6  -4 2578.48 371.439   1
  -1   6   4 2542.11 234.590   7
  -1   6   3 91.5994 78.4647   7
   1  -6  -3 181.466 139.823   1
  -1   6   2 2398.28 265.082   7
   1  -6  -2 2266.00 331.214   1
   1  -6  -1 55638.1 1523.93   1
  -1   6   1 55416.5 1343.25   7
   1  -6   0 55967.6 1551.53   1
   1  -6   1 3831.70 428.685   1
  -1   6  -2 131338. 2475.02   7
   1  -6   2 136355. 2546.13   1
   1  -6   3 63.9436 139.478   1
  -1   6  -3-43.1716 160.521   7
  -1   6  -4 61742.4 1914.27   7
   1  -6   4 68380.1 1914.66   1
  -1   6  -5 24434.9 1272.54   7
   1  -6   5 22725.7 1167.50   1
  -1   6  -5 24277.4 927.642   2
  -1   6  -6 49926.7 1388.37   2
   1  -6   6 53682.7 1832.77   1
  -1   6  -6 49352.6 1911.75   7
  -1   6  -7 58589.6 1568.75   2
  -1   6  -7 57990.1 2169.66   7
  -1   6  -8 20217.5 1341.88   7
  -1   6  -8 21031.7 994.574   4
  -1   6  -8 20193.2 962.761   2
  -1   6  -9 4009.74 643.850   7
  -1   6  -9 3839.81 441.839   4
  -1   6  -9 3785.22 448.513   2
  -1   6 -10 13.8595 88.9755   4
  -1   6 -10-1.40384 218.118   7
  -1   6 -10 130.633 123.263   2
  -1   6 -11 159.568 118.817   4
  -1   6 -11 217.345 159.925   2
  -1   6 -11 198.099 243.149   7
  -1   6 -12 14255.0 973.118   2
  -1   6 -12 15178.2 1362.82   7
  -1   6 -12 14086.4 920.686   4
  -1   6 -13 1.00017 169.265   2
  -1   6 -13 95.3770 249.618   7
  -1   6 -13 78.5967 103.403   4
  -1   6 -14 14383.3 1063.56   2
  -1   6 -14 13920.3 964.498   4
  -1   6 -15 3266.08 482.348   4
  -1   6 -15 3600.69 557.996   2
  -1   6 -16 15554.6 1203.05   2
  -1   6 -17 4089.53 658.959   2
  -1   6 -18 5394.71 771.019   2
  -1   6 -19 205.046 146.760   2
  -1   6 -20-675.988 306.251   2
   1  -5 -19 3656.21 633.332   2
   1  -5 -18 1559.38 425.206   2
   1  -5 -17 5280.47 737.319   2
   1  -5 -17 5453.99 782.303   4
   1  -5 -16 2619.57 499.301   2
   1  -5 -16 3150.29 585.711   4
   1  -5 -15 6347.75 753.699   2
   1  -5 -15 7339.69 903.351   4
   1  -5 -14 17344.9 1356.09   1
   1  -5 -14 16270.8 1133.86   2
   1  -5 -13 319.024 203.885   2
   1  -5 -13 616.364 284.315   1
   1  -5 -12 191.107 167.170   2
   1  -5 -12 127.474 207.171   1
   1  -5 -11 3798.80 576.540   1
   1  -5 -11 2985.76 427.079   2
   1  -5 -10 25.1561 171.599   1
   1  -5 -10-35.6797 131.271   2
   1  -5  -9 17742.5 1115.86   1
   1  -5  -9 16186.4 869.859   2
   1  -5  -8 1965.41 301.369   2
   1  -5  -8 2314.57 403.780   1
   1  -5  -7 90987.1 2273.65   1
   1  -5  -7 94177.4 1827.84   2
   1  -5  -6 221.698 113.678   2
   1  -5  -6 180.570 165.479   1
   1  -5  -5 25177.1 1066.41   1
   1  -5  -4 2459.40 334.773   1
   1  -5  -3 10522.2 623.934   1
   1  -5  -2 23209.9 897.083   1
  -1   5   2 23778.0 713.753   7
   1  -5  -1 1823.08 268.787   1
  -1   5   1 1495.11 202.108   7
   1  -5   0 727.438 194.338   1
  -1   5   0 499.129 136.112   7
   1  -5   1 17673.5 811.570   1
  -1   5  -1 17051.5 770.027   7
   1  -5   2 63334.9 1571.00   1
  -1   5  -3 83.3035 117.010   7
   1  -5   3 2.88820 117.613   1
   1  -5   4 484.806 173.043   1
  -1   5  -4 316.644 105.414   2
  -1   5  -4 187.947 135.426   7
   1  -5   5 41822.6 1444.13   1
  -1   5  -5 39988.4 1507.68   7
  -1   5  -5 42868.7 1142.01   2
  -1   5  -6 33821.6 1111.08   4
  -1   5  -6 32325.0 1046.61   2
  -1   5  -6 33081.1 1458.23   7
  -1   5  -7 18501.1 832.117   2
  -1   5  -7 18886.6 860.566   4
  -1   5  -7 18538.5 1155.38   7
  -1   5  -8 35334.6 1673.30   7
  -1   5  -8 34796.5 1210.61   4
  -1   5  -8 33261.2 1170.18   2
  -1   5  -9 357.102 225.362   7
  -1   5  -9 312.693 144.564   4
  -1   5  -9 177.771 111.963   2
  -1   5 -10 1721.61 298.805   4
  -1   5 -10 1821.32 325.518   2
  -1   5 -10 1435.49 404.420   7
  -1   5 -11 2294.89 355.011   4
  -1   5 -11 2404.42 510.383   7
  -1   5 -11 2452.53 376.387   2
  -1   5 -12 23147.1 1201.48   2
  -1   5 -12 23223.5 1593.94   7
  -1   5 -12 22439.1 1121.17   4
  -1   5 -13 7481.95 976.643   7
  -1   5 -13 8494.10 722.116   4
  -1   5 -13 8683.96 777.084   2
  -1   5 -14 563.248 195.203   4
  -1   5 -14 767.205 265.400   2
  -1   5 -15 208.993 126.358   4
  -1   5 -15 364.099 217.994   2
  -1   5 -16 1610.76 415.194   2
  -1   5 -17 1397.04 399.967   2
  -1   5 -18-88.4622 167.929   2
  -1   5 -19 548.838 292.479   2
  -1   5 -20 3375.67 618.926   2
   1  -4 -20 1750.40 457.615   2
   1  -4 -19 378.849 240.865   2
   1  -4 -18 295.324 224.569   2
   1  -4 -17 9432.84 973.514   2
   1  -4 -17 7802.37 922.410   4
   1  -4 -16-104.691 173.274   2
   1  -4 -16-538.180 273.038   4
   1  -4 -15 17728.6 1362.41   4
   1  -4 -15 15052.1 1121.07   2
   1  -4 -14 28101.7 1459.38   2
   1  -4 -14 27469.0 1655.21   4
   1  -4 -13 292.101 185.487   2
   1  -4 -13 197.628 195.372   1
   1  -4 -12 3240.91 545.940   1
   1  -4 -12 2745.56 434.076   2
   1  -4 -11 5657.71 681.209   1
   1  -4 -11 4838.77 526.586   2
   1  -4 -10 17778.5 1129.11   1
   1  -4 -10 18473.7 959.889   2
   1  -4  -9 5369.79 594.132   1
   1  -4  -9 4572.10 461.475   2
   1  -4  -8 32400.7 1115.91   2
   1  -4  -8 30692.4 1336.35   1
   1  -4  -7 6195.67 457.938   2
   1  -4  -7 5989.68 562.804   1
   1  -4  -6 9416.71 522.278   2
   1  -4  -6 8868.06 639.667   1
   1  -4  -5 9338.42 613.053   1
   1  -4  -5 9527.17 494.999   2
   1  -4  -4 321795. 3318.18   1
   1  -4  -3 31259.5 970.948   1
   1  -4  -2 48768.0 1155.18   1
   1  -4  -1 720.043 163.305   1
   1  -4   0 212194. 2417.72   1
  -1   4   0 202891. 2153.70   7
   1  -4   1 2617.65 285.215   1
  -1   4  -1 2055.78 250.031   7
  -1   4  -2 26338.1 930.906   7
   1  -4   2 27719.9 932.166   1
  -1   4  -3 8781.00 420.186   2
   1  -4   3 9082.53 566.777   1
  -1   4  -4 258915. 2595.52   4
  -1   4  -4 242849. 2373.41   2
  -1   4  -5 410.836 118.842   2
  -1   4  -5 375.188 112.030   4
  -1   4  -6 31788.2 961.487   2
  -1   4  -6 31612.5 990.464   4
  -1   4  -6 31591.3 1324.09   7
  -1   4  -7 8961.40 556.145   4
  -1   4  -7 8456.02 536.385   2
  -1   4  -7 10304.7 815.643   7
   1  -4   8 55884.1 794.488   3
  -1   4  -8 55916.0 1449.07   4
  -1   4  -8 58280.4 1479.95   2
  -1   4  -8 57811.7 2000.79   7
  -1   4  -9 36935.4 1239.01   4
  -1   4  -9 36222.0 1670.58   7
  -1   4  -9 38409.0 1288.27   2
  -1   4 -10 2794.42 503.361   7
  -1   4 -10 2979.87 373.035   4
  -1   4 -10 2902.21 382.778   2
  -1   4 -11 7846.02 626.446   4
  -1   4 -11 7875.25 657.411   2
  -1   4 -11 6704.45 803.378   7
  -1   4 -12 33244.5 1414.61   2
  -1   4 -12 34024.8 1353.61   4
  -1   4 -12 31953.0 1791.74   7
  -1   4 -13 9127.23 726.237   4
  -1   4 -13 9139.11 785.151   2
  -1   4 -13 9508.71 1034.40   7
  -1   4 -14 35923.1 1621.01   2
  -1   4 -14 35863.4 1476.83   4
  -1   4 -15 2194.52 421.500   2
  -1   4 -15 2034.21 374.221   4
  -1   4 -16 5974.02 715.879   2
  -1   4 -17 112.650 148.674   2
  -1   4 -18 11821.1 1099.78   2
  -1   4 -19 7987.53 933.920   2
  -1   4 -20 1925.03 502.556   2
   1  -3 -20 7671.66 926.284   2
   1  -3 -19 902.747 325.206   2
   1  -3 -18 2264.68 483.395   2
   1  -3 -17 642.288 284.284   2
   1  -3 -17 333.693 262.100   4
   1  -3 -16 4527.76 689.396   4
   1  -3 -16 3111.59 544.117   2
   1  -3 -15 5124.58 650.877   2
   1  -3 -15 5169.73 727.529   4
   1  -3 -14 645.235 238.024   4
   1  -3 -14 582.773 245.219   2
   1  -3 -13 191.893 171.820   4
   1  -3 -13 148.521 157.055   2
   1  -3 -12 4439.65 415.011   3
   1  -3 -12 4790.02 548.031   2
   1  -3 -11 102.554 163.664   2
   1  -3 -11 575.399 251.582   1
   1  -3 -10 7961.06 627.348   2
   1  -3 -10 8451.79 768.723   1
   1  -3  -9 20817.7 933.333   2
   1  -3  -9 20131.3 1114.49   1
   1  -3  -8 1501.71 317.049   1
   1  -3  -8 1353.92 244.265   2
   1  -3  -7 6525.65 562.518   1
   1  -3  -7 6899.74 467.126   2
   1  -3  -6 4532.45 349.100   2
   1  -3  -6 4132.70 424.252   1
   1  -3  -5 32331.2 1072.18   1
   1  -3  -5 33546.4 848.265   2
   1  -3  -4 7726.11 487.440   1
   1  -3  -4 6391.93 352.112   2
   1  -3  -3 19525.3 704.905   1
   1  -3  -2 263.709 104.064   1
   1  -3  -1 421908. 2884.41   1
  -1   3   0 128864. 676.081   6
   1  -3   0 116358. 1548.67   1
   1  -3   1 97846.5 1460.67   1
  -1   3  -1 98176.8 1425.44   7
   1  -3   1 99150.4 602.761   6
  -1   3  -2 26355.9 594.017   2
   1  -3   2 26975.4 819.655   1
  -1   3  -3 140177. 1496.39   2
  -1   3  -4 23238.4 707.642   4
  -1   3  -4 22847.3 664.126   2
  -1   3  -5 121.394 75.0398   2
  -1   3  -5 40.4481 57.9549   4
  -1   3  -6 29017.0 886.435   2
  -1   3  -6 30724.9 1218.76   7
  -1   3  -6 27923.4 867.656   4
   1  -3   6 28419.9 581.743   3
   1  -3   7 4161.62 168.104   3
  -1   3  -7 4785.56 524.953   7
  -1   3  -7 4415.37 376.780   2
  -1   3  -7 4658.45 378.809   4
  -1   3  -8 4237.90 387.334   4
  -1   3  -8 4338.64 530.927   7
  -1   3  -8 3814.08 383.270   2
  -1   3  -9 166435. 2536.84   4
  -1   3  -9 167746. 2648.68   2
  -1   3 -10 24105.5 1356.45   7
  -1   3 -10 24512.1 1033.90   4
  -1   3 -10 22848.5 1041.37   2
  -1   3 -11 59.5228 91.8678   4
  -1   3 -11-90.3284 115.169   2
  -1   3 -11-199.014 204.692   7
  -1   3 -12 9527.78 704.972   4
  -1   3 -12 9213.69 744.342   2
  -1   3 -12 9092.69 924.505   7
  -1   3 -13 570.173 245.324   2
  -1   3 -13 368.571 173.751   4
  -1   3 -14 14072.2 1009.83   2
  -1   3 -14 13365.0 893.443   4
  -1   3 -15 4972.84 636.072   2
  -1   3 -16 1758.71 403.745   2
  -1   3 -17 2707.20 506.324   2
  -1   3 -18 1100.42 363.940   2
  -1   3 -19 1367.23 403.277   2
  -1   3 -20 1478.24 436.345   2
   1  -2 -20 1310.73 402.628   2
   1  -2 -19 559.176 261.207   2
   1  -2 -18 4419.91 670.193   2
   1  -2 -17 3330.30 576.708   2
   1  -2 -17 4187.12 659.673   4
   1  -2 -16-157.782 172.500   4
   1  -2 -16 166.672 183.688   2
   1  -2 -15 3143.22 513.243   2
   1  -2 -15 3651.23 591.813   4
   1  -2 -14 3779.37 536.045   2
   1  -2 -14 3987.63 599.610   4
   1  -2 -13 34.3296 160.489   2
   1  -2 -13 372.883 231.802   4
   1  -2 -12 27236.5 1269.24   2
   1  -2 -12 27398.5 1437.22   4
   1  -2 -11 1675.64 317.558   2
   1  -2 -11 1543.14 221.839   3
   1  -2 -11 1370.43 326.678   4
   1  -2 -10 44211.6 1682.29   1
   1  -2 -10 46928.9 1479.23   2
   1  -2  -9 3350.65 382.892   2
   1  -2  -9 3257.09 443.451   1
   1  -2  -8 8429.22 670.079   1
   1  -2  -8 9106.80 573.684   2
   1  -2  -7 496.129 187.079   1
   1  -2  -7 815.722 177.020   2
   1  -2  -6 50687.1 1396.84   1
   1  -2  -6 48502.5 1107.10   2
   1  -2  -5 2545.14 237.008   2
   1  -2  -5 2510.57 302.228   1
   1  -2  -4 3428.87 314.447   1
   1  -2  -4 3499.10 242.269   2
   1  -2  -3 25147.4 559.767   2
   1  -2  -3 24873.3 747.585   1
   1  -2  -1 441658. 2466.53   1
   1  -2   0 453.092 83.2297   1
   1  -2   1 860.413 116.665   1
  -1   2  -1 894.642 80.3701   2
  -1   2  -2 55931.5 733.761   2
  -1   2  -3 38526.3 713.270   4
  -1   2  -3 38740.9 725.761   2
  -1   2  -4 10614.7 412.559   4
   1  -2   4 11132.9 336.827   3
  -1   2  -4 10513.2 436.574   2
  -1   2  -5 9380.02 455.782   2
  -1   2  -5 8961.11 580.178   7
   1  -2   5 9925.12 289.546   3
  -1   2  -5 9581.53 435.399   4
  -1   2  -6 83019.4 1488.29   2
  -1   2  -6 83570.4 1876.73   7
  -1   2  -6 82291.1 1380.58   4
  -1   2  -7 785.432 229.860   7
  -1   2  -7 633.361 144.870   4
  -1   2  -7 906.308 183.153   2
  -1   2  -8 37171.9 1157.84   2
  -1   2  -8 36296.5 1075.36   4
  -1   2  -8 35093.8 1392.13   7
  -1   2  -9 10451.1 665.028   2
  -1   2  -9 9933.92 785.339   7
  -1   2  -9 9819.27 600.517   4
  -1   2 -10 59147.4 1553.39   4
  -1   2 -10 58751.6 1663.66   2
  -1   2 -10 61588.3 2064.42   7
  -1   2 -11 87142.8 2594.57   7
  -1   2 -11 86460.7 1987.60   4
  -1   2 -11 85164.5 2126.93   2
  -1   2 -12-204.057 126.093   4
  -1   2 -12 100.893 181.348   7
  -1   2 -12 104.658 149.531   2
  -1   2 -13 6255.41 583.731   4
  -1   2 -13 7794.76 724.695   2
  -1   2 -14 9276.89 827.487   2
  -1   2 -14 8933.19 726.640   4
  -1   2 -15 52.0632 176.888   2
  -1   2 -16 7840.70 837.246   2
  -1   2 -17 1096.71 367.581   2
  -1   2 -18 1053.46 340.253   2
  -1   2 -19 477.097 264.625   2
  -1   2 -20 4756.97 751.654   2
   1  -1 -20-18.3479 110.131   2
   1  -1 -19 1531.98 421.801   2
   1  -1 -18 7724.09 881.356   2
   1  -1 -17 7324.29 851.580   4
   1  -1 -17 6434.28 774.167   2
   1  -1 -16 1681.11 420.868   4
   1  -1 -16 1282.65 356.169   2
   1  -1 -15 17235.5 1164.33   2
   1  -1 -15 16731.2 1223.55   4
   1  -1 -14 3918.94 548.867   2
   1  -1 -14 3814.99 587.008   4
   1  -1 -13 1185.08 331.107   4
   1  -1 -13 1015.21 279.100   2
   1  -1 -12 14989.6 945.866   2
   1  -1 -12 17477.9 1123.52   4
   1  -1 -11 94.2245 182.313   4
   1  -1 -11 65.0300 151.302   2
   1  -1 -11 111.116 56.7952   3
   1  -1 -10 4234.11 291.515   3
   1  -1 -10 4704.80 541.240   4
   1  -1 -10 4307.26 462.170   2
   1  -1  -9 7358.61 643.608   4
   1  -1  -9 8516.88 594.934   2
   1  -1  -9 7705.16 403.345   3
   1  -1  -8 14422.9 714.335   2
   1  -1  -8 15300.9 552.285   3
   1  -1  -8 13569.8 820.020   4
   1  -1  -7 118410. 1874.25   2
   1  -1  -7 117055. 2256.19   1
   1  -1  -7 117400. 1501.41   3
   1  -1  -6 51248.1 1380.85   1
   1  -1  -6 53122.8 1149.07   2
   1  -1  -5 47042.2 977.638   2
   1  -1  -5 49636.5 1248.78   1
   1  -1  -4 5787.42 390.540   1
   1  -1  -4 5726.83 305.875   2
   1  -1  -3 2096.43 159.093   2
   1  -1  -3 2158.59 217.851   1
   1  -1  -2 127469. 1387.78   1
   1  -1  -2 127050. 966.671   2
   1  -1  -1 48869.7 404.796   2
   1  -1  -1 49522.2 709.516   1
   1  -1   0 52209.7 576.111   1
   1  -1   1 56789.0 760.512   3
   1  -1   1 59217.3 633.455   1
  -1   1  -1 57520.3 510.213   2
  -1   1  -2 1265.91 81.7168   4
  -1   1  -2 1215.48 105.643   2
   1  -1   2 1047.76 105.203   3
  -1   1  -3 4419.32 291.994   7
  -1   1  -3 4227.91 235.207   2
   1  -1   3 4196.59 190.622   3
  -1   1  -3 4279.93 191.113   4
  -1   1  -4 11705.3 379.491   4
   1  -1   4 11888.9 298.185   3
  -1   1  -4 11053.0 526.891   7
  -1   1  -4 11679.3 452.650   2
  -1   1  -5 89007.9 1217.94   4
  -1   1  -5 91159.5 1402.98   2
  -1   1  -6 3999.89 295.695   4
  -1   1  -6 4302.10 345.474   2
  -1   1  -6 4470.11 415.063   7
  -1   1  -7 24303.6 792.624   4
  -1   1  -7 23211.0 851.671   2
  -1   1  -7 25176.8 1041.52   7
  -1   1  -8 29632.5 952.979   4
  -1   1  -8 31154.9 1234.15   7
  -1   1  -8 29175.3 1030.26   2
  -1   1  -9 4892.99 416.411   4
  -1   1  -9 4646.76 446.076   2
  -1   1  -9 4367.79 495.807   7
  -1   1 -10 1283.35 239.694   4
  -1   1 -10 1392.95 284.481   2
  -1   1 -10 1647.25 361.124   7
  -1   1 -11 28912.6 1139.55   4
  -1   1 -11 30215.6 1276.96   2
  -1   1 -11 30134.3 1464.21   7
  -1   1 -12 716.617 254.962   2
  -1   1 -12 368.754 148.191   4
  -1   1 -13 7347.09 710.083   2
  -1   1 -13 6619.35 602.981   4
  -1   1 -14 5592.07 572.365   4
  -1   1 -14 6089.01 678.367   2
  -1   1 -15 1884.14 413.901   2
  -1   1 -16 20275.0 1319.28   2
  -1   1 -17 15022.7 1187.40   2
  -1   1 -18 160.965 182.023   2
  -1   1 -19 10456.3 1067.75   2
  -1   1 -20 640.559 299.094   2
   1   0 -21 1661.22 448.602   2
   1   0 -20 811.898 308.913   2
   1   0 -19 255.572 189.759   2
   1   0 -18 13282.6 1148.40   2
   1   0 -17 62.4759 218.503   4
   1   0 -17 559.312 266.651   2
   1   0 -16 2519.67 482.640   4
   1   0 -16 2804.86 497.961   2
   1   0 -15 1204.73 347.924   2
   1   0 -15 1080.08 316.505   4
   1   0 -14 727.361 286.338   4
   1   0 -14 565.338 219.240   2
   1   0 -13 1037.06 285.398   2
   1   0 -13 824.038 289.654   4
   1   0 -12 4319.93 506.718   2
   1   0 -12 5480.50 627.925   4
   1   0 -11 429.994 187.089   2
   1   0 -11 490.125 201.372   4
   1   0 -10 772.266 230.573   4
   1   0 -10 1648.46 294.072   2
   1   0  -9 2874.97 172.513   3
   1   0  -9 2619.02 338.525   2
   1   0  -9 2597.55 372.255   4
   1   0  -8 118703. 1212.93   3
   1   0  -8 113582. 2302.74   4
   1   0  -7 1722.58 231.656   2
   1   0  -7 1807.01 154.893   3
   1   0  -7 1645.08 270.399   4
   1   0  -6 13489.4 579.752   2
   1   0  -6 13957.0 431.105   3
   1   0  -6 13783.9 707.860   4
   1   0  -5 5136.34 187.746   5
   1   0  -5 4955.92 253.590   3
   1   0  -5 5168.28 330.479   2
   1   0  -5 4867.55 398.228   4
   1   0  -4 205277. 1280.98   5
   1   0  -4 206767. 2329.22   4
   1   0  -4 201863. 1818.01   2
   1   0  -4 200782. 1589.57   3
   1   0  -3 8946.44 328.827   2
   1   0  -3 9182.05 285.264   5
   1   0  -3 9654.74 452.004   4
   1   0  -3 9276.43 327.448   3
   1   0  -2 119.087 42.6061   2
   1   0  -2 197.640 68.6514   4
   1   0  -2 107.885 44.3919   3
   1   0  -1 1083.94 112.352   4
   1   0  -1 942.873 103.253   3
   1   0  -1 1035.37 75.5507   2
   1   0   0 102188. 808.810   4
   1   0   0 101290. 1021.95   3
   1   0   1 222213. 1532.35   3
   1   0   2 38588.7 589.339   5
  -1   0  -2 38042.9 590.331   7
  -1   0  -2 38181.4 593.333   2
   1   0   2 39148.2 655.284   3
   1   0   3 47505.0 636.911   5
   1   0   3 49912.1 771.275   3
  -1   0  -3 48202.9 787.939   2
  -1   0  -3 48699.6 818.382   7
   1   0   4 61709.2 658.602   5
  -1   0  -4 59111.6 1075.55   7
  -1   0  -4 60959.0 1017.92   2
  -1   0  -5 1722.37 180.522   4
  -1   0  -5 1310.21 194.834   7
  -1   0  -5 1443.95 184.694   2
  -1   0  -6 32243.3 911.555   2
  -1   0  -6 33660.9 887.251   4
  -1   0  -7 4765.42 385.303   2
  -1   0  -7 5667.82 467.518   7
  -1   0  -7 4633.35 360.046   4
  -1   0  -8 29761.0 1037.69   2
  -1   0  -8 30593.4 998.707   4
  -1   0  -8 31893.0 1181.90   7
  -1   0  -9 6919.35 541.465   2
  -1   0  -9 7181.76 514.966   4
  -1   0  -9 6834.86 592.449   7
  -1   0 -10 14956.6 840.604   2
  -1   0 -10 15057.9 794.702   4
  -1   0 -11 146213. 2602.53   4
  -1   0 -11 148289. 2829.20   2
  -1   0 -12 1761.58 298.620   4
  -1   0 -12 2638.01 430.351   2
  -1   0 -13 16252.7 947.832   4
  -1   0 -13 14979.7 1001.90   2
  -1   0 -14-138.960 120.763   4
  -1   0 -14-230.848 182.736   2
  -1   0 -15 6668.07 743.701   2
  -1   0 -16 1225.26 355.202   2
  -1   0 -17 724.447 310.641   2
  -1   0 -18 1811.45 449.462   2
  -1   0 -19 697.380 294.875   2
  -1   0 -20 414.677 250.634   2
   1   1 -21 1727.93 450.526   2
   1   1 -20 70.2254 104.832   2
   1   1 -19 567.852 274.066   2
   1   1 -18 715.397 263.072   4
   1   1 -18 517.238 278.252   2
   1   1 -17 12248.2 1064.64   2
   1   1 -17 12138.8 1091.12   4
   1   1 -16 5271.19 699.861   4
   1   1 -16 5778.91 709.460   2
   1   1 -15 7942.24 793.818   2
   1   1 -15 8305.94 856.133   4
   1   1 -14 7312.53 768.543   4
   1   1 -14 6883.53 700.408   2
   1   1 -13 11030.0 904.635   4
   1   1 -13 8697.61 755.191   2
   1   1 -12 21993.7 1130.66   2
   1   1 -12 22370.3 1234.34   4
   1   1 -11 18800.7 981.901   2
   1   1 -11 18473.5 1075.97   4
   1   1 -10 2247.96 373.148   4
   1   1 -10 1897.67 312.820   2
   1   1  -9 54475.4 1669.82   4
   1   1  -9 56987.3 1511.81   2
   1   1  -8 2367.95 129.397   5
   1   1  -8 2537.04 348.279   4
   1   1  -8 2871.45 322.982   2
   1   1  -7 42495.2 1129.12   2
   1   1  -7 40821.2 1280.74   4
   1   1  -7 38775.1 602.260   3
   1   1  -6 11077.3 348.894   3
   1   1  -6 11276.9 389.063   5
   1   1  -6 11458.6 637.044   4
   1   1  -6 10956.6 530.220   2
   1   1  -5 431409. 3010.25   2
   1   1  -5 453791. 2321.13   3
   1   1  -5 454957. 2604.92   5
   1   1  -5 435957. 3659.23   4
   1   1  -4 617.940 111.191   5
   1   1  -4 911.681 130.233   2
   1   1  -4 805.392 105.016   3
   1   1  -4 1071.72 176.529   4
   1   1  -3 66309.8 959.924   2
   1   1  -3 63347.5 907.735   3
   1   1  -2 38159.9 806.141   4
   1   1  -2 39572.6 678.070   2
   1   1  -1 13187.1 419.564   4
   1   1  -1 12888.2 430.151   3
   1   1   0 46957.3 852.662   3
   1   1   0 46362.9 682.610   4
   1   1   1 239078. 1995.13   3
  -1  -1  -1 228760. 1292.91   1
   1   1   2 33409.1 760.997   3
  -1  -1  -2 31927.5 520.648   1
  -1  -1  -3 200421. 1329.45   7
  -1  -1  -3 194002. 1630.15   1
  -1  -1  -4 11324.8 405.162   7
   1   1   4 10552.0 398.038   5
  -1  -1  -4 11609.2 465.480   2
  -1  -1  -4 11432.4 460.722   1
  -1  -1  -5 113281. 1591.22   2
  -1  -1  -5 115372. 1539.03   7
  -1  -1  -5 111481. 1630.72   1
   1   1   6 22149.6 522.162   5
  -1  -1  -6 22163.0 773.755   2
  -1  -1  -6 21065.5 788.113   1
  -1  -1  -6 22057.5 754.022   7
   1   1   7 3983.26 187.565   5
  -1  -1  -7 3793.70 354.903   7
  -1  -1  -7 3866.42 380.840   1
  -1  -1  -7 3855.51 357.197   2
  -1  -1  -8 5991.40 478.036   2
  -1  -1  -9-18.7192 83.7598   4
  -1  -1  -9 13.2724 126.128   2
  -1  -1 -10 8237.22 614.447   4
  -1  -1 -10 9441.25 678.432   2
  -1  -1 -11 32966.1 1339.70   2
  -1  -1 -11 34222.1 1322.67   4
  -1  -1 -12 185.555 169.977   2
  -1  -1 -12-40.5204 85.4380   4
  -1  -1 -13 2144.28 410.687   2
  -1  -1 -13 1853.92 343.885   4
  -1  -1 -14 1173.00 271.661   4
  -1  -1 -14 1179.67 305.416   2
  -1  -1 -15 8553.73 846.700   2
  -1  -1 -16 701.634 265.142   2
  -1  -1 -17 5783.72 764.863   2
  -1  -1 -18 837.158 311.962   2
  -1  -1 -19 1284.09 396.453   2
  -1  -1 -20 287.710 244.141   2
   1   2 -21 4890.04 767.260   2
   1   2 -20 1091.16 365.366   2
   1   2 -19 10852.3 1068.58   2
   1   2 -18 465.627 272.228   2
   1   2 -18 238.787 191.549   4
   1   2 -17 8307.63 871.400   2
   1   2 -17 7172.86 836.817   4
   1   2 -16 7657.22 811.431   2
   1   2 -16 8336.52 885.775   4
   1   2 -15 815.591 278.093   2
   1   2 -15 505.377 232.799   4
   1   2 -14 5137.91 614.424   2
   1   2 -14 5004.26 648.622   4
   1   2 -13 136.295 147.355   2
   1   2 -13 272.491 194.461   4
   1   2 -12 332.217 183.163   4
   1   2 -12 785.932 237.392   2
   1   2 -11 28778.7 1352.29   4
   1   2 -11 28017.5 1212.06   2
   1   2 -10 31.6296 31.6901   5
   1   2 -10-96.7348 123.114   2
   1   2 -10 31.0528 123.244   4
   1   2  -9 152.935 131.709   4
   1   2  -9 152.570 56.0887   5
   1   2  -9 45.8841 106.192   2
   1   2  -8 168.935 113.889   2
   1   2  -8 206.024 112.973   4
   1   2  -8 151.438 67.7641   5
   1   2  -7 16431.3 825.951   4
   1   2  -7 17428.5 626.222   5
   1   2  -7 18092.4 751.383   2
   1   2  -6 189247. 2264.53   2
   1   2  -6 189409. 2632.07   4
   1   2  -5 4920.47 341.293   2
   1   2  -5 4706.61 278.280   3
   1   2  -5 4546.41 387.324   4
   1   2  -4 82700.9 1199.47   3
   1   2  -4 81542.5 1517.15   4
   1   2  -4 84508.6 1314.56   2
   1   2  -3 27824.6 828.710   4
   1   2  -3 28920.4 739.926   3
   1   2  -2 278115. 2128.19   2
   1   2  -2 272757. 2411.50   4
   1   2  -1 13203.9 491.331   4
   1   2  -1 12647.6 520.183   3
   1   2   0 193.903 63.2935   4
   1   2   0 190.280 47.2840   6
   1   2   0 88.7592 54.5021   3
  -1  -2   0 235.271 80.2683   1
  -1  -2  -1 49804.5 851.975   1
  -1  -2  -2 185.987 62.2610   1
  -1  -2  -3 261.999 86.1926   1
  -1  -2  -4 102807. 1463.18   1
  -1  -2  -5 25464.2 821.220   1
  -1  -2  -5 26338.6 818.149   2
   1   2   6 53.0520 58.0287   5
  -1  -2  -6 194.804 110.738   2
  -1  -2  -6 173.514 107.718   1
  -1  -2  -7 17973.3 775.163   2
  -1  -2  -7 17676.0 814.296   1
   1   2   7 17410.4 592.614   5
  -1  -2  -8 1833.51 297.391   1
   1   2   8 1918.13 185.299   5
  -1  -2  -8 2150.29 295.634   2
  -1  -2  -9 53371.8 1523.06   2
  -1  -2  -9 51256.4 1583.97   1
   1   2   9 51928.2 735.324   5
  -1  -2 -10 12248.5 784.409   2
  -1  -2 -11 3480.28 436.464   4
  -1  -2 -11 3921.63 475.024   2
  -1  -2 -12 307.634 146.868   4
  -1  -2 -12 105.888 150.532   2
  -1  -2 -13 24286.1 1300.35   2
  -1  -2 -13 23038.2 1217.61   4
  -1  -2 -14 437.657 207.430   4
  -1  -2 -14 370.960 217.606   2
  -1  -2 -15 197.826 241.825   2
  -1  -2 -16 141.425 222.972   2
  -1  -2 -17 3034.88 556.481   2
  -1  -2 -18-210.223 196.749   2
  -1  -2 -19 687.328 320.046   2
  -1  -2 -20 1065.00 401.029   2
   1   3 -20 268.585 216.531   2
   1   3 -19-1.48276 131.688   2
   1   3 -18 964.579 323.364   4
   1   3 -18 464.026 311.290   2
   1   3 -17 455.476 219.046   4
   1   3 -17 286.106 232.343   2
   1   3 -16 1272.72 352.604   2
   1   3 -16 2001.61 432.332   4
   1   3 -15 8537.22 873.982   4
   1   3 -15 7614.00 780.848   2
   1   3 -14 1397.88 338.466   2
   1   3 -14 1966.24 409.097   4
   1   3 -13 21655.3 1190.21   2
   1   3 -13 23772.3 1353.73   4
   1   3 -12 1509.63 323.060   2
   1   3 -12 1267.52 323.843   4
   1   3 -11 18755.9 1108.69   4
   1   3 -11 17081.0 957.862   2
   1   3 -10 3904.37 317.303   5
   1   3 -10 3485.27 414.661   2
   1   3 -10 3480.12 465.132   4
   1   3  -9 4738.68 513.991   4
   1   3  -9 4885.89 465.273   2
   1   3  -9 4897.85 382.006   5
   1   3  -8 1450.62 281.656   4
   1   3  -8 1176.77 228.334   2
   1   3  -7 12498.5 654.981   2
   1   3  -7 13358.4 770.959   4
   1   3  -6 20824.4 798.784   2
   1   3  -6 20736.4 914.621   4
   1   3  -5 63154.5 1507.56   4
   1   3  -5 63795.9 1333.23   2
   1   3  -4 15277.5 617.945   2
   1   3  -4 15786.0 713.046   4
   1   3  -3 328085. 3033.62   4
   1   3  -3 334284. 2740.58   2
   1   3  -2 46325.2 1194.13   7
   1   3  -2 44411.3 1058.76   4
   1   3  -1 372817. 3049.10   7
   1   3  -1 376784. 2915.33   4
  -1  -3   1 370928. 3162.06   1
   1   3   0 180342. 1410.91   6
  -1  -3   0 186748. 2132.20   1
  -1  -3  -1 135511. 1741.94   1
  -1  -3  -2 19207.0 634.316   1
  -1  -3  -3 59677.0 1136.52   1
  -1  -3  -4 1202.26 185.104   1
  -1  -3  -5 285.103 107.806   1
  -1  -3  -6 6219.83 451.003   2
  -1  -3  -6 5504.26 445.735   1
  -1  -3  -7 69479.5 1685.11   1
  -1  -3  -7 77530.8 1663.13   2
  -1  -3  -8 1527.16 271.088   1
   1   3   8 1726.29 227.991   5
  -1  -3  -8 1634.11 271.781   2
   1   3   9 39640.7 1001.36   5
  -1  -3  -9 40123.2 1367.88   2
  -1  -3  -9 38507.3 1425.12   1
  -1  -3 -10 25582.6 1227.38   1
  -1  -3 -10 23810.8 1122.77   2
  -1  -3 -11 1554.95 329.237   1
  -1  -3 -11 1595.70 332.221   2
  -1  -3 -12 221.178 134.587   2
  -1  -3 -13 5723.26 661.453   2
  -1  -3 -13 4871.51 602.757   4
  -1  -3 -14 588.120 228.019   4
  -1  -3 -14 715.688 275.690   2
  -1  -3 -15 836.821 309.036   2
  -1  -3 -16 2751.72 536.518   2
  -1  -3 -17 126.192 206.940   2
  -1  -3 -18-379.404 236.836   2
  -1  -3 -19 822.228 318.038   2
   1   4 -20-202.446 204.659   2
   1   4 -19 3043.29 579.623   2
   1   4 -18 471.731 247.168   2
   1   4 -18 142.154 253.915   4
   1   4 -17 6238.28 782.992   2
   1   4 -17 6027.25 778.224   4
   1   4 -16 3.88766 105.716   4
   1   4 -16-112.939 175.262   2
   1   4 -15 9213.88 920.500   4
   1   4 -15 9362.77 881.562   2
   1   4 -14 1188.90 332.851   2
   1   4 -14 1001.31 337.455   4
   1   4 -13 19090.6 1232.93   4
   1   4 -13 17221.4 1087.69   2
   1   4 -12 19759.4 1214.00   4
   1   4 -12 19565.7 1112.25   2
   1   4 -11 11756.3 632.849   5
   1   4 -11 12098.5 836.679   2
   1   4 -11 12582.6 931.510   4
   1   4 -10 6012.35 622.108   4
   1   4 -10 6871.34 605.679   2
   1   4  -9 46488.4 1466.31   2
   1   4  -9 45922.5 1629.47   4
   1   4  -8 3395.07 386.890   2
   1   4  -8 4262.75 481.014   4
   1   4  -7 5424.77 610.788   7
   1   4  -7 5210.09 504.893   4
   1   4  -7 5253.52 457.580   2
   1   4  -6 32899.2 1201.71   4
   1   4  -6 33450.0 1086.82   2
   1   4  -6 33200.5 1413.39   7
   1   4  -5 22444.7 853.640   2
   1   4  -5 21583.8 930.348   4
   1   4  -5 22847.8 1108.20   7
   1   4  -4 22471.5 895.588   4
   1   4  -4 23495.2 834.899   2
   1   4  -3 19015.7 794.554   4
   1   4  -2 73356.3 1644.87   7
  -1  -4   2 75897.4 1688.00   1
  -1  -4   1 3008.02 330.727   1
   1   4  -1 2846.37 303.999   7
   1   4   0-11.9648 34.0739   6
  -1  -4   0 124.892 114.693   1
   1   4   0-9.48246 67.8557   7
  -1  -4  -1 14339.2 656.927   1
   1   4   1 13469.7 447.559   6
  -1  -4  -2 60720.7 1307.67   1
  -1  -4  -3 749.322 156.488   1
  -1  -4  -4 14234.4 657.760   1
  -1  -4  -5 79.5825 96.4766   1
  -1  -4  -6 7992.09 566.928   1
  -1  -4  -7 24599.4 1055.22   1
  -1  -4  -7 25737.3 1013.15   2
  -1  -4  -8 27621.1 1183.86   1
  -1  -4  -8 29321.8 1129.22   2
  -1  -4  -9 10745.8 782.041   1
  -1  -4  -9 9407.38 688.900   2
  -1  -4 -10 5716.97 570.827   2
  -1  -4 -10 5318.38 585.751   1
  -1  -4 -11 597.703 233.023   2
  -1  -4 -11 462.275 210.210   1
  -1  -4 -12 8427.19 811.736   1
  -1  -4 -12 7964.78 736.657   2
  -1  -4 -13 5854.31 662.217   2
  -1  -4 -14 2075.61 409.782   4
  -1  -4 -14 1220.90 350.122   2
  -1  -4 -15 3233.78 546.269   2
  -1  -4 -16 614.633 268.517   2
  -1  -4 -17 5335.39 741.189   2
  -1  -4 -18 3478.23 643.361   2
  -1  -4 -19 297.481 219.648   2
   1   5 -20 1674.51 492.132   2
   1   5 -19 3179.80 627.058   2
   1   5 -18 8211.82 962.097   2
   1   5 -18 8051.08 904.918   4
   1   5 -17 3855.39 634.100   2
   1   5 -17 3317.80 591.904   4
   1   5 -16 857.258 317.001   2
   1   5 -16 170.964 185.593   4
   1   5 -15 24671.6 1465.18   2
   1   5 -15 24522.2 1504.70   4
   1   5 -14 28864.9 1516.80   2
   1   5 -14 29731.4 1608.57   4
   1   5 -13 2588.65 452.682   2
   1   5 -13 1937.39 404.658   4
   1   5 -12 582.809 228.357   2
   1   5 -12 905.052 282.831   4
   1   5 -11 1271.95 302.191   2
   1   5 -11 1298.21 316.914   4
   1   5 -10 2265.76 404.439   4
   1   5 -10 2355.29 386.489   2
   1   5  -9 880.552 235.732   2
   1   5  -9 992.879 268.812   4
   1   5  -8 2829.39 411.236   4
   1   5  -8 2243.04 344.306   2
   1   5  -7 2321.54 356.526   4
   1   5  -7 1709.58 292.852   2
   1   5  -7 1885.52 411.054   7
   1   5  -6 17624.4 1096.60   7
   1   5  -6 17163.1 839.517   2
   1   5  -6 16074.1 875.889   4
   1   5  -5 51582.3 1772.40   7
   1   5  -5 48756.6 1462.18   4
   1   5  -4 551.784 155.107   4
   1   5  -4 414.976 186.086   7
   1   5  -3 50907.1 1391.28   4
  -1  -5   3 50308.2 1577.91   1
  -1  -5   2 994.420 241.744   1
   1   5  -1 32227.8 1085.64   7
  -1  -5   1 32564.0 1180.32   1
   1   5   0 6519.96 451.018   7
  -1  -5   0 6800.46 522.916   1
   1   5   1 821.222 113.753   6
  -1  -5  -1 931.120 198.852   1
  -1  -5  -2 41.7441 92.2967   1
  -1  -5  -3 802.718 187.306   1
  -1  -5  -4 7482.54 531.055   1
  -1  -5  -5 47852.8 1395.00   1
  -1  -5  -6 2020.64 313.715   1
  -1  -5  -7 25423.6 1136.15   1
  -1  -5  -8 636.972 225.456   1
  -1  -5  -8 255.600 130.716   2
  -1  -5  -9 12569.9 821.434   2
  -1  -5  -9 14443.6 954.321   1
  -1  -5 -10 205.636 192.103   1
  -1  -5 -10-52.9311 139.071   2
  -1  -5 -11 6040.17 644.302   2
  -1  -5 -11 5155.89 644.519   1
  -1  -5 -12 967.936 275.941   2
  -1  -5 -12 707.003 277.549   1
  -1  -5 -13 517.840 220.790   1
  -1  -5 -13 587.805 247.151   2
  -1  -5 -14 5441.83 691.713   2
  -1  -5 -15 368.669 242.992   2
  -1  -5 -16-91.5171 176.692   2
  -1  -5 -17 498.903 274.099   2
  -1  -5 -18-1.57733 152.498   2
   1   6 -19 9236.07 1049.52   2
   1   6 -18 122.255 144.057   4
   1   6 -18 370.287 230.682   2
   1   6 -17 2291.57 482.301   4
   1   6 -17 2419.58 517.583   2
   1   6 -16 374.102 222.473   2
   1   6 -16 654.559 275.915   4
   1   6 -15 21434.4 1393.22   2
   1   6 -15 19836.9 1361.10   4
   1   6 -14 1001.53 328.478   4
   1   6 -14 1917.88 426.254   2
   1   6 -13 10426.1 934.994   4
   1   6 -13 8916.36 844.413   2
   1   6 -12 419.665 213.384   2
   1   6 -12 515.484 255.452   4
   1   6 -11 6006.79 672.322   4
   1   6 -11 6146.94 652.347   2
   1   6 -10 27212.1 1370.17   4
   1   6 -10 27623.6 1300.08   2
   1   6  -9 49764.9 1684.91   2
   1   6  -9 46460.8 1729.07   4
   1   6  -8 3579.25 473.696   4
   1   6  -8 2775.30 394.074   2
   1   6  -7 1151.72 279.007   4
   1   6  -7 1409.64 357.676   7
   1   6  -6 1358.98 278.446   4
   1   6  -6 1374.25 345.199   7
   1   6  -5 15878.4 894.729   4
   1   6  -5 16294.1 1064.72   7
   1   6  -4 6110.41 535.028   4
  -1  -6   4 6162.65 630.587   1
   1   6  -4 6606.94 645.848   7
   1   6  -3 12098.6 825.589   7
  -1  -6   3 11707.5 828.120   1
  -1  -6   2 1107.45 275.387   1
   1   6  -2 1269.10 267.312   7
  -1  -6   1-50.4620 116.877   1
  -1  -6   0 127411. 2470.80   1
  -1  -6  -1 914.067 224.975   1
   1   6   1 1058.56 131.182   6
  -1  -6  -2 2712.97 352.651   1
   1   6   2 2398.29 224.892   6
  -1  -6  -3 46002.0 1421.26   1
  -1  -6  -4 45008.2 1430.12   1
  -1  -6  -5 52.9061 103.663   1
  -1  -6  -6 9120.17 697.729   1
  -1  -6  -7 1804.79 340.708   1
  -1  -6  -8 14183.4 954.389   1
  -1  -6  -8 15515.4 916.879   2
  -1  -6  -9 4168.23 551.146   1
  -1  -6  -9 4065.13 507.889   2
  -1  -6 -10 4169.79 575.598   1
  -1  -6 -10 4090.11 530.121   2
  -1  -6 -11-137.807 176.072   2
  -1  -6 -11 18.0214 160.114   1
  -1  -6 -12 7831.76 840.231   1
  -1  -6 -12 6186.35 698.552   2
  -1  -6 -13 5853.89 705.579   2
  -1  -6 -13 5144.74 707.502   1
  -1  -6 -14 11050.4 1060.82   1
  -1  -6 -14 11109.8 1011.70   2
  -1  -6 -15 1101.87 351.071   2
  -1  -6 -16 1178.00 415.246   2
  -1  -6 -17 308.851 239.344   2
  -1  -6 -18 1196.46 403.110   2
   1   7 -19 205.691 190.681   2
   1   7 -18 9327.81 1045.79   2
   1   7 -17 5107.53 766.281   2
   1   7 -17 4510.26 679.572   4
   1   7 -16 17398.0 1308.60   4
   1   7 -16 16624.5 1312.95   2
   1   7 -15 991.782 352.650   4
   1   7 -15 901.865 328.397   2
   1   7 -14-89.3011 160.731   4
   1   7 -14 26.1158 148.056   2
   1   7 -13 2491.40 469.482   2
   1   7 -13 2952.24 527.472   4
   1   7 -12 6099.49 709.591   4
   1   7 -12 6737.63 734.233   2
   1   7 -11 85.7987 130.088   4
   1   7 -11-14.0166 129.995   2
   1   7 -10 17602.8 1135.48   4
   1   7 -10 15652.7 1031.29   2
   1   7  -9-59.4935 121.575   4
   1   7  -8 16731.4 1045.75   4
   1   7  -7 4166.92 637.084   7
   1   7  -7 3674.54 499.013   4
  -1  -7   6 52387.6 2059.72   1
   1   7  -6 50583.7 1717.06   4
   1   7  -6 50892.3 2074.20   7
   1   7  -5 486.434 223.208   7
  -1  -7   5 327.989 231.288   1
  -1  -7   4 119.544 172.988   1
   1   7  -4-79.6214 201.692   7
  -1  -7   3 16421.0 1056.08   1
   1   7  -3 14816.7 979.127   7
  -1  -7   2 48828.0 1750.13   1
   1   7  -2 50537.6 1689.04   7
  -1  -7   1 39389.5 1530.19   1
   1   7  -1 37324.4 1365.93   7
  -1  -7   0 8108.36 690.524   1
   1   7   1 243.738 64.6270   6
  -1  -7  -1 73.5450 126.180   1
   1   7   2 2143.77 205.514   6
  -1  -7  -2 2404.12 371.898   1
   1   7   3 138.001 80.7203   6
  -1  -7  -3 126.750 136.801   1
  -1  -7  -4 5843.55 574.405   1
  -1  -7  -5 4279.94 504.157   1
  -1  -7  -6 8225.52 710.678   1
  -1  -7  -7 8566.55 762.878   1
  -1  -7  -8 1584.67 350.968   1
  -1  -7  -8 1243.16 298.738   2
  -1  -7  -9 1577.75 340.940   2
  -1  -7  -9 1617.91 389.547   1
  -1  -7 -10 1799.17 405.632   1
  -1  -7 -10 2212.85 411.737   2
  -1  -7 -11 541.841 210.611   2
  -1  -7 -11 238.028 185.062   1
  -1  -7 -12 102.671 173.479   2
  -1  -7 -12 142.861 207.151   1
  -1  -7 -13 15.8645 163.436   2
  -1  -7 -13-167.369 170.897   1
  -1  -7 -14 44.7012 167.800   2
  -1  -7 -14 187.244 185.097   1
  -1  -7 -15-16.8959 154.828   2
  -1  -7 -16 255.585 284.763   2
  -1  -7 -17-1.58195 131.768   2
   1   8 -18 8107.51 988.891   2
   1   8 -17 7141.81 860.604   4
   1   8 -17 8013.40 972.046   2
   1   8 -16 808.271 303.150   4
   1   8 -16 930.448 321.663   2
   1   8 -15 10509.3 1028.03   4
   1   8 -15 10442.2 1033.18   2
   1   8 -14 160.424 117.510   4
   1   8 -14 392.403 275.121   2
   1   8 -13 433.359 232.372   4
   1   8 -12 7104.37 795.084   4
   1   8 -11 2423.97 471.711   4
  -1  -8  10 15553.6 1347.07   1
   1   8 -10 14868.8 1081.86   4
  -1  -8   9-63.3802 261.423   1
   1   8  -9 2.06918 150.600   4
  -1  -8   8 10898.3 1069.69   1
  -1  -8   7 12374.4 1099.44   1
  -1  -8   6-167.585 258.410   1
  -1  -8   5 4249.43 631.453   1
   1   8  -5 4437.23 630.488   7
  -1  -8   4 13942.2 1068.94   1
   1   8  -4 14422.1 1075.60   7
  -1  -8   3 18291.9 1185.75   1
  -1  -8   2 82686.5 2447.32   1
  -1  -8   1 387.578 229.759   1
  -1  -8   0 11319.6 876.210   1
  -1  -8  -1 8984.39 764.442   1
  -1  -8  -2 23496.4 1213.91   1
   1   8   3 875.608 143.004   6
  -1  -8  -3 685.595 255.205   1
  -1  -8  -4 444.982 220.778   1
   1   8   4 356.207 125.173   6
  -1  -8  -5 1467.76 344.214   1
  -1  -8  -6 395.941 197.403   1
  -1  -8  -7 847.749 289.561   1
  -1  -8  -8 11185.4 871.053   2
  -1  -8  -8 11959.0 999.099   1
  -1  -8  -9 1271.15 353.837   1
  -1  -8  -9 682.273 259.045   2
  -1  -8 -10 10148.7 883.195   2
  -1  -8 -10 11466.4 1047.81   1
  -1  -8 -11 90.5750 159.037   2
  -1  -8 -11 495.081 264.949   1
  -1  -8 -12 3127.02 547.520   2
  -1  -8 -12 2565.58 547.596   1
  -1  -8 -13-353.208 203.833   1
  -1  -8 -13 46.9434 136.633   2
  -1  -8 -14 1369.99 392.531   2
  -1  -8 -15 1163.36 360.109   2
  -1  -8 -16 2288.34 523.712   2
  -1  -9  17-427.458 287.969   1
  -1  -9  16 5490.10 987.093   1
  -1  -9  15 2145.49 630.838   1
  -1  -9  14 953.831 461.699   1
  -1  -9  13 580.406 365.550   1
  -1  -9  12 12407.5 1329.24   1
  -1  -9  11 4878.12 834.559   1
  -1  -9  10 591.421 330.056   1
  -1  -9   9 1.63597 225.969   1
  -1  -9   8 38995.7 2090.26   1
  -1  -9   7 1514.01 433.310   1
  -1  -9   6 256.127 220.520   1
  -1  -9   5 19611.7 1374.67   1
  -1  -9   4 47414.7 2076.33   1
  -1  -9   3 2595.94 505.736   1
  -1  -9   2 937.199 293.914   1
  -1  -9   1 4605.43 623.308   1
  -1  -9   0 7493.99 768.114   1
  -1  -9  -1 8404.31 793.345   1
  -1  -9  -2 2996.55 483.558   1
  -1  -9  -3 4560.15 576.920   1
  -1  -9  -4 3644.42 534.390   1
  -1  -9  -5 15981.0 1118.86   1
  -1  -9  -6 7558.64 793.852   1
  -1  -9  -7 1246.80 355.846   1
  -1  -9  -8 10047.4 872.805   2
  -1  -9  -8 10022.0 979.155   1
  -1  -9  -9 2670.87 545.476   1
  -1  -9  -9 2629.71 471.453   2
  -1  -9 -10 826.345 347.117   1
  -1  -9 -10 501.093 241.005   2
  -1  -9 -11 8235.39 862.885   2
  -1  -9 -11 7884.79 950.489   1
  -1  -9 -12 219.473 240.348   1
  -1  -9 -12 613.340 263.740   2
  -1  -9 -13 433.327 267.068   1
  -1  -9 -13-119.548 183.615   2
  -1  -9 -14-584.014 279.429   2
  -1  -9 -15-142.425 177.743   2
  -1 -10  16 8235.90 1210.23   1
  -1 -10  15 501.361 331.295   1
  -1 -10  14 2922.38 691.098   1
  -1 -10  13 6161.59 991.122   1
  -1 -10  12 4442.18 838.485   1
  -1 -10  11 4608.94 828.538   1
  -1 -10  10-89.2719 204.213   1
  -1 -10   9 3775.46 698.368   1
  -1 -10   8 8207.07 1001.76   1
  -1 -10   7 58.5218 229.966   1
  -1 -10   6 3693.34 658.143   1
  -1 -10   5 2647.18 536.637   1
  -1 -10   4 14229.5 1198.02   1
  -1 -10   3 4587.27 668.711   1
  -1 -10   2 1880.73 439.798   1
  -1 -10   1 1716.28 434.095   1
  -1 -10   0 7846.98 833.746   1
  -1 -10  -1 3829.78 588.730   1
  -1 -10  -2 6925.87 765.469   1
  -1 -10  -3-179.261 192.759   1
  -1 -10  -4 133.348 193.199   1
  -1 -10  -5 170.529 173.528   1
  -1 -10  -6 593.486 273.983   1
  -1 -10  -7 509.869 242.311   1
  -1 -10  -8 1164.69 334.214   2
  -1 -10  -8 1459.56 390.106   1
  -1 -10  -9 2971.13 524.876   2
  -1 -10  -9 2831.56 574.679   1
  -1 -10 -10 8847.89 1045.41   1
  -1 -10 -10 8313.01 870.557   2
  -1 -10 -11 8434.61 894.931   2
  -1 -10 -11 8422.29 1011.01   1
  -1 -10 -12 155.647 181.197   2
  -1 -10 -12 395.102 269.158   1
  -1 -10 -13 431.218 276.344   2
  -1 -10 -14-511.427 276.643   2
  -1 -11  15-19.2251 346.672   1
  -1 -11  14 1269.52 482.881   1
  -1 -11  13-631.898 352.060   1
  -1 -11  12 880.670 414.992   1
  -1 -11  11 3766.96 751.106   1
  -1 -11  10 9422.89 1183.89   1
  -1 -11   9 1080.40 424.653   1
  -1 -11   8 4757.73 817.738   1
  -1 -11   7-15.6217 203.376   1
  -1 -11   6 21818.9 1617.58   1
  -1 -11   5 3008.48 589.143   1
  -1 -11   4-125.892 204.853   1
  -1 -11   3 2655.32 528.572   1
  -1 -11   2 306.367 275.838   1
  -1 -11   1 114.160 219.005   1
  -1 -11   0 1253.53 365.489   1
  -1 -11  -1 1588.67 404.638   1
  -1 -11  -2 3798.00 635.499   1
  -1 -11  -3 2199.39 501.478   1
  -1 -11  -4 761.057 335.850   1
  -1 -11  -5 16990.7 1333.67   1
  -1 -11  -6 878.637 341.618   1
  -1 -11  -7 829.792 349.535   1
  -1 -11  -8 551.682 220.463   2
  -1 -11  -8-370.070 256.369   1
  -1 -11  -9 1619.06 415.093   2
  -1 -11  -9 1688.49 475.484   1
  -1 -11 -10 1575.46 507.100   1
  -1 -11 -10 1501.34 397.379   2
  -1 -11 -11 421.675 229.865   2
  -1 -11 -11 502.418 303.319   1
  -1 -11 -12 146.790 211.200   2
  -1 -11 -13 991.103 348.187   2
  -1 -12  13 2203.79 615.424   1
  -1 -12  12-86.2374 186.118   1
  -1 -12  11 4894.03 864.070   1
  -1 -12  10 1387.63 506.521   1
  -1 -12   9 1197.86 462.497   1
  -1 -12   8 3678.63 739.899   1
  -1 -12   7 20205.5 1647.83   1
  -1 -12   6 33343.6 2086.69   1
  -1 -12   5 2167.54 560.556   1
  -1 -12   4-140.284 221.921   1
  -1 -12   3 11979.7 1171.90   1
  -1 -12   2 467.754 271.053   1
  -1 -12   1 1169.14 382.766   1
  -1 -12   0 410.730 296.996   1
  -1 -12  -1 2305.04 511.248   1
  -1 -12  -2 1491.51 424.817   1
  -1 -12  -3 1504.69 420.960   1
  -1 -12  -4 6235.23 849.216   1
  -1 -12  -5 327.663 227.282   1
  -1 -12  -6 23.2399 181.726   1
  -1 -12  -7-1.72877 218.548   1
  -1 -12  -8 625.092 295.760   1
  -1 -12  -8-174.130 178.615   2
  -1 -12  -9 1148.15 415.417   1
  -1 -12  -9 1739.32 427.964   2
  -1 -12 -10 1023.18 351.438   2
  -1 -12 -10 977.114 400.057   1
  -1 -12 -11 697.258 303.705   2
  -1 -13  11 88.8561 280.337   1
  -1 -13  10-318.159 320.247   1
  -1 -13   9 9806.15 1249.03   1
  -1 -13   8 4964.87 882.338   1
  -1 -13   7 978.778 449.546   1
  -1 -13   6 53.9011 196.220   1
  -1 -13   5 1919.21 537.515   1
  -1 -13   4 1193.16 421.248   1
  -1 -13   3 929.924 373.911   1
  -1 -13   2 258.042 271.578   1
  -1 -13   1 1582.72 454.980   1
  -1 -13   0 162.674 194.575   1
  -1 -13  -1 1854.09 477.498   1
  -1 -13  -2 455.226 320.473   1
  -1 -13  -3 1977.27 511.281   1
  -1 -13  -4 954.201 404.020   1
  -1 -13  -5 1993.39 541.762   1
  -1 -13  -6 1386.31 458.427   1
  -1 -13  -7 6044.46 783.507   2
  -1 -13  -7 6984.05 995.635   1
  -1 -13  -8 456.685 354.767   1
  -1 -13  -8-254.308 201.156   2
  -1 -13  -9-82.2215 208.361   2
  -1 -14   9 4210.18 823.364   1
  -1 -14   8 1291.85 505.171   1
  -1 -14   7 176.224 296.114   1
  -1 -14   6 9481.27 1179.38   1
  -1 -14   5 18827.7 1627.80   1
  -1 -14   4 4137.42 770.406   1
  -1 -14   3 3327.13 719.347   1
  -1 -14   2-186.310 218.448   1
  -1 -14   1 1753.36 530.051   1
  -1 -14   0 134.662 212.628   1
  -1 -14  -1 418.463 275.245   1
  -1 -14  -2 455.683 298.815   1
  -1 -14  -3 434.938 329.763   1
  -1 -14  -4 1068.77 382.595   1
  -1 -14  -5 1164.25 429.319   1
  -1 -14  -6-639.716 295.965   2
  -1 -14  -6 238.544 322.662   1
  -1 -15   3 200.214 228.300   1
  -1 -15   2 2092.68 511.530   1
  -1 -15   1 765.236 354.175   1
  -1 -15   0 2785.14 611.984   1
   2 -15  -5 3788.76 792.539   1
   2 -15  -4 87.4804 238.241   1
   2 -15  -3 601.842 328.657   1
   2 -15  -2-667.676 367.723   1
   2 -15  -1 768.481 357.049   1
   2 -15   0 1215.33 449.021   1
   2 -15   1 212.122 258.178   1
   2 -15   2 168.761 236.634   1
   2 -15   3 4291.72 799.309   1
   2 -15   4-261.721 296.525   1
   2 -15   5 2122.81 599.786   1
   2 -15   6-22.2368 211.378   1
   2 -15   7 1386.44 467.940   1
   2 -14  -8 3349.24 751.199   1
   2 -14  -7-501.985 322.528   1
   2 -14  -6 1272.25 489.251   1
   2 -14  -5 123.522 232.056   1
   2 -14  -4 11020.5 1257.45   1
   2 -14  -3 3884.07 752.478   1
   2 -14  -2 539.530 343.348   1
   2 -14  -1 773.187 374.738   1
   2 -14   0 5276.33 842.165   1
   2 -14   1 1129.38 415.106   1
   2 -14   2 4997.13 806.474   1
   2 -14   3 159.839 259.560   1
   2 -14   4 1557.16 466.940   1
   2 -14   5 1346.56 445.309   1
   2 -14   6 2543.38 622.017   1
  -2  14  -6 2761.69 680.404   7
   2 -14   7-164.777 214.237   1
  -2  14  -7 1113.92 474.817   7
  -2  14  -8-405.746 341.797   7
   2 -14   8-21.9136 213.431   1
   2 -14   9 1528.21 494.632   1
  -2  14  -9 2492.59 730.585   7
   2 -14  10 4311.13 819.008   1
   2 -14  11 3805.34 786.561   1
   2 -13 -10 340.883 289.252   1
   2 -13  -9 598.389 353.878   1
   2 -13  -8 4857.13 892.078   1
   2 -13  -7 2458.55 669.530   1
   2 -13  -6 302.101 231.029   1
   2 -13  -5 1300.86 484.207   1
   2 -13  -4 618.386 333.707   1
   2 -13  -3 15339.1 1378.34   1
   2 -13  -2 692.170 347.391   1
   2 -13  -1 619.587 326.330   1
   2 -13   0 501.097 344.440   1
   2 -13   1 2621.29 560.385   1
   2 -13   2 418.372 293.728   1
   2 -13   3 9419.80 1068.45   1
   2 -13   4 1764.59 489.465   1
  -2  13  -4 1134.14 438.082   7
   2 -13   5 22445.5 1665.29   1
  -2  13  -5 22499.4 1785.28   7
   2 -13   6 471.243 300.632   1
  -2  13  -6 832.356 379.728   7
  -2  13  -7 5607.08 950.376   7
   2 -13   7 5415.33 863.449   1
  -2  13  -8 2158.47 621.804   7
   2 -13   8 1952.56 564.511   1
   2 -13   9 244.977 266.170   1
  -2  13  -9 111.410 278.336   7
  -2  13 -10 2154.51 670.039   7
   2 -13  10 2489.75 635.157   1
  -2  13 -11 3473.69 852.219   7
   2 -13  11 4245.48 774.033   1
   2 -13  12-54.6255 252.860   1
   2 -13  13 1561.26 520.053   1
   2 -12 -12-311.840 259.085   1
   2 -12 -11 228.593 259.875   1
   2 -12 -10 593.388 329.071   1
   2 -12  -9 4373.74 813.653   1
   2 -12  -8-22.9546 215.480   1
   2 -12  -7-176.812 256.942   1
   2 -12  -6 6278.57 884.685   1
   2 -12  -5-78.5202 196.970   1
   2 -12  -4 1185.69 391.293   1
   2 -12  -3 1785.34 486.035   1
   2 -12  -2 358.663 312.429   1
   2 -12  -1 51.1125 195.069   1
   2 -12   0 2641.27 540.031   1
   2 -12   1 1765.47 452.537   1
   2 -12   2 4805.38 714.043   1
  -2  12  -2 5314.69 761.107   7
  -2  12  -3 499.210 290.121   7
   2 -12   3 767.790 332.528   1
   2 -12   4 14302.3 1253.70   1
  -2  12  -4 14588.5 1368.40   7
  -2  12  -5 634.828 341.237   7
   2 -12   5 127.438 225.733   1
   2 -12   6 148.871 230.481   1
  -2  12  -6-19.5956 212.503   7
  -2  12  -7-6.25031 217.054   7
   2 -12   7-147.394 234.450   1
  -2  12  -8 890.005 423.016   7
   2 -12   8 1040.30 408.316   1
   2 -12   9 6123.56 915.688   1
  -2  12  -9 7407.26 1144.13   7
  -2  12 -10 11885.4 1468.66   7
   2 -12  10 13006.1 1314.95   1
   2 -12  11-200.457 220.879   1
  -2  12 -11 171.849 291.896   7
   2 -12  12 5016.06 886.117   1
  -2  12 -12 3957.54 908.129   7
   2 -12  13 7309.30 1041.36   1
  -2  12 -13 7847.34 1258.57   7
   2 -12  14 204.055 262.383   1
   2 -12  15 447.847 346.294   1
   2 -11 -14 160.111 169.607   1
   2 -11 -13 4030.27 820.799   1
   2 -11 -12 353.251 271.803   1
   2 -11 -11 173.575 244.033   1
   2 -11 -10-153.602 160.920   2
   2 -11 -10 145.020 228.478   1
   2 -11  -9 1491.14 495.791   1
   2 -11  -9 852.055 279.282   2
   2 -11  -8 157.230 246.062   1
   2 -11  -8-66.6390 167.420   2
   2 -11  -7 35.5853 164.082   1
   2 -11  -7 572.201 200.214   2
   2 -11  -6 357.249 163.993   2
   2 -11  -6-3.05336 203.447   1
   2 -11  -5 7077.08 871.045   1
   2 -11  -4 1154.88 374.827   1
   2 -11  -3 15389.4 1222.04   1
   2 -11  -2 884.411 342.111   1
   2 -11  -1 15120.8 1178.78   1
   2 -11   0 80.2298 183.790   1
  -2  11   0-242.520 184.512   7
  -2  11  -1 6371.01 765.786   7
   2 -11   1 5423.85 730.752   1
   2 -11   2 3526.13 603.229   1
  -2  11  -2 3030.60 592.272   7
   2 -11   3 9687.20 961.275   1
  -2  11  -3 8480.99 968.844   7
   2 -11   4 2553.21 533.526   1
  -2  11  -4 2517.37 549.026   7
   2 -11   5 2249.53 502.037   1
  -2  11  -5 1726.68 512.379   7
  -2  11  -6 5288.19 853.578   7
   2 -11   6 5828.06 809.928   1
   2 -11   7 37813.4 2051.06   1
  -2  11  -7 38367.9 2302.50   7
   2 -11   8 5529.30 815.989   1
  -2  11  -8 5714.27 961.119   7
   2 -11   9 12917.4 1267.55   1
  -2  11  -9 11396.3 1340.93   7
   2 -11  10 14414.7 1361.04   1
  -2  11 -10 14836.8 1568.23   7
  -2  11 -11 1051.42 478.170   7
   2 -11  11 1824.56 511.832   1
   2 -11  12 2704.61 619.132   1
  -2  11 -12 2901.58 814.974   7
   2 -11  13 2571.02 595.307   1
  -2  11 -13 3403.36 860.443   7
   2 -11  14 3374.49 721.096   1
   2 -11  15 3228.62 711.852   1
   2 -11  16 1562.15 516.252   1
   2 -10 -15 234.065 262.478   1
   2 -10 -14 667.072 357.575   1
   2 -10 -13 874.037 423.143   1
   2 -10 -13 812.610 275.557   2
   2 -10 -12 1949.35 401.766   2
   2 -10 -12 2303.51 574.642   1
   2 -10 -11-1.85332 202.105   1
   2 -10 -11 158.092 119.407   2
   2 -10 -10 2590.27 615.257   1
   2 -10 -10 2880.64 451.108   2
   2 -10  -9 11246.4 1173.33   1
   2 -10  -9 9087.20 765.248   2
   2 -10  -8-294.073 246.114   1
   2 -10  -8 76.9585 109.200   2
   2 -10  -7 1936.55 342.509   2
   2 -10  -7 2183.04 492.778   1
   2 -10  -6 8614.04 932.585   1
   2 -10  -6 6635.44 596.600   2
   2 -10  -5-135.365 219.010   1
   2 -10  -4 1167.75 339.814   1
   2 -10  -3 946.482 331.068   1
   2 -10  -2 18267.5 1226.76   1
  -2  10   2 15068.0 968.266   7
   2 -10  -1 4217.85 604.674   1
  -2  10   1 3621.89 508.619   7
  -2  10   0 6952.16 726.769   7
   2 -10   0 7946.89 810.250   1
  -2  10  -1 3047.21 509.583   7
   2 -10   1 3409.57 543.985   1
  -2  10  -2 2883.14 515.077   7
   2 -10   2 2361.50 451.735   1
  -2  10  -3 19945.7 1387.42   7
   2 -10   3 17090.3 1208.54   1
  -2  10  -4 2433.96 535.342   7
   2 -10   4 2577.83 507.463   1
  -2  10  -5 4106.31 706.116   7
   2 -10   5 3194.74 577.629   1
   2 -10   6-94.8584 204.152   1
  -2  10  -6-208.226 248.713   7
  -2  10  -7 3814.32 726.642   7
   2 -10   7 2957.31 571.596   1
   2 -10   8 16039.3 1304.25   1
  -2  10  -8 17171.4 1526.61   7
   2 -10   9 396.983 323.550   1
  -2  10  -9-579.658 373.384   7
  -2  10 -10 7050.71 1052.58   7
   2 -10  10 7031.39 913.227   1
   2 -10  11 2452.20 571.046   1
  -2  10 -11 1181.33 506.860   7
  -2  10 -12 657.186 451.111   7
   2 -10  12 990.237 409.749   1
  -2  10 -13 2341.07 690.361   7
   2 -10  13 2036.96 545.520   1
  -2  10 -14 894.482 511.076   7
   2 -10  14 731.500 388.526   1
   2 -10  15 2565.37 614.309   1
   2 -10  16 918.050 418.547   1
   2 -10  17 686.986 351.800   1
   2  -9 -16 416.206 246.910   1
   2  -9 -16-24.0047 155.304   2
   2  -9 -15 1655.40 399.902   2
   2  -9 -15 1900.84 581.173   1
   2  -9 -14 206.987 188.098   2
   2  -9 -14 1008.85 353.349   1
   2  -9 -13 586.252 311.386   1
   2  -9 -13 659.074 263.370   2
   2  -9 -12 3285.77 501.959   2
   2  -9 -12 3165.19 676.066   1
   2  -9 -11 11263.6 891.437   2
   2  -9 -11 11501.9 1189.22   1
   2  -9 -10 1565.01 323.489   2
   2  -9 -10 1751.24 478.808   1
   2  -9  -9 158.665 276.380   1
   2  -9  -9 224.591 176.129   2
   2  -9  -8 693.028 215.323   2
   2  -9  -8 611.668 321.213   1
   2  -9  -7 1712.61 442.708   1
   2  -9  -7 2178.48 347.581   2
   2  -9  -6 3015.26 542.161   1
   2  -9  -6 2843.93 378.028   2
   2  -9  -5 5202.42 659.539   1
   2  -9  -4-58.3308 169.753   1
   2  -9  -3 13535.0 1000.85   1
  -2   9   3 12723.8 798.888   7
  -2   9   2-61.9070 124.355   7
   2  -9  -2 30.2684 195.241   1
   2  -9  -1 25687.8 1329.08   1
  -2   9   1 25651.7 1244.49   7
   2  -9   0 677.860 232.011   1
  -2   9   0 908.708 265.481   7
  -2   9  -1 278.023 174.639   7
   2  -9   1 292.615 260.284   1
  -2   9  -2 8649.30 823.671   7
   2  -9   2 8742.75 796.768   1
  -2   9  -3 3259.24 534.022   7
   2  -9   3 3236.02 510.678   1
  -2   9  -4 6718.17 795.964   7
   2  -9   4 5675.19 683.572   1
   2  -9   5 14433.7 1087.76   1
  -2   9  -5 14313.0 1187.00   7
  -2   9  -6 44.3374 206.313   7
   2  -9   6-116.500 194.772   1
   2  -9   7 12680.9 1075.92   1
  -2   9  -7 13881.7 1269.16   7
   2  -9   8 5736.42 756.343   1
  -2   9  -8 6915.87 936.677   7
   2  -9   9 36513.8 1908.97   1
  -2   9  -9 34715.6 2128.78   7
  -2   9 -10 1200.06 473.089   7
   2  -9  10 1419.29 414.405   1
   2  -9  11-605.911 314.463   1
  -2   9 -11-115.263 271.322   7
   2  -9  12 2267.56 551.680   1
  -2   9 -12 3210.88 508.891   2
  -2   9 -12 1980.79 587.576   7
   2  -9  13 1764.79 496.647   1
  -2   9 -13 1574.96 391.109   2
  -2   9 -13 890.515 518.632   7
  -2   9 -14 3184.45 769.259   7
   2  -9  14 2858.90 660.638   1
  -2   9 -14 3420.23 554.704   2
   2  -9  15 823.261 396.842   1
  -2   9 -15 868.100 283.917   2
  -2   9 -15 913.701 469.155   7
   2  -9  16 13415.0 1372.81   1
  -2   9 -16 8986.09 967.176   2
  -2   9 -17 4443.40 705.574   2
   2  -9  17 3751.23 758.903   1
  -2   9 -18 21.8749 204.297   2
   2  -8 -17 581.572 332.787   4
   2  -8 -17-99.2605 180.792   2
   2  -8 -16 105.147 183.660   2
   2  -8 -16 52.6143 150.903   1
   2  -8 -15 318.198 202.708   2
   2  -8 -15 284.372 254.886   1
   2  -8 -14 864.868 413.950   1
   2  -8 -14 920.097 291.646   2
   2  -8 -13 275.230 275.923   1
   2  -8 -13-6.39863 173.815   2
   2  -8 -12-344.953 191.812   2
   2  -8 -12 249.555 273.154   1
   2  -8 -11 5743.67 618.937   2
   2  -8 -11 5791.22 827.097   1
   2  -8 -10 1255.92 416.768   1
   2  -8 -10 789.425 240.889   2
   2  -8  -9 6751.31 827.943   1
   2  -8  -9 6981.67 623.691   2
   2  -8  -8 34341.0 1287.31   2
   2  -8  -8 36226.0 1807.10   1
   2  -8  -7 6938.60 553.659   2
   2  -8  -7 7290.23 800.651   1
   2  -8  -6 7750.85 777.934   1
   2  -8  -6 7711.15 566.919   2
   2  -8  -5 384.771 231.649   1
  -2   8   4 7079.00 524.477   7
   2  -8  -4 10199.5 840.327   1
  -2   8   3 1480.49 248.205   7
   2  -8  -3 1341.16 336.653   1
  -2   8   2 6350.18 546.253   7
   2  -8  -2 6979.66 652.182   1
   2  -8  -1 29326.7 1318.70   1
  -2   8   1 28700.4 1216.52   7
   2  -8   0 61724.4 1896.99   1
  -2   8   0 58948.3 1812.13   7
  -2   8  -1 3323.63 462.829   7
   2  -8   1 3407.93 466.015   1
  -2   8  -2 57054.5 1940.73   7
   2  -8   2 56628.2 1864.75   1
   2  -8   3 5772.07 626.815   1
  -2   8  -3 6083.68 670.252   7
  -2   8  -4 78262.7 2483.09   7
   2  -8   4 79190.9 2307.88   1
   2  -8   5 39022.2 1673.65   1
  -2   8  -5 38585.7 1827.69   7
   2  -8   6 10174.0 885.527   1
  -2   8  -6 9992.95 966.503   7
   2  -8   7 7236.68 761.779   1
  -2   8  -7 7673.10 901.504   7
  -2   8  -8 26229.6 1172.38   2
   2  -8   8 26108.0 1487.89   1
  -2   8  -8 26793.1 1728.85   7
  -2   8  -9 4259.73 751.819   7
   2  -8   9 3225.51 560.393   1
  -2   8  -9 3616.63 473.595   2
  -2   8 -10 8775.63 1082.83   7
  -2   8 -10 9382.58 763.604   2
   2  -8  10 9734.60 979.083   1
  -2   8 -11 1014.35 288.805   2
   2  -8  11 861.584 333.968   1
  -2   8 -11 1268.60 450.954   7
  -2   8 -12 18469.1 1625.90   7
  -2   8 -12 21096.4 1245.43   2
   2  -8  12 20269.6 1491.41   1
   2  -8  13 4396.21 738.100   1
  -2   8 -13 4959.77 638.066   2
  -2   8 -13 5521.39 938.455   7
  -2   8 -14 16064.8 1177.33   2
  -2   8 -14 15285.1 1568.93   7
   2  -8  14 16079.9 1410.67   1
  -2   8 -15 12035.1 1472.53   7
   2  -8  15 10000.2 1138.26   1
  -2   8 -15 11035.1 1020.04   2
   2  -8  16 2206.75 565.482   1
  -2   8 -16 1700.56 420.278   2
  -2   8 -17 197.616 202.849   2
   2  -8  17 171.858 275.652   1
  -2   8 -18 481.227 292.146   2
   2  -7 -18 173.117 200.735   2
   2  -7 -17 3041.35 654.281   4
   2  -7 -17 3636.02 602.321   2
   2  -7 -16 9726.62 953.546   2
   2  -7 -16 9701.39 1169.22   4
   2  -7 -15 74.7236 171.566   2
   2  -7 -15 27.5313 224.435   1
   2  -7 -14 497.116 305.854   1
   2  -7 -14 610.899 263.632   2
   2  -7 -13-81.3276 194.648   1
   2  -7 -13 246.133 185.181   2
   2  -7 -12-204.873 203.186   1
   2  -7 -12 49.3957 135.926   2
   2  -7 -11 497.139 262.139   1
   2  -7 -11 142.496 133.518   2
   2  -7 -10 15917.4 1237.35   1
   2  -7 -10 13550.3 870.386   2
   2  -7  -9 21386.9 1377.26   1
   2  -7  -9 19825.1 996.598   2
   2  -7  -8 3891.55 580.492   1
   2  -7  -8 3768.62 418.546   2
   2  -7  -7 8725.70 595.562   2
   2  -7  -7 9622.74 853.372   1
   2  -7  -6 6874.51 502.302   2
   2  -7  -6 7052.96 710.363   1
   2  -7  -5 1146.04 300.421   1
   2  -7  -4 1616.90 329.422   1
   2  -7  -3 1776.52 324.748   1
   2  -7  -2 4736.31 507.026   1
  -2   7   2 3815.54 390.165   7
   2  -7  -1 529.981 223.413   1
  -2   7   1 684.084 200.608   7
  -2   7   0 6709.49 565.923   7
   2  -7   0 7228.64 609.948   1
   2  -7   1 17798.8 958.287   1
  -2   7  -1 16953.0 939.141   7
   2  -7   2 649.167 199.697   1
  -2   7  -2 723.721 243.280   7
   2  -7   3 9732.60 746.359   1
  -2   7  -3 10808.8 823.762   7
   2  -7   4 16709.5 999.127   1
  -2   7  -4 16030.6 1049.45   7
   2  -7   5 1391.76 328.420   1
   2  -7   5 656.556 94.3380   6
  -2   7  -5 947.498 322.078   7
  -2   7  -6 3320.52 370.814   2
   2  -7   6 3647.07 518.545   1
  -2   7  -6 3157.58 529.453   7
  -2   7  -7-44.2817 288.559   7
   2  -7   7 49.2113 159.092   1
  -2   7  -7 27.7161 82.0424   2
  -2   7  -8 9.88381 90.1694   2
   2  -7   8-107.298 149.237   1
  -2   7  -8 74.6632 208.585   7
  -2   7  -9 159.505 127.577   2
   2  -7   9 242.561 206.424   1
  -2   7  -9-212.625 275.756   7
  -2   7 -10 1538.23 464.398   7
  -2   7 -10 2295.08 372.656   2
   2  -7  10 1535.21 383.816   1
  -2   7 -11 103.713 129.582   2
  -2   7 -11-338.423 300.117   7
   2  -7  11 41.2644 182.116   1
  -2   7 -12 2506.70 608.081   7
  -2   7 -12 1916.14 388.395   2
   2  -7  12 3001.14 560.997   1
  -2   7 -13 3428.87 724.200   7
  -2   7 -13 5055.04 616.723   2
   2  -7  13 5032.89 736.744   1
  -2   7 -14-287.382 317.422   7
  -2   7 -14-102.001 146.716   2
   2  -7  14-225.116 204.107   1
  -2   7 -15 1782.47 592.262   7
   2  -7  15 2312.89 557.073   1
  -2   7 -15 2157.69 433.296   2
  -2   7 -16 205.411 164.047   2
   2  -7  16-138.901 280.103   1
   2  -7  17 4323.56 781.870   1
  -2   7 -17 7604.21 896.785   2
  -2   7 -18 13561.5 1220.03   2
  -2   7 -19 4422.68 730.356   2
   2  -6 -19 2382.40 478.149   2
   2  -6 -18 1099.20 345.585   2
   2  -6 -18 2007.62 514.432   4
   2  -6 -17 2209.13 563.015   4
   2  -6 -17 2260.88 501.635   2
   2  -6 -16 8453.27 880.835   2
   2  -6 -16 8697.67 1076.06   4
   2  -6 -15 672.257 271.722   2
   2  -6 -14 6013.91 852.784   1
   2  -6 -14 5116.78 636.754   2
   2  -6 -13-163.825 194.298   1
   2  -6 -13 195.385 157.329   2
   2  -6 -12 914.267 350.040   1
   2  -6 -12 296.987 190.911   2
   2  -6 -11 1789.69 330.619   2
   2  -6 -11 2516.72 528.050   1
   2  -6 -10 9760.78 938.208   1
   2  -6 -10 8896.59 686.537   2
   2  -6  -9 556.256 213.176   1
   2  -6  -9 878.866 233.332   2
   2  -6  -8 8521.85 595.227   2
   2  -6  -8 8925.09 814.806   1
   2  -6  -7 10655.8 852.074   1
   2  -6  -7 10620.8 624.872   2
   2  -6  -6 75057.6 2124.52   1
   2  -6  -6 76425.5 1571.16   2
   2  -6  -5 1377.90 308.095   1
   2  -6  -5 1003.45 177.254   2
   2  -6  -4 46.6172 128.495   1
   2  -6  -3 15182.6 835.092   1
   2  -6  -2 53732.7 1511.29   1
   2  -6  -1 5141.21 459.920   1
   2  -6   0 76858.1 1761.80   1
  -2   6  -1 73175.0 1752.28   7
   2  -6   1 78969.7 1815.94   1
  -2   6  -2 80376.3 1959.08   7
   2  -6   2 87465.6 1950.33   1
   2  -6   3 4826.41 482.768   1
  -2   6  -3 4576.69 503.595   7
   2  -6   3 4536.43 177.061   6
   2  -6   4 24360.5 1101.57   1
  -2   6  -4 21863.3 1133.93   7
  -2   6  -5 1352.96 321.537   7
  -2   6  -5 1222.04 208.893   2
   2  -6   5 951.027 244.454   1
  -2   6  -6 96363.6 2643.14   7
  -2   6  -6 95403.8 1831.71   2
   2  -6   7 15709.6 997.665   1
  -2   6  -7 15693.3 782.156   2
  -2   6  -7 14884.7 1094.80   7
   2  -6   8 99.9272 108.579   3
  -2   6  -8-44.0851 252.700   7
  -2   6  -8 2.38751 77.6246   2
   2  -6   8-72.4939 202.296   1
  -2   6  -9 19.7403 85.9535   2
  -2   6  -9 335.755 257.699   7
  -2   6 -10 101676. 2302.05   2
  -2   6 -10 96744.5 3160.48   7
  -2   6 -11 16321.4 973.544   2
  -2   6 -11 13918.2 1243.74   7
  -2   6 -12 45796.1 1708.93   2
  -2   6 -12 42674.7 2263.79   7
  -2   6 -13 2154.88 571.868   7
  -2   6 -13 2781.24 448.710   2
  -2   6 -14 5362.65 653.014   2
  -2   6 -14 4766.02 836.577   7
  -2   6 -15 248.657 293.842   7
  -2   6 -15 154.382 178.932   2
  -2   6 -16 10986.7 1003.78   2
  -2   6 -17 2742.72 538.467   2
  -2   6 -18 4634.91 702.502   2
  -2   6 -19 247.411 211.211   2
   2  -5 -19 605.301 306.281   2
   2  -5 -18 4820.80 705.619   2
   2  -5 -18 5021.12 815.599   4
   2  -5 -17 1934.25 507.065   4
   2  -5 -17 2313.72 496.963   2
   2  -5 -16 152.563 176.284   4
   2  -5 -16-128.383 182.647   2
   2  -5 -15 164.383 178.583   4
   2  -5 -15 17.1222 156.932   2
   2  -5 -14 1435.42 405.016   1
   2  -5 -14 2119.66 429.694   2
   2  -5 -13 1476.85 337.059   2
   2  -5 -13 1204.22 384.635   1
   2  -5 -12 1169.62 368.239   1
   2  -5 -12 1751.13 340.614   2
   2  -5 -11 1789.79 429.436   1
   2  -5 -11 1836.41 331.044   2
   2  -5 -10 15058.9 866.045   2
   2  -5 -10 14814.6 1099.13   1
   2  -5  -9-7.87620 94.2752   2
   2  -5  -9-60.6389 191.623   1
   2  -5  -8 38716.4 1620.13   1
   2  -5  -8 41703.5 1264.15   2
   2  -5  -7 5595.26 586.613   1
   2  -5  -7 6124.77 455.926   2
   2  -5  -6 12469.2 823.367   1
   2  -5  -6 13138.8 616.015   2
   2  -5  -5 8945.82 470.574   2
   2  -5  -5 8244.71 639.626   1
   2  -5  -4 19686.9 924.644   1
   2  -5  -4 21226.3 679.131   2
   2  -5  -3 94060.2 1906.37   1
   2  -5  -2 5970.33 462.350   1
   2  -5  -1 35010.0 1077.80   1
   2  -5   0 15008.4 705.903   1
   2  -5   1 11778.1 638.813   1
   2  -5   2 21083.6 409.168   6
   2  -5   2 22175.7 889.937   1
  -2   5  -2 20783.4 908.527   7
  -2   5  -3 20985.7 665.191   2
   2  -5   3 19940.3 492.799   6
  -2   5  -3 18804.8 920.557   7
   2  -5   3 20544.9 879.352   1
  -2   5  -4 63564.3 1252.46   2
  -2   5  -4 64624.8 1797.08   7
   2  -5   4 67522.7 1655.30   1
  -2   5  -5 5681.88 396.374   2
   2  -5   5 5844.12 520.492   1
  -2   5  -5 5337.06 559.708   7
   2  -5   6 438.786 168.831   1
  -2   5  -6 492.504 247.025   7
  -2   5  -6 686.181 153.412   2
  -2   5  -7 70039.3 1555.50   2
  -2   5  -7 69834.9 2220.38   7
   2  -5   7 66576.0 1375.60   3
  -2   5  -8 4609.83 621.973   7
   2  -5   8 4549.02 338.143   3
  -2   5  -8 4090.15 406.817   2
  -2   5  -9 20790.7 959.018   2
  -2   5  -9 20261.9 1335.36   7
  -2   5  -9 19793.0 868.377   4
  -2   5 -10 8701.79 911.725   7
  -2   5 -10 9209.76 612.402   4
  -2   5 -10 9514.95 691.391   2
  -2   5 -11 2047.91 305.476   4
  -2   5 -11 2148.24 474.787   7
  -2   5 -11 2290.18 362.156   2
  -2   5 -12 1547.73 470.751   7
  -2   5 -12 1873.49 292.902   4
  -2   5 -12 1641.86 324.115   2
  -2   5 -13 23130.3 1252.09   2
  -2   5 -13 22089.7 1020.78   4
  -2   5 -13 22248.7 1625.33   7
  -2   5 -14 1494.42 485.925   7
  -2   5 -14 1526.20 366.826   2
  -2   5 -15 2388.08 609.938   7
  -2   5 -15 2802.89 487.397   2
  -2   5 -16 3503.76 567.820   2
  -2   5 -17-621.137 268.320   2
  -2   5 -18-223.188 250.780   2
  -2   5 -19 19148.9 1458.99   2
  -2   5 -20 11345.8 1141.14   2
   2  -4 -20 112.727 202.747   2
   2  -4 -19 114.300 146.744   2
   2  -4 -18 330.673 222.520   4
   2  -4 -18 231.413 193.106   2
   2  -4 -17 1695.14 419.718   2
   2  -4 -17 999.333 385.950   4
   2  -4 -16 263.960 202.432   2
   2  -4 -16-123.050 187.662   4
   2  -4 -15 346.758 208.073   4
   2  -4 -15 679.314 271.276   2
   2  -4 -14 14638.9 1043.85   2
   2  -4 -14 14482.7 1239.79   4
   2  -4 -13 7236.21 699.614   2
   2  -4 -13 6003.93 789.714   1
   2  -4 -12 36410.8 1482.16   2
   2  -4 -12 35978.9 1384.27   3
   2  -4 -12 37117.0 1827.75   1
   2  -4 -11 140.627 201.782   1
   2  -4 -11 625.799 209.469   2
   2  -4 -10 2323.79 461.649   1
   2  -4 -10 2533.34 369.499   2
   2  -4  -9 1754.86 284.092   2
   2  -4  -9 1377.62 347.187   1
   2  -4  -8 370.420 132.131   2
   2  -4  -8 506.698 221.475   1
   2  -4  -7 2.28904 140.270   1
   2  -4  -7-7.83625 95.8335   2
   2  -4  -6 51561.0 1177.97   2
   2  -4  -6 54851.9 1642.20   1
   2  -4  -5 2454.97 335.034   1
   2  -4  -5 2699.99 247.591   2
   2  -4  -4 474542. 4225.17   1
   2  -4  -4 474045. 2907.06   2
   2  -4  -3 233266. 2759.97   1
   2  -4  -3 234811. 1867.12   2
   2  -4  -2 997.918 196.466   1
   2  -4  -1 14413.6 625.689   1
   2  -4   0 23005.3 769.333   1
   2  -4   1 12745.3 586.607   1
   2  -4   2 18413.5 721.501   1
  -2   4  -2 17475.4 499.832   2
   2  -4   2 17872.2 452.298   6
   2  -4   3 267.344 118.498   1
  -2   4  -3 253.219 73.2396   2
  -2   4  -4 1534.10 179.998   2
   2  -4   4 1731.32 250.967   1
  -2   4  -5 7355.15 418.316   2
   2  -4   5 7664.97 536.467   1
  -2   4  -6 18832.9 1016.66   7
  -2   4  -6 19787.3 746.107   2
   2  -4   6 18350.2 673.373   3
  -2   4  -7 29218.0 974.373   2
   2  -4   7 29904.5 809.037   3
  -2   4  -7 30001.7 1365.80   7
  -2   4  -7 30851.9 918.460   4
  -2   4  -8 52686.3 1251.08   4
  -2   4  -8 52064.0 1400.70   2
   2  -4   8 53744.0 948.614   3
  -2   4  -9 48395.9 1434.34   2
  -2   4  -9 47517.8 1252.20   4
  -2   4  -9 50100.1 1966.51   7
  -2   4 -10 27434.8 986.896   4
  -2   4 -10 27672.7 1152.78   2
  -2   4 -10 24664.4 1450.12   7
  -2   4 -11 321.348 183.981   2
  -2   4 -11 409.142 136.704   4
  -2   4 -11 249.373 211.404   7
  -2   4 -12 7037.25 657.825   2
  -2   4 -12 7528.53 561.901   4
  -2   4 -12 6768.83 837.847   7
  -2   4 -13 317.921 130.404   4
  -2   4 -13 284.783 246.158   7
  -2   4 -13 57.0128 151.380   2
  -2   4 -14 5058.70 787.278   7
  -2   4 -14 5465.96 637.385   2
  -2   4 -15 8343.12 818.862   2
  -2   4 -16 819.179 305.126   2
  -2   4 -17-82.1098 157.517   2
  -2   4 -18 5358.67 738.129   2
  -2   4 -19 335.484 245.688   2
  -2   4 -20 4087.31 715.852   2
   2  -3 -20 2231.66 494.108   2
   2  -3 -19 3753.70 634.011   2
   2  -3 -18 734.095 364.034   4
   2  -3 -18 562.950 258.347   2
   2  -3 -17 3280.68 650.484   4
   2  -3 -17 2883.21 530.373   2
   2  -3 -16-259.838 232.127   4
   2  -3 -16-46.1995 157.855   2
   2  -3 -15 893.565 330.077   4
   2  -3 -15 1269.11 341.974   2
   2  -3 -14 1193.74 377.174   4
   2  -3 -14 790.057 266.890   2
   2  -3 -13 2030.75 455.638   4
   2  -3 -13 2335.08 411.512   2
   2  -3 -12 5719.62 732.599   4
   2  -3 -12 4273.09 429.958   3
   2  -3 -12 4390.85 520.110   2
   2  -3 -11 581.440 183.760   3
   2  -3 -11 504.177 197.992   2
   2  -3 -11 834.175 273.155   1
   2  -3 -10 1177.85 262.990   2
   2  -3 -10 747.947 190.106   3
   2  -3 -10 903.345 301.847   1
   2  -3  -9 125106. 2260.15   2
   2  -3  -9 112426. 2710.44   1
   2  -3  -8 5489.54 447.142   2
   2  -3  -8 4989.33 551.539   1
   2  -3  -7 182.214 101.791   2
   2  -3  -7 2.13198 145.254   1
   2  -3  -6 16438.7 871.618   1
   2  -3  -6 16375.4 647.967   2
   2  -3  -5 78.9024 59.6135   2
   2  -3  -5 106.048 123.987   1
   2  -3  -4 41501.6 1191.51   1
   2  -3  -4 40284.2 816.305   2
   2  -3  -3 92.5362 49.2056   2
   2  -3  -3 117.754 110.545   1
   2  -3  -2 25669.5 792.396   1
   2  -3  -2 26677.2 474.877   2
   2  -3  -1 67.6310 65.0951   1
   2  -3   0 29521.5 755.901   1
   2  -3   1 166465. 1790.24   1
   2  -3   1 162531. 1358.07   6
  -2   3  -1 163339. 1109.33   2
   2  -3   2 272553. 2375.04   1
  -2   3  -2 275184. 1685.75   2
   2  -3   3 122857. 1688.05   1
  -2   3  -3 120796. 1315.97   2
   2  -3   3 123039. 1654.72   3
   2  -3   4 75163.6 1280.46   3
  -2   3  -4 72624.3 1157.86   2
  -2   3  -5 51900.0 1087.38   2
   2  -3   5 52127.6 1056.81   3
  -2   3  -5 53171.4 1476.40   7
  -2   3  -6 81187.0 1946.86   7
  -2   3  -6 83190.3 1282.37   4
  -2   3  -6 81532.0 1498.17   2
   2  -3   7 11150.9 417.356   3
  -2   3  -7 11423.2 508.173   4
  -2   3  -7 10697.3 762.823   7
  -2   3  -7 11190.8 601.943   2
  -2   3  -8 354.800 167.847   7
  -2   3  -8 462.080 115.103   4
   2  -3   8 220.094 48.0041   3
  -2   3  -9 19178.5 903.873   2
  -2   3  -9 21583.9 1224.71   7
  -2   3  -9 19493.0 749.280   4
  -2   3 -10 12607.6 779.782   2
  -2   3 -10 12933.3 647.434   4
  -2   3 -10 14099.7 1049.45   7
  -2   3 -11 25267.8 1452.01   7
  -2   3 -11 28022.6 1230.57   2
  -2   3 -11 26414.7 974.013   4
  -2   3 -12 3270.81 359.598   4
  -2   3 -12 3719.39 483.709   2
  -2   3 -12 3791.63 594.937   7
  -2   3 -13 11458.6 1076.72   7
  -2   3 -13 11685.4 887.122   2
  -2   3 -14 25763.9 1373.55   2
  -2   3 -14 25281.0 1673.21   7
  -2   3 -15 26329.3 1447.51   2
  -2   3 -16 590.989 269.023   2
  -2   3 -17 10212.5 991.813   2
  -2   3 -18 241.607 220.832   2
  -2   3 -19 1472.11 431.828   2
  -2   3 -20 8639.89 992.831   2
   2  -2 -20 5834.98 807.132   2
   2  -2 -19 166.522 177.418   4
   2  -2 -19 841.992 349.365   2
   2  -2 -18-422.631 247.234   4
   2  -2 -18 198.238 191.239   2
   2  -2 -17 7152.63 818.596   2
   2  -2 -17 8011.30 954.591   4
   2  -2 -16 559.124 259.854   4
   2  -2 -16 746.753 300.469   2
   2  -2 -15 2569.27 453.896   2
   2  -2 -15 2838.56 542.680   4
   2  -2 -14 5518.98 631.527   2
   2  -2 -14 5154.44 714.844   4
   2  -2 -13 690.866 275.977   4
   2  -2 -13 1135.08 290.700   2
   2  -2 -12 1200.87 357.057   4
   2  -2 -12 1150.49 256.586   2
   2  -2 -11 366.894 234.073   4
   2  -2 -11 202.005 146.331   2
   2  -2 -11 288.622 120.843   3
   2  -2 -10 26584.4 1357.71   1
   2  -2 -10 26175.5 1361.88   4
   2  -2 -10 27086.5 1119.16   2
   2  -2 -10 26072.5 957.424   3
   2  -2  -9 219.290 110.253   3
   2  -2  -9 238.081 124.146   2
   2  -2  -9 321.394 201.232   1
   2  -2  -8 453.549 153.103   3
   2  -2  -8 319.216 132.274   2
   2  -2  -8 355.744 172.580   1
   2  -2  -7 6155.78 429.621   2
   2  -2  -7 6920.70 586.152   1
   2  -2  -7 6271.44 451.804   3
   2  -2  -6 17112.9 652.085   2
   2  -2  -6 16642.1 847.262   1
   2  -2  -6 16982.8 713.511   3
   2  -2  -5 63350.5 1130.11   2
   2  -2  -5 61340.2 1514.07   1
   2  -2  -4-3.06113 108.826   1
   2  -2  -4 116.645 66.8175   2
   2  -2  -3 65004.8 846.934   2
   2  -2  -3 68437.6 1341.25   1
   2  -2  -2 93720.2 795.676   2
   2  -2  -2 96151.4 1435.17   1
   2  -2  -1 16013.2 600.374   3
   2  -2  -1 16335.9 519.189   1
   2  -2   0 76936.0 962.106   6
   2  -2   0 78217.0 1009.45   1
   2  -2   0 77628.6 1299.25   3
  -2   2  -1 109712. 735.951   2
   2  -2   1 110938. 1160.77   1
   2  -2   1 111549. 1527.10   3
   2  -2   2 27.8406 39.2638   1
   2  -2   2 45.5763 61.2981   3
  -2   2  -2 44.2534 28.3232   2
  -2   2  -3 33133.7 678.922   2
   2  -2   3 33788.5 832.856   3
   2  -2   3 33933.4 736.357   1
   2  -2   4 76029.8 1220.60   3
  -2   2  -4 75223.8 1501.30   7
  -2   2  -4 71714.5 1146.78   2
  -2   2  -5 30003.2 821.901   2
   2  -2   5 28848.7 725.980   3
  -2   2  -5 29540.1 588.229   4
  -2   2  -5 28532.9 1008.93   7
  -2   2  -6 943.715 211.502   7
  -2   2  -6 872.871 168.078   2
  -2   2  -6 971.211 124.894   4
   2  -2   6 838.602 120.712   3
  -2   2  -7 949.270 233.920   7
   2  -2   7 800.169 111.061   3
  -2   2  -7 1002.69 190.596   2
  -2   2  -7 897.330 135.432   4
  -2   2  -8 33754.5 1366.58   7
  -2   2  -8 32697.5 861.397   4
  -2   2  -8 32209.1 1094.87   2
  -2   2  -9 124859. 2308.32   2
  -2   2  -9 124747. 1836.11   4
  -2   2  -9 130654. 2842.57   7
  -2   2 -10 48738.3 1217.57   4
  -2   2 -10 47780.8 1522.27   2
  -2   2 -10 46760.1 1795.49   7
  -2   2 -11 5723.84 671.501   7
  -2   2 -11 6691.14 612.204   2
  -2   2 -11 6149.52 459.442   4
  -2   2 -12 2961.58 515.710   7
  -2   2 -12 3063.08 344.657   4
  -2   2 -12 2470.47 411.377   2
  -2   2 -13 1037.79 276.546   2
  -2   2 -13 697.024 308.811   7
  -2   2 -14 1273.46 329.051   2
  -2   2 -15-200.308 179.309   2
  -2   2 -16-102.664 172.434   2
  -2   2 -17 7652.85 862.234   2
  -2   2 -18-51.9191 139.789   2
  -2   2 -19 1086.86 354.870   2
  -2   2 -20 383.953 271.004   2
   2  -1 -20 21.0674 120.863   2
   2  -1 -19 1608.02 440.394   4
   2  -1 -19 1411.43 423.969   2
   2  -1 -18-23.4850 106.857   4
   2  -1 -18 359.999 232.646   2
   2  -1 -17 4155.29 627.425   2
   2  -1 -17 3594.37 639.948   4
   2  -1 -16 1396.50 395.442   4
   2  -1 -16 842.655 296.865   2
   2  -1 -15-74.8629 169.901   4
   2  -1 -15 379.420 243.562   2
   2  -1 -14 878.484 374.234   4
   2  -1 -14 660.917 267.643   2
   2  -1 -13 14020.0 1096.11   4
   2  -1 -13 12075.0 879.869   2
   2  -1 -12 4082.67 494.713   2
   2  -1 -12 4253.43 595.592   4
   2  -1 -11 43316.7 1480.18   2
   2  -1 -11 44993.7 1814.14   4
   2  -1 -11 43791.1 1048.48   3
   2  -1 -10 302.060 169.524   4
   2  -1 -10 230.112 151.921   2
   2  -1 -10 336.908 113.327   3
   2  -1  -9 9080.94 748.224   4
   2  -1  -9 9322.92 608.972   2
   2  -1  -9 9276.08 505.920   3
   2  -1  -8 1040.25 175.164   3
   2  -1  -8 851.107 232.388   4
   2  -1  -8 1116.05 212.471   2
   2  -1  -7 216385. 2491.26   2
   2  -1  -7 204782. 3193.95   4
   2  -1  -7 207264. 2370.05   3
   2  -1  -7 210883. 3178.10   1
   2  -1  -6 8254.40 445.644   2
   2  -1  -6 7771.67 580.634   1
   2  -1  -6 7895.96 453.243   3
   2  -1  -5 18904.8 611.036   2
   2  -1  -5 19091.9 829.534   1
   2  -1  -5 17834.3 671.977   3
   2  -1  -4 3109.74 287.725   3
   2  -1  -4 3335.57 229.223   2
   2  -1  -4 3353.85 328.510   1
   2  -1  -3 6108.58 397.660   1
   2  -1  -3 5950.34 373.317   3
   2  -1  -3 5904.17 258.193   2
   2  -1  -2 53.1693 50.7647   5
   2  -1  -2 87.1520 64.3358   3
   2  -1  -2 16.4365 18.6831   2
   2  -1  -2 77.8871 59.3170   1
   2  -1  -1 212500. 2106.41   3
   2  -1  -1 211561. 1753.94   1
   2  -1   0 25581.6 728.743   3
   2  -1   0 24467.8 488.169   1
   2  -1   1 286247. 1249.43   1
   2  -1   1 289765. 2412.59   3
   2  -1   2 2207.58 213.804   3
   2  -1   2 2220.42 114.462   1
   2  -1   2 2058.36 173.720   5
  -2   1  -2 2316.18 151.209   2
  -2   1  -3 325211. 2113.55   2
   2  -1   3 327259. 2511.97   3
  -2   1  -4 10501.5 513.973   7
  -2   1  -4 11556.5 461.171   2
   2  -1   4 11276.6 461.220   3
  -2   1  -5 4051.69 303.722   2
  -2   1  -5 3428.64 172.749   4
   2  -1   5 4045.41 272.824   3
  -2   1  -5 3751.94 345.887   7
  -2   1  -6 61681.4 1285.08   2
  -2   1  -6 65629.5 1521.39   7
  -2   1  -6 62649.1 886.777   4
   2  -1   6 62629.1 1057.63   3
  -2   1  -7 1254.06 245.084   7
  -2   1  -7 1349.33 221.111   2
  -2   1  -7 1307.79 151.489   4
   2  -1   7 1171.89 145.469   3
  -2   1  -8 14961.1 859.418   7
  -2   1  -8 13035.1 525.432   4
  -2   1  -8 13747.7 718.606   2
  -2   1  -9 26650.1 1067.69   2
  -2   1  -9 26698.2 827.283   4
  -2   1  -9 29473.8 1286.08   7
  -2   1 -10 1285.60 271.023   2
  -2   1 -10 971.152 174.064   4
  -2   1 -10 1452.04 332.419   7
  -2   1 -11 17894.8 772.587   4
  -2   1 -11 18449.5 1008.26   2
  -2   1 -11 18602.3 1148.48   7
  -2   1 -12 8689.66 744.762   2
  -2   1 -12 8177.70 801.317   7
  -2   1 -12 7435.23 531.838   4
  -2   1 -13 17444.9 1098.43   2
  -2   1 -14 4046.58 568.794   2
  -2   1 -15 16218.4 1161.43   2
  -2   1 -16 5022.72 674.069   2
  -2   1 -17 1835.00 454.404   2
  -2   1 -18 606.295 277.979   2
  -2   1 -19 1646.88 434.032   2
  -2   1 -20 1145.55 392.669   2
   2   0 -21 6904.58 887.274   2
   2   0 -20-46.8497 161.401   2
   2   0 -19 5120.44 768.334   4
   2   0 -19 3742.32 641.188   2
   2   0 -18-40.2768 141.163   2
   2   0 -18 389.596 218.974   4
   2   0 -17 6775.13 793.018   2
   2   0 -17 7275.81 900.294   4
   2   0 -16 4183.44 605.972   2
   2   0 -16 4162.15 668.342   4
   2   0 -15 2923.34 538.911   4
   2   0 -15 3653.31 525.083   2
   2   0 -14 2853.17 467.100   2
   2   0 -14 3569.35 576.065   4
   2   0 -13 6721.20 754.217   4
   2   0 -13 7206.32 679.671   2
   2   0 -12 866.539 289.117   4
   2   0 -12 427.319 164.753   2
   2   0 -11 2231.79 407.371   4
   2   0 -11 1963.55 336.680   2
   2   0 -10 4673.74 472.708   2
   2   0 -10 4486.34 301.289   3
   2   0 -10 5364.24 594.431   4
   2   0  -9 935.063 205.906   2
   2   0  -9 983.981 259.164   4
   2   0  -9 1281.66 168.482   3
   2   0  -8 22054.1 716.116   3
   2   0  -8 23279.4 1123.17   4
   2   0  -8 23120.2 891.874   2
   2   0  -7 50722.7 1206.16   2
   2   0  -7 48130.9 1056.23   3
   2   0  -7 51416.4 1567.99   4
   2   0  -6 8388.64 366.686   5
   2   0  -6 7681.76 436.686   2
   2   0  -6 8633.53 618.264   4
   2   0  -6 8337.13 441.363   3
   2   0  -5 5401.05 456.742   4
   2   0  -5 5169.00 352.300   3
   2   0  -5 5036.81 321.363   2
   2   0  -5 5409.37 303.558   5
   2   0  -4 55970.1 992.240   5
   2   0  -4 57406.7 973.179   2
   2   0  -4 56790.5 1360.68   4
   2   0  -4 54889.1 1125.11   3
   2   0  -3 3627.72 219.226   2
   2   0  -3 3657.83 319.464   4
   2   0  -3 3608.72 283.521   3
   2   0  -3 3722.50 255.693   5
   2   0  -2 8749.88 394.028   5
   2   0  -2 8169.39 435.472   4
   2   0  -2 7941.99 296.180   2
   2   0  -2 8298.60 424.217   3
   2   0  -1 161218. 1829.74   3
   2   0  -1 155624. 1641.56   4
   2   0   0 32020.1 632.127   4
   2   0   0 33030.2 837.465   3
   2   0   1 54400.4 648.407   4
   2   0   1 51976.9 1061.85   3
   2   0   2 8.00932 49.8148   5
   2   0   2-16.1348 60.0260   3
   2   0   3 156739. 1669.53   5
   2   0   3 154673. 1828.83   3
  -2   0  -4 7686.65 390.911   7
   2   0   4 8146.93 372.480   5
  -2   0  -4 7789.31 386.189   2
   2   0   4 7321.45 416.742   3
  -2   0  -5 31165.1 845.381   2
   2   0   5 31821.8 850.991   3
  -2   0  -5 31607.6 883.408   7
   2   0   5 31666.8 695.795   5
  -2   0  -5 31501.4 583.028   4
  -2   0  -6 53963.4 1278.22   7
   2   0   6 53845.1 1100.65   3
  -2   0  -6 51733.6 889.207   4
  -2   0  -6 49933.3 1181.35   2
   2   0   6 52650.9 848.321   5
  -2   0  -7 149564. 2214.04   2
  -2   0  -7 153062. 1715.39   4
  -2   0  -8 62939.8 1221.13   4
  -2   0  -8 61840.2 1526.81   2
  -2   0  -8 64731.3 1686.65   7
  -2   0  -9 24186.0 1095.03   7
  -2   0  -9 22401.8 782.529   4
  -2   0  -9 21727.7 976.900   2
  -2   0 -10 75.5356 136.393   7
  -2   0 -10 47.9292 136.513   2
  -2   0 -10 121.912 76.9433   4
  -2   0 -11 11723.0 647.449   4
  -2   0 -11 12636.7 903.204   7
  -2   0 -11 12223.6 833.439   2
  -2   0 -12 19197.2 866.713   4
  -2   0 -12 18855.0 1089.07   2
  -2   0 -13 71.0659 164.555   2
  -2   0 -14 2054.26 415.408   2
  -2   0 -15 1075.53 348.959   2
  -2   0 -16 5869.11 739.492   2
  -2   0 -17 1557.21 397.113   2
  -2   0 -18 6488.27 842.243   2
  -2   0 -19 12046.5 1171.86   2
  -2   0 -20-461.057 282.202   2
   2   1 -21-3.20063 134.799   2
   2   1 -20 1823.75 452.280   2
   2   1 -19 108.277 206.691   2
   2   1 -19 258.916 229.614   4
   2   1 -18 165.847 234.067   4
   2   1 -18-283.673 220.024   2
   2   1 -17-490.226 267.277   4
   2   1 -17-232.079 189.405   2
   2   1 -16-216.185 187.411   4
   2   1 -16 317.751 225.208   2
   2   1 -15 8944.99 933.722   4
   2   1 -15 9235.05 848.765   2
   2   1 -14 4299.44 552.380   2
   2   1 -14 4463.56 640.902   4
   2   1 -13 790.878 255.205   2
   2   1 -13 757.624 272.383   4
   2   1 -12 7733.88 784.318   4
   2   1 -12 8295.44 694.725   2
   2   1 -11 37751.5 1641.04   4
   2   1 -11 36973.7 1367.39   2
   2   1 -10 842.649 252.350   4
   2   1 -10 1205.43 245.426   2
   2   1 -10 861.941 118.922   3
   2   1  -9 5429.60 471.841   2
   2   1  -9 4615.43 256.585   5
   2   1  -9 5197.08 554.095   4
   2   1  -9 4290.91 291.211   3
   2   1  -8 5551.32 444.659   2
   2   1  -8 5108.03 527.180   4
   2   1  -8 5946.20 360.329   3
   2   1  -7 13114.8 524.929   5
   2   1  -7 13063.8 626.519   2
   2   1  -7 13614.5 558.922   3
   2   1  -7 13467.8 809.373   4
   2   1  -6 32313.8 867.545   5
   2   1  -6 33235.3 930.882   2
   2   1  -6 33638.3 1192.07   4
   2   1  -6 33125.5 879.384   3
   2   1  -5 46480.7 1043.27   5
   2   1  -5 43852.5 1284.05   4
   2   1  -5 46063.8 1013.80   2
   2   1  -5 46788.0 1048.20   3
   2   1  -4 295.193 90.2051   2
   2   1  -4 335.717 114.494   5
   2   1  -4 170.364 113.326   4
   2   1  -4 334.373 112.838   3
   2   1  -3 52765.0 1120.54   3
   2   1  -3 50810.9 1122.78   5
   2   1  -3 50282.7 1169.84   4
   2   1  -3 52147.6 947.942   2
   2   1  -2 58608.8 1204.07   5
   2   1  -2 56309.7 1146.57   4
   2   1  -1 432598. 2887.35   4
   2   1  -1 431045. 3236.97   3
   2   1   0 84845.8 1458.00   3
   2   1   0 83771.4 1144.01   4
   2   1   1 61604.6 861.985   4
  -2  -1  -1 62789.3 754.812   1
   2   1   1 63276.1 1269.70   3
   2   1   2 41561.0 1010.65   5
  -2  -1  -2 42615.0 541.695   1
   2   1   2 41021.3 1051.15   3
  -2  -1  -3 67.1200 44.4399   1
   2   1   3-3.64868 67.9193   5
   2   1   3-82.6488 110.317   3
  -2  -1  -4 3316.31 226.973   1
   2   1   4 3191.78 309.847   3
   2   1   4 3608.26 296.493   5
  -2  -1  -4 3638.30 239.774   7
   2   1   5 23021.1 734.476   5
  -2  -1  -5 22520.2 666.171   1
  -2  -1  -5 23716.8 781.900   2
   2   1   5 23975.5 832.878   3
  -2  -1  -5 24049.0 684.072   7
  -2  -1  -6 11352.2 577.452   2
  -2  -1  -6 11236.0 533.786   7
  -2  -1  -6 11068.4 526.002   1
   2   1   6 12178.2 527.573   5
  -2  -1  -7 3944.46 352.548   7
  -2  -1  -7 4118.12 380.992   2
   2   1   7 4028.39 287.129   5
   2   1   8 11869.1 431.573   5
  -2  -1  -8 11335.1 672.042   2
  -2  -1  -8 12449.9 668.973   7
  -2  -1  -9 8304.77 621.415   2
  -2  -1  -9 8399.75 526.670   4
  -2  -1  -9 9195.00 632.796   7
  -2  -1 -10 1147.59 219.860   4
  -2  -1 -10 1235.34 267.652   2
  -2  -1 -11 6329.48 606.893   2
  -2  -1 -11 5665.17 474.563   4
  -2  -1 -12 1329.60 232.018   4
  -2  -1 -12 1287.26 316.957   2
  -2  -1 -13 12593.1 945.127   2
  -2  -1 -14-100.243 179.442   2
  -2  -1 -15 447.867 243.412   2
  -2  -1 -16-2.55679 128.806   2
  -2  -1 -17 360.780 244.116   2
  -2  -1 -18 4464.38 725.109   2
  -2  -1 -19 254.425 235.778   2
  -2  -1 -20 1314.09 424.166   2
   2   2 -20 2858.65 581.346   2
   2   2 -19 6401.45 869.703   4
   2   2 -19 7110.04 879.023   2
   2   2 -18 981.000 368.850   4
   2   2 -18 490.734 280.290   2
   2   2 -17 5896.32 749.163   2
   2   2 -17 7062.16 899.157   4
   2   2 -16 2925.66 571.002   4
   2   2 -16 2814.00 509.324   2
   2   2 -15 18376.1 1192.32   2
   2   2 -15 19347.4 1375.17   4
   2   2 -14 15401.5 1186.78   4
   2   2 -14 13107.1 968.880   2
   2   2 -13 10644.6 949.245   4
   2   2 -13 8890.64 758.266   2
   2   2 -12 9519.43 866.069   4
   2   2 -12 7139.95 656.992   2
   2   2 -11 10928.0 888.656   4
   2   2 -11 12707.2 816.787   2
   2   2 -10 10252.8 460.819   5
   2   2 -10 10076.5 825.771   4
   2   2 -10 10513.4 706.255   2
   2   2  -9 6137.86 347.504   3
   2   2  -9 6681.25 409.085   5
   2   2  -9 6428.80 633.131   4
   2   2  -9 6726.40 532.551   2
   2   2  -8 24404.9 1157.50   4
   2   2  -8 25762.6 773.670   3
   2   2  -8 25705.2 974.272   2
   2   2  -8 25844.5 852.625   5
   2   2  -7 6765.90 455.381   5
   2   2  -7 6599.28 467.965   2
   2   2  -7 6143.75 556.434   4
   2   2  -7 6195.40 406.265   3
   2   2  -6 79279.2 1452.98   3
   2   2  -6 78280.2 1863.19   4
   2   2  -6 80024.5 1532.51   2
   2   2  -6 79329.5 1597.86   5
   2   2  -5 16118.6 717.460   5
   2   2  -5 17542.7 686.537   2
   2   2  -5 17095.7 818.849   4
   2   2  -5 15899.7 670.358   3
   2   2  -4 8781.43 533.600   5
   2   2  -4 8849.26 461.255   2
   2   2  -4 7658.01 524.537   4
   2   2  -4 7651.46 462.562   3
   2   2  -3 881.566 146.114   2
   2   2  -3 468.344 139.339   4
   2   2  -3 820.406 165.285   3
   2   2  -2 72744.6 1391.72   4
   2   2  -2 69758.6 1425.08   3
   2   2  -1 73102.9 1297.25   4
   2   2  -1 69730.8 1445.78   3
   2   2   0 1487.17 180.796   4
   2   2   0 1629.67 170.930   6
  -2  -2   0 1537.63 181.234   1
   2   2   0 1492.49 232.740   3
   2   2   1 52777.9 1002.98   6
   2   2   1 55306.0 1330.19   3
  -2  -2  -1 53268.4 943.411   1
  -2  -2  -2 5266.42 273.769   1
   2   2   2 5249.36 418.354   3
  -2  -2  -3 379.515 84.8150   1
   2   2   3 262.715 124.791   3
   2   2   3 279.824 119.245   5
  -2  -2  -4 52240.1 972.265   1
   2   2   4 50551.2 1271.75   5
  -2  -2  -4 53061.5 717.286   7
   2   2   5 116679. 1898.10   5
  -2  -2  -5 119690. 1676.18   1
   2   2   6 54000.6 1284.15   5
  -2  -2  -6 54039.0 1228.48   1
  -2  -2  -7 1364.59 249.402   2
  -2  -2  -7 1384.25 228.361   1
   2   2   7 1524.85 214.626   5
  -2  -2  -7 1250.71 171.827   7
  -2  -2  -8 6408.08 502.298   1
   2   2   8 7109.55 437.648   5
  -2  -2  -8 5815.66 497.717   2
  -2  -2  -9 8130.59 603.312   1
   2   2   9 8536.02 439.065   5
  -2  -2  -9 7678.34 602.925   2
  -2  -2 -10 744.207 244.635   2
  -2  -2 -11 785.869 259.034   2
  -2  -2 -11 864.291 209.233   4
  -2  -2 -12 5922.50 542.345   4
  -2  -2 -12 6434.75 660.645   2
  -2  -2 -13 255.237 204.821   2
  -2  -2 -14 9932.70 896.520   2
  -2  -2 -15 8456.38 873.327   2
  -2  -2 -16 16695.0 1262.04   2
  -2  -2 -17 1083.29 352.287   2
  -2  -2 -18 1254.76 394.422   2
  -2  -2 -19 3294.29 643.464   2
   2   3 -20 5861.29 844.870   2
   2   3 -19 3383.94 630.047   2
   2   3 -19 2787.66 561.271   4
   2   3 -18 5005.42 719.953   2
   2   3 -18 5340.69 777.511   4
   2   3 -17 8251.42 885.364   2
   2   3 -17 8197.89 966.812   4
   2   3 -16 19105.9 1431.43   4
   2   3 -16 18697.3 1281.29   2
   2   3 -15 293.684 211.733   4
   2   3 -15 565.377 245.722   2
   2   3 -14 5253.29 709.120   4
   2   3 -14 5142.89 620.805   2
   2   3 -13 133.256 167.286   4
   2   3 -13-186.093 157.683   2
   2   3 -12-380.869 215.738   4
   2   3 -12 19.1985 147.473   2
   2   3 -11 10320.1 537.599   5
   2   3 -11 9989.11 747.296   2
   2   3 -11 9642.48 855.503   4
   2   3 -10 17539.0 1094.73   4
   2   3 -10 19234.9 803.396   5
   2   3 -10 16922.0 918.497   2
   2   3  -9 21853.9 897.471   5
   2   3  -9 21763.8 998.123   2
   2   3  -9 24216.5 1234.16   4
   2   3  -8 1351.15 298.576   4
   2   3  -8 1784.84 276.168   5
   2   3  -8 1995.57 293.026   2
   2   3  -7 1514.43 255.082   5
   2   3  -7 2051.78 288.341   2
   2   3  -7 1392.93 289.896   4
   2   3  -7 1651.64 230.126   3
   2   3  -6 16904.7 760.615   2
   2   3  -6 15593.6 859.613   4
   2   3  -6 14995.3 688.594   3
   2   3  -5 20492.0 936.683   4
   2   3  -5 20731.7 806.395   2
   2   3  -5 20992.6 819.653   3
   2   3  -4 21272.0 903.530   4
   2   3  -4 20138.8 811.322   3
   2   3  -3 12106.1 648.813   4
   2   3  -3 12384.0 646.216   3
   2   3  -2 17169.6 726.861   4
   2   3  -2 16784.6 777.004   3
   2   3  -1 11781.7 662.588   3
   2   3  -1 12390.6 579.987   4
   2   3   0 145141. 1642.19   6
  -2  -3   0 141028. 1959.03   1
   2   3   0 144399. 1871.63   4
  -2  -3  -1 30754.9 859.524   1
   2   3   1 31432.2 1108.21   3
   2   3   1 30091.9 781.972   6
  -2  -3  -2 27375.6 772.575   1
  -2  -3  -3 38075.0 895.440   1
  -2  -3  -4 4629.79 331.572   1
  -2  -3  -5 23939.6 815.989   1
  -2  -3  -6 2776.96 308.403   1
  -2  -3  -7 834.823 207.476   2
  -2  -3  -7 656.529 171.135   1
  -2  -3  -8 4632.54 444.937   1
  -2  -3  -8 4942.96 483.277   2
  -2  -3  -9 699.103 234.599   2
  -2  -3  -9 320.833 148.758   1
  -2  -3 -10 8493.31 695.514   2
  -2  -3 -10 7863.46 652.201   1
  -2  -3 -11 2160.52 388.667   2
  -2  -3 -12 20928.3 1205.31   2
  -2  -3 -13 123.097 171.535   2
  -2  -3 -14-138.627 191.520   2
  -2  -3 -15 1959.24 436.763   2
  -2  -3 -16 710.277 307.479   2
  -2  -3 -17 193.687 203.041   2
  -2  -3 -18 1.55203 165.584   2
  -2  -3 -19 246.550 221.072   2
   2   4 -20 1270.70 406.968   2
   2   4 -19 1717.39 458.751   4
   2   4 -19 1260.75 396.898   2
   2   4 -18 136.513 185.416   2
   2   4 -18-69.0345 124.691   4
   2   4 -17 16171.0 1275.77   2
   2   4 -17 15571.3 1320.66   4
   2   4 -16 1637.86 413.083   4
   2   4 -16 1156.41 369.333   2
   2   4 -15 7831.67 896.266   4
   2   4 -15 5475.21 690.786   2
   2   4 -14 3624.96 541.559   2
   2   4 -14 3573.53 593.713   4
   2   4 -13 7558.09 741.500   2
   2   4 -13 8028.79 860.017   4
   2   4 -12 10854.9 958.344   4
   2   4 -12 10455.5 830.457   2
   2   4 -11 7481.07 773.365   4
   2   4 -11 8118.19 581.102   5
   2   4 -11 7678.68 684.904   2
   2   4 -10 32171.3 1337.67   2
   2   4 -10 36238.1 1618.57   4
   2   4 -10 34702.6 1257.56   5
   2   4  -9 462.568 216.589   4
   2   4  -9 430.841 170.499   5
   2   4  -9 546.732 196.998   2
   2   4  -8 13361.2 790.178   2
   2   4  -8 12561.8 877.077   4
   2   4  -7 9297.43 636.549   2
   2   4  -7 8146.40 686.486   4
   2   4  -6 42650.3 1289.09   2
   2   4  -6 38767.6 1408.37   4
   2   4  -5 20915.9 983.332   4
   2   4  -4 4204.14 427.795   4
   2   4  -3 17529.6 819.033   4
   2   4  -2 19294.8 821.481   4
   2   4  -1 37898.4 1104.82   4
  -2  -4   1 36413.8 1173.03   1
   2   4   0 2404.53 224.566   6
  -2  -4   0 2510.67 301.690   1
   2   4   1 108992. 1532.64   6
  -2  -4  -1 113109. 1890.57   1
   2   4   2 25373.6 785.708   6
  -2  -4  -2 26572.6 880.778   1
  -2  -4  -3 26828.3 871.765   1
  -2  -4  -4 41454.8 1108.47   1
  -2  -4  -5 38.5248 91.0254   1
  -2  -4  -6 11045.5 647.027   1
   2   4   7 1748.00 315.137   5
  -2  -4  -7 2095.58 319.396   1
   2   4   8 969.312 224.923   5
  -2  -4  -8 1197.04 278.014   2
  -2  -4  -8 1189.80 263.746   1
  -2  -4  -9 65.1602 112.940   2
  -2  -4  -9-18.9787 113.222   1
   2   4   9 112.052 74.4981   5
  -2  -4 -10 4203.17 512.496   2
  -2  -4 -10 4412.80 514.177   1
  -2  -4 -11 7567.08 714.289   2
  -2  -4 -11 7982.34 717.046   1
  -2  -4 -12 4984.01 615.547   2
  -2  -4 -13 350.140 223.319   2
  -2  -4 -14 2477.80 468.826   2
  -2  -4 -15 786.542 331.459   2
  -2  -4 -16 4411.86 697.694   2
  -2  -4 -17 1476.67 425.211   2
  -2  -4 -18 5847.11 828.405   2
  -2  -4 -19 135.101 205.671   2
   2   5 -20 2917.46 635.150   2
   2   5 -19 455.385 259.157   4
   2   5 -19-100.005 210.396   2
   2   5 -18 18892.2 1440.94   2
   2   5 -18 18618.4 1457.94   4
   2   5 -17 3352.15 618.936   4
   2   5 -17 3738.23 626.865   2
   2   5 -16 1839.12 461.396   4
   2   5 -16 1080.99 343.764   2
   2   5 -15 451.698 251.953   2
   2   5 -15 640.982 282.040   4
   2   5 -14 9451.72 961.728   4
   2   5 -14 8885.67 865.514   2
   2   5 -13 1100.04 308.537   2
   2   5 -13 1573.75 404.542   4
   2   5 -12 25054.7 1460.95   4
   2   5 -12 21472.7 1231.73   2
   2   5 -11 91.9367 107.438   5
   2   5 -11 415.618 227.718   4
   2   5 -11 636.236 234.275   2
   2   5 -10 1618.61 309.757   5
   2   5 -10 1521.93 332.687   4
   2   5 -10 1543.52 326.490   2
   2   5  -9 9424.78 818.127   4
   2   5  -9 9238.62 723.876   2
   2   5  -8 37961.2 1401.69   2
   2   5  -8 37055.8 1544.15   4
   2   5  -7 95.5036 121.027   2
   2   5  -7 201.696 160.849   4
   2   5  -6 16602.9 953.609   4
   2   5  -5 634.022 202.598   4
   2   5  -4 112297. 2271.26   4
   2   5  -3 81556.6 1871.92   4
  -2  -5   3 80092.7 2039.49   1
  -2  -5   2 5237.01 518.706   1
   2   5  -2 5148.03 464.460   4
  -2  -5   1 9391.76 649.997   1
   2   5   0 7284.67 386.868   6
  -2  -5   0 6807.41 544.430   1
   2   5   1 3363.65 273.848   6
  -2  -5  -1 3810.86 396.629   1
  -2  -5  -2 5528.74 456.926   1
   2   5   2 4919.35 361.501   6
  -2  -5  -3 7420.30 523.257   1
  -2  -5  -4 13931.5 716.320   1
  -2  -5  -5 5711.92 480.931   1
  -2  -5  -6 5449.24 491.964   1
  -2  -5  -7 10142.6 705.592   1
   2   5   8 11857.6 845.762   5
  -2  -5  -8 12168.3 817.928   1
  -2  -5  -8 13077.6 853.907   2
  -2  -5  -9 2104.60 379.095   2
   2   5   9 1362.47 306.714   5
  -2  -5  -9 1582.74 319.938   1
  -2  -5 -10 9911.39 806.761   1
  -2  -5 -10 9776.72 797.626   2
  -2  -5 -11 140.443 151.411   2
  -2  -5 -11 62.2948 138.671   1
  -2  -5 -12 2885.04 473.438   2
  -2  -5 -12 3281.45 508.842   1
  -2  -5 -13 157.789 213.240   2
  -2  -5 -14 3813.90 599.735   2
  -2  -5 -15 254.204 231.949   2
  -2  -5 -16 268.966 204.080   2
  -2  -5 -17 1.55099 142.097   2
  -2  -5 -18 245.788 221.651   2
   2   6 -19 495.191 259.690   4
   2   6 -19 113.079 211.313   2
   2   6 -18 2126.52 527.458   2
   2   6 -18 2509.92 534.215   4
   2   6 -17 1508.14 426.490   4
   2   6 -17 2105.61 485.315   2
   2   6 -16 2547.26 547.226   4
   2   6 -16 2413.68 502.650   2
   2   6 -15 1180.08 352.447   2
   2   6 -15 695.934 284.267   4
   2   6 -14 60.7081 160.084   2
   2   6 -14 252.998 187.868   4
   2   6 -13 2333.63 477.315   4
   2   6 -13 1897.83 405.371   2
   2   6 -12 26564.6 1528.15   4
   2   6 -12 26119.2 1276.08   5
   2   6 -12 24136.5 1359.87   2
   2   6 -11-134.191 143.285   4
   2   6 -11-338.745 189.134   2
   2   6 -11 99.2456 121.721   5
   2   6 -10 3669.40 502.918   2
   2   6 -10 3346.37 528.146   4
   2   6  -9 3110.95 457.302   2
   2   6  -9 2343.25 436.247   4
   2   6  -8 22116.6 1231.71   4
   2   6  -7 523.895 228.792   4
   2   6  -6 15662.1 959.699   4
   2   6  -5 18832.3 1016.70   4
   2   6  -4 94137.3 2199.96   4
  -2  -6   4 93960.4 2465.23   1
  -2  -6   3 3285.31 461.184   1
   2   6  -3 3266.04 422.300   4
  -2  -6   2 23965.5 1175.57   1
  -2  -6   1 8580.11 685.233   1
  -2  -6   0 19673.6 1004.04   1
   2   6   1 10071.2 490.432   6
  -2  -6  -1 11608.9 752.357   1
   2   6   2 19853.8 725.491   6
  -2  -6  -2 18346.5 913.841   1
   2   6   3 1639.61 232.728   6
  -2  -6  -3 1521.12 280.139   1
  -2  -6  -4 1488.46 273.707   1
  -2  -6  -5 5514.27 523.009   1
  -2  -6  -6 18363.6 977.743   1
  -2  -6  -7 731.851 232.151   1
  -2  -6  -8 8404.28 733.226   1
  -2  -6  -8 8003.88 704.924   2
  -2  -6  -9 398.408 190.559   1
   2   6   9 635.304 235.810   5
  -2  -6  -9 516.010 219.083   2
  -2  -6 -10 922.096 286.211   2
  -2  -6 -10 1103.95 283.735   1
  -2  -6 -11 374.729 212.114   2
  -2  -6 -11 466.844 223.068   1
  -2  -6 -12 212.325 189.135   2
  -2  -6 -12-236.710 190.199   1
  -2  -6 -13 528.159 243.455   2
  -2  -6 -14 3395.83 589.023   2
  -2  -6 -15 3295.03 593.089   2
  -2  -6 -16-626.559 305.416   2
  -2  -6 -17 2084.40 499.457   2
   2   7 -18 6086.49 836.723   4
   2   7 -18 5386.22 810.852   2
   2   7 -17 4421.17 723.762   4
   2   7 -17 5140.99 782.574   2
   2   7 -16 1715.72 446.155   2
   2   7 -16 1378.24 401.765   4
   2   7 -15 670.576 286.106   4
   2   7 -15 1258.93 384.734   2
   2   7 -14 37234.7 1867.64   2
   2   7 -14 35469.6 1897.88   4
   2   7 -13 3188.28 538.938   2
   2   7 -13 3006.59 564.801   4
   2   7 -12 5970.49 670.050   5
   2   7 -12 6755.77 798.800   4
   2   7 -11 5521.45 704.786   4
   2   7 -11 4682.90 615.715   5
   2   7 -10 28304.4 1526.09   4
   2   7  -9 5061.95 637.114   4
   2   7  -8-188.381 157.754   4
   2   7  -7 12039.0 907.858   4
   2   7  -6 15868.1 1016.70   4
  -2  -7   6 17432.0 1226.06   1
   2   7  -5 32963.6 1420.90   4
  -2  -7   5 38046.6 1752.35   1
  -2  -7   4 161.584 162.047   1
  -2  -7   3 158.336 204.370   1
  -2  -7   2 46255.1 1745.32   1
  -2  -7   1 154.278 189.350   1
  -2  -7   0 4255.96 510.137   1
   2   7   1 14403.4 576.376   6
  -2  -7  -1 15324.7 924.384   1
  -2  -7  -2 7127.81 626.454   1
   2   7   2 6966.49 432.064   6
   2   7   3 4395.43 372.369   6
  -2  -7  -3 3467.72 440.397   1
   2   7   4 1108.97 210.606   6
  -2  -7  -4 800.759 224.468   1
  -2  -7  -5 18853.5 1041.13   1
  -2  -7  -6 16774.7 1007.74   1
  -2  -7  -7-49.3161 123.502   1
  -2  -7  -8 8864.48 802.442   1
   2   7   9 14212.9 1094.25   5
  -2  -7  -9 13708.8 996.992   2
  -2  -7  -9 16025.8 1117.58   1
  -2  -7 -10 1640.00 394.105   2
  -2  -7 -10 1134.74 333.511   1
  -2  -7 -11 117.009 192.567   1
  -2  -7 -11 558.738 268.680   2
  -2  -7 -12-1.21235 146.981   2
  -2  -7 -12 172.810 175.618   1
  -2  -7 -13 112.537 171.945   2
  -2  -7 -14 3308.32 601.628   2
  -2  -7 -15 907.443 338.902   2
  -2  -7 -16 3929.03 692.683   2
   2   8 -18 989.376 352.907   4
   2   8 -17 5075.56 750.846   4
   2   8 -16 715.427 284.774   4
   2   8 -15 2201.62 491.302   4
   2   8 -14-204.245 179.807   4
   2   8 -13 5928.28 790.809   4
   2   8 -12 11723.5 1019.51   5
   2   8 -12 14153.4 1168.75   4
   2   8 -11 36544.9 1821.51   4
   2   8 -10 6983.67 780.664   4
   2   8  -9 468.623 226.586   4
  -2  -8   9 351.040 224.754   1
   2   8  -8 790.327 281.815   4
  -2  -8   8 433.427 275.431   1
  -2  -8   7 23906.1 1560.30   1
  -2  -8   6 29456.7 1680.75   1
  -2  -8   5 2634.99 510.295   1
  -2  -8   4 2483.93 478.587   1
  -2  -8   3 3578.75 552.491   1
  -2  -8   2 2790.18 481.881   1
  -2  -8   1 15783.2 1064.08   1
  -2  -8   0 3854.48 528.662   1
  -2  -8  -1 20597.3 1157.56   1
   2   8   2 5420.07 375.584   6
  -2  -8  -2 5697.55 613.423   1
  -2  -8  -3 1478.18 307.875   1
   2   8   3 1265.44 201.954   6
  -2  -8  -4 6328.99 646.071   1
   2   8   4 6803.59 497.235   6
   2   8   5 158.958 94.0917   6
  -2  -8  -5 480.241 212.908   1
  -2  -8  -6 42.0430 136.237   1
   2   8   6 70.8566 90.7295   6
  -2  -8  -7 10314.7 889.561   1
  -2  -8  -8 17825.4 1212.50   1
  -2  -8  -9 14494.6 1126.26   1
  -2  -8  -9 13594.1 1042.10   2
   2   8   9 13047.4 1138.75   5
  -2  -8 -10 1934.80 437.769   1
  -2  -8 -10 2374.89 460.974   2
  -2  -8 -11 1597.99 410.794   2
  -2  -8 -11 929.104 322.247   1
  -2  -8 -12 3754.01 594.648   2
  -2  -8 -13 728.751 291.355   2
  -2  -8 -14 512.062 269.924   2
  -2  -8 -15 254.068 230.501   2
  -2  -9  17-312.031 286.073   1
  -2  -9  16 3574.20 808.693   1
  -2  -9  15-417.821 296.951   1
  -2  -9  14 2482.83 652.106   1
  -2  -9  13 4416.49 859.143   1
  -2  -9  12 20317.9 1722.63   1
   2   9 -12 17439.6 1336.81   5
  -2  -9  11 1112.98 433.446   1
  -2  -9  10 75.7692 228.676   1
  -2  -9   9 10094.7 1138.45   1
  -2  -9   8 5686.49 825.817   1
  -2  -9   7 21467.6 1544.31   1
  -2  -9   6 529.401 251.521   1
  -2  -9   5 1188.28 391.111   1
  -2  -9   4 104.885 205.645   1
  -2  -9   3 288.449 289.003   1
  -2  -9   2 3531.26 575.367   1
  -2  -9   1 8531.80 845.892   1
  -2  -9   0 22601.4 1319.97   1
  -2  -9  -1 4255.99 580.112   1
  -2  -9  -2 4050.41 563.862   1
  -2  -9  -3 40532.4 1724.09   1
  -2  -9  -4 284.549 175.657   1
  -2  -9  -5 608.674 249.108   1
  -2  -9  -6 2893.17 496.910   1
  -2  -9  -7 10723.2 974.928   1
  -2  -9  -8 416.944 208.151   1
  -2  -9  -9 332.569 252.697   2
  -2  -9  -9 650.169 271.514   1
  -2  -9 -10 2115.57 471.453   2
  -2  -9 -10 1747.66 440.093   1
  -2  -9 -11 3016.06 558.897   2
  -2  -9 -12 598.482 290.983   2
  -2  -9 -13 240.497 190.862   2
  -2  -9 -14 78.1322 208.626   2
  -2 -10  16 324.691 276.928   1
  -2 -10  15 3400.57 818.141   1
  -2 -10  14 30.8261 196.592   1
  -2 -10  13 9461.55 1254.26   1
  -2 -10  12 751.606 402.707   1
   2  10 -12 98.0309 184.537   5
  -2 -10  11 7283.35 1034.66   1
  -2 -10  10 12477.0 1328.26   1
  -2 -10   9 46901.7 2496.74   1
  -2 -10   8 21505.6 1651.18   1
  -2 -10   7 16087.0 1393.46   1
  -2 -10   6 310.590 253.256   1
  -2 -10   5 10674.2 1089.23   1
  -2 -10   4 1083.90 380.560   1
  -2 -10   3 3637.49 604.556   1
  -2 -10   2 1144.20 364.309   1
  -2 -10   1 14823.7 1151.18   1
  -2 -10   0 4139.16 608.704   1
  -2 -10  -1 5071.61 675.971   1
  -2 -10  -2 1881.87 419.559   1
  -2 -10  -3 21349.5 1351.63   1
  -2 -10  -4 13256.7 1082.89   1
  -2 -10  -5 1723.18 429.230   1
  -2 -10  -6-14.3021 134.648   1
  -2 -10  -7 3088.56 584.272   1
  -2 -10  -8 480.302 264.018   1
  -2 -10  -8 879.967 296.102   2
  -2 -10  -9 193.402 183.069   2
  -2 -10  -9 701.348 345.929   1
  -2 -10 -10 1420.36 417.574   2
  -2 -10 -11 2326.80 506.311   2
  -2 -10 -12 1718.66 423.376   2
  -2 -10 -13 1205.90 371.690   2
  -2 -11  14 904.012 483.800   1
  -2 -11  13-646.657 510.954   1
  -2 -11  12-647.371 353.270   1
  -2 -11  11 7826.56 1115.37   1
  -2 -11  10 771.204 413.335   1
  -2 -11   9 395.771 321.281   1
  -2 -11   8 629.036 349.789   1
  -2 -11   7 7588.64 1013.27   1
  -2 -11   6 7849.49 981.665   1
  -2 -11   5 2284.82 550.209   1
  -2 -11   4-3.10481 255.407   1
  -2 -11   3 2558.58 557.181   1
  -2 -11   2 903.996 310.865   1
  -2 -11   1 2655.35 545.845   1
  -2 -11   0 58.7843 181.840   1
  -2 -11  -1 2917.42 545.469   1
  -2 -11  -2 2868.28 550.284   1
  -2 -11  -3 12859.2 1119.54   1
  -2 -11  -4 5082.99 735.135   1
  -2 -11  -5 9914.54 1012.94   1
  -2 -11  -6 6469.91 849.259   1
  -2 -11  -7 1300.17 407.779   1
  -2 -11  -8 154.048 212.963   1
  -2 -11  -8-220.989 199.558   2
  -2 -11  -9 2555.05 522.230   2
  -2 -11 -10 931.573 335.578   2
  -2 -11 -11 872.741 337.552   2
  -2 -11 -12 313.721 272.670   2
  -2 -12  13 417.108 406.772   1
  -2 -12  12 126.318 321.456   1
  -2 -12  11 7303.21 1117.93   1
  -2 -12  10 529.281 312.716   1
  -2 -12   9 3149.08 714.953   1
  -2 -12   8 2844.05 672.822   1
  -2 -12   7 12760.9 1344.52   1
  -2 -12   6-232.320 267.349   1
  -2 -12   5 11817.5 1235.41   1
  -2 -12   4 150.916 215.705   1
  -2 -12   3 3087.17 613.845   1
  -2 -12   2-49.4660 225.959   1
  -2 -12   1 1060.12 365.546   1
  -2 -12   0 878.071 337.611   1
  -2 -12  -1 4258.75 700.392   1
  -2 -12  -2 574.755 285.882   1
  -2 -12  -3 878.251 343.239   1
  -2 -12  -4 533.497 276.912   1
  -2 -12  -5 21019.4 1558.57   1
  -2 -12  -6 1297.07 421.654   1
  -2 -12  -7 608.806 219.941   1
  -2 -12  -8 271.059 207.010   2
  -2 -12  -9 105.434 195.245   2
  -2 -12 -10 337.071 232.240   2
   2  13 -11 266.648 238.949   5
  -2 -13  10 4867.59 890.196   1
  -2 -13   9 474.867 139.594   1
  -2 -13   8 1131.60 456.831   1
  -2 -13   7-320.166 274.572   1
  -2 -13   6 465.690 302.567   1
  -2 -13   5 442.667 294.140   1
  -2 -13   4 1802.99 544.029   1
  -2 -13   3 1652.14 467.311   1
  -2 -13   2 3658.47 691.112   1
  -2 -13   1-246.549 225.306   1
  -2 -13   0-215.654 209.639   1
  -2 -13  -1 242.209 200.034   1
  -2 -13  -2 1204.22 374.197   1
  -2 -13  -3-125.849 185.290   1
  -2 -13  -4 473.781 343.204   1
  -2 -13  -5 352.005 279.846   1
  -2 -13  -6 799.233 352.851   1
  -2 -13  -7 105.617 170.381   2
   2  13   7 698.600 422.154   5
  -2 -14   7-637.284 360.945   1
  -2 -14   6 142.400 263.696   1
  -2 -14   5 2210.06 589.934   1
  -2 -14   4-159.712 216.713   1
  -2 -14   3 654.271 328.597   1
  -2 -14   2 1293.60 416.771   1
  -2 -14   1 183.462 231.126   1
  -2 -14   0-8.74257 158.325   1
  -2 -14  -1 548.335 266.413   1
  -2 -14  -2 2240.60 534.554   1
  -2 -14  -3 1060.96 391.307   1
  -2 -14  -4-685.100 300.754   1
   3 -15  -5 808.672 364.356   1
   3 -15  -4-357.780 313.283   1
   3 -15  -3-247.515 281.111   1
   3 -15  -2-79.7566 330.620   1
   3 -15  -1 702.403 379.110   1
   3 -15   0-15.7213 209.436   1
   3 -15   1 3588.73 730.948   1
   3 -15   2-11.5712 173.645   1
   3 -15   3 8398.41 1096.25   1
   3 -15   4 1906.82 581.250   1
   3 -15   5 232.089 256.465   1
   3 -15   6 1650.06 507.432   1
   3 -15   7-283.068 246.447   1
  -3  15  -8 2145.56 710.017   7
   3 -15   8 947.424 397.202   1
   3 -14  -8 886.206 438.691   1
   3 -14  -7 888.817 400.176   1
   3 -14  -6-99.8310 189.140   1
   3 -14  -5 540.994 346.845   1
   3 -14  -4 1061.22 412.949   1
   3 -14  -3 1262.79 438.048   1
   3 -14  -2 767.970 359.748   1
   3 -14  -1 155.239 238.314   1
   3 -14   0 381.342 293.806   1
   3 -14   1 382.767 289.624   1
   3 -14   2 1427.41 435.649   1
   3 -14   3 2100.79 518.283   1
   3 -14   4 252.394 244.601   1
   3 -14   5 469.244 313.849   1
  -3  14  -5-75.9205 235.864   7
   3 -14   6 410.913 287.935   1
  -3  14  -6 589.113 335.531   7
  -3  14  -7 11424.0 1398.64   7
   3 -14   7 13038.3 1340.91   1
   3 -14   8 7090.31 1005.80   1
  -3  14  -8 5346.79 987.077   7
   3 -14   9 104.651 221.851   1
  -3  14  -9 555.308 381.823   7
  -3  14 -10 1231.04 549.264   7
   3 -14  10 376.100 251.592   1
  -3  14 -11 6733.50 1182.13   7
   3 -14  11 4876.78 845.685   1
   3 -13 -10-326.476 320.334   1
   3 -13  -9 387.476 402.987   1
   3 -13  -8-249.976 279.395   1
   3 -13  -7 1301.28 462.894   1
   3 -13  -6 276.126 313.239   1
   3 -13  -5 3711.89 734.499   1
   3 -13  -4-436.868 289.832   1
   3 -13  -3 9455.40 1099.21   1
   3 -13  -2 105.652 222.318   1
   3 -13  -1 804.362 347.858   1
   3 -13   0 1638.69 459.359   1
   3 -13   1 4813.35 750.308   1
  -3  13  -2 621.262 353.024   7
   3 -13   2 151.861 218.476   1
   3 -13   3-213.505 224.636   1
  -3  13  -3 405.966 275.984   7
  -3  13  -4 112.718 262.819   7
   3 -13   4-59.5071 236.598   1
  -3  13  -5 4454.67 835.079   7
   3 -13   5 5065.07 783.441   1
  -3  13  -6-136.962 215.332   7
   3 -13   6 618.366 331.731   1
   3 -13   7 2564.14 554.920   1
  -3  13  -7 2528.39 691.669   7
   3 -13   8 5373.96 860.397   1
  -3  13  -8 5909.40 1050.73   7
  -3  13  -9 280.954 316.385   7
   3 -13   9 511.135 312.762   1
   3 -13  10 1972.11 541.717   1
  -3  13 -10 1585.21 550.529   7
   3 -13  11 1102.96 436.346   1
  -3  13 -11 1224.72 525.250   7
  -3  13 -12 1724.42 634.596   7
   3 -13  12 1954.64 554.813   1
  -3  13 -13 2510.12 763.769   7
   3 -13  13 2755.87 646.343   1
   3 -12 -12 4233.24 847.290   1
   3 -12 -11 1562.82 531.725   1
   3 -12 -10 602.967 345.906   1
   3 -12  -9-16.3262 179.534   1
   3 -12  -8 5933.90 930.368   1
   3 -12  -7 97.4253 223.076   1
   3 -12  -6 795.066 393.146   1
   3 -12  -5-89.2605 205.340   1
   3 -12  -4 830.248 363.882   1
   3 -12  -3 979.744 384.743   1
   3 -12  -2 8222.14 949.257   1
   3 -12  -1 361.442 257.852   1
  -3  12   0 2135.29 458.536   7
   3 -12   0 3875.14 633.431   1
  -3  12  -1 6732.48 857.979   7
   3 -12   1 6020.28 774.681   1
  -3  12  -2 6149.48 846.135   7
   3 -12   2 5555.63 776.465   1
  -3  12  -3 757.375 387.715   7
   3 -12   3 1078.41 364.555   1
  -3  12  -4 2047.56 547.448   7
   3 -12   4 1591.06 443.465   1
   3 -12   5 14572.6 1257.86   1
  -3  12  -5 12699.6 1343.34   7
  -3  12  -6 8574.79 1140.11   7
   3 -12   6 10068.7 1066.70   1
  -3  12  -7 147.069 297.385   7
   3 -12   7 155.641 208.542   1
  -3  12  -8 4224.94 854.925   7
   3 -12   8 7221.66 957.518   1
  -3  12  -9 3435.06 791.883   7
   3 -12   9 1881.23 509.076   1
  -3  12 -10 2192.11 664.108   7
   3 -12  10 1578.90 489.434   1
  -3  12 -11 3412.64 829.093   7
   3 -12  11 2031.85 549.071   1
  -3  12 -12 472.817 383.187   7
   3 -12  12-78.9523 229.254   1
  -3  12 -13 4717.26 1001.97   7
   3 -12  13 4306.00 785.569   1
  -3  12 -14 3196.16 835.924   7
   3 -12  14 3014.36 663.762   1
   3 -12  15 2685.04 666.345   1
   3 -11 -14 3715.97 790.807   1
   3 -11 -13 5128.41 910.648   1
   3 -11 -12-956.359 433.216   1
   3 -11 -11 1325.91 509.181   1
   3 -11 -10 2597.08 614.644   1
   3 -11  -9 1186.38 425.938   1
   3 -11  -8 364.941 277.668   1
   3 -11  -7-51.2317 192.491   1
   3 -11  -6-255.810 249.203   1
   3 -11  -5 4983.35 752.007   1
   3 -11  -4 841.063 336.484   1
   3 -11  -3 5076.22 707.566   1
   3 -11  -2 11390.9 1040.59   1
  -3  11   2 11913.9 955.278   7
   3 -11  -1 17299.2 1262.05   1
  -3  11   1 17818.2 1215.91   7
  -3  11   0 16125.5 1209.12   7
   3 -11   0 15060.7 1159.10   1
   3 -11   1 2636.43 523.472   1
  -3  11  -1 2399.42 497.362   7
   3 -11   2 2530.77 489.696   1
  -3  11  -2 2091.88 513.039   7
  -3  11  -3 1082.14 408.326   7
   3 -11   3 1139.87 361.093   1
   3 -11   4 251.976 224.651   1
  -3  11  -4-19.2921 259.271   7
  -3  11  -5 1422.56 480.240   7
   3 -11   5 1305.03 384.953   1
  -3  11  -6 1444.16 465.639   7
   3 -11   6 2507.88 533.183   1
  -3  11  -7 2029.48 611.903   7
   3 -11   7 2016.99 506.125   1
  -3  11  -8 4616.01 870.021   7
   3 -11   8 4600.06 734.335   1
   3 -11   9 723.069 310.295   1
  -3  11  -9 331.209 397.249   7
  -3  11 -10 490.596 388.694   7
   3 -11  10 359.011 300.283   1
  -3  11 -11 359.785 366.955   7
   3 -11  11-127.827 217.238   1
   3 -11  12 153.754 256.823   1
  -3  11 -12 476.596 336.969   7
  -3  11 -13 7591.08 1232.26   7
   3 -11  13 8991.06 1086.42   1
   3 -11  14 7802.16 1018.28   1
  -3  11 -14 10144.6 1432.89   7
   3 -11  15-68.6990 226.365   1
  -3  11 -15-775.876 450.643   7
   3 -10 -15-716.306 382.238   1
   3 -10 -14 279.485 227.474   1
   3 -10 -13 3115.84 691.683   1
   3 -10 -12 167.919 273.453   1
   3 -10 -11 10013.6 1184.30   1
   3 -10 -10 22050.7 1694.49   1
   3 -10  -9 1530.43 459.107   1
   3 -10  -8 5035.09 778.432   1
   3 -10  -8 4844.46 514.029   2
   3 -10  -7-13.2962 180.369   1
   3 -10  -7 33.5413 87.8694   2
   3 -10  -6 5150.90 739.930   1
   3 -10  -6 5078.49 470.581   2
   3 -10  -5 718.293 202.186   2
   3 -10  -5 677.189 302.684   1
   3 -10  -4-182.512 198.734   1
   3 -10  -3 5931.43 731.427   1
  -3  10   3 5538.98 602.010   7
  -3  10   2 11182.0 878.394   7
   3 -10  -2 11703.1 979.599   1
   3 -10  -1 17540.5 1173.79   1
  -3  10   1 18340.4 1160.10   7
   3 -10   0 14083.2 1048.99   1
  -3  10   0 15291.5 1096.87   7
   3 -10   1 3692.52 564.380   1
  -3  10  -1 3722.02 576.639   7
   3 -10   2 75520.6 2415.41   1
  -3  10  -2 76097.6 2618.29   7
   3 -10   3 12780.4 1017.50   1
  -3  10  -3 13174.8 1140.18   7
   3 -10   4 13474.4 1056.55   1
  -3  10  -4 15689.0 1285.35   7
  -3  10  -5 428.663 256.543   7
   3 -10   5 303.913 200.787   1
   3 -10   6 7370.32 821.393   1
  -3  10  -6 7234.36 947.490   7
  -3  10  -7 1222.35 454.157   7
   3 -10   7 1331.28 398.923   1
  -3  10  -8 2617.84 633.824   7
   3 -10   8 2835.50 575.532   1
   3 -10   9 465.060 287.620   1
  -3  10  -9 109.791 304.098   7
   3 -10  10 2939.22 597.479   1
  -3  10 -10 2906.15 725.638   7
   3 -10  11 448.430 288.856   1
  -3  10 -11 342.890 322.654   7
   3 -10  12 25114.4 1726.34   1
  -3  10 -12 23410.8 2018.43   7
   3 -10  13 10305.0 1141.24   1
  -3  10 -13 10908.7 1432.31   7
  -3  10 -14 9575.67 1363.83   7
   3 -10  14 9576.18 1124.28   1
  -3  10 -15 2115.24 667.166   7
   3 -10  15 2017.81 552.226   1
  -3  10 -16 605.714 410.679   7
   3  -9 -16 1091.75 453.593   1
   3  -9 -15 1337.98 456.279   1
   3  -9 -14 2165.34 606.497   1
   3  -9 -13-187.801 293.991   1
   3  -9 -12 2758.29 439.135   2
   3  -9 -12 2325.31 597.923   1
   3  -9 -11 1319.30 310.260   2
   3  -9 -11 1762.21 493.511   1
   3  -9 -10 4714.34 779.645   1
   3  -9 -10 5431.93 565.305   2
   3  -9  -9 7609.92 937.882   1
   3  -9  -9 5807.52 561.941   2
   3  -9  -8 24.3232 184.060   1
   3  -9  -8 245.012 131.473   2
   3  -9  -7 6772.76 547.256   2
   3  -9  -7 8388.91 910.439   1
   3  -9  -6 288.104 246.502   1
   3  -9  -6 285.030 129.169   2
   3  -9  -5 445.079 251.013   1
  -3   9   5 829.406 208.719   7
   3  -9  -5 1053.41 214.971   2
   3  -9  -4 5619.47 677.876   1
  -3   9   4 6303.28 577.220   7
   3  -9  -3 1862.59 428.084   1
  -3   9   3 941.708 256.245   7
  -3   9   2 2630.93 410.575   7
   3  -9  -2 1987.14 403.235   1
   3  -9  -1 8353.01 763.144   1
  -3   9   1 8310.57 732.135   7
   3  -9   0 14780.7 992.885   1
  -3   9   0 14601.3 1002.57   7
   3  -9   1 30774.6 1430.53   1
  -3   9  -1 30642.3 1499.12   7
  -3   9  -2 24077.7 1377.63   7
   3  -9   2 24939.6 1296.18   1
  -3   9  -3 358.988 242.268   7
   3  -9   3 724.244 276.464   1
  -3   9  -4 624.780 282.324   7
   3  -9   4 539.634 249.815   1
  -3   9  -5 1621.30 445.817   7
   3  -9   5 1927.66 410.549   1
  -3   9  -6 2127.08 493.058   7
   3  -9   6 2435.75 457.774   1
   3  -9   7 192.536 189.114   1
  -3   9  -7 334.289 295.059   7
   3  -9   8 6832.94 678.062   3
  -3   9  -8 7139.39 954.093   7
   3  -9   8 6581.94 777.926   1
  -3   9  -9 2112.57 553.230   7
   3  -9   9 2246.74 487.365   1
   3  -9  10 13416.6 1155.46   1
  -3   9 -10 13139.3 1367.48   7
  -3   9 -11 1431.72 320.420   2
  -3   9 -11 1847.69 598.095   7
   3  -9  11 1532.88 416.666   1
  -3   9 -12-37.0096 123.310   2
   3  -9  12 117.310 225.052   1
  -3   9 -12-151.604 295.894   7
  -3   9 -13 1356.25 523.084   7
   3  -9  13 1453.52 428.640   1
  -3   9 -13 1918.59 430.599   2
  -3   9 -14 1706.92 418.618   2
   3  -9  14 1627.14 471.127   1
  -3   9 -14 2203.49 673.042   7
  -3   9 -15 18633.0 1326.68   2
   3  -9  15 17865.6 1490.82   1
  -3   9 -15 17813.8 1824.47   7
  -3   9 -16 9533.23 972.245   2
  -3   9 -16 8683.76 1321.52   7
  -3   9 -17-303.401 233.134   2
  -3   9 -18 3768.18 655.609   2
   3  -8 -17-6.60877 98.9421   4
   3  -8 -16 898.422 375.704   1
   3  -8 -16 1357.06 497.699   4
   3  -8 -15 270.072 219.237   1
   3  -8 -15 286.031 207.745   2
   3  -8 -14-435.424 318.468   1
   3  -8 -14 203.182 147.462   2
   3  -8 -13-112.525 134.667   2
   3  -8 -13 117.684 149.694   3
   3  -8 -12 654.203 228.194   2
   3  -8 -12 404.872 282.504   1
   3  -8 -11 95.9361 132.896   2
   3  -8 -11-55.8415 210.941   1
   3  -8 -10 106.164 215.389   1
   3  -8 -10 127.297 128.321   2
   3  -8  -9 1061.89 244.939   2
   3  -8  -9 1462.80 428.512   1
   3  -8  -8 31560.1 1731.13   1
   3  -8  -8 31418.6 1191.38   2
   3  -8  -7-169.221 193.115   1
   3  -8  -7 207.466 121.956   2
   3  -8  -6 203.573 119.008   2
   3  -8  -6 193.217 215.688   1
   3  -8  -5 5668.40 665.529   1
   3  -8  -5 6998.09 473.247   2
   3  -8  -4 14031.6 993.423   1
   3  -8  -4 15782.0 677.337   2
   3  -8  -3 832.536 263.224   1
  -3   8   3 676.138 198.382   7
  -3   8   2-6.82620 109.131   7
   3  -8  -2 43.5233 151.232   1
   3  -8  -1 651.716 236.543   1
  -3   8   1 904.240 246.025   7
   3  -8   0 79696.7 2120.51   1
  -3   8   0 76173.5 2093.88   7
  -3   8  -1 8045.54 715.064   7
   3  -8   1 8612.26 714.624   1
  -3   8  -2 7075.64 699.980   7
   3  -8   2 7633.52 679.554   1
   3  -8   3 20045.6 1104.22   1
  -3   8  -3 17446.4 1132.06   7
   3  -8   4 71556.6 2112.59   1
  -3   8  -4 75355.3 2426.96   7
  -3   8  -5 2124.46 444.094   7
   3  -8   5 2890.27 462.741   1
   3  -8   6 64.2434 147.145   1
  -3   8  -6-75.2790 245.775   7
   3  -8   7 1526.79 334.074   1
  -3   8  -7 1097.35 385.105   7
   3  -8   8 13265.1 850.628   3
  -3   8  -8 12431.8 787.957   2
   3  -8   8 12159.0 986.941   1
  -3   8  -8 13853.2 1241.18   7
  -3   8  -9 708.598 376.128   7
  -3   8  -9 902.946 240.648   2
   3  -8   9 1522.17 387.088   1
   3  -8  10 36627.1 1799.31   1
  -3   8 -10 36816.8 1479.45   2
  -3   8 -10 38359.3 2219.39   7
  -3   8 -11 8572.93 756.578   2
   3  -8  11 9563.35 957.963   1
  -3   8 -11 7896.47 1059.30   7
  -3   8 -12 331.108 300.348   7
  -3   8 -12 41.7726 115.423   2
   3  -8  12 216.830 200.309   1
   3  -8  13 2325.61 511.187   1
  -3   8 -13 3537.86 541.605   2
  -3   8 -13 2795.13 701.185   7
  -3   8 -14 17256.6 1205.38   2
  -3   8 -14 15344.8 1573.17   7
   3  -8  14 15167.9 1307.61   1
  -3   8 -15 182.957 374.214   7
  -3   8 -15 387.124 233.648   2
   3  -8  15 617.311 295.436   1
  -3   8 -16 6520.56 800.391   2
  -3   8 -16 10289.2 1397.91   7
  -3   8 -17 1128.39 358.583   2
  -3   8 -18 2240.80 499.565   2
   3  -7 -18-2.11060 94.0130   4
   3  -7 -17-48.3088 237.203   4
   3  -7 -17 221.673 181.354   2
   3  -7 -16 1635.17 491.342   4
   3  -7 -16 1272.64 379.128   2
   3  -7 -15 1559.96 471.200   1
   3  -7 -15 1447.85 367.073   2
   3  -7 -14 403.458 311.967   1
   3  -7 -14 314.885 175.342   2
   3  -7 -13 4702.81 581.193   2
   3  -7 -13 5659.33 726.548   3
   3  -7 -13 5713.93 850.278   1
   3  -7 -12 10467.2 1104.97   1
   3  -7 -12 10224.1 820.709   2
   3  -7 -11 920.931 254.774   2
   3  -7 -11 323.302 263.943   1
   3  -7 -10 7196.81 864.518   1
   3  -7 -10 5632.86 555.262   2
   3  -7  -9 1432.79 405.115   1
   3  -7  -9 1197.19 240.650   2
   3  -7  -8 8148.79 841.525   1
   3  -7  -8 8168.98 584.441   2
   3  -7  -7 48.9644 80.1550   2
   3  -7  -7 9.62595 225.586   1
   3  -7  -6 9720.48 861.096   1
   3  -7  -6 10614.3 586.709   2
   3  -7  -5 93804.4 1617.80   2
   3  -7  -5 89800.8 2422.83   1
   3  -7  -4 270.157 92.5436   2
   3  -7  -4 612.936 230.376   1
   3  -7  -3 24176.7 1166.27   1
   3  -7  -2 24964.6 1142.21   1
   3  -7  -1 937.715 254.814   1
   3  -7   0 17067.2 911.502   1
  -3   7   0 17142.0 916.977   7
   3  -7   1 899.632 240.225   1
  -3   7  -1 1158.48 272.287   7
  -3   7  -2 16290.8 973.047   7
   3  -7   2 16745.2 912.514   1
   3  -7   3 2650.89 388.211   1
  -3   7  -3 2703.08 431.901   7
   3  -7   4 5828.53 567.033   1
  -3   7  -4 5823.92 650.309   7
   3  -7   4 5724.25 282.829   6
  -3   7  -5 65574.0 2223.96   7
   3  -7   5 69022.8 1975.14   1
   3  -7   5 70093.5 1157.55   6
  -3   7  -6 526.295 256.194   7
   3  -7   6 699.954 249.387   1
  -3   7  -6 535.890 156.782   2
  -3   7  -7 10817.4 663.706   2
   3  -7   7 10868.6 838.598   1
   3  -7   7 10884.2 738.442   3
  -3   7  -7 11776.2 1053.51   7
  -3   7  -8 12986.7 767.829   2
   3  -7   8 11337.3 892.555   1
  -3   7  -8 13535.8 1160.04   7
   3  -7   8 12303.6 763.022   3
  -3   7  -9 7218.76 607.753   2
   3  -7   9 7537.42 751.947   1
  -3   7  -9 6180.25 822.531   7
  -3   7 -10 20296.9 1062.08   2
   3  -7  10 19341.0 1250.30   1
  -3   7 -10 21326.5 1589.73   7
  -3   7 -11 1571.07 325.116   2
   3  -7  11 1363.14 364.937   1
  -3   7 -11 1242.41 450.328   7
  -3   7 -12 3781.82 723.636   7
  -3   7 -12 5571.93 617.626   2
   3  -7  12 5500.46 721.443   1
  -3   7 -13 203.445 161.829   2
  -3   7 -13 375.486 301.195   7
   3  -7  13 466.305 239.144   1
  -3   7 -14 1752.74 561.072   7
   3  -7  14 1565.80 442.950   1
  -3   7 -14 1432.32 364.930   2
  -3   7 -15-139.489 247.008   7
   3  -7  15 10.6109 177.509   1
  -3   7 -15 205.008 173.515   2
  -3   7 -16 1277.11 528.520   7
  -3   7 -16 428.511 228.504   2
  -3   7 -17 14347.9 1205.07   2
  -3   7 -18 8795.48 974.786   2
  -3   7 -19 3274.80 611.482   2
   3  -6 -19 545.027 258.314   2
   3  -6 -19 1237.22 447.519   4
   3  -6 -18 258.651 214.065   4
   3  -6 -18 14.6751 93.4632   2
   3  -6 -17 91.7399 160.388   2
   3  -6 -17 249.690 243.802   4
   3  -6 -16 1596.37 505.359   4
   3  -6 -16 2080.02 437.335   2
   3  -6 -15 4967.13 642.983   2
   3  -6 -15 4194.18 770.547   4
   3  -6 -14 4209.62 735.366   1
   3  -6 -14 3966.87 558.190   2
   3  -6 -13 3919.37 555.684   3
   3  -6 -13 3992.02 536.003   2
   3  -6 -13 3274.33 634.782   1
   3  -6 -12 242.898 205.100   1
   3  -6 -12 251.452 171.002   3
   3  -6 -12 119.520 154.254   2
   3  -6 -11-132.666 213.071   1
   3  -6 -11 226.222 153.675   2
   3  -6 -10 965.084 239.405   2
   3  -6 -10 1136.59 363.810   1
   3  -6  -9 5224.55 687.092   1
   3  -6  -9 3951.60 424.445   2
   3  -6  -8 1023.59 323.504   1
   3  -6  -8 1054.08 221.698   2
   3  -6  -7 10562.5 600.766   2
   3  -6  -7 11894.4 942.013   1
   3  -6  -6 73711.3 1468.63   2
   3  -6  -6 82657.5 2315.43   1
   3  -6  -5 39020.5 1516.47   1
   3  -6  -5 38841.1 980.158   2
   3  -6  -4 12392.9 814.712   1
   3  -6  -4 12685.0 514.182   2
   3  -6  -3 854.936 264.105   1
   3  -6  -3 439.587 105.856   2
   3  -6  -2 19107.6 924.803   1
   3  -6  -1 22326.9 966.191   1
   3  -6   0 45501.0 1348.00   1
   3  -6   1 30001.0 1092.10   1
  -3   6  -1 29638.1 1152.11   7
   3  -6   2 11216.2 676.650   1
  -3   6  -2 10960.8 739.581   7
  -3   6  -3 110.622 150.242   7
   3  -6   3 18.1828 110.263   1
   3  -6   3 92.2683 47.1565   6
  -3   6  -4 4876.07 349.520   2
   3  -6   4 4789.30 307.814   6
  -3   6  -4 4682.55 535.477   7
   3  -6   4 4376.32 449.924   1
   3  -6   5 25669.7 1113.44   1
  -3   6  -5 23508.9 1251.11   7
  -3   6  -5 25290.1 847.689   2
  -3   6  -6 12068.3 628.031   2
  -3   6  -6 10912.0 903.560   7
   3  -6   6 11974.3 791.998   1
   3  -6   6 12263.9 732.027   3
   3  -6   7 21811.3 1115.36   1
  -3   6  -7 19041.5 1231.18   7
   3  -6   7 20427.8 923.817   3
  -3   6  -7 21075.1 878.768   2
  -3   6  -8 21105.8 925.290   2
   3  -6   8 20397.1 1127.58   1
   3  -6   8 21281.8 901.990   3
  -3   6  -8 20007.7 1333.78   7
  -3   6  -9 2949.63 373.770   2
  -3   6  -9 2265.16 496.033   7
   3  -6   9 2698.24 436.881   1
  -3   6 -10 261.087 253.122   7
   3  -6  10 183.441 157.634   1
  -3   6 -10 221.044 147.586   2
   3  -6  11 7104.93 750.696   1
  -3   6 -11 7043.85 639.747   2
  -3   6 -11 7650.21 944.088   7
   3  -6  12 2922.29 513.881   1
  -3   6 -12 2447.72 566.324   7
  -3   6 -12 3148.09 454.909   2
  -3   6 -13 32919.8 1504.14   2
   3  -6  13 32804.4 1719.77   1
  -3   6 -13 31454.3 2028.96   7
  -3   6 -14 106.163 161.317   2
   3  -6  14 98.5008 189.794   1
  -3   6 -15 3808.24 568.684   2
   3  -6  15 4237.95 657.803   1
  -3   6 -15 3151.20 693.247   7
  -3   6 -16 3683.26 822.027   7
  -3   6 -16 3866.87 599.360   2
  -3   6 -17 265.770 204.700   2
  -3   6 -18 2416.71 527.171   2
  -3   6 -19 2022.21 487.793   2
   3  -5 -19 629.048 333.332   4
   3  -5 -19-125.194 150.909   2
   3  -5 -18 1349.22 430.449   4
   3  -5 -18 1118.91 341.883   2
   3  -5 -17-68.3884 148.955   4
   3  -5 -17-449.756 244.837   2
   3  -5 -16 2515.07 607.722   4
   3  -5 -16 2476.30 481.556   2
   3  -5 -15-327.213 237.164   4
   3  -5 -15-76.7930 161.068   2
   3  -5 -14 2439.02 572.749   4
   3  -5 -14 2506.72 437.289   2
   3  -5 -13 146.275 142.730   3
   3  -5 -13-31.3718 123.821   2
   3  -5 -12 1707.74 354.486   3
   3  -5 -12 2916.52 432.857   2
   3  -5 -12 2456.23 515.883   1
   3  -5 -11 22133.6 1436.06   1
   3  -5 -11 20823.2 1065.67   2
   3  -5 -11 22629.5 1239.08   3
   3  -5 -10 315.620 154.812   2
   3  -5 -10 539.586 261.568   1
   3  -5  -9 319.465 144.958   2
   3  -5  -9 204.657 210.605   1
   3  -5  -8 519.733 157.848   2
   3  -5  -8 809.167 294.762   1
   3  -5  -7 16138.3 1045.01   1
   3  -5  -7 16690.3 731.195   2
   3  -5  -6 11937.4 843.641   1
   3  -5  -6 12322.3 579.080   2
   3  -5  -5 25044.9 1150.43   1
   3  -5  -5 23994.5 743.855   2
   3  -5  -4 25256.9 1085.76   1
   3  -5  -4 24946.9 672.291   2
   3  -5  -3 29223.7 1107.49   1
   3  -5  -3 28214.9 634.607   2
   3  -5  -2 14944.1 754.624   1
   3  -5  -2 15058.9 413.101   2
   3  -5  -1 4071.68 378.330   1
   3  -5   0 18496.0 774.190   1
   3  -5   1 140539. 2106.00   1
   3  -5   2 41961.0 824.381   6
   3  -5   2 43506.0 1187.17   1
  -3   5  -2 44066.2 1341.87   7
   3  -5   3 42510.8 897.983   6
  -3   5  -3 42755.8 1397.95   7
  -3   5  -3 42147.8 872.752   2
   3  -5   3 43066.0 1209.87   1
  -3   5  -4 7439.48 620.397   7
   3  -5   4 6634.97 499.008   1
   3  -5   4 7730.47 551.556   3
  -3   5  -4 7676.52 404.088   2
   3  -5   5 72083.2 1696.91   1
   3  -5   5 72608.3 1651.78   3
  -3   5  -5 71283.1 2025.45   7
  -3   5  -5 74214.6 1354.79   2
   3  -5   6 1592.41 274.144   1
  -3   5  -6 1433.08 324.757   7
  -3   5  -6 1528.09 217.635   2
   3  -5   6 1713.37 267.935   3
  -3   5  -7 64370.2 1463.43   2
  -3   5  -7 64157.3 2126.41   7
   3  -5   7 64023.1 1770.05   1
   3  -5   7 65778.1 1522.33   3
  -3   5  -8 61.9458 212.837   7
   3  -5   8 54.4826 75.1268   3
  -3   5  -8 46.7413 79.7824   2
   3  -5   8 39.5776 147.317   1
  -3   5  -9 27.0560 230.690   7
   3  -5   9 158.352 156.181   1
  -3   5  -9-44.7025 78.7284   2
  -3   5 -10 68.2150 223.841   7
  -3   5 -10 141.233 154.357   2
  -3   5 -11 17320.7 977.337   2
  -3   5 -11 16275.4 1306.85   7
  -3   5 -12 34846.1 1460.60   2
  -3   5 -12 31473.4 1880.41   7
  -3   5 -13 7998.58 744.534   2
  -3   5 -13 6533.76 889.080   7
  -3   5 -14 493.406 340.551   7
  -3   5 -14 470.150 210.816   2
  -3   5 -15 10010.8 904.561   2
  -3   5 -15 9605.08 1161.05   7
  -3   5 -16-111.030 247.525   7
  -3   5 -16-172.762 180.041   2
  -3   5 -17 1504.32 407.457   2
  -3   5 -18 3344.76 595.773   2
  -3   5 -19 824.869 305.767   2
   3  -4 -20 408.833 212.951   2
   3  -4 -19 2807.27 534.270   2
   3  -4 -19 2297.87 559.133   4
   3  -4 -18 524.066 307.488   4
   3  -4 -18-178.310 214.597   2
   3  -4 -17 4429.39 639.906   2
   3  -4 -17 3385.40 672.431   4
   3  -4 -16 1005.86 389.211   4
   3  -4 -16 615.775 252.211   2
   3  -4 -15 3404.89 660.630   4
   3  -4 -15 2473.02 452.115   2
   3  -4 -14 247.199 238.781   4
   3  -4 -14 270.698 176.684   2
   3  -4 -13 7601.55 709.375   2
   3  -4 -13 8519.97 963.007   4
   3  -4 -12 2539.98 404.225   3
   3  -4 -12 3518.83 636.583   1
   3  -4 -12 2632.25 407.136   2
   3  -4 -11 23543.3 1446.33   1
   3  -4 -11 21823.5 1136.38   3
   3  -4 -11 22235.6 1086.66   2
   3  -4 -10 1597.20 333.172   3
   3  -4 -10 1890.75 310.702   2
   3  -4 -10 1910.92 440.809   1
   3  -4  -9 3997.80 475.335   3
   3  -4  -9 4604.32 442.099   2
   3  -4  -9 3863.34 551.248   1
   3  -4  -8 517.179 186.991   3
   3  -4  -8 623.364 166.924   2
   3  -4  -8 634.071 239.157   1
   3  -4  -7 41462.0 1117.83   2
   3  -4  -7 42216.8 1599.31   1
   3  -4  -6 7737.41 654.905   1
   3  -4  -6 7472.89 440.368   2
   3  -4  -5-59.8025 111.006   1
   3  -4  -5-34.3913 62.7755   2
   3  -4  -4 2343.53 197.851   2
   3  -4  -4 2670.29 358.442   1
   3  -4  -3 13300.8 704.483   1
   3  -4  -3 12888.8 386.707   2
   3  -4  -2 102283. 1809.40   1
   3  -4  -2 98745.4 857.770   2
   3  -4  -1 76171.2 1470.43   1
   3  -4  -1 62929.4 511.263   2
   3  -4   0 13455.3 592.781   1
   3  -4   1 6991.08 422.580   1
   3  -4   1 6878.40 344.982   6
   3  -4   2 30692.1 759.577   6
   3  -4   2 30943.3 1047.94   3
   3  -4   2 30276.0 881.335   1
  -3   4  -2 30647.8 572.845   2
   3  -4   3 11857.9 509.441   6
   3  -4   3 11646.4 569.560   1
   3  -4   3 12764.3 666.805   3
  -3   4  -3 12269.9 425.269   2
  -3   4  -4 4698.71 457.128   7
  -3   4  -4 4416.12 288.205   2
   3  -4   4 4455.30 363.309   1
   3  -4   4 4385.36 395.504   3
  -3   4  -5 23058.7 734.913   2
  -3   4  -5 24260.9 1096.50   7
   3  -4   5 23857.8 900.478   3
   3  -4   5 22932.8 862.164   1
   3  -4   6 11896.1 664.387   1
  -3   4  -6 13041.6 604.905   2
   3  -4   6 12715.1 656.258   3
  -3   4  -6 12818.2 850.137   7
  -3   4  -7 74187.3 1556.01   2
   3  -4   7 74775.7 1753.50   1
   3  -4   7 77647.8 1536.81   3
  -3   4  -7 74890.1 2150.46   7
  -3   4  -8 107148. 2007.51   2
  -3   4  -8 107874. 2722.03   7
   3  -4   8 108881. 1691.69   3
  -3   4  -9 9937.37 659.356   2
   3  -4   9 9468.84 439.872   3
  -3   4  -9 10095.1 892.545   7
  -3   4 -10 678.784 197.992   2
  -3   4 -10 836.850 312.820   7
  -3   4 -11 23624.2 1136.55   2
  -3   4 -11 20628.4 1407.16   7
  -3   4 -12 160.279 203.158   7
  -3   4 -12 571.275 219.177   2
  -3   4 -13 383.670 261.440   7
  -3   4 -13 125.559 140.754   2
  -3   4 -14 283.279 256.003   7
  -3   4 -14 694.898 227.150   2
  -3   4 -15 13815.0 1072.35   2
  -3   4 -15 13464.8 1335.50   7
  -3   4 -16 98.0744 188.951   2
  -3   4 -17 1440.14 375.376   2
  -3   4 -18 947.873 336.554   2
  -3   4 -19 50.6751 119.036   2
  -3   4 -20-107.406 158.625   2
   3  -3 -20-529.051 291.891   2
   3  -3 -19 193.766 183.543   4
   3  -3 -19 536.672 260.376   2
   3  -3 -18-259.054 280.112   4
   3  -3 -18 319.377 233.845   2
   3  -3 -17-164.170 251.638   4
   3  -3 -17-285.430 213.835   2
   3  -3 -16 109.468 167.907   2
   3  -3 -16 150.006 195.597   4
   3  -3 -15 5630.61 665.848   2
   3  -3 -15 5553.09 812.670   4
   3  -3 -14-179.894 194.404   4
   3  -3 -14-96.9396 137.388   2
   3  -3 -13 53.4570 148.720   4
   3  -3 -13-99.5326 130.924   2
   3  -3 -12 5356.46 726.290   4
   3  -3 -12 4338.16 503.281   2
   3  -3 -12 4004.26 447.880   3
   3  -3 -11 794.755 214.415   3
   3  -3 -11 604.536 202.426   2
   3  -3 -11 873.690 310.139   1
   3  -3 -11 738.549 302.396   4
   3  -3 -10 1290.82 371.220   1
   3  -3 -10 1208.59 240.568   2
   3  -3 -10 1120.47 249.856   3
   3  -3  -9 12745.6 958.300   1
   3  -3  -9 14477.7 757.843   2
   3  -3  -9 13124.5 805.218   3
   3  -3  -8 22955.5 882.638   2
   3  -3  -8 24206.5 1239.08   1
   3  -3  -8 24525.4 1078.13   3
   3  -3  -7 39.4560 108.035   3
   3  -3  -7 91.0538 80.6619   2
   3  -3  -7 34.8425 146.646   1
   3  -3  -6 494.587 214.574   1
   3  -3  -6 199.385 80.5219   2
   3  -3  -6 197.559 146.060   3
   3  -3  -5 1253.52 252.780   1
   3  -3  -5 1320.90 164.293   2
   3  -3  -5 870.374 216.412   3
   3  -3  -4 9158.08 598.167   1
   3  -3  -4 9095.89 363.828   2
   3  -3  -4 8850.98 593.920   3
   3  -3  -3 40492.8 1165.66   1
   3  -3  -3 40340.6 626.111   2
   3  -3  -3 40232.7 1224.57   3
   3  -3  -2 11376.6 571.016   1
   3  -3  -2 10684.6 227.655   2
   3  -3  -2 11774.2 654.608   3
   3  -3  -1 101425. 1564.57   1
   3  -3  -1 106886. 1918.84   3
   3  -3   0 39533.2 897.399   1
   3  -3   0 39984.7 1158.22   3
   3  -3   1 42886.9 912.801   6
   3  -3   1 45117.5 1222.77   3
  -3   3  -1 44414.9 445.476   2
   3  -3   2 65168.3 1087.90   1
   3  -3   2 62047.9 1146.08   6
  -3   3  -2 62767.0 759.921   2
   3  -3   2 65861.9 1451.59   3
   3  -3   3 24530.1 693.863   1
  -3   3  -3 24187.4 588.911   2
   3  -3   3 24480.7 883.042   3
  -3   3  -4 68239.1 1143.74   2
   3  -3   4 68072.9 1209.74   1
   3  -3   4 71679.0 1499.09   3
  -3   3  -4 70777.0 1625.75   7
  -3   3  -5 5049.86 349.168   2
   3  -3   5 5869.74 427.971   3
   3  -3   5 5559.12 378.147   1
  -3   3  -5 5735.53 507.372   7
  -3   3  -6 238.544 96.9042   2
   3  -3   6 175.869 87.6731   3
  -3   3  -6 199.661 159.841   7
  -3   3  -7 76176.4 1589.77   2
   3  -3   7 75791.0 1423.63   3
  -3   3  -7 75768.2 2027.50   7
  -3   3  -8-28.8305 190.229   7
  -3   3  -8 85.7012 81.6481   2
   3  -3   8 87.3299 63.7579   3
  -3   3  -9 36418.7 1263.91   2
  -3   3  -9 35759.2 1576.20   7
  -3   3 -10 21009.2 1290.30   7
  -3   3 -10 21163.9 1022.23   2
  -3   3 -11 4331.95 506.909   2
  -3   3 -11 4316.51 626.455   7
  -3   3 -12 29.9391 163.922   7
  -3   3 -12 52.2021 138.998   2
  -3   3 -13 26783.9 1663.88   7
  -3   3 -13 26424.1 1347.74   2
  -3   3 -14 1070.79 362.808   7
  -3   3 -14 1037.57 289.665   2
  -3   3 -15 1829.85 499.328   7
  -3   3 -15 2209.66 438.049   2
  -3   3 -16 563.396 274.898   2
  -3   3 -17 4457.47 668.837   2
  -3   3 -18 2454.29 537.939   2
  -3   3 -19 488.988 278.949   2
  -3   3 -20-122.104 208.171   2
   3  -2 -20 76.6842 185.193   4
   3  -2 -20 25.0289 202.529   2
   3  -2 -19 3688.69 709.650   4
   3  -2 -19 3822.43 636.095   2
   3  -2 -18 1971.15 513.935   4
   3  -2 -18 1530.56 398.482   2
   3  -2 -17 1208.93 411.665   4
   3  -2 -17 1249.47 364.092   2
   3  -2 -16 25.8136 183.089   4
   3  -2 -16 336.939 210.607   2
   3  -2 -15 9230.86 1020.07   4
   3  -2 -15 7754.24 769.374   2
   3  -2 -14 441.801 249.962   4
   3  -2 -14 1042.50 293.558   2
   3  -2 -13 3940.03 632.060   4
   3  -2 -13 3783.83 494.590   2
   3  -2 -12 325.468 127.085   3
   3  -2 -12 182.867 204.321   4
   3  -2 -12 337.696 184.949   2
   3  -2 -11 36048.8 1337.78   2
   3  -2 -11 36099.9 1748.26   4
   3  -2 -11 34926.9 1210.26   3
   3  -2 -10 28925.4 1128.76   2
   3  -2 -10 27556.8 1458.68   4
   3  -2 -10 29073.9 1113.12   3
   3  -2  -9 58620.5 1592.93   3
   3  -2  -9 60691.1 2089.28   4
   3  -2  -9 62182.7 1541.28   2
   3  -2  -9 61955.6 2039.07   1
   3  -2  -8 58.5223 189.114   1
   3  -2  -8 167.923 98.0314   2
   3  -2  -8 31.4487 94.7950   3
   3  -2  -7 11023.5 667.458   3
   3  -2  -7 10446.1 763.034   1
   3  -2  -7 11215.2 565.377   2
   3  -2  -6 12625.2 550.105   2
   3  -2  -6 14219.0 741.087   3
   3  -2  -6 14241.6 826.244   1
   3  -2  -5 18732.8 893.775   1
   3  -2  -5 16692.9 563.568   2
   3  -2  -5 17608.1 808.903   3
   3  -2  -4 874.779 117.051   2
   3  -2  -4 665.166 175.319   3
   3  -2  -4 970.773 202.116   1
   3  -2  -3 28314.0 938.958   1
   3  -2  -3 27853.6 522.548   2
   3  -2  -3 26804.9 960.407   3
   3  -2  -2 112313. 1711.85   1
   3  -2  -2 113551. 841.786   2
   3  -2  -2 111541. 1930.93   3
   3  -2  -1 96839.2 1428.27   1
   3  -2  -1 102493. 1819.67   3
   3  -2   0 13147.8 462.346   1
   3  -2   0 14449.4 680.608   3
   3  -2   0 13401.1 519.820   6
   3  -2   1 112297. 1529.80   6
   3  -2   1 112965. 1198.16   1
  -3   2  -1 114675. 858.796   2
   3  -2   1 115655. 1900.43   3
   3  -2   2 15744.9 410.829   1
  -3   2  -2 15575.8 409.275   2
   3  -2   2 15965.6 601.079   6
   3  -2   2 16547.1 711.337   3
  -3   2  -3 2668.14 202.280   2
   3  -2   3 2882.42 184.510   1
   3  -2   3 2625.66 290.905   3
  -3   2  -4 1789.68 188.840   2
   3  -2   4 1837.92 164.971   1
   3  -2   4 2045.77 249.032   3
  -3   2  -4 2109.75 271.948   7
  -3   2  -5 50536.1 1359.16   7
  -3   2  -5 49682.1 1084.44   2
   3  -2   5 49355.6 1208.65   3
  -3   2  -6 103804. 2095.54   7
  -3   2  -6 101093. 1691.15   2
   3  -2   6 102432. 1689.15   3
   3  -2   7 311.074 94.2977   3
  -3   2  -7 153.835 139.127   7
  -3   2  -7 189.520 105.376   2
  -3   2  -8 31293.2 1100.94   2
  -3   2  -8 30178.8 1291.20   7
   3  -2   8 29827.6 854.495   3
  -3   2  -9 14594.5 411.368   4
  -3   2  -9 15763.0 838.515   2
   3  -2   9 15084.2 546.945   3
  -3   2 -10 32581.1 1277.99   2
  -3   2 -10 33998.0 1561.63   7
  -3   2 -11 1186.09 326.076   7
  -3   2 -11 797.124 230.540   2
  -3   2 -12 11092.9 839.955   2
  -3   2 -12 10900.7 974.883   7
  -3   2 -13 3373.70 568.113   7
  -3   2 -13 3976.79 534.231   2
  -3   2 -14 172.504 203.333   7
  -3   2 -14 610.745 250.851   2
  -3   2 -15 178.435 214.877   2
  -3   2 -16 10788.6 998.431   2
  -3   2 -17 7100.70 835.385   2
  -3   2 -18 487.700 232.465   2
  -3   2 -19 6524.52 869.062   2
  -3   2 -20 14362.3 1291.49   2
   3  -1 -20 1436.30 456.694   4
   3  -1 -20 1622.49 424.697   2
   3  -1 -19 266.081 202.166   2
   3  -1 -19 236.669 224.932   4
   3  -1 -18 602.998 244.670   2
   3  -1 -18-1.72290 204.592   4
   3  -1 -17 5506.29 715.566   2
   3  -1 -17 4416.96 743.223   4
   3  -1 -16 3902.20 573.783   2
   3  -1 -16 3687.59 680.122   4
   3  -1 -15 71.1566 140.792   2
   3  -1 -15-469.264 256.027   4
   3  -1 -14 5261.11 605.051   2
   3  -1 -14 6227.15 801.989   4
   3  -1 -13 11989.4 865.494   2
   3  -1 -13 12936.3 1104.29   4
   3  -1 -12 3321.73 441.166   2
   3  -1 -12 3609.56 566.207   4
   3  -1 -11 4975.97 500.787   2
   3  -1 -11 5569.39 676.019   4
   3  -1 -11 5303.98 436.340   3
   3  -1 -10 10279.9 883.538   4
   3  -1 -10 10760.0 688.534   2
   3  -1 -10 11003.1 639.837   3
   3  -1  -9 2065.86 284.401   3
   3  -1  -9 2415.01 431.623   4
   3  -1  -9 2108.98 293.635   2
   3  -1  -8 34999.1 1076.27   2
   3  -1  -8 32827.8 1431.15   4
   3  -1  -8 34335.8 1117.50   3
   3  -1  -7 1853.29 263.943   3
   3  -1  -7 2033.84 244.652   2
   3  -1  -7 2124.76 363.907   4
   3  -1  -6 49861.8 1591.52   4
   3  -1  -6 49720.1 1517.16   1
   3  -1  -6 46972.7 1061.24   2
   3  -1  -6 46896.0 1289.88   3
   3  -1  -5 28008.9 788.880   5
   3  -1  -5 26032.6 714.454   2
   3  -1  -5 27965.3 1072.00   1
   3  -1  -5 29436.7 1166.47   4
   3  -1  -5 27152.4 966.349   3
   3  -1  -4 9418.48 580.766   1
   3  -1  -4 8179.04 424.624   5
   3  -1  -4 8416.18 365.279   2
   3  -1  -4 8651.03 591.441   4
   3  -1  -4 8487.92 535.982   3
   3  -1  -3 63091.3 897.996   2
   3  -1  -3 60786.9 1338.64   1
   3  -1  -3 61298.9 1419.86   3
   3  -1  -2 100939. 1550.30   1
   3  -1  -2 102596. 1485.35   5
   3  -1  -2 100823. 1786.22   3
   3  -1  -1 1034.62 194.792   3
   3  -1  -1 1183.20 155.568   1
   3  -1   0 19981.7 628.984   4
   3  -1   0 19243.5 777.777   3
   3  -1   0 19672.5 513.542   1
   3  -1   1 128890. 1363.16   4
   3  -1   1 133600. 2029.48   3
   3  -1   1 132572. 1037.80   1
   3  -1   2 6766.78 391.652   5
   3  -1   2 6912.17 231.508   4
   3  -1   2 7088.27 473.851   3
  -3   1  -3 132.121 71.7996   2
   3  -1   3 9.29629 60.2527   5
   3  -1   3 20.9707 93.6960   3
   3  -1   4 134198. 1714.59   5
   3  -1   4 130652. 1977.11   3
  -3   1  -4 131323. 1616.71   2
  -3   1  -5 8838.18 463.516   2
  -3   1  -5 8566.06 524.305   7
   3  -1   5 8250.58 498.564   3
  -3   1  -6 14649.7 741.832   7
  -3   1  -6 14335.1 643.702   2
   3  -1   6 14467.4 656.346   3
  -3   1  -7 17790.0 780.149   2
   3  -1   7 19406.7 750.630   3
  -3   1  -7 19228.9 914.545   7
  -3   1  -8 667.029 214.576   7
  -3   1  -8 281.402 41.5084   4
   3  -1   8 374.852 121.912   3
  -3   1  -8 323.373 142.230   2
  -3   1  -9 24282.5 1047.86   2
  -3   1  -9 26245.6 1232.39   7
  -3   1  -9 23674.4 489.019   4
  -3   1 -10 1984.65 372.237   7
  -3   1 -10 1595.57 303.011   2
  -3   1 -11 4997.88 610.268   7
  -3   1 -11 5130.80 545.651   2
  -3   1 -12 2986.36 489.006   7
  -3   1 -12 2663.25 433.840   2
  -3   1 -13-43.8103 133.528   7
  -3   1 -13 509.884 251.769   2
  -3   1 -14 6272.25 707.685   2
  -3   1 -15 1901.13 430.021   2
  -3   1 -16 412.707 254.743   2
  -3   1 -17 3061.82 568.830   2
  -3   1 -18 746.286 312.844   2
  -3   1 -19 1992.60 494.065   2
  -3   1 -20 275.716 227.084   2
   3   0 -20 284.358 218.182   2
   3   0 -20 639.976 329.898   4
   3   0 -19 998.401 361.269   4
   3   0 -19 1250.46 371.697   2
   3   0 -18 1772.12 432.560   2
   3   0 -18 1592.16 496.103   4
   3   0 -17 119.482 181.803   2
   3   0 -17 289.059 219.863   4
   3   0 -16 14558.4 1106.65   2
   3   0 -16 14208.2 1277.68   4
   3   0 -15 1099.88 369.416   4
   3   0 -15 1190.65 325.326   2
   3   0 -14-152.377 159.467   2
   3   0 -14-202.665 204.198   4
   3   0 -13 20673.7 1135.04   2
   3   0 -13 21917.3 1429.18   4
   3   0 -12 160.807 181.970   4
   3   0 -12 127.378 140.705   2
   3   0 -11 2420.33 275.777   3
   3   0 -11 2094.01 330.505   2
   3   0 -11 1926.67 405.354   4
   3   0 -10 16506.4 737.902   3
   3   0 -10 13993.5 1019.38   4
   3   0 -10 15285.4 826.962   2
   3   0  -9 31773.5 1451.58   4
   3   0  -9 28520.3 1048.41   2
   3   0  -9 29566.3 1002.85   3
   3   0  -8-39.3728 163.872   4
   3   0  -8 25.1918 86.1516   2
   3   0  -8 99.9615 83.9569   3
   3   0  -8 126.632 73.0988   5
   3   0  -7 749.603 139.051   5
   3   0  -7 428.670 188.808   4
   3   0  -7 650.904 149.721   2
   3   0  -7 755.987 175.852   3
   3   0  -6 15394.4 605.276   5
   3   0  -6 14659.8 854.675   4
   3   0  -6 14579.2 611.326   2
   3   0  -6 15134.6 718.864   3
   3   0  -5 1591.95 191.507   2
   3   0  -5 1182.95 180.420   5
   3   0  -5 1462.10 231.105   3
   3   0  -5 1831.15 296.969   4
   3   0  -4 14765.8 623.738   5
   3   0  -4 15063.2 540.303   2
   3   0  -4 15627.6 776.944   4
   3   0  -4 14078.1 684.856   3
   3   0  -3 206435. 1856.86   2
   3   0  -3 205734. 2572.27   3
   3   0  -3 205195. 2348.28   5
   3   0  -2 7292.40 461.323   4
   3   0  -2 6941.14 438.464   5
   3   0  -2 8083.71 514.832   3
   3   0  -1 18305.3 663.023   4
   3   0  -1 18584.0 777.709   3
   3   0   0 14147.9 519.997   4
   3   0   0 13538.7 667.434   3
   3   0   1 191913. 2473.86   3
   3   0   1 190892. 1611.10   4
   3   0   2 1063.70 184.508   5
   3   0   2 1202.45 103.930   4
   3   0   2 1162.08 209.816   3
   3   0   3 103655. 1663.42   5
   3   0   3 110401. 1898.91   3
   3   0   4 112585. 1940.23   3
   3   0   4 114036. 1743.28   5
  -3   0  -5 1440.81 202.641   2
   3   0   5 1448.90 198.945   5
   3   0   5 1231.04 215.800   3
  -3   0  -5 1731.54 223.045   7
   3   0   6 2133.42 233.926   5
  -3   0  -6 2232.75 268.071   2
   3   0   6 2111.35 268.997   3
  -3   0  -6 2535.46 289.029   7
  -3   0  -7 1486.61 250.923   7
   3   0   7 1351.03 182.130   5
  -3   0  -7 1181.41 83.4833   4
  -3   0  -7 1500.00 243.818   2
   3   0   7 1390.89 238.839   3
  -3   0  -8 4589.82 214.909   4
  -3   0  -8 4765.50 445.229   2
  -3   0  -8 5481.38 493.383   7
  -3   0  -9 447.272 176.384   7
  -3   0  -9 453.369 181.739   2
  -3   0  -9 478.835 82.5765   4
  -3   0 -10 18077.1 969.846   2
  -3   0 -10 18913.3 1050.48   7
  -3   0 -11-29.6532 101.967   7
  -3   0 -11 27.1631 144.667   2
  -3   0 -12 13453.1 944.012   2
  -3   0 -12 13715.8 983.608   7
  -3   0 -13 10398.5 873.199   2
  -3   0 -14 21231.7 1298.57   2
  -3   0 -15 380.068 227.496   2
  -3   0 -16-144.218 198.581   2
  -3   0 -17 596.517 278.051   2
  -3   0 -18 17933.0 1403.47   2
  -3   0 -19 1380.56 426.705   2
   3   1 -20 250.061 237.869   4
   3   1 -20 58.8700 174.699   2
   3   1 -19 11588.9 1219.98   4
   3   1 -19 13412.4 1194.02   2
   3   1 -18 14924.9 1217.58   2
   3   1 -18 16857.1 1464.59   4
   3   1 -17 549.466 294.826   4
   3   1 -17 519.171 247.234   2
   3   1 -16 2919.73 597.641   4
   3   1 -16 2998.96 523.488   2
   3   1 -15 983.476 294.558   2
   3   1 -15 1737.77 446.131   4
   3   1 -14-4.12292 177.957   4
   3   1 -14-84.1766 149.394   2
   3   1 -13 4596.80 673.243   4
   3   1 -13 3333.05 471.472   2
   3   1 -12 6668.39 618.195   2
   3   1 -12 7625.71 814.564   4
   3   1 -11-32.7890 145.548   4
   3   1 -11 140.046 107.108   2
   3   1 -11 6.14107 35.9393   3
   3   1 -10 11510.2 497.177   5
   3   1 -10 10831.5 705.701   2
   3   1 -10 10083.8 856.493   4
   3   1 -10 11039.2 591.021   3
   3   1  -9 4155.03 323.479   5
   3   1  -9 3871.05 401.148   2
   3   1  -9 3931.08 522.429   4
   3   1  -9 3870.84 362.909   3
   3   1  -8 59814.6 1465.73   2
   3   1  -8 59425.3 1280.64   5
   3   1  -8 59873.4 1914.53   4
   3   1  -8 61226.8 1449.71   3
   3   1  -7 18344.3 769.712   2
   3   1  -7 18275.2 1007.23   4
   3   1  -7 20042.2 773.754   5
   3   1  -7 18827.8 813.630   3
   3   1  -6 42326.8 1100.41   2
   3   1  -6 42213.0 1148.96   5
   3   1  -6 43475.0 1471.33   4
   3   1  -6 39152.8 1184.45   3
   3   1  -5 19767.2 805.754   5
   3   1  -5 19193.7 821.215   3
   3   1  -5 20359.5 720.086   2
   3   1  -5 18793.3 913.357   4
   3   1  -4 59423.7 1171.23   2
   3   1  -4 58536.4 1514.61   4
   3   1  -4 59909.3 1394.12   5
   3   1  -4 58925.2 1440.86   3
   3   1  -3 2929.79 319.231   5
   3   1  -3 2947.54 324.292   4
   3   1  -3 2912.52 324.932   3
   3   1  -2 11140.2 584.664   4
   3   1  -2 11967.3 650.584   3
   3   1  -1 123074. 1781.47   4
   3   1  -1 120270. 2061.35   3
   3   1   0 317754. 2626.42   4
   3   1   0 330673. 3408.91   3
   3   1   1 6215.09 325.881   4
  -3  -1  -1 5898.97 262.079   1
   3   1   1 6152.12 479.903   3
  -3  -1  -2 22045.2 380.434   1
   3   1   2 24241.9 946.789   3
  -3  -1  -3 9542.26 262.138   1
   3   1   3 9293.36 592.783   3
  -3  -1  -4 92061.5 973.213   1
   3   1   4 97485.2 1917.94   3
  -3  -1  -5 2061.15 173.726   1
   3   1   5 2876.42 340.624   3
  -3  -1  -5 2509.62 240.903   7
  -3  -1  -6 6589.02 464.959   2
   3   1   6 6488.44 501.806   3
  -3  -1  -6 7283.34 444.124   7
  -3  -1  -7 97.0241 72.6327   7
  -3  -1  -7 365.048 145.745   2
  -3  -1  -8 3620.73 377.087   7
  -3  -1  -8 3188.03 249.574   4
  -3  -1  -8 3635.01 402.724   2
   3   1   8 3129.35 292.815   5
   3   1   9 3534.61 285.361   5
  -3  -1  -9 3270.53 265.271   4
  -3  -1  -9 3015.17 387.263   2
  -3  -1  -9 3200.12 370.628   7
  -3  -1 -10 55789.3 1733.30   2
  -3  -1 -10 58492.4 1685.03   7
  -3  -1 -11 3231.02 418.031   7
  -3  -1 -11 3368.13 458.498   2
  -3  -1 -12 85.7561 160.556   2
  -3  -1 -13 109.414 174.246   2
  -3  -1 -14-99.1614 175.292   2
  -3  -1 -15 122.288 156.220   2
  -3  -1 -16 1265.17 357.977   2
  -3  -1 -17-44.3816 173.837   2
  -3  -1 -18-297.516 214.113   2
  -3  -1 -19 172.740 233.283   2
   3   2 -20 1657.14 481.907   4
   3   2 -20 1521.98 431.582   2
   3   2 -19 446.690 265.533   2
   3   2 -19 252.982 179.682   4
   3   2 -18 275.121 233.102   4
   3   2 -18 571.597 279.004   2
   3   2 -17 84.6915 151.556   4
   3   2 -17-291.706 210.101   2
   3   2 -16 5820.18 716.581   2
   3   2 -16 5791.51 818.087   4
   3   2 -15-469.843 274.740   4
   3   2 -15 40.7685 132.481   2
   3   2 -14 13977.5 1012.70   2
   3   2 -14 12501.1 1124.44   4
   3   2 -13 245.301 198.401   4
   3   2 -13 254.046 175.239   2
   3   2 -12 34522.5 1735.93   4
   3   2 -12 32646.6 1397.25   2
   3   2 -11 126.714 88.6506   5
   3   2 -11 101.225 161.095   4
   3   2 -11 101.950 125.803   2
   3   2 -10-60.3916 75.1824   5
   3   2 -10 379.171 247.392   4
   3   2 -10 196.908 135.282   2
   3   2 -10-141.938 87.5567   3
   3   2  -9 988.044 195.932   5
   3   2  -9 891.568 284.103   4
   3   2  -9 775.774 191.920   2
   3   2  -9 897.897 186.937   3
   3   2  -8 16686.1 822.439   2
   3   2  -8 15784.4 998.531   4
   3   2  -8 16378.2 777.670   3
   3   2  -8 16645.7 787.041   5
   3   2  -7-19.4845 137.133   4
   3   2  -7 51.2298 94.0308   5
   3   2  -7-18.0571 89.7044   2
   3   2  -7-58.9419 94.4741   3
   3   2  -6 1301.17 232.840   3
   3   2  -6 1021.79 226.128   5
   3   2  -6 1042.34 195.256   2
   3   2  -6 1191.62 269.825   4
   3   2  -5 18499.9 751.798   2
   3   2  -5 18312.9 921.332   4
   3   2  -5 19271.3 878.936   5
   3   2  -5 18630.8 847.840   3
   3   2  -4 38622.0 1260.15   4
   3   2  -4 39403.6 1272.18   5
   3   2  -4 40768.3 1261.30   3
   3   2  -3 45148.7 1353.31   5
   3   2  -3 44316.4 1282.83   4
   3   2  -3 42825.3 1305.70   3
   3   2  -2 15.5850 73.9532   4
   3   2  -2 181.419 118.899   3
   3   2  -1 161550. 2541.16   3
   3   2  -1 166177. 2196.24   4
   3   2   0 50504.1 1128.84   6
   3   2   0 49983.2 1114.12   4
   3   2   0 51621.9 1453.75   3
   3   2   1 29.6630 60.4561   6
   3   2   1 37.5133 50.5944   4
  -3  -2  -1 43.2370 56.5456   1
   3   2   1-42.3355 111.689   3
   3   2   2 4424.05 441.096   3
  -3  -2  -2 4521.33 253.588   1
   3   2   2 4084.29 340.464   6
  -3  -2  -3 3210.51 206.773   1
   3   2   3 3733.92 404.786   3
  -3  -2  -4 524.072 96.7632   1
   3   2   4 279.940 134.903   3
  -3  -2  -5 20836.8 643.324   1
   3   2   5 21769.5 985.156   3
  -3  -2  -6 3073.57 279.860   1
  -3  -2  -6 2794.05 244.747   7
  -3  -2  -7 233.135 127.505   2
  -3  -2  -7 258.182 88.6247   7
  -3  -2  -7 203.027 95.0474   1
  -3  -2  -8 3040.45 290.317   7
  -3  -2  -8 3297.80 390.504   2
  -3  -2  -9 6136.79 437.558   7
  -3  -2  -9 6499.50 584.795   2
  -3  -2 -10 23893.0 884.737   4
  -3  -2 -10 25302.4 1199.63   2
  -3  -2 -11 4206.35 532.765   2
  -3  -2 -12 265.231 163.237   2
  -3  -2 -13 424.179 242.570   2
  -3  -2 -14 4130.67 604.422   2
  -3  -2 -15 1052.38 332.872   2
  -3  -2 -16 4052.90 651.182   2
  -3  -2 -17 4097.88 684.004   2
  -3  -2 -18-164.029 220.209   2
  -3  -2 -19 258.436 247.955   2
   3   3 -20 8788.18 1023.75   2
   3   3 -20 9901.25 1122.41   4
   3   3 -19 8147.15 964.207   2
   3   3 -19 8393.48 1021.17   4
   3   3 -18 6307.04 901.405   4
   3   3 -18 10436.9 1061.90   2
   3   3 -17 9298.01 971.528   2
   3   3 -17 8055.89 1008.67   4
   3   3 -16 1645.23 399.791   2
   3   3 -16 1984.81 512.296   4
   3   3 -15 365.124 235.976   4
   3   3 -15 160.436 192.547   2
   3   3 -14 6188.18 694.026   2
   3   3 -14 5755.48 784.242   4
   3   3 -13 788.004 294.229   4
   3   3 -13 528.040 215.987   2
   3   3 -12 1739.59 417.408   4
   3   3 -12 1719.11 351.630   2
   3   3 -11 764.215 186.048   5
   3   3 -11 303.017 211.921   4
   3   3 -11 734.265 251.230   2
   3   3 -10 17050.1 852.266   5
   3   3 -10 16282.2 937.003   2
   3   3 -10 17632.9 1171.01   4
   3   3  -9 4419.39 459.444   5
   3   3  -9 3502.91 424.495   2
   3   3  -9 3268.85 498.109   4
   3   3  -9 3650.70 367.308   3
   3   3  -8 4441.07 452.629   2
   3   3  -8 4828.91 579.841   4
   3   3  -8 5328.84 505.598   5
   3   3  -8 4483.72 425.447   3
   3   3  -7 82423.9 1835.37   2
   3   3  -7 83349.4 1851.05   3
   3   3  -7 79906.6 2186.41   4
   3   3  -7 81062.9 1976.84   5
   3   3  -6 121162. 2139.23   2
   3   3  -6 122487. 2586.99   4
   3   3  -6 120933. 2426.40   5
   3   3  -6 122500. 2308.32   3
   3   3  -5 21871.0 1039.71   5
   3   3  -5 21664.2 979.195   3
   3   3  -5 23435.3 1091.45   4
   3   3  -4 2302.73 361.812   5
   3   3  -4 2717.42 361.001   4
   3   3  -4 2560.41 345.103   3
   3   3  -3 7474.09 613.004   5
   3   3  -3 8147.07 577.785   4
   3   3  -3 7729.23 596.189   3
   3   3  -2 15236.9 748.975   4
   3   3  -2 14254.4 809.248   3
   3   3  -2 15062.1 867.213   5
   3   3  -1 7326.86 487.040   4
   3   3  -1 7877.15 612.445   3
  -3  -3   0 337.308 121.589   1
   3   3   0 437.651 117.629   6
   3   3   0 616.668 196.495   3
   3   3   0 625.621 143.886   4
  -3  -3  -1 17072.8 664.860   1
   3   3   1 17254.5 691.623   6
   3   3   1 18853.1 943.459   3
   3   3   1 16990.1 923.649   5
   3   3   2 151611. 2142.13   6
   3   3   2 147512. 2680.38   5
  -3  -3  -2 151087. 1841.33   1
  -3  -3  -3 21987.4 670.983   1
   3   3   3 22410.7 1061.08   3
   3   3   3 22229.1 1046.80   5
   3   3   4 15372.6 864.835   5
  -3  -3  -4 16064.1 589.887   1
  -3  -3  -4 16196.7 402.266   7
  -3  -3  -5 23588.8 764.820   1
   3   3   5 21913.1 1027.04   5
  -3  -3  -5 21302.0 435.596   7
   3   3   6 35748.9 1304.19   5
  -3  -3  -6 37303.8 1043.80   1
  -3  -3  -7 1564.19 241.970   1
   3   3   7 1748.43 302.624   5
  -3  -3  -7 1568.84 296.465   2
   3   3   8 8238.86 611.250   5
  -3  -3  -8 7693.39 543.461   1
  -3  -3  -8 9433.70 684.739   2
   3   3   9 5983.69 508.141   5
  -3  -3  -9 5704.92 499.570   1
  -3  -3  -9 6075.18 579.948   2
  -3  -3 -10 6564.52 630.596   2
  -3  -3 -11 10019.8 827.216   2
  -3  -3 -12 7258.01 725.429   2
  -3  -3 -13 2063.17 422.259   2
  -3  -3 -14 3101.15 520.875   2
  -3  -3 -15 844.189 315.882   2
  -3  -3 -16 977.390 358.682   2
  -3  -3 -17 565.749 278.755   2
  -3  -3 -18 2382.91 551.096   2
   3   4 -20 543.795 323.783   2
   3   4 -20 778.215 293.869   4
   3   4 -19 1189.54 399.944   4
   3   4 -19 1477.24 433.782   2
   3   4 -18 2667.35 561.750   4
   3   4 -18 4852.98 738.701   2
   3   4 -17 61.3652 179.465   4
   3   4 -17 70.8080 182.352   2
   3   4 -16 635.542 326.844   4
   3   4 -16 153.011 181.899   2
   3   4 -15 10330.8 951.721   2
   3   4 -15 11800.8 1159.05   4
   3   4 -14 28575.2 1527.76   2
   3   4 -14 32163.9 1840.28   4
   3   4 -13 3305.21 590.592   4
   3   4 -13 2169.29 412.535   2
   3   4 -12 12101.6 915.366   2
   3   4 -12 11558.5 1044.72   4
   3   4 -11 4970.20 570.406   2
   3   4 -11 4316.74 473.828   5
   3   4 -11 5403.29 703.403   4
   3   4 -10 3999.10 489.022   2
   3   4 -10 5227.21 665.490   4
   3   4 -10 5059.46 531.985   5
   3   4  -9 7098.67 630.365   5
   3   4  -9 7757.76 778.088   4
   3   4  -9 6412.98 596.292   2
   3   4  -8 12983.1 801.460   2
   3   4  -8 14676.4 1015.71   4
   3   4  -8 14070.2 891.509   5
   3   4  -7 2285.01 386.020   5
   3   4  -7 1379.33 331.037   4
   3   4  -7 1678.05 289.799   3
   3   4  -7 2404.45 342.066   2
   3   4  -6 29484.3 1302.16   5
   3   4  -6 31236.2 1359.73   4
   3   4  -6 32965.8 1252.29   3
   3   4  -5 116161. 2363.98   3
   3   4  -5 115228. 2474.87   4
   3   4  -4 38681.1 1372.30   4
   3   4  -4 38945.1 1391.60   3
   3   4  -3 30670.3 1165.11   4
   3   4  -3 29657.4 1231.50   3
   3   4  -2 131109. 2292.50   4
   3   4  -2 130808. 2589.28   3
   3   4  -1 1895.86 271.439   4
   3   4  -1 2370.30 367.216   3
  -3  -4   1 1750.10 279.483   1
   3   4   0 4489.87 351.649   6
  -3  -4   0 4077.19 395.178   1
   3   4   0 4332.10 493.121   3
   3   4   1 13069.6 619.304   6
  -3  -4  -1 13143.3 667.167   1
   3   4   2 1621.45 231.508   6
  -3  -4  -2 1305.44 209.445   1
  -3  -4  -3 911.118 173.087   1
   3   4   3 1140.91 203.776   6
   3   4   4 809.458 239.521   5
  -3  -4  -4 670.324 151.101   1
   3   4   5 32978.3 1398.93   5
  -3  -4  -5 35520.1 1051.66   1
   3   4   6 3030.00 431.260   5
  -3  -4  -6 4347.29 398.502   1
   3   4   7 7409.87 653.816   5
  -3  -4  -7 7950.75 565.993   1
  -3  -4  -8 16283.8 842.196   1
  -3  -4  -8 18425.0 1012.24   2
   3   4   8 17144.2 969.881   5
  -3  -4  -9 1145.88 303.789   2
   3   4   9 1135.30 257.444   5
  -3  -4  -9 846.042 216.989   1
  -3  -4 -10-22.6621 175.818   2
  -3  -4 -10 113.125 100.582   1
  -3  -4 -11 1780.28 384.173   2
  -3  -4 -12 8745.44 834.137   2
  -3  -4 -13 423.284 195.088   2
  -3  -4 -14 4672.86 670.868   2
  -3  -4 -15 6166.64 788.922   2
  -3  -4 -16 282.311 203.640   2
  -3  -4 -17-113.875 218.702   2
  -3  -4 -18 294.907 270.913   2
   3   5 -20 9428.44 1103.23   4
   3   5 -19 1896.36 479.851   2
   3   5 -19 1431.33 434.451   4
   3   5 -18-431.645 269.036   4
   3   5 -18-376.474 246.927   2
   3   5 -17 6399.65 840.573   2
   3   5 -17 4799.33 787.536   4
   3   5 -16 35866.9 2065.33   4
   3   5 -16 36311.8 1903.73   2
   3   5 -15 2613.50 577.593   4
   3   5 -15 2395.16 493.699   2
   3   5 -14 1088.44 380.318   4
   3   5 -14 840.160 313.689   2
   3   5 -13 3502.73 620.885   4
   3   5 -13 2615.09 462.521   2
   3   5 -12 14882.7 1050.42   2
   3   5 -12 15088.6 1201.18   4
   3   5 -12 13286.6 876.449   5
   3   5 -11 14684.0 1010.41   2
   3   5 -11 15451.9 984.550   5
   3   5 -11 14408.6 1138.36   4
   3   5 -10 1143.39 292.107   5
   3   5 -10 849.642 306.724   4
   3   5 -10 951.323 257.923   2
   3   5  -9 1974.21 355.979   2
   3   5  -9 1784.18 362.156   5
   3   5  -9 1813.32 394.857   4
   3   5  -8 11763.0 896.926   5
   3   5  -8 10428.3 877.139   4
   3   5  -7 32346.5 1469.42   4
   3   5  -7 29005.5 1388.28   5
   3   5  -6 697.232 247.177   4
   3   5  -5 8108.15 693.462   4
   3   5  -4 32124.3 1302.63   4
   3   5  -3 19895.4 984.382   4
  -3  -5   3 18987.6 1035.44   1
  -3  -5   2 32465.7 1304.22   1
   3   5  -2 32021.7 1205.17   4
  -3  -5   1 4596.65 481.262   1
  -3  -5   0 78.4296 109.783   1
   3   5   0 78.5190 73.7102   6
   3   5   1 5185.54 400.749   6
  -3  -5  -1 5114.94 464.991   1
  -3  -5  -2 301.106 127.844   1
   3   5   2 397.926 134.016   6
   3   5   3 18614.6 825.381   6
  -3  -5  -3 19770.1 852.423   1
   3   5   4 32277.9 1137.86   6
  -3  -5  -4 29952.9 1052.31   1
  -3  -5  -5 2880.53 337.159   1
   3   5   5 2648.92 453.456   5
   3   5   6 24276.1 1313.84   5
  -3  -5  -6 23929.1 1015.13   1
   3   5   7 13589.5 972.254   5
  -3  -5  -7 13346.0 795.644   1
   3   5   8 7040.72 691.635   5
  -3  -5  -8 7058.31 653.176   2
  -3  -5  -8 6960.31 605.998   1
   3   5   9 967.041 255.913   5
  -3  -5  -9 1115.93 294.269   2
  -3  -5  -9 1170.02 265.069   1
  -3  -5 -10 7822.68 692.651   1
  -3  -5 -10 8688.70 791.944   2
  -3  -5 -11 9001.04 834.306   2
  -3  -5 -12 7591.32 793.901   2
  -3  -5 -13 4146.35 629.157   2
  -3  -5 -14 5332.48 726.491   2
  -3  -5 -15 4942.43 725.046   2
  -3  -5 -16 6713.51 870.732   2
  -3  -5 -17 630.051 338.304   2
   3   6 -19 2104.94 515.339   4
   3   6 -19 1956.20 488.218   2
   3   6 -18 441.651 230.896   4
   3   6 -18 355.599 253.523   2
   3   6 -17 7271.20 909.068   2
   3   6 -17 5733.20 832.721   4
   3   6 -16 368.981 271.020   4
   3   6 -16 425.783 243.555   2
   3   6 -15 1152.69 427.392   4
   3   6 -15 1359.52 392.817   2
   3   6 -14 13156.4 1097.82   2
   3   6 -14 14267.3 1253.75   4
   3   6 -13 25653.8 1633.06   4
   3   6 -13 25348.2 1465.47   2
   3   6 -12 2405.43 446.522   2
   3   6 -12 1740.28 361.864   5
   3   6 -12 2148.38 464.492   4
   3   6 -11 723.056 281.481   4
   3   6 -11 962.279 293.960   5
   3   6 -10 2118.50 406.078   5
   3   6 -10 2679.85 497.126   4
   3   6  -9 10720.9 917.412   5
   3   6  -9 11127.9 964.641   4
   3   6  -8-416.995 206.350   5
   3   6  -8 1.03525 166.125   4
   3   6  -7 39610.4 1675.46   4
   3   6  -6 1355.06 343.549   4
   3   6  -5 73.7297 154.872   4
  -3  -6   4 3857.82 533.980   1
   3   6  -4 4284.40 512.631   4
   3   6  -3 51975.9 1687.24   4
  -3  -6   3 52041.7 1834.72   1
  -3  -6   2 6961.63 651.194   1
  -3  -6   1 93568.0 2277.69   1
  -3  -6   0 25543.5 1160.28   1
   3   6   1 402.585 127.804   6
  -3  -6  -1 656.655 222.863   1
   3   6   2 104.802 86.5727   6
  -3  -6  -2 364.160 162.987   1
   3   6   3 20471.5 875.137   6
  -3  -6  -3 20340.5 956.262   1
   3   6   4 2708.25 344.067   6
  -3  -6  -4 2064.59 318.489   1
  -3  -6  -5 4857.81 487.307   1
   3   6   5 4789.05 477.533   6
   3   6   6 25013.1 1454.22   5
  -3  -6  -6 23255.2 1087.61   1
  -3  -6  -7 52384.3 1694.84   1
   3   6   7 52181.8 2083.65   5
  -3  -6  -8 4374.93 517.608   1
   3   6   8 4520.30 616.555   5
  -3  -6  -9 11768.5 921.678   2
   3   6   9 11961.4 960.080   5
  -3  -6  -9 11658.9 865.016   1
  -3  -6 -10 15748.9 1099.23   2
  -3  -6 -11 1273.70 361.090   2
  -3  -6 -12 213.189 170.604   2
  -3  -6 -13-28.9059 186.570   2
  -3  -6 -14 37.9327 153.607   2
  -3  -6 -15 303.774 249.750   2
  -3  -6 -16 958.514 397.650   2
  -3  -6 -17 1086.68 397.473   2
   3   7 -18 2761.88 587.132   4
   3   7 -17-22.3196 156.714   4
   3   7 -16 1092.87 397.486   4
   3   7 -15 8434.28 998.081   4
   3   7 -14 10512.3 1098.73   4
   3   7 -13 248.684 195.072   4
   3   7 -12-228.932 176.354   5
   3   7 -12-40.6970 145.197   4
   3   7 -11 428.211 231.631   5
   3   7 -11 909.714 316.445   4
   3   7 -10 11138.9 996.915   5
   3   7 -10 11928.2 1045.11   4
   3   7  -9 27450.9 1561.13   5
   3   7  -9 29587.6 1590.29   4
   3   7  -8-218.611 226.067   4
   3   7  -7 5510.47 655.469   4
   3   7  -6 277.681 219.660   4
  -3  -7   6-443.659 248.362   1
   3   7  -5 5438.80 617.837   4
  -3  -7   5 5275.46 667.768   1
  -3  -7   4 9.69798 165.542   1
  -3  -7   3 8115.97 781.219   1
  -3  -7   2 3671.03 499.091   1
  -3  -7   1 2349.57 403.052   1
  -3  -7   0 4613.38 553.561   1
  -3  -7  -1 32341.0 1362.38   1
  -3  -7  -2 7595.79 657.689   1
   3   7   2 6960.62 499.560   6
   3   7   3 3092.80 354.060   6
  -3  -7  -3 3428.66 432.670   1
   3   7   4-120.712 94.9357   6
  -3  -7  -4 86.9254 112.773   1
   3   7   5 414.701 155.997   6
  -3  -7  -5 204.663 151.329   1
  -3  -7  -6 3150.19 444.421   1
   3   7   6 3375.47 445.292   6
   3   7   7 414.463 271.453   5
  -3  -7  -7 334.601 172.951   1
  -3  -7  -8 263.227 169.838   1
   3   7   8-210.091 259.199   5
  -3  -7  -9 4721.43 602.169   1
   3   7   9 5407.79 698.236   5
  -3  -7  -9 4783.46 629.518   2
  -3  -7 -10 598.113 275.950   2
  -3  -7 -11 743.831 274.084   2
  -3  -7 -12 6201.20 783.207   2
  -3  -7 -13 13817.5 1194.72   2
  -3  -7 -14 1258.73 426.282   2
  -3  -7 -15-350.844 214.280   2
  -3  -7 -16 46.1806 124.128   2
   3   8 -18 1093.36 408.094   4
   3   8 -17 3122.74 630.510   4
   3   8 -16 2142.47 534.163   4
   3   8 -15 13045.5 1254.45   4
   3   8 -14-7.90665 129.153   4
   3   8 -13 407.419 246.016   4
   3   8 -12 12304.3 1081.68   5
   3   8 -12 13068.6 1186.59   4
   3   8 -11 15446.2 1230.10   5
   3   8 -11 17894.7 1337.92   4
   3   8 -10 3284.97 594.129   5
   3   8 -10 3237.19 580.296   4
   3   8  -9 15381.6 1185.46   4
  -3  -8   9 15834.1 1371.35   1
  -3  -8   8-75.3591 287.973   1
   3   8  -8 52.7946 201.148   4
   3   8  -7 6507.75 745.897   4
  -3  -8   7 7934.56 917.726   1
  -3  -8   6 3930.19 640.267   1
  -3  -8   5 10211.3 984.113   1
  -3  -8   4 208.725 192.676   1
  -3  -8   3 17912.6 1206.68   1
  -3  -8   2 4587.98 614.104   1
  -3  -8   1 3488.88 515.567   1
  -3  -8   0 340.616 195.880   1
  -3  -8  -1 31569.8 1438.14   1
  -3  -8  -2 16588.3 1039.51   1
   3   8   3 274.035 122.093   6
  -3  -8  -3 177.065 153.062   1
   3   8   4 39.1795 81.9907   6
  -3  -8  -4 225.020 171.164   1
   3   8   5 11129.3 732.687   6
  -3  -8  -5 11825.0 896.013   1
  -3  -8  -6 2147.39 407.997   1
   3   8   6 1617.02 311.060   6
   3   8   7 1492.04 441.996   5
   3   8   7 1189.93 278.056   6
  -3  -8  -7 1358.68 328.688   1
   3   8   8 5292.79 757.727   5
   3   8   8 4226.16 542.843   6
  -3  -8  -8 4186.80 589.687   1
   3   8   9 10834.6 903.112   6
   3   8   9 10758.5 1059.37   5
  -3  -8  -9 12247.4 1029.66   2
  -3  -8 -10 896.388 316.308   2
  -3  -8 -11 4080.65 656.738   2
  -3  -8 -12 1468.39 421.337   2
  -3  -8 -13-11.9384 148.614   2
  -3  -8 -14 153.903 207.786   2
  -3  -8 -15 1006.23 378.750   2
   3   9 -16 9658.84 1097.85   4
  -3  -9  16 10119.8 1374.51   1
  -3  -9  15-384.158 425.717   1
   3   9 -15-115.220 135.900   4
   3   9 -14 121.695 280.550   4
  -3  -9  14-427.873 336.871   1
   3   9 -13 9603.90 1058.16   4
  -3  -9  13 9418.78 1242.44   1
   3   9 -12 160.227 130.869   5
  -3  -9  12-163.359 240.034   1
   3   9 -12 277.725 212.682   4
   3   9 -11 698.555 279.529   5
   3   9 -11 354.262 230.183   4
  -3  -9  11 84.3367 301.302   1
   3   9 -10-406.564 235.682   5
  -3  -9  10-225.865 239.627   1
  -3  -9   9 663.555 329.815   1
  -3  -9   8-692.140 342.381   1
  -3  -9   7 432.367 295.678   1
  -3  -9   6 5564.28 780.513   1
  -3  -9   5 8494.20 933.338   1
  -3  -9   4 1.32327 205.833   1
  -3  -9   3 4853.80 677.930   1
  -3  -9   2 3315.38 556.049   1
  -3  -9   1 14007.4 1078.51   1
  -3  -9   0 468.274 240.385   1
  -3  -9  -1 2331.76 448.846   1
  -3  -9  -2 376.037 205.977   1
  -3  -9  -3 5937.79 677.633   1
  -3  -9  -4 26399.2 1421.16   1
  -3  -9  -5 152.083 169.641   1
  -3  -9  -6 137.226 125.289   1
   3   9   7 990.566 398.315   5
  -3  -9  -7 220.951 170.415   1
   3   9   8-453.977 312.957   5
  -3  -9  -9 376.816 247.059   2
  -3  -9 -10 791.381 253.594   2
  -3  -9 -11 1660.00 442.175   2
  -3  -9 -12 303.529 244.333   2
  -3  -9 -13 93.0706 191.951   2
  -3 -10  15 619.446 416.191   1
  -3 -10  14 1119.41 483.612   1
  -3 -10  13 9997.86 1293.26   1
   3  10 -12 515.094 269.870   5
  -3 -10  12 1519.32 526.571   1
  -3 -10  11 677.357 376.872   1
   3  10 -11 1058.65 398.514   5
   3  10 -10 4713.84 798.836   5
  -3 -10  10 7453.10 1055.45   1
  -3 -10   9 6533.70 974.800   1
  -3 -10   8-46.7137 225.480   1
  -3 -10   7 6602.08 929.870   1
  -3 -10   6 7083.17 922.435   1
  -3 -10   5 10084.0 1072.31   1
  -3 -10   4 205.021 233.670   1
  -3 -10   3 98.2061 189.817   1
  -3 -10   2 404.426 260.161   1
  -3 -10   1-55.3991 185.361   1
  -3 -10   0 362.368 227.980   1
  -3 -10  -1 69.7920 168.461   1
  -3 -10  -2 1847.93 430.206   1
  -3 -10  -3 12054.7 1025.07   1
  -3 -10  -4 2227.29 454.369   1
  -3 -10  -5 1165.22 376.746   1
  -3 -10  -6 209.989 183.416   1
   3  10   6 275.284 304.327   5
   3  10   7 307.307 235.577   5
  -3 -10  -7 538.410 298.831   1
   3  10   8-83.8747 203.311   5
  -3 -10  -9 200.055 230.550   2
  -3 -10 -10 919.656 336.862   2
  -3 -10 -11 436.183 267.324   2
  -3 -10 -12-80.4892 179.229   2
  -3 -11  13 1293.02 469.941   1
  -3 -11  12 8812.12 1226.17   1
   3  11 -11 111.001 184.291   5
  -3 -11  11 262.475 292.361   1
   3  11 -10 2517.76 600.333   5
  -3 -11  10 2363.75 618.844   1
   3  11  -9-303.632 228.427   5
  -3 -11   9 214.816 283.476   1
  -3 -11   8 2657.96 631.235   1
  -3 -11   7 2346.48 589.910   1
  -3 -11   6 1306.07 451.849   1
  -3 -11   5 961.401 390.822   1
  -3 -11   4 16935.1 1398.72   1
  -3 -11   3 153.088 179.275   1
  -3 -11   2 634.293 305.325   1
  -3 -11   1 3225.77 582.626   1
  -3 -11   0 5264.18 728.863   1
  -3 -11  -1 2359.04 493.907   1
  -3 -11  -2-27.5849 168.172   1
  -3 -11  -3 469.080 313.523   1
  -3 -11  -4-362.514 231.821   1
  -3 -11  -5 670.087 311.798   1
   3  11   6-248.343 288.165   5
  -3 -11  -6 159.679 160.725   1
   3  11   7 470.660 334.665   5
  -3 -11  -8 563.617 288.599   2
   3  11   8 306.318 317.042   5
  -3 -11  -9 2090.94 517.019   2
  -3 -11 -10 1232.49 400.684   2
  -3 -12  12-170.622 240.266   1
  -3 -12  11-11.6111 106.497   1
   3  12 -11 430.201 268.037   5
   3  12 -10 649.155 378.067   5
  -3 -12  10 247.913 247.455   1
  -3 -12   9 385.245 343.806   1
   3  12  -9-86.3821 191.712   5
  -3 -12   8 410.234 325.147   1
  -3 -12   7 6986.97 1027.03   1
  -3 -12   6 130.243 215.281   1
  -3 -12   5-406.757 310.580   1
  -3 -12   4 2804.90 606.977   1
  -3 -12   3 368.169 270.655   1
  -3 -12   2 3600.21 639.403   1
  -3 -12   1-1.51025 174.804   1
  -3 -12   0 2148.72 492.037   1
  -3 -12  -1 103.786 196.632   1
  -3 -12  -2 2305.38 531.507   1
  -3 -12  -3 38.5625 168.710   1
  -3 -12  -4 2142.08 483.506   1
   3  12   5-803.647 405.597   5
   3  12   6 650.788 395.830   5
   3  12   7 418.970 351.053   5
  -3 -12  -8 61.5224 156.021   2
   3  13 -10 8312.14 1200.78   5
   3  13  -9 864.421 392.691   5
  -3 -13   9 337.181 330.263   1
   3  13  -8 479.405 331.123   5
  -3 -13   8-19.1047 226.919   1
  -3 -13   7 6148.39 973.893   1
  -3 -13   6 11039.9 1254.69   1
  -3 -13   5 1206.04 429.275   1
  -3 -13   4 2606.38 583.794   1
  -3 -13   3 118.531 193.482   1
  -3 -13   2 8055.09 994.725   1
  -3 -13   1-205.140 198.589   1
  -3 -13   0 2502.25 546.172   1
  -3 -13  -1 1848.55 498.693   1
  -3 -13  -2-292.844 209.831   1
  -3 -13  -3 1326.60 417.353   1
   3  13   4-615.080 412.664   5
   3  13   5 403.719 353.298   5
   3  13   6 2255.89 633.348   5
  -3 -14   4 530.617 308.800   1
  -3 -14   3-234.881 249.525   1
  -3 -14   2 1140.61 408.553   1
  -3 -14   1 499.112 266.937   1
  -3 -14   0 480.535 252.114   1
  -3 -14  -1 2564.93 573.514   1
   4 -15  -5 7498.45 1140.05   1
   4 -15  -4 3452.25 759.721   1
   4 -15  -3 951.104 412.600   1
   4 -15  -2 1708.01 540.389   1
   4 -15  -1 20.0685 181.467   1
   4 -15   0 346.002 275.157   1
   4 -15   1 946.268 377.356   1
   4 -15   2 68.6911 101.470   1
   4 -15   3 756.392 364.513   1
   4 -15   4-627.258 341.830   1
   4 -15   5 3965.04 743.027   1
  -4  15  -6-174.856 329.508   7
   4 -15   6-235.967 244.803   1
  -4  15  -7-593.867 407.977   7
   4 -15   7-273.857 221.861   1
   4 -15   8 4408.78 802.829   1
  -4  15  -8 7770.34 1223.21   7
   4 -14  -8 294.352 278.496   1
   4 -14  -7-126.164 235.853   1
   4 -14  -6-323.889 304.842   1
   4 -14  -5 1528.46 522.925   1
   4 -14  -4 1877.35 547.658   1
   4 -14  -3 241.760 275.893   1
   4 -14  -2 7943.42 1039.75   1
   4 -14  -1 11618.0 1245.46   1
   4 -14   0 150.226 210.334   1
   4 -14   1 201.743 249.601   1
   4 -14   2 641.160 316.229   1
  -4  14  -3 4982.96 861.419   7
   4 -14   3 3637.16 675.414   1
  -4  14  -4 8959.82 1189.42   7
   4 -14   4 7164.75 954.914   1
   4 -14   5 64.3945 177.772   1
  -4  14  -5-159.282 247.614   7
   4 -14   6 4015.93 746.654   1
   4 -14   6 3538.11 755.020   3
  -4  14  -7-67.2287 253.169   7
   4 -14   7-26.7910 155.622   1
  -4  14  -8 18130.1 1853.59   7
   4 -14   8 15978.0 1448.93   1
  -4  14  -9 7278.45 1212.64   7
   4 -14   9 9223.16 1108.85   1
   4 -14  10 916.716 376.143   1
  -4  14 -10 1059.45 520.651   7
   4 -14  11 4276.81 787.798   1
   4 -13 -10 1973.87 589.446   1
   4 -13  -9 137.534 218.901   1
   4 -13  -8 1781.62 554.259   1
   4 -13  -7 2200.28 578.589   1
   4 -13  -6 2269.15 590.513   1
   4 -13  -5 2327.03 574.540   1
   4 -13  -4 9803.19 1135.43   1
   4 -13  -3 4704.26 771.940   1
   4 -13  -2 4505.96 753.428   1
   4 -13  -1 2615.24 567.277   1
   4 -13   0 2396.68 558.849   1
   4 -13   1 464.990 279.329   1
  -4  13  -1 811.698 337.235   7
  -4  13  -2 2590.35 597.297   7
   4 -13   2 2767.60 574.773   1
  -4  13  -3-180.076 248.355   7
   4 -13   3 717.579 330.333   1
  -4  13  -4 3068.46 689.581   7
   4 -13   4 4433.44 719.102   1
   4 -13   5 1952.46 498.884   1
  -4  13  -5 1880.59 608.149   7
  -4  13  -6 554.882 396.529   7
   4 -13   6 366.772 278.150   1
   4 -13   7 140.547 188.981   1
  -4  13  -7 405.828 335.268   7
   4 -13   8-25.0865 163.066   1
  -4  13  -8-239.009 341.602   7
  -4  13  -9 107.844 291.701   7
   4 -13   9 225.437 263.665   1
   4 -13  10 3634.88 688.435   1
  -4  13 -10 3720.53 901.873   7
   4 -13  11 21114.6 1646.36   1
  -4  13 -11 24335.1 2208.17   7
  -4  13 -12 7453.22 1245.35   7
   4 -13  12 8146.40 1045.10   1
   4 -12 -12 2913.95 729.003   1
   4 -12 -12 1643.75 496.660   3
   4 -12 -11 414.079 269.704   1
   4 -12 -10 727.799 381.547   1
   4 -12  -9 401.139 272.621   1
   4 -12  -8-367.035 307.068   1
   4 -12  -7 238.557 262.995   1
   4 -12  -6 888.682 337.667   1
   4 -12  -5-11.7314 206.066   1
   4 -12  -4 6956.39 920.379   1
   4 -12  -3 2778.80 565.820   1
   4 -12  -2 419.915 256.768   1
   4 -12  -1 6503.29 826.436   1
  -4  12   1 5967.99 776.472   7
   4 -12   0 26064.6 1611.49   1
  -4  12   0 29680.0 1767.43   7
   4 -12   1 8480.08 924.217   1
  -4  12  -1 8828.00 1008.32   7
  -4  12  -2-162.860 276.265   7
   4 -12   2 189.344 222.389   1
  -4  12  -3 2225.14 559.813   7
   4 -12   3 2232.02 488.114   1
   4 -12   4 810.624 317.505   1
  -4  12  -4 1507.09 496.493   7
  -4  12  -5 58.0227 253.436   7
   4 -12   5-2.81111 212.252   1
  -4  12  -6 2926.87 695.130   7
   4 -12   6 2888.28 566.770   1
   4 -12   7 196.629 220.002   3
  -4  12  -7 844.388 439.254   7
   4 -12   7 501.758 275.206   1
  -4  12  -8 1755.70 633.932   7
   4 -12   8 1631.99 473.881   1
  -4  12  -9 791.836 439.775   7
   4 -12   9 22.1274 178.274   1
   4 -12  10 20257.2 1560.39   1
  -4  12 -10 21125.8 1967.07   7
   4 -12  11 8182.74 1014.33   1
  -4  12 -11 10043.7 1412.25   7
  -4  12 -12 8876.77 1342.64   7
   4 -12  12 8490.60 1047.86   1
  -4  12 -13 2488.89 759.254   7
   4 -12  13 2771.99 621.250   1
  -4  12 -14 959.035 506.707   7
   4 -11 -14 70.8308 365.287   1
   4 -11 -13 577.480 320.177   3
   4 -11 -13 52.7622 226.658   1
   4 -11 -12 1126.37 428.273   3
   4 -11 -12 1351.84 496.863   1
   4 -11 -11 409.238 251.963   1
   4 -11 -10 2406.37 628.353   1
   4 -11  -9 1894.33 536.173   1
   4 -11  -8-333.675 267.128   1
   4 -11  -7-1.69784 225.219   1
   4 -11  -6 2989.14 626.660   1
   4 -11  -5-495.203 289.835   1
   4 -11  -4 2796.23 563.959   1
   4 -11  -3 1423.21 416.506   1
  -4  11   3 1134.53 324.780   7
  -4  11   2 3625.28 563.023   7
   4 -11  -2 4017.78 630.184   1
  -4  11   1 162.827 195.462   7
   4 -11  -1-48.2232 144.444   1
  -4  11   0 591.990 274.925   7
   4 -11   0 366.164 253.354   1
  -4  11  -1 69.4629 159.296   7
   4 -11   1 651.735 277.915   1
  -4  11  -2 3669.05 647.365   7
   4 -11   2 4011.82 611.945   1
   4 -11   3 821.377 314.006   1
  -4  11  -3 634.404 306.924   7
   4 -11   4 6631.89 772.760   1
  -4  11  -4 7586.70 958.369   7
  -4  11  -5 34.8186 239.784   7
   4 -11   5 429.732 238.450   1
   4 -11   6 16177.0 1228.67   1
  -4  11  -6 14632.3 1413.73   7
  -4  11  -7-108.383 344.067   7
   4 -11   7-63.4286 167.655   3
   4 -11   7-50.7778 159.779   1
  -4  11  -8 1288.50 474.919   7
   4 -11   8 1039.23 344.714   1
   4 -11   9 16681.9 1339.00   1
  -4  11  -9 16553.3 1647.43   7
   4 -11  10 2774.53 572.570   1
  -4  11 -10 4006.68 835.904   7
  -4  11 -11 949.261 508.280   7
   4 -11  11 356.641 223.026   1
  -4  11 -12 2871.42 752.819   7
   4 -11  12 1931.21 526.862   1
   4 -11  13 17413.3 1438.60   1
  -4  11 -13 19148.8 1938.54   7
  -4  11 -14 6852.39 1187.65   7
  -4  11 -15 1293.94 534.231   7
   4 -10 -15-227.948 284.147   1
   4 -10 -14 676.789 386.055   1
   4 -10 -13 53.6251 229.631   3
   4 -10 -13 372.318 255.223   1
   4 -10 -12 616.127 304.904   3
   4 -10 -12 492.947 331.805   1
   4 -10 -11 290.844 290.253   1
   4 -10 -10 3920.52 758.741   1
   4 -10  -9 4620.51 773.381   1
   4 -10  -8 116.090 239.665   1
   4 -10  -7 443.174 289.278   1
   4 -10  -6 5217.83 754.461   1
   4 -10  -5-50.5709 197.670   1
  -4  10   5 5.18543 86.9098   7
   4 -10  -4-293.988 231.175   1
  -4  10   4 80.0711 146.614   7
   4 -10  -3 1093.49 350.461   1
  -4  10   3 565.563 236.937   7
   4 -10  -2 26755.6 1486.02   1
  -4  10   2 29841.7 1490.61   7
  -4  10   1 4220.28 582.136   7
   4 -10  -1 3791.77 561.076   1
  -4  10   0 201.694 199.187   7
   4 -10   0 172.401 177.119   1
   4 -10   1 10884.8 907.555   1
  -4  10  -1 11755.9 1022.63   7
  -4  10  -2 4912.30 695.111   7
   4 -10   2 4233.20 583.231   1
  -4  10  -3 993.166 340.472   7
   4 -10   3 1084.10 319.013   1
   4 -10   4 4100.74 580.096   1
  -4  10  -4 5410.94 754.664   7
   4 -10   5 1824.08 393.796   1
  -4  10  -5 2028.21 516.850   7
  -4  10  -6 3108.74 645.233   7
   4 -10   6 4045.04 618.428   3
   4 -10   6 3955.13 589.363   1
  -4  10  -7 978.038 436.397   7
   4 -10   7 748.398 300.237   1
   4 -10   7 451.149 231.988   3
   4 -10   8 6332.27 776.644   1
  -4  10  -8 7566.41 1044.21   7
   4 -10   9 14467.6 1173.19   1
  -4  10  -9 16170.4 1540.23   7
  -4  10 -10 194.649 375.404   7
   4 -10  10-525.701 256.319   1
  -4  10 -11-11.3863 303.442   7
   4 -10  11-231.819 159.692   1
   4 -10  12 663.009 324.636   1
  -4  10 -12 409.528 296.521   7
  -4  10 -13 544.943 434.398   7
   4 -10  13-399.232 230.916   1
  -4  10 -14 3386.23 805.829   7
  -4  10 -15 338.143 334.800   7
  -4  10 -16 1550.06 612.495   7
   4  -9 -16 834.615 388.516   4
   4  -9 -16 66.4909 204.844   1
   4  -9 -15 2168.89 623.088   1
   4  -9 -14-165.810 200.545   1
   4  -9 -13 395.642 257.518   3
   4  -9 -13 119.514 180.243   1
   4  -9 -12 4029.85 741.392   1
   4  -9 -12 3593.40 671.860   3
   4  -9 -11 549.507 334.048   1
   4  -9 -10 819.447 361.707   1
   4  -9  -9 1156.42 429.071   1
   4  -9  -8 11329.3 1106.28   1
   4  -9  -7 13050.5 1160.48   1
   4  -9  -6 9701.11 959.268   1
   4  -9  -5 2207.03 484.067   1
   4  -9  -4 245.957 185.564   1
   4  -9  -3 6534.44 719.182   1
  -4   9   3 6264.79 629.934   7
   4  -9  -2 12063.8 936.863   1
  -4   9   2 13114.6 913.448   7
  -4   9   1 65.3310 138.223   7
   4  -9  -1 120.595 163.614   1
  -4   9   0 2435.57 441.495   7
   4  -9   0 2091.41 376.376   1
   4  -9   1 12725.9 913.050   1
  -4   9  -1 12722.6 991.956   7
   4  -9   2 6703.22 669.769   1
  -4   9  -2 8165.48 820.169   7
   4  -9   3 7905.03 731.574   1
  -4   9  -3 7723.26 823.072   7
  -4   9  -4-13.9649 211.790   7
   4  -9   4-24.8454 123.389   1
  -4   9  -5-76.2957 242.349   7
   4  -9   5 250.053 168.521   1
   4  -9   6 6491.09 703.835   1
  -4   9  -6 7468.21 916.619   7
   4  -9   6 7106.52 739.081   3
   4  -9   7 11193.6 929.685   1
   4  -9   7 10443.4 892.686   3
  -4   9  -7 11188.5 1145.02   7
   4  -9   8 21973.4 1248.50   3
   4  -9   8 21556.5 1319.50   1
  -4   9  -8 21351.4 1635.44   7
   4  -9   9 2020.23 426.821   1
  -4   9  -9 1799.59 507.453   7
   4  -9  10 1403.56 366.695   1
  -4   9 -10 1242.42 287.859   2
  -4   9 -10 1534.62 510.135   7
   4  -9  11 2103.81 460.400   1
  -4   9 -11 2096.47 381.120   2
  -4   9 -11 1270.19 498.196   7
  -4   9 -12 8703.31 793.259   2
  -4   9 -12 7582.49 1121.20   7
   4  -9  12 9055.26 956.191   1
  -4   9 -13 609.115 385.762   7
   4  -9  13 256.638 214.624   1
  -4   9 -13 137.796 160.473   2
  -4   9 -14 1629.25 602.220   7
  -4   9 -14 1112.90 330.074   2
  -4   9 -15 10667.8 1431.85   7
  -4   9 -15 10470.7 971.110   2
  -4   9 -16 9801.32 965.038   2
  -4   9 -16 9360.79 1357.21   7
  -4   9 -17 2133.71 683.866   7
   4  -8 -17 5379.21 946.826   4
   4  -8 -16 2226.51 633.307   4
   4  -8 -15 2240.04 591.194   1
   4  -8 -14 120.290 261.021   1
   4  -8 -13 309.465 245.883   3
   4  -8 -13 113.602 203.507   1
   4  -8 -12 319.774 203.682   3
   4  -8 -12-247.780 234.869   1
   4  -8 -11 209.331 308.930   1
   4  -8 -11 633.542 295.384   3
   4  -8 -10 731.146 378.078   1
   4  -8 -10 671.101 198.458   2
   4  -8  -9 1780.81 450.431   1
   4  -8  -9 1398.59 265.496   2
   4  -8  -8 17081.8 1304.95   1
   4  -8  -8 17578.5 850.547   2
   4  -8  -7 33038.5 1737.47   1
   4  -8  -7 34278.0 1089.06   2
   4  -8  -6 1274.08 390.222   1
   4  -8  -6 708.913 155.635   2
   4  -8  -5 4106.94 572.361   1
   4  -8  -5 3810.52 321.063   2
   4  -8  -4 21030.4 1235.02   1
   4  -8  -4 20353.3 675.877   2
   4  -8  -3 673.379 122.823   2
   4  -8  -3 470.393 222.094   1
   4  -8  -2 546.549 100.451   2
   4  -8  -2 473.531 221.775   1
   4  -8  -1 190.029 163.495   1
  -4   8   0 992.668 278.696   7
   4  -8   0 1208.45 291.253   1
   4  -8   1 6725.99 622.934   1
  -4   8  -1 6107.19 642.071   7
   4  -8   2 816.341 254.325   1
  -4   8  -2 276.293 203.201   7
  -4   8  -3 22292.6 1303.27   7
   4  -8   3 23339.8 1142.48   1
  -4   8  -4 3316.83 542.783   7
   4  -8   4 2657.14 402.677   1
  -4   8  -5 58.7657 195.554   7
   4  -8   5 74.6049 134.667   1
   4  -8   5 122.911 172.710   3
   4  -8   6 12636.2 901.422   1
   4  -8   6 13322.9 954.995   3
  -4   8  -6 13034.7 1118.97   7
  -4   8  -7 21407.6 1490.04   7
   4  -8   7 19345.0 1135.51   1
   4  -8   7 19481.5 1137.49   3
  -4   8  -8 2353.32 539.912   7
   4  -8   8 1755.22 334.022   3
  -4   8  -8 1663.08 281.247   2
   4  -8   8 1556.43 363.030   1
  -4   8  -9-144.570 278.862   7
  -4   8  -9 56.0621 95.7192   2
   4  -8   9 224.878 176.030   1
  -4   8 -10 5792.64 899.220   7
  -4   8 -10 5706.68 564.550   2
   4  -8  10 5369.69 679.591   1
  -4   8 -11 48395.4 1731.84   2
  -4   8 -11 49267.0 2634.93   7
   4  -8  11 45878.1 1988.17   1
   4  -8  12 2312.92 470.939   1
  -4   8 -12 2339.08 633.745   7
  -4   8 -12 3493.57 490.486   2
  -4   8 -13 1243.77 486.958   7
   4  -8  13 1078.86 329.620   1
  -4   8 -13 1269.85 309.993   2
  -4   8 -14 2770.89 713.478   7
  -4   8 -14 3321.38 524.682   2
  -4   8 -15 4947.99 948.444   7
  -4   8 -15 5016.71 670.296   2
  -4   8 -16 661.029 397.206   7
  -4   8 -16 48.0259 131.800   2
  -4   8 -17 267.865 338.226   7
  -4   8 -17 95.2582 110.870   2
  -4   8 -18-66.6275 123.137   2
   4  -7 -18 1002.46 408.522   4
   4  -7 -17 725.754 365.129   4
   4  -7 -16-290.083 295.754   4
   4  -7 -15 958.057 422.528   4
   4  -7 -15-214.338 267.617   1
   4  -7 -14-253.971 285.369   1
   4  -7 -14 366.666 185.585   2
   4  -7 -13 9188.33 787.668   2
   4  -7 -13 11228.0 1058.22   3
   4  -7 -13 8432.89 1050.36   1
   4  -7 -12 1952.46 450.649   3
   4  -7 -12 1490.92 313.821   2
   4  -7 -12 1160.96 397.365   1
   4  -7 -11 1806.02 425.360   3
   4  -7 -11 1201.35 420.016   1
   4  -7 -11 1786.32 324.907   2
   4  -7 -10 1664.07 404.556   3
   4  -7 -10 1558.41 428.479   1
   4  -7 -10 1751.22 306.799   2
   4  -7  -9 1730.20 437.765   1
   4  -7  -9 1436.04 256.908   2
   4  -7  -8-438.334 269.960   1
   4  -7  -8-32.2847 81.4347   2
   4  -7  -7 13135.3 656.725   2
   4  -7  -7 12744.4 1036.53   1
   4  -7  -6 2881.04 507.276   1
   4  -7  -6 3267.99 304.042   2
   4  -7  -5 1180.09 320.529   1
   4  -7  -5 1376.33 183.140   2
   4  -7  -4 7807.62 714.042   1
   4  -7  -4 9560.68 431.423   2
   4  -7  -3 4820.66 544.833   1
   4  -7  -3 4678.86 270.734   2
   4  -7  -2 3364.94 206.980   2
   4  -7  -2 3954.88 479.333   1
   4  -7  -1 65480.1 1825.68   1
   4  -7   0 5451.88 524.649   1
   4  -7   1 28454.6 1155.44   1
  -4   7  -1 26434.4 1220.59   7
  -4   7  -2 216.242 172.737   7
   4  -7   2 232.502 148.279   1
  -4   7  -3 38530.5 1594.70   7
   4  -7   3 37545.7 1332.57   1
   4  -7   4 1873.67 208.685   6
   4  -7   4 1965.16 322.215   1
  -4   7  -4 1803.93 381.175   7
   4  -7   4 2510.85 416.829   3
   4  -7   5 13331.8 837.566   1
   4  -7   5 12308.9 866.224   3
  -4   7  -5 14130.2 1062.79   7
  -4   7  -6 10649.0 591.668   2
   4  -7   6 10707.9 771.549   1
   4  -7   6 10372.6 570.955   6
   4  -7   6 10812.0 802.846   3
  -4   7  -6 11439.4 999.945   7
  -4   7  -7 2828.79 535.687   7
   4  -7   7 2633.35 404.059   1
   4  -7   7 2847.22 326.990   6
  -4   7  -7 2766.96 325.647   2
   4  -7   7 2898.18 418.646   3
  -4   7  -8 2468.65 541.845   7
   4  -7   8 2883.43 441.054   1
   4  -7   8 2275.66 352.789   3
  -4   7  -8 2644.00 338.068   2
   4  -7   9 9680.64 805.568   1
  -4   7  -9 10509.0 705.079   2
  -4   7  -9 10335.2 1073.61   7
   4  -7  10 9863.51 842.242   1
  -4   7 -10 10605.8 755.442   2
  -4   7 -10 10531.6 1128.37   7
  -4   7 -11 21475.2 1125.43   2
   4  -7  11 18475.2 1192.62   1
  -4   7 -11 21237.1 1650.36   7
  -4   7 -12 3763.24 494.285   2
  -4   7 -12 3089.04 667.906   7
   4  -7  12 3482.40 542.105   1
  -4   7 -13 3621.04 737.168   7
  -4   7 -13 4537.37 580.613   2
   4  -7  13 4471.23 629.053   1
  -4   7 -14 957.792 477.228   7
  -4   7 -14 678.554 243.370   2
  -4   7 -15 374.129 306.146   7
  -4   7 -15 789.818 268.484   2
  -4   7 -16 1037.25 495.386   7
  -4   7 -16-507.971 265.951   2
  -4   7 -17 712.767 440.828   7
  -4   7 -17 62.4925 165.854   2
  -4   7 -18 3595.21 622.412   2
   4  -6 -19 2550.66 636.736   4
   4  -6 -18-345.931 248.264   4
   4  -6 -17 4357.41 615.191   2
   4  -6 -17 3292.30 736.624   4
   4  -6 -16 189.414 294.515   4
   4  -6 -16 308.517 180.734   2
   4  -6 -15 6929.93 736.086   2
   4  -6 -15 7647.98 1061.98   4
   4  -6 -14 2034.50 544.273   1
   4  -6 -14 1524.46 346.021   2
   4  -6 -13 4342.90 627.184   3
   4  -6 -13 4333.33 537.278   2
   4  -6 -13 4729.29 764.633   1
   4  -6 -12 1385.73 434.610   1
   4  -6 -12 1148.87 286.778   2
   4  -6 -12 1089.53 319.647   3
   4  -6 -11 4589.44 498.013   2
   4  -6 -11 4926.25 665.841   3
   4  -6 -11 3866.39 671.593   1
   4  -6 -10 78.1739 167.664   3
   4  -6 -10-143.901 285.065   1
   4  -6 -10-181.920 123.456   2
   4  -6  -9 11364.0 1028.14   1
   4  -6  -9 11823.8 703.820   2
   4  -6  -9 11651.2 972.928   3
   4  -6  -8-141.657 180.618   1
   4  -6  -8 114.956 221.967   3
   4  -6  -8-93.2441 102.715   2
   4  -6  -7 11739.0 954.628   1
   4  -6  -7 12755.4 627.919   2
   4  -6  -6 1696.32 374.978   1
   4  -6  -6 1916.18 222.972   2
   4  -6  -5 17875.0 610.114   2
   4  -6  -5 18667.1 1092.34   1
   4  -6  -4 2619.48 405.342   1
   4  -6  -4 2447.15 201.428   2
   4  -6  -3 9337.00 702.729   1
   4  -6  -3 8977.08 322.836   2
   4  -6  -2 3011.55 390.563   1
   4  -6  -2 2797.39 147.360   2
   4  -6  -1 621.090 186.081   1
   4  -6  -1 437.466 46.3708   2
   4  -6   0 343.680 141.087   1
   4  -6   1 1928.13 288.179   1
   4  -6   2 3411.06 456.852   3
   4  -6   2 3099.81 354.908   1
  -4   6  -3 1792.05 344.069   7
   4  -6   3 1368.94 243.975   1
   4  -6   3 1587.62 315.504   3
  -4   6  -4 39495.5 907.693   2
   4  -6   4 41577.5 1305.44   1
   4  -6   4 40941.0 1478.02   3
  -4   6  -4 40440.1 1596.42   7
   4  -6   5 63393.4 1395.10   6
  -4   6  -5 63132.5 1263.42   2
   4  -6   5 61031.8 1642.09   1
   4  -6   5 64166.3 1828.31   3
  -4   6  -5 60166.5 2035.52   7
   4  -6   6 67545.7 1518.39   6
  -4   6  -6 63834.5 2185.53   7
   4  -6   6 66918.7 1850.32   3
  -4   6  -6 67994.7 1419.01   2
   4  -6   6 64442.3 1721.71   1
   4  -6   7 1855.19 314.050   1
   4  -6   7 1598.87 283.804   3
  -4   6  -7 1874.53 416.637   7
  -4   6  -7 1632.83 242.380   2
   4  -6   8 1339.97 264.788   3
  -4   6  -8 1235.55 228.723   2
   4  -6   8 1431.47 290.899   1
  -4   6  -8 1420.29 382.801   7
  -4   6  -9 24303.0 1549.83   7
  -4   6  -9 25348.7 1062.05   2
   4  -6   9 24131.0 1184.36   1
   4  -6  10 37.0737 114.479   1
  -4   6 -10 3.46054 119.436   2
  -4   6 -10 119.935 210.151   7
  -4   6 -11 1012.38 414.042   7
   4  -6  11 612.400 231.993   1
  -4   6 -11 915.690 246.263   2
  -4   6 -12 9315.16 1087.08   7
  -4   6 -12 8519.51 736.750   2
   4  -6  12 8132.44 779.952   1
  -4   6 -13 17348.9 1101.03   2
  -4   6 -13 15130.3 1441.26   7
  -4   6 -14 2856.26 665.832   7
  -4   6 -14 2624.11 453.889   2
  -4   6 -15 1744.99 534.227   7
  -4   6 -15 1880.57 402.364   2
  -4   6 -16 7213.09 802.662   2
  -4   6 -16 8993.34 1236.50   7
  -4   6 -17 1250.76 314.242   2
  -4   6 -17 1174.11 481.030   7
  -4   6 -18 590.359 259.708   2
  -4   6 -19 13635.7 1214.71   2
   4  -5 -19 1729.40 548.500   4
   4  -5 -18-97.1859 235.501   4
   4  -5 -18 104.000 144.938   2
   4  -5 -17-366.320 264.580   4
   4  -5 -17 55.1172 137.389   2
   4  -5 -16 577.729 356.041   4
   4  -5 -16 765.786 272.270   2
   4  -5 -15 367.490 255.967   4
   4  -5 -15 97.8859 154.480   2
   4  -5 -14 1472.32 453.883   4
   4  -5 -14 1198.62 302.446   2
   4  -5 -13 253.689 177.168   3
   4  -5 -13 318.122 256.417   4
   4  -5 -13 30.2404 199.898   1
   4  -5 -13 74.3936 109.390   2
   4  -5 -12 1289.79 279.134   2
   4  -5 -12 1579.56 429.734   1
   4  -5 -12 1317.27 335.813   3
   4  -5 -11 10650.1 1030.63   1
   4  -5 -11 12011.4 788.246   2
   4  -5 -11 12451.6 984.878   3
   4  -5 -10 945.599 281.455   3
   4  -5 -10 1560.15 279.690   2
   4  -5 -10 1676.97 429.152   1
   4  -5  -9 3045.76 355.239   2
   4  -5  -9 1954.83 395.357   3
   4  -5  -9 2720.31 492.266   1
   4  -5  -8 12.2481 122.370   3
   4  -5  -8-33.0616 90.5569   2
   4  -5  -8 16.7695 181.576   1
   4  -5  -7 6792.17 699.125   1
   4  -5  -7 8371.29 492.316   2
   4  -5  -7 7778.48 729.233   3
   4  -5  -6 522.744 243.646   1
   4  -5  -6 589.701 217.164   3
   4  -5  -6 622.000 124.545   2
   4  -5  -5 10630.8 447.271   2
   4  -5  -5 11145.2 826.897   3
   4  -5  -5 9414.63 744.748   1
   4  -5  -4 567.298 201.530   1
   4  -5  -4 746.400 105.495   2
   4  -5  -3 9470.07 669.583   1
   4  -5  -3 9831.12 280.299   2
   4  -5  -3 9879.52 753.916   3
   4  -5  -2 26175.0 1193.94   3
   4  -5  -2 25124.9 1022.18   1
   4  -5  -1 139442. 2278.41   1
   4  -5  -1 139545. 2714.36   3
   4  -5   0 20275.7 830.547   1
   4  -5   0 20346.8 1026.30   3
   4  -5   1 2487.22 363.881   3
   4  -5   1 2960.60 316.657   1
   4  -5   2 4818.25 396.233   1
   4  -5   2 4383.97 475.130   3
  -4   5  -3 12169.6 410.815   2
   4  -5   3 12613.2 634.486   1
  -4   5  -4 5568.16 324.082   2
   4  -5   4 5480.73 433.510   1
   4  -5   4 5995.84 539.671   3
  -4   5  -4 5236.98 546.233   7
  -4   5  -5 13010.3 891.854   7
   4  -5   5 11948.2 622.895   6
  -4   5  -5 11885.3 523.158   2
   4  -5   5 11363.0 631.519   1
   4  -5   5 12370.7 762.311   3
  -4   5  -6 25671.7 844.425   2
  -4   5  -6 25872.9 1324.50   7
   4  -5   6 25592.5 1083.20   3
   4  -5   6 26958.6 1009.53   1
  -4   5  -7 7778.51 510.850   2
   4  -5   7 8391.79 595.105   1
   4  -5   7 9335.35 643.986   3
  -4   5  -7 8852.24 819.577   7
  -4   5  -8 5391.70 460.037   2
   4  -5   8 5143.00 470.225   3
   4  -5   8 5589.63 511.395   1
  -4   5  -8 6179.58 723.850   7
   4  -5   9 16032.4 901.716   1
  -4   5  -9 14464.4 800.988   2
   4  -5   9 14315.1 734.520   3
  -4   5  -9 12966.7 1079.75   7
   4  -5  10 174.667 141.538   1
  -4   5 -10 364.126 163.290   2
  -4   5 -10 339.916 248.897   7
  -4   5 -11 22000.1 1118.89   2
  -4   5 -11 21666.0 1515.77   7
   4  -5  11 23014.8 1183.85   1
   4  -5  12 2180.19 401.194   1
  -4   5 -12 1985.68 358.706   2
  -4   5 -12 2328.84 540.927   7
  -4   5 -13 6158.60 878.578   7
  -4   5 -13 6974.92 699.630   2
  -4   5 -14 429.854 314.670   7
  -4   5 -14-7.33100 107.486   2
  -4   5 -15 19.7227 321.475   7
  -4   5 -15 70.8231 152.760   2
  -4   5 -16 4916.99 896.253   7
  -4   5 -16 4590.63 643.353   2
  -4   5 -17 221.114 262.846   7
  -4   5 -17-31.8212 130.050   2
  -4   5 -18-52.1716 185.381   2
  -4   5 -19-133.073 148.728   2
   4  -4 -20 3975.63 638.802   2
   4  -4 -20 3725.83 719.986   4
   4  -4 -19 2808.87 662.806   4
   4  -4 -19 2879.02 537.367   2
   4  -4 -18 80.1273 189.191   4
   4  -4 -18 40.9014 99.6798   2
   4  -4 -17 4000.23 759.618   4
   4  -4 -17 4639.69 638.606   2
   4  -4 -16 50.3866 150.428   2
   4  -4 -16-411.872 270.884   4
   4  -4 -15 2191.48 505.179   4
   4  -4 -15 1827.99 391.079   2
   4  -4 -14 73.8123 144.800   2
   4  -4 -14-169.136 225.782   4
   4  -4 -13 8105.78 733.778   3
   4  -4 -13 6913.40 903.071   4
   4  -4 -13 7618.68 695.962   2
   4  -4 -12 3283.84 483.434   3
   4  -4 -12 2654.42 551.970   1
   4  -4 -12 3936.55 684.069   4
   4  -4 -12 3631.84 459.483   2
   4  -4 -11 18075.8 948.166   2
   4  -4 -11 16429.2 1251.08   1
   4  -4 -11 17897.0 1110.91   3
   4  -4 -10 12980.8 1079.01   1
   4  -4 -10 14014.8 786.882   2
   4  -4 -10 13604.5 961.152   3
   4  -4  -9 18376.1 842.804   2
   4  -4  -9 16707.2 1156.17   1
   4  -4  -9 17458.0 1056.98   3
   4  -4  -8 13161.1 658.229   2
   4  -4  -8 11178.9 902.353   1
   4  -4  -8 11582.5 850.832   3
   4  -4  -7 21965.5 1200.84   1
   4  -4  -7 23486.8 800.123   2
   4  -4  -7 23709.3 1194.12   3
   4  -4  -6 1705.16 351.755   3
   4  -4  -6 2643.75 246.805   2
   4  -4  -6 2071.35 384.146   1
   4  -4  -5 38678.4 1428.35   1
   4  -4  -5 36996.2 798.670   2
   4  -4  -5 38305.8 1450.61   3
   4  -4  -4 12558.2 778.895   1
   4  -4  -4 11414.7 369.107   2
   4  -4  -4 11427.4 786.086   3
   4  -4  -3 9512.79 639.839   1
   4  -4  -3 9262.60 241.071   2
   4  -4  -3 9192.98 699.050   3
   4  -4  -2 2501.15 315.183   1
   4  -4  -2 2022.75 331.639   3
   4  -4  -1 13397.5 659.393   1
   4  -4  -1 13839.9 819.727   3
   4  -4   0 5430.27 403.123   1
   4  -4   0 6426.93 553.555   3
   4  -4   1 9017.12 485.813   1
   4  -4   1 9697.07 672.870   3
   4  -4   2 1829.48 218.305   1
  -4   4  -2 1709.31 117.712   2
   4  -4   2 2249.28 325.740   3
  -4   4  -3 25716.1 579.949   2
   4  -4   3 27196.2 805.902   1
   4  -4   3 26197.2 1078.61   3
   4  -4   4 70614.4 1481.03   6
  -4   4  -4 69074.9 1139.56   2
   4  -4   4 72713.9 1354.05   1
   4  -4   4 72017.5 1779.14   3
  -4   4  -4 74360.3 1877.65   7
  -4   4  -5 12594.8 547.369   2
   4  -4   5 12302.3 574.638   1
   4  -4   5 11937.0 719.200   3
  -4   4  -5 12528.4 819.417   7
  -4   4  -6 347.630 210.662   7
   4  -4   6 318.856 117.781   1
   4  -4   6 390.320 156.348   3
  -4   4  -6 535.052 135.404   2
   4  -4   7 4073.87 369.886   1
  -4   4  -7 4596.79 395.029   2
   4  -4   7 4175.00 414.049   3
  -4   4  -7 3656.43 515.194   7
  -4   4  -8 12986.0 717.615   2
  -4   4  -8 14139.9 1024.16   7
   4  -4   8 13554.9 717.089   1
   4  -4   8 13014.7 713.333   3
  -4   4  -9 27.4546 218.122   7
   4  -4   9 108.838 85.9307   3
  -4   4  -9 146.976 115.124   2
   4  -4   9 185.389 110.386   1
  -4   4 -10-156.076 194.972   7
   4  -4  10 119.601 119.396   1
  -4   4 -10 37.8115 91.8682   2
  -4   4 -11 2141.14 448.609   7
  -4   4 -11 2444.44 382.208   2
   4  -4  11 2109.82 345.597   1
  -4   4 -12 1023.82 335.142   7
  -4   4 -12 1438.00 325.882   2
  -4   4 -13 172.681 221.752   7
  -4   4 -13-37.5875 151.255   2
  -4   4 -14 9777.48 868.759   2
  -4   4 -14 8233.94 1030.41   7
  -4   4 -15 6903.49 977.265   7
  -4   4 -15 7837.25 814.980   2
  -4   4 -16 933.764 347.695   2
  -4   4 -16 723.701 414.478   7
  -4   4 -17 8694.59 933.752   2
  -4   4 -18 17954.9 1362.20   2
  -4   4 -19 2624.24 531.997   2
   4  -3 -20 28.1704 96.6069   4
   4  -3 -20 469.308 242.519   2
   4  -3 -19 2012.38 531.492   4
   4  -3 -19 2471.86 506.471   2
   4  -3 -18 327.850 239.527   4
   4  -3 -18 1357.43 361.663   2
   4  -3 -17 3976.51 748.665   4
   4  -3 -17 3392.89 555.832   2
   4  -3 -16 9283.18 871.251   2
   4  -3 -16 9177.13 1096.89   4
   4  -3 -15 4572.91 757.246   4
   4  -3 -15 4195.41 566.070   2
   4  -3 -14 14291.3 985.332   2
   4  -3 -14 14796.6 1315.30   4
   4  -3 -13 28.7988 193.807   4
   4  -3 -13-169.513 125.234   2
   4  -3 -12 2144.74 498.868   4
   4  -3 -12 2216.84 355.323   2
   4  -3 -12 2654.43 400.392   3
   4  -3 -11 198.548 225.941   4
   4  -3 -11 67.5051 99.4685   2
   4  -3 -11 71.7013 114.037   3
   4  -3 -10 13394.9 762.150   2
   4  -3 -10 11040.6 969.306   1
   4  -3 -10 10597.2 995.817   4
   4  -3 -10 11014.2 812.629   3
   4  -3  -9 404.323 186.875   3
   4  -3  -9 435.072 142.265   2
   4  -3  -9 256.895 179.279   1
   4  -3  -8 39.5499 98.2139   3
   4  -3  -8 22.4159 87.4559   2
   4  -3  -8 12.2014 187.817   1
   4  -3  -7 14024.0 941.112   1
   4  -3  -7 13553.4 601.467   2
   4  -3  -7 13862.6 870.513   3
   4  -3  -6 12773.4 529.019   2
   4  -3  -6 11959.4 794.449   3
   4  -3  -6 11331.9 796.359   1
   4  -3  -5 1729.84 315.189   3
   4  -3  -5 1907.95 181.809   2
   4  -3  -5 1986.89 334.826   1
   4  -3  -4 123489. 1237.38   2
   4  -3  -4 123299. 2311.24   1
   4  -3  -4 122481. 2448.73   3
   4  -3  -3 10399.2 630.890   1
   4  -3  -3 10626.5 291.935   2
   4  -3  -3 9869.06 692.485   3
   4  -3  -2 5877.74 445.557   1
   4  -3  -2 4924.28 490.106   3
   4  -3  -1 42058.0 1376.32   3
   4  -3  -1 41490.6 1093.62   1
   4  -3   0 20303.4 700.522   1
   4  -3   0 19767.0 938.801   3
   4  -3   1 29251.5 768.969   1
   4  -3   1 28848.5 1115.96   3
  -4   3  -1 27128.2 358.307   2
   4  -3   2 12584.9 472.847   1
  -4   3  -2 12944.0 364.665   2
   4  -3   2 13393.9 755.274   3
   4  -3   3 23398.0 841.048   6
  -4   3  -3 24612.4 608.391   2
   4  -3   3 24593.4 631.675   1
   4  -3   3 23409.4 993.452   3
   4  -3   4 786.280 118.125   1
   4  -3   4 610.508 174.121   3
  -4   3  -4 712.920 126.688   2
   4  -3   5 9201.03 422.810   1
   4  -3   5 10003.1 644.672   3
  -4   3  -5 9865.97 495.094   2
  -4   3  -5 10314.9 696.086   7
  -4   3  -6 9581.28 705.364   7
  -4   3  -6 8956.82 519.459   2
   4  -3   6 8784.26 437.698   1
   4  -3   6 9586.40 631.009   3
   4  -3   7 15331.2 779.854   3
   4  -3   7 15766.8 642.711   1
  -4   3  -7 15470.3 733.929   2
  -4   3  -7 16208.3 977.523   7
  -4   3  -8 11400.1 680.186   2
   4  -3   8 10952.9 580.120   1
   4  -3   8 11657.2 656.542   3
  -4   3  -8 11914.7 888.841   7
  -4   3  -9 12074.2 747.936   2
   4  -3   9 12773.3 650.873   3
  -4   3  -9 13253.7 981.367   7
  -4   3 -10 24577.5 1131.26   2
  -4   3 -10 22658.8 1345.14   7
  -4   3 -11 1058.24 276.207   2
  -4   3 -11 425.923 243.224   7
  -4   3 -12 15872.7 1013.35   2
  -4   3 -12 16677.0 1286.53   7
  -4   3 -13 61.8576 161.756   7
  -4   3 -13 417.717 237.895   2
  -4   3 -14 770.872 314.297   7
  -4   3 -14 797.462 267.796   2
  -4   3 -15 2483.99 579.421   7
  -4   3 -15 3017.13 517.438   2
  -4   3 -16 449.903 264.103   7
  -4   3 -16 625.471 264.332   2
  -4   3 -17 51.5442 152.112   2
  -4   3 -18 6847.29 860.738   2
  -4   3 -19-266.061 205.129   2
   4  -2 -20 1179.97 437.834   4
   4  -2 -20 1744.61 437.720   2
   4  -2 -19-146.184 171.517   4
   4  -2 -19-395.888 234.768   2
   4  -2 -18 1921.15 527.659   4
   4  -2 -18 2511.97 492.505   2
   4  -2 -17 356.981 303.457   4
   4  -2 -17-106.863 172.156   2
   4  -2 -16 783.241 325.724   4
   4  -2 -16 879.940 285.002   2
   4  -2 -15 6071.28 676.903   2
   4  -2 -15 5932.22 858.147   4
   4  -2 -14 705.359 299.425   4
   4  -2 -14 794.877 252.020   2
   4  -2 -13 651.228 302.820   4
   4  -2 -13 925.160 254.159   2
   4  -2 -12 371.706 155.419   3
   4  -2 -12 842.623 358.203   4
   4  -2 -12 408.928 172.624   2
   4  -2 -11 116.381 105.611   3
   4  -2 -11 443.903 264.426   4
   4  -2 -11 125.369 125.905   2
   4  -2 -10 17387.1 860.651   2
   4  -2 -10 17151.1 1226.03   4
   4  -2 -10 15662.6 915.615   3
   4  -2  -9 991.599 239.920   3
   4  -2  -9 660.541 268.760   4
   4  -2  -9 665.258 168.335   2
   4  -2  -8 22162.3 1211.81   1
   4  -2  -8 22770.8 847.329   2
   4  -2  -8 20696.3 1244.90   4
   4  -2  -8 22218.5 1072.50   3
   4  -2  -7 3511.58 311.296   2
   4  -2  -7 3866.74 506.655   1
   4  -2  -7 3480.98 499.981   4
   4  -2  -7 3155.44 413.022   3
   4  -2  -6 66.7289 57.7773   2
   4  -2  -6 114.567 129.657   3
   4  -2  -6 189.009 170.880   1
   4  -2  -5 138966. 1600.57   2
   4  -2  -5 137791. 2540.94   3
   4  -2  -5 137384. 2523.93   1
   4  -2  -4 843.909 226.418   3
   4  -2  -4 933.944 122.480   2
   4  -2  -4 789.237 193.657   1
   4  -2  -3 58.0711 112.812   3
   4  -2  -3 29.3257 89.7248   1
   4  -2  -2 21305.2 802.497   1
   4  -2  -2 20576.7 958.795   3
   4  -2  -1 37.0755 72.1872   1
   4  -2  -1 31.3383 102.905   3
   4  -2   0 59760.4 1105.62   1
   4  -2   0 61299.1 1614.64   3
   4  -2   1 62030.3 976.914   1
  -4   2  -1 65209.3 783.433   2
   4  -2   1 63673.6 1635.55   3
  -4   2  -2 161686. 1437.04   2
   4  -2   2 157852. 1331.15   1
   4  -2   2 160638. 2593.18   3
   4  -2   3 375.118 127.699   6
   4  -2   3 485.629 160.904   3
   4  -2   3 495.847 66.9832   1
   4  -2   3 508.712 70.3804   4
  -4   2  -3 523.019 102.581   2
   4  -2   4 41698.4 559.757   1
  -4   2  -4 43757.5 969.838   2
   4  -2   4 44321.7 1359.80   3
  -4   2  -5 17937.1 682.119   2
   4  -2   5 17674.1 414.721   1
   4  -2   5 18244.5 865.067   3
  -4   2  -5 18946.3 881.532   7
  -4   2  -6 560.282 136.760   2
  -4   2  -6 561.846 195.089   7
   4  -2   6 456.113 81.3724   1
   4  -2   6 438.294 148.868   3
  -4   2  -7 3601.24 365.853   2
   4  -2   7 4253.37 281.927   1
   4  -2   7 3859.20 399.448   3
  -4   2  -7 4121.15 471.853   7
  -4   2  -8 377.873 213.369   7
   4  -2   8 432.497 150.527   3
  -4   2  -8 387.473 146.625   2
  -4   2  -9 28641.8 1152.82   2
   4  -2   9 29281.8 1021.19   3
  -4   2  -9 32294.7 1450.95   7
  -4   2 -10 10802.4 758.084   2
  -4   2 -10 11341.2 929.826   7
  -4   2 -11 3357.47 555.528   7
  -4   2 -11 4843.12 539.945   2
  -4   2 -12 10334.2 826.485   2
  -4   2 -12 10397.6 977.330   7
  -4   2 -13 3196.60 565.320   7
  -4   2 -13 3403.83 504.793   2
  -4   2 -14 2697.60 544.385   7
  -4   2 -14 2416.43 461.164   2
  -4   2 -15 4711.08 737.630   7
  -4   2 -15 6039.67 726.712   2
  -4   2 -16 11010.6 1026.23   2
  -4   2 -17 2064.44 487.564   2
  -4   2 -18 758.453 308.141   2
  -4   2 -19-242.555 168.420   2
   4  -1 -20 4875.99 822.824   4
   4  -1 -20 4386.48 695.754   2
   4  -1 -19 73.5667 182.502   4
   4  -1 -19 337.319 231.660   2
   4  -1 -18 8106.91 882.118   2
   4  -1 -18 5218.18 842.749   4
   4  -1 -17 1449.00 451.732   4
   4  -1 -17 1226.86 351.785   2
   4  -1 -16 1427.42 457.766   4
   4  -1 -16 2109.14 436.723   2
   4  -1 -15 2489.93 552.930   4
   4  -1 -15 2838.22 469.309   2
   4  -1 -14 18507.4 1120.44   2
   4  -1 -14 18317.8 1419.20   4
   4  -1 -13 285.802 244.471   4
   4  -1 -13 838.887 248.520   2
   4  -1 -12 13498.4 861.058   2
   4  -1 -12 12341.8 1104.10   4
   4  -1 -12 13721.4 794.475   3
   4  -1 -11 8114.83 868.673   4
   4  -1 -11 7509.48 608.957   2
   4  -1 -11 9832.08 681.083   3
   4  -1 -10 33557.9 1199.23   2
   4  -1 -10 35024.1 1714.39   4
   4  -1 -10 31229.2 1229.00   3
   4  -1  -9 3522.71 368.685   2
   4  -1  -9 3203.99 508.659   4
   4  -1  -9 3839.02 436.325   3
   4  -1  -8 10798.9 598.145   2
   4  -1  -8 10607.3 872.456   4
   4  -1  -8 10247.1 702.603   3
   4  -1  -7 1521.59 284.161   3
   4  -1  -7 1795.52 231.886   2
   4  -1  -7 1628.86 337.097   4
   4  -1  -6 33001.0 974.419   5
   4  -1  -6 29888.3 863.718   2
   4  -1  -6 30763.7 1334.10   4
   4  -1  -6 30372.3 1181.52   3
   4  -1  -5 35525.9 893.705   2
   4  -1  -5 36875.0 1391.77   4
   4  -1  -5 35817.7 1268.97   3
   4  -1  -4 29963.3 754.124   2
   4  -1  -4 31713.6 960.549   5
   4  -1  -4 31554.3 1211.38   4
   4  -1  -4 30484.8 1166.09   3
   4  -1  -3 56276.9 1287.89   5
   4  -1  -3 54605.7 1497.60   4
   4  -1  -3 54607.8 1539.64   3
   4  -1  -2 231933. 2868.12   4
   4  -1  -2 230130. 2637.77   5
   4  -1  -1 9.97421 101.515   3
   4  -1  -1 2.52228 65.2502   4
   4  -1   0 15757.4 626.181   4
   4  -1   0 17285.7 862.342   3
   4  -1   1 49.0661 41.2383   4
   4  -1   1 109.131 112.202   3
   4  -1   2 13343.7 409.121   4
   4  -1   2 12694.0 738.021   3
   4  -1   3 165.525 132.654   3
   4  -1   3 176.887 107.843   6
  -4   1  -3 137.781 65.6749   2
  -4   1  -4 7871.84 423.132   2
   4  -1   4 7713.55 571.347   3
  -4   1  -5 13574.8 606.602   2
   4  -1   5 12234.4 724.185   3
  -4   1  -5 14154.4 713.490   7
  -4   1  -6 12166.4 621.918   2
   4  -1   6 12132.3 725.471   3
  -4   1  -6 11245.3 679.099   7
  -4   1  -7 6014.03 477.493   2
   4  -1   7 5638.39 490.281   3
  -4   1  -7 6514.03 555.918   7
  -4   1  -8 70466.2 1713.38   2
  -4   1  -8 76817.5 2018.16   7
   4  -1   8 73777.3 1729.40   3
  -4   1  -9 14721.2 839.952   2
   4  -1   9 16205.8 789.806   3
  -4   1  -9 15279.9 961.607   7
  -4   1 -10 16913.9 954.105   2
  -4   1 -10 17131.0 1074.80   7
  -4   1 -11 4062.63 566.875   7
  -4   1 -11 3362.38 456.618   2
  -4   1 -12 90.3650 144.840   2
  -4   1 -12-129.033 149.940   7
  -4   1 -13 223.387 197.420   7
  -4   1 -13-1.02157 128.095   2
  -4   1 -14 1650.54 431.453   7
  -4   1 -14 2117.40 422.501   2
  -4   1 -15 656.229 282.227   2
  -4   1 -16 102.843 205.003   2
  -4   1 -17-7.05250 155.485   2
  -4   1 -18 5860.87 801.838   2
  -4   1 -19 320.053 259.074   2
   4   0 -20 495.191 294.623   4
   4   0 -20 750.473 328.362   2
   4   0 -19 2504.55 601.161   4
   4   0 -19 3229.99 587.750   2
   4   0 -18 3696.92 715.734   4
   4   0 -18 5945.94 766.478   2
   4   0 -17 224.134 228.075   4
   4   0 -17-197.613 199.580   2
   4   0 -16 66.2474 258.848   4
   4   0 -16-153.909 162.432   2
   4   0 -15 2567.57 570.882   4
   4   0 -15 2371.39 428.389   2
   4   0 -14 3787.94 664.246   4
   4   0 -14 2987.89 466.596   2
   4   0 -13 10984.4 1063.48   4
   4   0 -13 9988.30 791.750   2
   4   0 -12 44.5212 193.033   4
   4   0 -12 71.5555 128.054   2
   4   0 -11 1912.79 433.089   4
   4   0 -11 2068.37 331.487   2
   4   0 -11 1395.54 260.793   3
   4   0 -10 162.351 193.783   4
   4   0 -10-51.5318 117.556   2
   4   0 -10 129.523 98.1714   3
   4   0  -9 37224.1 1031.92   5
   4   0  -9 34727.6 1176.17   2
   4   0  -9 34541.0 1611.02   4
   4   0  -9 35875.6 1288.49   3
   4   0  -8 16249.6 694.479   5
   4   0  -8 13897.7 990.387   4
   4   0  -8 14674.5 723.854   2
   4   0  -8 15270.0 839.986   3
   4   0  -7 261.701 145.084   3
   4   0  -7 470.400 128.603   5
   4   0  -7 538.362 150.135   2
   4   0  -7 303.664 195.337   4
   4   0  -6 15.7691 94.0889   3
   4   0  -6 220.037 127.402   5
   4   0  -6 187.097 95.8661   2
   4   0  -6 207.560 160.034   4
   4   0  -5 24477.1 907.803   5
   4   0  -5 24640.4 1122.07   4
   4   0  -5 25562.4 805.547   2
   4   0  -5 23290.8 1023.16   3
   4   0  -4 15997.4 742.187   5
   4   0  -4 16567.5 864.697   4
   4   0  -4 15810.1 838.065   3
   4   0  -3 44994.4 1341.57   4
   4   0  -3 46377.4 1428.24   3
   4   0  -3 45143.7 1254.02   5
   4   0  -2 43601.2 1235.78   4
   4   0  -2 45615.1 1267.75   5
   4   0  -2 44421.3 1401.97   3
   4   0  -1 1523.11 218.687   4
   4   0  -1 1955.08 307.818   3
   4   0   0 1031.01 231.087   3
   4   0   0 1261.22 187.053   4
   4   0   1 27759.3 1004.36   5
   4   0   1 27770.5 750.979   4
   4   0   1 28175.8 1119.69   3
   4   0   2 57483.2 1431.90   5
   4   0   2 57592.6 883.447   4
   4   0   2 61190.1 1639.90   3
   4   0   3 9230.72 572.864   5
   4   0   3 9960.02 669.151   3
   4   0   4-22.4541 93.9529   5
   4   0   4 97.4204 119.370   3
  -4   0  -5 1654.31 229.528   2
   4   0   5 1300.96 218.784   5
   4   0   5 1507.12 277.912   3
   4   0   6 8125.30 524.534   5
  -4   0  -6 7400.46 503.456   2
   4   0   6 7895.47 604.470   3
  -4   0  -6 8397.47 557.742   7
   4   0   7 8734.26 533.723   5
  -4   0  -7 8056.30 561.071   2
   4   0   7 7760.65 594.876   3
  -4   0  -7 8424.61 593.742   7
  -4   0  -8 21769.8 979.815   2
   4   0   8 21447.5 986.202   3
  -4   0  -8 22784.8 1035.38   7
  -4   0  -9 207.502 162.160   2
  -4   0  -9 466.059 177.389   7
  -4   0 -10 395.696 175.668   2
  -4   0 -10 60.2568 134.145   7
  -4   0 -11 7022.89 664.363   2
  -4   0 -11 6973.38 683.933   7
  -4   0 -12 10178.8 842.608   2
  -4   0 -12 10364.3 857.275   7
  -4   0 -13-59.1687 151.268   2
  -4   0 -14 8905.63 867.383   2
  -4   0 -15 9769.87 955.017   2
  -4   0 -16 851.971 318.452   2
  -4   0 -17 857.761 323.359   2
  -4   0 -18 926.603 343.219   2
  -4   0 -19 73.4441 164.039   2
   4   1 -20 3183.55 675.403   4
   4   1 -20 5262.79 789.170   2
   4   1 -19 1836.97 524.533   4
   4   1 -19 3607.25 626.098   2
   4   1 -18 2032.58 549.034   4
   4   1 -18 2547.71 510.109   2
   4   1 -17-257.002 239.746   4
   4   1 -17-36.5157 81.7040   2
   4   1 -16 8309.54 854.697   2
   4   1 -16 8531.39 1049.83   4
   4   1 -15-43.4131 184.866   4
   4   1 -15 374.453 199.075   2
   4   1 -14 3793.60 657.621   4
   4   1 -14 3782.01 525.600   2
   4   1 -13 103.883 211.807   4
   4   1 -13 96.9620 136.732   2
   4   1 -12 26457.0 1253.90   2
   4   1 -12 28980.7 1658.70   4
   4   1 -11 2683.01 280.484   5
   4   1 -11 3002.13 361.588   3
   4   1 -11 2513.89 492.869   4
   4   1 -11 2906.94 400.095   2
   4   1 -10 50.4619 63.5893   5
   4   1 -10 61.6936 172.416   4
   4   1 -10 79.6043 110.016   2
   4   1 -10 37.5356 73.1076   3
   4   1  -9 38009.9 1694.23   4
   4   1  -9 37210.7 1274.35   2
   4   1  -9 37169.2 1324.40   3
   4   1  -9 37892.6 1140.34   5
   4   1  -8 178782. 2571.92   5
   4   1  -8 173708. 2614.89   2
   4   1  -8 178203. 3499.53   4
   4   1  -8 178934. 2904.26   3
   4   1  -7 2862.24 348.440   5
   4   1  -7 3295.83 346.563   2
   4   1  -7 3404.97 480.601   4
   4   1  -7 3135.97 396.907   3
   4   1  -6 9017.76 547.020   2
   4   1  -6 9661.86 750.285   4
   4   1  -6 9909.63 638.240   5
   4   1  -6 8909.01 655.209   3
   4   1  -5 24163.7 999.443   5
   4   1  -5 22611.2 1077.63   4
   4   1  -5 22472.1 1028.37   3
   4   1  -5 22974.6 826.710   2
   4   1  -4 53387.0 1565.75   4
   4   1  -4 55329.1 1517.62   5
   4   1  -4 52879.7 1577.97   3
   4   1  -3-34.5059 97.5350   5
   4   1  -3-6.85523 90.5665   4
   4   1  -3-76.5824 101.989   3
   4   1  -2 34001.3 1116.95   4
   4   1  -2 32733.7 1174.64   5
   4   1  -2 33224.6 1245.87   3
   4   1  -1 11166.0 596.036   4
   4   1  -1 12225.8 761.350   3
   4   1   0 45573.4 1195.06   6
   4   1   0 44435.8 1117.47   4
   4   1   0 43750.7 1447.15   3
   4   1   1 4826.60 396.403   6
   4   1   1 3898.21 417.962   5
   4   1   1 3918.45 298.257   4
  -4  -1  -1 4157.83 236.428   1
   4   1   1 3540.63 421.187   3
   4   1   2 22637.2 879.342   6
   4   1   2 22943.0 979.411   5
   4   1   2 22446.9 618.554   4
   4   1   2 23330.0 1067.65   3
  -4  -1  -2 21285.7 343.524   1
   4   1   3 4243.49 397.315   6
   4   1   3 4259.20 429.391   5
   4   1   3 4847.83 492.242   3
   4   1   4 131.012 100.173   5
   4   1   4 88.7196 103.111   3
   4   1   5 25210.5 1016.10   5
   4   1   5 27304.0 1164.63   3
   4   1   6 3835.32 405.351   5
  -4  -1  -6 3047.97 318.034   7
  -4  -1  -6 3278.77 353.989   2
   4   1   6 3054.72 402.286   3
   4   1   7 44820.6 1321.30   5
  -4  -1  -7 44636.2 1352.45   2
   4   1   7 44593.5 1483.09   3
  -4  -1  -7 44298.3 1263.55   7
  -4  -1  -8 22883.5 1029.56   2
   4   1   8 25843.3 974.239   5
  -4  -1  -8 24291.1 994.058   7
   4   1   9 5388.47 429.762   5
  -4  -1  -9 4604.86 506.002   2
  -4  -1  -9 5211.17 496.124   7
  -4  -1 -10 118.476 119.529   7
  -4  -1 -10 1.58654 145.153   2
  -4  -1 -11 5584.39 602.678   2
  -4  -1 -12 3464.76 504.658   2
  -4  -1 -13-22.5142 166.812   2
  -4  -1 -14 1152.67 345.054   2
  -4  -1 -15 3545.36 586.974   2
  -4  -1 -16 1177.12 356.651   2
  -4  -1 -17 2403.68 542.524   2
  -4  -1 -18 2997.46 602.761   2
  -4  -1 -19 2226.61 539.697   2
   4   2 -20-595.386 334.947   4
   4   2 -20 93.8220 191.496   2
   4   2 -19 3900.25 756.348   4
   4   2 -19 3453.90 625.697   2
   4   2 -18 1737.79 495.926   4
   4   2 -18 3334.18 599.082   2
   4   2 -17 15880.9 1247.76   2
   4   2 -17 16311.4 1463.12   4
   4   2 -16 15337.5 1181.59   2
   4   2 -16 17232.5 1478.00   4
   4   2 -15 2868.12 626.800   4
   4   2 -15 2625.67 492.662   2
   4   2 -14 713.032 326.624   4
   4   2 -14 1137.11 308.363   2
   4   2 -13 26480.5 1360.07   2
   4   2 -13 29388.2 1751.24   4
   4   2 -12 880.463 334.606   4
   4   2 -12 387.174 186.782   2
   4   2 -11 34157.2 1119.79   5
   4   2 -11 30059.1 1321.45   2
   4   2 -11 33441.6 1741.09   4
   4   2 -11 33134.5 1198.47   3
   4   2 -10 2440.79 323.116   5
   4   2 -10 1537.93 392.394   4
   4   2 -10 2148.85 341.345   2
   4   2 -10 2173.64 322.631   3
   4   2  -9 237.865 144.680   5
   4   2  -9 280.551 142.123   2
   4   2  -9 286.052 211.140   4
   4   2  -9 427.058 158.598   3
   4   2  -8 2534.93 369.075   3
   4   2  -8 3066.16 393.512   5
   4   2  -8 2508.80 338.869   2
   4   2  -8 2852.84 479.502   4
   4   2  -7 126114. 2252.49   2
   4   2  -7 134213. 2956.19   4
   4   2  -7 129761. 2491.03   5
   4   2  -7 137195. 2638.35   3
   4   2  -6 8008.30 630.502   5
   4   2  -6 8950.51 741.032   4
   4   2  -6 9132.79 689.081   3
   4   2  -5 45961.1 1537.77   3
   4   2  -5 47043.1 1593.03   4
   4   2  -5 43987.1 1482.04   5
   4   2  -4 27848.8 1168.19   4
   4   2  -4 28946.9 1198.12   5
   4   2  -4 26387.1 1167.55   3
   4   2  -3 31292.9 1273.57   5
   4   2  -3 30086.8 1155.84   4
   4   2  -3 30596.6 1264.23   3
   4   2  -2 13.2309 90.0460   4
   4   2  -2 241.349 158.100   5
   4   2  -2 48.7429 139.410   3
   4   2  -1 71322.7 1905.68   5
   4   2  -1 74609.4 1615.98   4
   4   2  -1 74210.0 1966.01   3
   4   2   0 11298.4 762.002   5
   4   2   0 11151.2 582.069   4
   4   2   0 12189.7 807.251   3
   4   2   0 11678.5 615.779   6
   4   2   1 30063.5 1002.16   6
   4   2   1 27182.5 1170.25   5
   4   2   1 28586.2 857.349   4
  -4  -2  -1 31455.6 781.184   1
   4   2   1 29030.8 1240.06   3
   4   2   2 925.558 241.060   5
  -4  -2  -2 600.737 95.5101   1
   4   2   2 566.068 158.283   6
   4   2   2 637.399 207.690   3
   4   2   3 51017.7 1576.95   5
   4   2   3 54046.5 1438.34   6
  -4  -2  -3 49829.8 757.224   1
   4   2   3 52051.1 1679.38   3
   4   2   4 1446.19 286.293   5
  -4  -2  -4 1397.63 133.733   1
   4   2   4 1282.73 291.810   3
  -4  -2  -5 17005.9 489.633   1
   4   2   5 17372.8 917.199   5
   4   2   5 18976.6 1014.47   3
  -4  -2  -5 16781.2 619.597   7
  -4  -2  -6 29414.0 695.648   1
  -4  -2  -6 31866.4 902.012   7
   4   2   6 32400.2 1240.78   5
   4   2   6 32655.0 1343.02   3
  -4  -2  -7 1359.20 272.078   2
   4   2   7 1310.89 262.138   5
  -4  -2  -7 1133.77 183.814   7
  -4  -2  -8 112.290 168.690   2
   4   2   8 26.2036 99.2402   5
  -4  -2  -8 109.487 79.8050   7
   4   2   9 6367.74 520.791   5
  -4  -2  -9 6417.55 606.633   2
  -4  -2 -10 8031.86 709.967   2
  -4  -2 -11 15589.5 1029.07   2
  -4  -2 -12 120.816 177.059   2
  -4  -2 -13 8765.93 840.259   2
  -4  -2 -14 892.521 312.880   2
  -4  -2 -15 1204.64 375.702   2
  -4  -2 -16 68.2790 187.875   2
  -4  -2 -17 757.602 313.089   2
  -4  -2 -18 3410.66 640.035   2
   4   3 -20 394.047 232.305   2
   4   3 -20 869.376 365.185   4
   4   3 -19 7692.52 1025.44   4
   4   3 -19 5197.81 784.156   2
   4   3 -18 3383.73 674.355   4
   4   3 -18 5603.75 780.261   2
   4   3 -17 1484.37 456.188   4
   4   3 -17 1658.47 429.933   2
   4   3 -16 3048.82 676.966   4
   4   3 -16 2553.72 510.869   2
   4   3 -15 3315.85 555.101   2
   4   3 -15 3370.13 650.866   4
   4   3 -14 9122.34 861.707   2
   4   3 -14 9641.19 1059.04   4
   4   3 -13 3206.22 606.532   4
   4   3 -13 2068.19 413.192   2
   4   3 -12 372.621 237.350   4
   4   3 -12 429.130 225.616   2
   4   3 -11 409.558 156.237   5
   4   3 -11 503.038 262.453   4
   4   3 -11 314.631 172.725   2
   4   3 -11 260.025 120.665   3
   4   3 -10 8031.15 681.310   2
   4   3 -10 8352.93 858.408   4
   4   3 -10 9042.04 692.559   5
   4   3 -10 8720.07 649.419   3
   4   3  -9 1702.94 312.279   2
   4   3  -9 2572.07 466.466   4
   4   3  -9 1986.52 326.013   3
   4   3  -9 2485.93 371.784   5
   4   3  -8 20907.7 1078.42   5
   4   3  -8 21125.0 1015.37   2
   4   3  -8 23329.9 1317.78   4
   4   3  -8 22632.6 1113.45   3
   4   3  -7 7254.01 644.562   5
   4   3  -7 8125.49 750.882   4
   4   3  -7 7598.52 647.753   3
   4   3  -6 113118. 2658.32   4
   4   3  -6 109910. 2505.37   5
   4   3  -6 109903. 2465.34   3
   4   3  -5 41751.5 1548.08   4
   4   3  -5 39076.8 1503.63   5
   4   3  -5 40466.6 1504.35   3
   4   3  -4 10711.7 804.893   5
   4   3  -4 11201.9 771.723   4
   4   3  -4 10703.4 784.495   3
   4   3  -3 598.377 242.947   5
   4   3  -3 513.727 168.288   4
   4   3  -3 606.409 225.852   3
   4   3  -2 1441.37 305.680   5
   4   3  -2 2272.15 317.906   4
   4   3  -2 1853.51 329.297   3
   4   3  -1 1296.68 312.165   5
   4   3  -1 1622.87 258.743   4
   4   3  -1 1613.84 331.597   3
   4   3   0 1446.46 309.821   5
   4   3   0 1866.36 260.644   6
   4   3   0 1733.42 252.150   4
  -4  -3   0 2038.14 267.400   1
   4   3   0 1925.27 365.231   3
  -4  -3  -1 1369.26 195.583   1
   4   3   1 1200.52 292.945   5
   4   3   1 1385.88 216.443   4
   4   3   1 1304.39 221.919   6
   4   3   1 1429.25 321.704   3
   4   3   2 524.058 212.341   5
  -4  -3  -2 529.684 117.867   1
   4   3   2 543.194 160.606   6
   4   3   2 798.469 265.845   3
   4   3   3 1554.16 267.602   6
   4   3   3 1469.22 294.640   5
  -4  -3  -3 1494.36 175.525   1
   4   3   3 1311.92 303.248   3
   4   3   4 59469.0 1610.04   6
   4   3   4 56272.2 1853.62   3
   4   3   4 55505.3 1775.21   5
  -4  -3  -4 55332.1 1045.09   1
   4   3   5 31605.2 1339.91   5
  -4  -3  -5 32169.7 839.433   1
  -4  -3  -5 32964.6 742.738   7
   4   3   6 13778.4 876.360   5
  -4  -3  -6 12743.9 559.818   1
   4   3   7 5708.44 570.061   5
  -4  -3  -7 5364.60 385.597   1
   4   3   8 18267.4 1000.65   5
  -4  -3  -8 20105.4 1042.89   2
  -4  -3  -9 14259.7 921.855   2
   4   3   9 13702.1 841.775   5
  -4  -3 -10 7591.62 711.114   2
  -4  -3 -11 1370.05 357.060   2
  -4  -3 -12 219.950 215.031   2
  -4  -3 -13 10001.1 922.204   2
  -4  -3 -14 2314.19 482.990   2
  -4  -3 -15 3560.05 607.913   2
  -4  -3 -16 1755.92 454.199   2
  -4  -3 -17 654.442 315.841   2
  -4  -3 -18 266.661 213.753   2
   4   4 -19 2234.33 552.400   4
   4   4 -19 3040.06 629.385   2
   4   4 -18 1814.56 518.509   4
   4   4 -18 2737.29 559.771   2
   4   4 -17 116.954 163.854   4
   4   4 -17 23.3739 167.696   2
   4   4 -16 8881.24 954.963   2
   4   4 -16 9541.33 1116.91   4
   4   4 -15 13704.9 1122.30   2
   4   4 -15 17189.2 1454.50   4
   4   4 -14 899.071 342.027   4
   4   4 -14 529.730 254.135   2
   4   4 -13 1493.57 456.123   4
   4   4 -13 2263.09 447.114   2
   4   4 -12 1164.13 270.099   5
   4   4 -12 905.617 352.957   4
   4   4 -12 324.509 199.603   2
   4   4 -11 37817.9 1507.20   5
   4   4 -11 35206.0 1539.50   2
   4   4 -11 35688.4 1863.59   4
   4   4 -10 5414.15 589.161   2
   4   4 -10 5809.72 740.803   4
   4   4 -10 6099.38 620.061   5
   4   4  -9 23524.9 1230.75   5
   4   4  -9 22301.2 1376.03   4
   4   4  -9 22714.9 1122.33   3
   4   4  -8 549.744 223.528   5
   4   4  -8 900.554 315.129   4
   4   4  -8 695.399 232.500   3
   4   4  -7 1339.73 316.504   5
   4   4  -7 1710.34 386.333   4
   4   4  -7 1712.56 325.497   3
   4   4  -6 11828.4 891.334   5
   4   4  -6 10136.8 827.665   4
   4   4  -6 11306.0 828.427   3
   4   4  -5 26463.3 1269.46   4
   4   4  -5 25721.9 1316.57   5
   4   4  -5 26769.2 1272.85   3
   4   4  -4 2697.22 450.414   5
   4   4  -4 2782.00 417.380   4
   4   4  -4 2982.99 451.732   3
   4   4  -3 155478. 3229.60   5
   4   4  -3 158374. 2843.23   4
   4   4  -3 161474. 3180.49   3
   4   4  -2 36.4406 163.725   5
   4   4  -2 31.4666 98.6935   4
   4   4  -2 30.2596 144.192   3
   4   4  -1 50293.4 1863.36   5
   4   4  -1 55521.7 1533.40   4
  -4  -4   1 56616.1 1571.53   1
   4   4  -1 51837.8 1820.84   3
   4   4   0-20.6907 171.306   5
   4   4   0-11.8914 89.8678   4
  -4  -4   0 76.2835 85.6697   1
   4   4   0 18.1090 78.1325   6
   4   4   0 85.8565 156.430   3
   4   4   1 38251.4 1617.51   5
  -4  -4  -1 39665.1 1173.60   1
   4   4   1 38998.6 1600.27   3
   4   4   1 39047.5 1201.03   6
   4   4   2 94.9635 103.834   6
   4   4   2 30.9685 157.288   5
  -4  -4  -2 139.887 95.1280   1
   4   4   2 200.248 194.274   3
   4   4   3 2388.43 414.902   5
  -4  -4  -3 2835.88 287.940   1
   4   4   3 3155.84 378.652   6
   4   4   4 74973.9 1867.48   6
  -4  -4  -4 72906.3 1411.39   1
   4   4   5 35911.3 1350.31   6
  -4  -4  -5 33204.2 987.890   1
  -4  -4  -6 33007.3 1033.52   1
   4   4   6 35128.6 1529.80   5
  -4  -4  -7 18527.6 802.129   1
   4   4   7 19238.4 1114.84   5
   4   4   8 5387.25 580.822   5
  -4  -4  -8 6784.69 652.733   2
   4   4   9 16317.9 994.834   5
  -4  -4  -9 17670.4 1073.50   2
  -4  -4 -10-539.243 236.688   2
  -4  -4 -11-278.445 196.007   2
  -4  -4 -12-393.850 236.949   2
  -4  -4 -13 2427.73 491.570   2
  -4  -4 -14 1331.57 371.451   2
  -4  -4 -15 397.255 256.452   2
  -4  -4 -16 536.827 289.177   2
  -4  -4 -17-62.9302 167.967   2
   4   5 -19 2056.33 516.025   2
   4   5 -19 1481.15 446.731   4
   4   5 -18-364.387 290.120   4
   4   5 -18 4.81731 118.467   2
   4   5 -17 8084.31 941.592   2
   4   5 -17 7772.62 1029.34   4
   4   5 -16-310.039 247.797   4
   4   5 -16-343.017 234.127   2
   4   5 -15 5498.77 747.033   2
   4   5 -15 5853.47 876.762   4
   4   5 -14-357.369 245.990   4
   4   5 -14-18.6685 141.725   2
   4   5 -13 1014.95 321.278   2
   4   5 -13 1080.95 370.875   4
   4   5 -12 1277.41 311.568   5
   4   5 -12 1404.51 405.819   4
   4   5 -11 17151.4 1098.14   5
   4   5 -11 17714.0 1330.56   4
   4   5 -10 21481.3 1263.68   5
   4   5 -10 21557.8 1424.57   4
   4   5  -9 13308.2 1084.24   4
   4   5  -9 13427.6 1005.97   5
   4   5  -8 3745.11 550.611   5
   4   5  -8 3868.98 576.768   4
   4   5  -7 2699.61 462.985   5
   4   5  -7 3138.62 509.538   4
   4   5  -6 8366.22 809.794   5
   4   5  -6 8618.37 789.035   4
   4   5  -5 27382.1 1327.11   4
   4   5  -5 31810.1 1563.23   5
   4   5  -4 7501.83 784.252   5
   4   5  -4 8363.20 710.392   4
   4   5  -3 11468.0 954.369   5
   4   5  -3 11668.1 806.448   4
  -4  -5   3 11262.6 819.225   1
   4   5  -2 2346.91 476.243   5
   4   5  -2 2393.05 370.408   4
  -4  -5   2 2744.14 398.278   1
   4   5  -1 15035.7 855.558   4
   4   5  -1 13804.4 1055.17   5
  -4  -5   1 14497.0 858.337   1
   4   5   0 12232.2 997.402   5
  -4  -5   0 12825.5 780.138   1
   4   5   1 697.923 284.893   5
  -4  -5  -1 1058.75 226.251   1
   4   5   1 864.608 195.451   6
   4   5   2 1543.63 391.305   5
  -4  -5  -2 1143.40 230.638   1
   4   5   2 1281.38 242.781   6
   4   5   3 1230.80 347.516   5
   4   5   3 1768.17 286.475   6
  -4  -5  -3 1528.83 248.505   1
   4   5   4 15373.6 869.511   6
  -4  -5  -4 15495.1 748.590   1
   4   5   4 14561.9 1073.69   5
   4   5   5 1676.55 305.654   6
  -4  -5  -5 1927.08 275.445   1
   4   5   6 147.906 194.457   5
  -4  -5  -6 77.6858 80.6388   1
   4   5   6-62.9718 109.041   6
  -4  -5  -7 9330.46 640.073   1
   4   5   7 9898.10 883.073   5
   4   5   8 147.969 133.879   5
  -4  -5  -8 215.148 195.211   2
   4   5   9 5937.42 647.714   5
  -4  -5  -9 6048.71 666.970   2
  -4  -5 -10 6885.16 723.546   2
  -4  -5 -11 8024.44 819.381   2
  -4  -5 -12 137.417 158.962   2
  -4  -5 -13-7.88492 184.754   2
  -4  -5 -14 616.080 307.062   2
  -4  -5 -15 3341.87 598.374   2
  -4  -5 -16 1219.77 420.638   2
   4   6 -18 84.5756 149.147   4
   4   6 -17 822.674 333.617   4
   4   6 -16 1312.95 422.667   4
   4   6 -15 224.463 241.305   4
   4   6 -14 7814.56 979.440   4
   4   6 -13 6362.08 848.906   4
   4   6 -12 2528.78 452.091   5
   4   6 -12 4052.84 672.729   4
   4   6 -11 10872.2 944.420   5
   4   6 -11 11195.1 1069.73   4
   4   6 -10 94.9966 137.545   5
   4   6 -10-172.991 197.683   4
   4   6  -9 15793.0 1197.45   4
   4   6  -9 15146.1 1135.53   5
   4   6  -8 8873.55 875.669   4
   4   6  -8 7157.13 792.813   5
   4   6  -7 2767.84 511.904   5
   4   6  -7 2299.18 458.032   4
   4   6  -6 2101.14 440.290   5
   4   6  -6 1772.95 380.759   4
   4   6  -5 12883.7 1077.81   5
   4   6  -5 16386.0 1061.90   4
   4   6  -4 3674.77 602.629   5
   4   6  -4 3479.49 482.245   4
  -4  -6   4 3474.91 515.924   1
   4   6  -3 226.436 207.730   5
   4   6  -3 280.109 147.825   4
  -4  -6   3 147.368 143.526   1
   4   6  -2 1890.73 442.230   5
  -4  -6   2 2304.78 392.145   1
  -4  -6   1 41795.1 1575.78   1
  -4  -6   0 10635.1 766.101   1
   4   6   0 9831.34 967.161   5
  -4  -6  -1 11103.1 755.793   1
   4   6   1 10364.9 997.287   5
   4   6   1 10282.6 645.075   6
   4   6   2 5306.88 483.483   6
   4   6   2 5684.29 740.939   5
  -4  -6  -2 4956.88 493.033   1
   4   6   3 3400.04 402.731   6
   4   6   3 3028.09 559.393   5
  -4  -6  -3 2612.53 357.988   1
  -4  -6  -4 5476.24 502.239   1
   4   6   4 5399.68 715.460   5
   4   6   4 5551.70 536.003   6
   4   6   5 2719.49 533.171   5
  -4  -6  -5 2692.23 357.803   1
   4   6   5 2626.38 388.885   6
   4   6   6 2892.26 421.614   6
   4   6   6 3081.81 555.253   5
  -4  -6  -6 2594.62 359.428   1
   4   6   7 13724.4 962.636   6
   4   6   7 13626.6 1112.99   5
   4   6   8 11482.1 999.262   5
  -4  -6  -9 12223.6 991.461   2
   4   6   9 12566.1 1017.79   5
  -4  -6 -10 521.798 264.986   2
  -4  -6 -11 2662.42 514.645   2
  -4  -6 -12 1431.43 385.917   2
  -4  -6 -13 562.748 281.903   2
  -4  -6 -14 220.992 231.959   2
  -4  -6 -15 105.088 182.332   2
  -4  -6 -16 992.811 386.818   2
   4   7 -18 11687.3 1246.26   4
   4   7 -17 365.209 251.449   4
   4   7 -16 72.3432 162.006   4
   4   7 -15 8110.56 1002.03   4
   4   7 -14 2510.20 578.144   4
   4   7 -13 2745.45 598.759   4
   4   7 -12 483.861 239.944   5
   4   7 -12 492.373 270.771   4
   4   7 -11-66.8187 146.714   5
   4   7 -11 358.325 268.171   4
   4   7 -10 5860.66 759.209   5
   4   7 -10 6673.26 817.494   4
   4   7  -9 118.733 203.098   5
   4   7  -9 147.868 127.937   4
   4   7  -8 19370.9 1372.80   5
   4   7  -8 17745.0 1254.35   4
   4   7  -7 8909.74 948.750   5
   4   7  -7 8835.70 863.360   4
   4   7  -6 10656.9 1042.96   5
   4   7  -6 11414.5 945.875   4
  -4  -7   6 11098.7 1024.28   1
   4   7  -5 31133.8 1521.31   4
  -4  -7   5 33855.8 1716.97   1
   4   7  -4 6676.61 691.680   4
  -4  -7   4 7761.09 797.715   1
  -4  -7   3 22159.2 1296.15   1
  -4  -7   2 1.96398 180.842   1
  -4  -7   1 3440.26 491.244   1
  -4  -7   0 4680.24 552.962   1
  -4  -7  -1 10467.1 793.630   1
   4   7   2 42585.0 1371.61   6
  -4  -7  -2 44071.6 1577.92   1
   4   7   2 42634.6 2131.73   5
   4   7   3 3878.96 431.231   6
   4   7   3 3937.20 664.791   5
  -4  -7  -3 3957.11 481.325   1
   4   7   4 17397.0 1381.18   5
  -4  -7  -4 17225.6 971.126   1
   4   7   4 15546.2 899.646   6
   4   7   5 12269.1 835.191   6
   4   7   5 14413.0 1261.53   5
  -4  -7  -5 13515.7 869.835   1
   4   7   6 4.41195 198.339   5
   4   7   6 80.9473 98.4114   6
  -4  -7  -6 381.461 172.508   1
   4   7   7 785.502 345.597   5
   4   7   7 796.128 256.796   6
   4   7   8-207.149 187.790   5
   4   7   8 197.454 155.703   6
  -4  -7  -9 1924.83 421.854   2
   4   7   9 1469.46 354.397   6
   4   7   9 1055.59 349.281   5
   4   7  10 60.6949 111.376   6
  -4  -7 -10 94.6752 156.160   2
  -4  -7 -11 1731.16 460.132   2
  -4  -7 -12 11751.1 1109.23   2
  -4  -7 -13 77.5989 173.607   2
  -4  -7 -14 1039.48 395.704   2
  -4  -7 -15 333.967 261.536   2
   4   8 -17 762.560 331.144   4
   4   8 -16-61.5765 181.402   4
   4   8 -15 1162.11 415.854   4
   4   8 -14 788.175 304.303   4
   4   8 -13 2839.19 604.990   4
   4   8 -12 1515.32 394.878   5
   4   8 -12 2386.53 526.464   4
   4   8 -11 1024.70 354.146   5
   4   8 -11 2276.46 504.818   4
   4   8 -10-364.457 242.463   5
   4   8 -10 296.022 218.546   4
  -4  -8  10-512.619 316.449   1
   4   8  -9 443.016 275.736   5
   4   8  -9 988.559 375.226   4
  -4  -8   9 257.055 306.329   1
   4   8  -8 6352.24 856.917   5
   4   8  -8 6724.33 798.442   4
  -4  -8   8 7867.62 979.515   1
  -4  -8   7 3860.17 662.203   1
   4   8  -7 3333.64 623.522   5
   4   8  -7 3197.46 548.680   4
   4   8  -6 3078.82 631.066   5
  -4  -8   6 3487.97 612.855   1
   4   8  -5 4995.17 777.298   5
  -4  -8   5 6465.29 794.846   1
  -4  -8   4 2230.22 451.909   1
  -4  -8   3 548.346 252.336   1
  -4  -8   2-141.859 174.708   1
  -4  -8   1 1609.26 368.123   1
  -4  -8   0 1590.45 346.701   1
  -4  -8  -1 8239.28 756.853   1
  -4  -8  -2 1393.34 327.040   1
   4   8   2 1428.51 470.781   5
   4   8   3-186.121 117.089   6
  -4  -8  -3 58.9262 114.050   1
   4   8   3-112.161 318.601   5
   4   8   4-6.84707 241.314   5
   4   8   4-60.4497 81.6778   6
  -4  -8  -4 155.544 171.904   1
   4   8   5 143.168 111.249   6
  -4  -8  -5 522.892 203.378   1
   4   8   6 31.9056 185.406   5
   4   8   6-64.0686 90.1383   6
   4   8   7 272.570 145.824   6
   4   8   7 1345.85 432.290   5
   4   8   8 4839.87 598.798   6
   4   8   8 4511.21 735.343   5
  -4  -8  -9 1044.32 337.075   2
   4   8   9 845.437 268.194   6
   4   8  10 477.424 230.927   6
  -4  -8 -10 568.827 305.764   2
  -4  -8 -11 2512.00 530.996   2
   4   8  11 3360.35 554.545   6
  -4  -8 -12 1164.72 374.236   2
   4   8  12 989.204 317.480   6
  -4  -8 -13 680.897 341.556   2
  -4  -8 -14 307.814 233.328   2
   4   9 -15 168.078 203.650   4
  -4  -9  15 61.8297 221.199   1
  -4  -9  14 5121.17 996.492   1
   4   9 -14 4999.71 812.635   4
  -4  -9  13 1082.91 462.256   1
   4   9 -13 606.543 318.241   4
   4   9 -12 1095.47 362.905   5
   4   9 -12 2160.42 522.708   4
  -4  -9  12 1497.72 550.811   1
   4   9 -11 39.1454 146.567   5
   4   9 -11-18.9029 93.9127   4
  -4  -9  11-125.233 245.209   1
  -4  -9  10 4737.25 873.389   1
   4   9 -10 4425.79 740.844   5
   4   9 -10 5251.86 765.211   4
   4   9  -9 363.608 256.603   5
  -4  -9   9 510.097 289.901   1
   4   9  -8 9381.30 1115.18   5
  -4  -9   8 10234.1 1148.07   1
   4   9  -7 7298.69 990.688   5
  -4  -9   7 9930.22 1101.98   1
   4   9  -6 12096.2 1253.38   5
  -4  -9   6 14265.7 1261.03   1
   4   9  -5-17.8945 227.282   5
  -4  -9   5-177.444 199.362   1
  -4  -9   4 4825.91 701.975   1
  -4  -9   3 16407.1 1237.49   1
  -4  -9   2 7066.66 799.713   1
  -4  -9   1 1174.95 339.147   1
  -4  -9   0 5449.53 675.800   1
  -4  -9  -1 67.4493 115.222   1
   4   9   2 11287.0 1269.31   5
  -4  -9  -2 11510.5 929.341   1
   4   9   3 4985.15 856.372   5
  -4  -9  -3 6507.28 708.561   1
   4   9   4 303.788 313.450   5
  -4  -9  -4 638.373 242.727   1
   4   9   5-42.4428 244.790   5
   4   9   6 4849.94 853.989   5
   4   9   7 11246.2 1233.33   5
   4   9   8 704.635 349.054   5
  -4  -9  -9-131.247 207.936   2
  -4  -9 -10 1044.55 364.320   2
  -4  -9 -11-13.6317 168.379   2
  -4  -9 -12 263.302 221.162   2
  -4 -10  14 1724.80 581.066   1
  -4 -10  13-934.120 473.593   1
  -4 -10  12 2941.57 738.690   1
   4  10 -11-72.7312 144.750   5
  -4 -10  11 532.306 334.551   1
  -4 -10  10-184.914 236.825   1
   4  10 -10-289.900 264.483   5
   4  10  -9 2426.05 560.751   5
  -4 -10   9 3726.98 757.389   1
   4  10  -8 1543.89 529.771   5
  -4 -10   8 1770.45 519.633   1
   4  10  -7-231.497 266.024   5
  -4 -10   7 708.988 371.766   1
   4  10  -6 1155.75 453.746   5
  -4 -10   6 1186.80 408.971   1
   4  10  -5 3218.91 720.266   5
  -4 -10   5 4490.96 736.567   1
  -4 -10   4 2247.24 496.384   1
  -4 -10   3 561.345 291.868   1
  -4 -10   2 5639.60 739.156   1
  -4 -10   1 217.085 211.556   1
  -4 -10   0 1402.41 380.972   1
  -4 -10  -1 431.578 223.327   1
   4  10   1-27.4415 267.225   5
   4  10   2 1973.35 574.810   5
  -4 -10  -2 2307.07 465.460   1
  -4 -10  -3 1227.69 345.420   1
   4  10   3 1288.98 489.747   5
   4  10   4 226.579 281.267   5
  -4 -10  -4 243.180 199.174   1
   4  10   5 8401.27 1177.10   5
   4  10   6 247.777 254.391   5
   4  10   7 1050.78 421.871   5
   4  10   8-350.875 289.771   5
  -4 -10  -8-319.982 216.962   2
  -4 -10  -9 1568.78 437.985   2
  -4 -10 -10 3606.34 661.484   2
  -4 -10 -11-300.724 216.363   2
  -4 -11  12 8511.03 1229.95   1
   4  11 -11 5859.88 923.980   5
  -4 -11  11 6583.15 1075.36   1
   4  11 -10-10.3296 214.511   5
  -4 -11  10 114.157 238.185   1
   4  11  -9 4010.31 802.355   5
  -4 -11   9 4352.00 813.445   1
   4  11  -8 14135.2 1503.41   5
  -4 -11   8 18095.1 1612.12   1
   4  11  -7 3118.74 734.433   5
  -4 -11   7 2531.56 612.557   1
   4  11  -6 1286.31 557.617   5
  -4 -11   6 1803.24 540.471   1
   4  11  -5-975.287 466.093   5
  -4 -11   5 18.5311 171.128   1
   4  11  -4 5241.61 942.557   5
  -4 -11   4 5105.08 786.327   1
   4  11  -3-84.7238 288.550   5
  -4 -11   3 354.071 256.307   1
   4  11  -2 2709.87 721.494   5
  -4 -11   2 2912.36 553.227   1
  -4 -11   1 1416.03 425.444   1
   4  11  -1 908.787 484.508   5
   4  11   0-204.713 308.030   5
  -4 -11   0 377.888 239.218   1
   4  11   1-140.439 300.883   5
  -4 -11  -1 550.429 253.316   1
   4  11   2 1383.94 518.447   5
  -4 -11  -2 1587.98 435.623   1
   4  11   3 172.391 326.316   5
   4  11   4 2527.92 705.070   5
   4  11   5 630.795 429.449   5
   4  11   6 1009.22 438.141   5
   4  11   7 307.465 262.646   5
  -4 -11  -8 68.1960 168.592   2
  -4 -11  -9 2534.63 547.206   2
   4  12 -11 173.702 204.263   5
   4  12 -10-113.979 214.042   5
  -4 -12  10 20.4715 231.864   1
  -4 -12   9 843.837 445.189   1
   4  12  -9 316.197 305.894   5
   4  12  -8 2267.84 631.871   5
  -4 -12   8 2926.61 687.947   1
   4  12  -7 2421.35 685.347   5
  -4 -12   7 2249.37 573.862   1
   4  12  -6 1561.36 566.495   5
  -4 -12   6 2134.62 557.754   1
   4  12  -5-335.543 348.483   5
  -4 -12   5-75.1056 172.491   1
   4  12  -4 2878.06 766.733   5
  -4 -12   4 2213.59 536.733   1
   4  12  -3 199.607 318.509   5
  -4 -12   3 251.669 253.892   1
  -4 -12   2 859.973 322.635   1
   4  12  -2 527.014 425.627   5
  -4 -12   1 1914.24 479.211   1
   4  12  -1 1768.16 633.971   5
  -4 -12   0 476.500 269.536   1
   4  12   0 305.406 320.417   5
   4  12   1 38.2780 237.521   5
  -4 -12  -1 18.7443 162.191   1
   4  12   2-678.875 431.882   5
   4  12   3 827.321 464.302   5
   4  12   4 589.748 395.780   5
   4  12   5 3861.83 865.925   5
   4  12   6 858.997 430.522   5
   4  13  -7 685.370 363.691   5
  -4 -13   7 622.428 324.735   1
   4  13  -6 7657.69 1208.98   5
  -4 -13   6 10440.3 1211.17   1
   4  13  -5 691.168 421.070   5
  -4 -13   5 455.721 286.019   1
   4  13  -4 495.199 371.779   5
  -4 -13   4-112.374 197.664   1
  -4 -13   3 1007.99 363.706   1
   4  13  -3 106.372 190.541   5
   4  13  -2 117.381 265.608   5
  -4 -13   2-490.472 285.822   1
   4  13  -1 139.192 287.609   5
  -4 -13   1 495.904 274.059   1
   4  13   0-471.701 400.193   5
  -4 -13   0-104.889 184.103   1
   4  13   1 936.135 453.300   5
   4  13   2 350.148 365.235   5
   4  13   3 47.8643 153.218   5
   5 -15  -4 91.5095 198.954   1
   5 -15  -3-205.465 252.917   1
   5 -15  -2-170.873 197.209   1
   5 -15  -1 1705.83 508.523   1
   5 -15   0 1546.71 498.823   1
   5 -15   1 127.063 212.005   1
   5 -15   2 825.825 389.128   3
   5 -15   2 185.608 198.694   1
   5 -15   3-436.855 326.673   3
   5 -15   3 70.8233 182.343   1
   5 -15   4 870.023 403.773   3
   5 -15   4 607.159 330.500   1
  -5  15  -5 511.083 340.145   7
   5 -15   5 517.347 333.380   3
   5 -15   5 183.906 244.893   1
  -5  15  -6-41.0764 248.910   7
   5 -15   6 3.65918 187.819   1
   5 -15   7 1986.39 505.392   1
  -5  15  -7 1854.79 626.380   7
   5 -14  -8 394.098 343.766   3
   5 -14  -8 434.431 322.798   1
   5 -14  -7 622.341 299.205   1
   5 -14  -6 24.0420 196.344   1
   5 -14  -5 342.694 259.485   1
   5 -14  -4 2195.84 577.724   1
   5 -14  -3 868.827 404.771   1
   5 -14  -2 1722.98 539.236   1
   5 -14  -1-207.206 246.457   1
   5 -14   0 2677.35 598.399   1
   5 -14   1-709.935 316.541   1
  -5  14  -2 481.325 293.740   7
   5 -14   2 584.193 293.706   1
   5 -14   3-28.8581 152.413   3
   5 -14   3 318.930 236.846   1
  -5  14  -4 181.820 298.436   7
   5 -14   4 364.290 299.274   3
   5 -14   4-362.084 269.095   1
  -5  14  -5 760.393 468.682   7
   5 -14   5 490.830 275.067   1
   5 -14   5 323.353 284.922   3
  -5  14  -6 19.8843 263.045   7
   5 -14   6 441.086 296.140   1
  -5  14  -7-108.283 322.852   7
   5 -14   7-324.787 229.550   1
  -5  14  -8 1169.59 548.005   7
   5 -14   8 859.853 393.926   1
   5 -14   9 240.425 250.807   1
  -5  14  -9 902.626 485.731   7
  -5  14 -10 13064.1 1659.84   7
   5 -14  10 10787.6 1165.01   1
   5 -13 -10 1126.52 476.007   1
   5 -13 -10 995.303 426.850   3
   5 -13  -9-9.11544 164.544   1
   5 -13  -9 306.192 308.214   3
   5 -13  -8 1779.76 574.471   3
   5 -13  -8 787.768 431.112   1
   5 -13  -7 1207.28 464.619   1
   5 -13  -6 3635.78 739.118   1
   5 -13  -5 545.649 327.873   1
   5 -13  -4 4104.91 734.109   1
   5 -13  -3 1046.90 401.910   1
   5 -13  -2 1059.98 411.426   1
   5 -13  -1 181.784 210.307   1
  -5  13   0 877.455 364.871   7
   5 -13   0 739.876 331.757   1
  -5  13  -1 439.193 306.319   7
   5 -13   1 618.150 296.399   1
  -5  13  -2 601.244 342.728   7
   5 -13   2 232.051 223.525   1
  -5  13  -3 3521.53 748.494   7
   5 -13   3 5076.44 866.799   3
   5 -13   3 3779.98 655.005   1
   5 -13   4 6650.33 1004.77   3
   5 -13   4 10221.4 1066.81   1
  -5  13  -4 9367.69 1207.46   7
   5 -13   5 3746.40 667.170   1
  -5  13  -5 4000.73 829.929   7
   5 -13   5 2523.36 632.454   3
   5 -13   6 3797.06 729.081   3
  -5  13  -6 5103.64 984.074   7
   5 -13   6 4181.40 704.642   1
   5 -13   7 8485.82 993.671   1
  -5  13  -7 8776.27 1241.58   7
  -5  13  -8 1345.27 540.803   7
   5 -13   8 1429.85 414.771   1
   5 -13   9-255.664 212.876   1
  -5  13  -9-253.304 371.202   7
   5 -13  10 200.853 213.713   1
  -5  13 -10-543.672 433.596   7
  -5  13 -11 2794.97 783.276   7
  -5  13 -12 965.803 577.075   7
   5 -12 -12 2370.47 610.964   3
   5 -12 -12 2996.79 730.763   1
   5 -12 -11 3069.68 731.649   3
   5 -12 -11 2957.97 716.045   1
   5 -12 -10 482.392 327.880   1
   5 -12 -10 130.690 262.048   3
   5 -12  -9 1327.32 513.665   1
   5 -12  -9 439.643 291.317   3
   5 -12  -8 5155.72 877.627   1
   5 -12  -7 662.658 339.843   1
   5 -12  -6 879.759 375.400   1
   5 -12  -5 72.0707 255.565   1
   5 -12  -4 1362.64 426.445   1
   5 -12  -3 9700.70 1049.82   1
   5 -12  -2 122.331 227.876   1
  -5  12   2 62.5441 151.359   7
  -5  12   1 4081.93 667.681   7
   5 -12  -1 3250.48 604.824   1
  -5  12   0 197.071 233.595   7
   5 -12   0 118.100 229.033   1
  -5  12  -1 4435.21 752.543   7
   5 -12   1 4170.26 654.037   1
   5 -12   2-163.124 205.157   1
  -5  12  -2-152.261 234.101   7
  -5  12  -3 956.251 413.665   7
   5 -12   3 1548.68 400.890   1
  -5  12  -4 255.923 311.252   7
   5 -12   4 172.567 288.600   3
   5 -12   4-6.65091 163.281   1
   5 -12   5 816.217 334.000   1
   5 -12   5 466.266 282.246   3
  -5  12  -5 1206.81 483.131   7
  -5  12  -6-199.207 390.034   7
   5 -12   6-146.142 204.087   1
   5 -12   6 544.363 296.098   3
   5 -12   7 12035.1 1104.11   1
   5 -12   7 10620.4 1116.79   3
  -5  12  -7 13103.3 1463.44   7
  -5  12  -8 708.106 487.598   7
   5 -12   8 697.164 306.795   1
  -5  12  -9 379.972 392.784   7
   5 -12   9 109.951 154.445   1
  -5  12 -10 310.013 440.636   7
   5 -12  10 204.252 207.449   1
  -5  12 -11 1775.56 643.123   7
   5 -12  11 2407.23 538.526   1
  -5  12 -12 3455.10 854.564   7
  -5  12 -13 1306.86 584.706   7
   5 -11 -13-304.520 278.858   1
   5 -11 -13 721.269 353.942   3
   5 -11 -12 230.890 243.338   3
   5 -11 -12-107.966 214.630   1
   5 -11 -11 598.164 296.859   3
   5 -11 -11-547.011 327.790   1
   5 -11 -10 628.704 318.186   3
   5 -11 -10 408.054 302.311   1
   5 -11  -9 5065.35 853.535   1
   5 -11  -9 6072.64 900.569   3
   5 -11  -8 8319.16 1069.63   1
   5 -11  -7 243.891 244.154   1
   5 -11  -6 9.91484 174.622   1
   5 -11  -5 1638.81 456.197   1
  -5  11   4 4632.22 625.624   7
   5 -11  -4 4034.82 667.068   1
   5 -11  -3-76.3260 204.434   1
  -5  11   3 134.439 155.837   7
   5 -11  -2 2632.50 495.854   1
  -5  11   2 3135.56 562.649   7
   5 -11  -1 215.264 206.608   1
  -5  11   1 61.4489 180.145   7
  -5  11   0 90.3788 183.845   7
   5 -11   0 185.054 182.449   1
   5 -11   1 9148.89 895.142   1
  -5  11  -1 9460.79 1008.76   7
  -5  11  -2 48.2611 199.013   7
   5 -11   2 64.2370 147.986   1
   5 -11   3 88.4463 247.965   3
  -5  11  -3 170.224 215.151   7
   5 -11   3 175.643 179.432   1
  -5  11  -4 1649.28 478.332   7
   5 -11   4 1540.90 390.259   1
   5 -11   4 2257.29 523.244   3
   5 -11   5 24871.8 1468.90   1
   5 -11   5 25212.6 1680.29   3
  -5  11  -5 25937.7 1839.01   7
   5 -11   6 14587.5 1138.24   1
   5 -11   6 15499.6 1301.36   3
  -5  11  -6 14987.5 1451.60   7
  -5  11  -7 10275.6 1244.90   7
   5 -11   7 11870.5 1035.16   1
   5 -11   7 9763.71 1023.09   3
  -5  11  -8 1642.03 500.117   7
   5 -11   8 2031.00 446.268   1
  -5  11  -9-27.2183 354.476   7
   5 -11   9 69.2695 187.183   1
  -5  11 -10-515.193 397.066   7
   5 -11  10 207.655 180.116   1
  -5  11 -11 1802.14 594.925   7
   5 -11  11 2299.12 520.717   1
  -5  11 -12 962.990 508.161   7
  -5  11 -13 5956.69 1098.97   7
  -5  11 -14 370.809 363.482   7
   5 -10 -15 321.986 266.262   1
   5 -10 -14-97.0045 233.466   1
   5 -10 -13 2164.80 557.826   3
   5 -10 -13 2398.17 621.049   1
   5 -10 -12-270.955 293.837   1
   5 -10 -12 348.766 311.567   3
   5 -10 -11-64.7710 134.048   3
   5 -10 -11-315.329 277.951   1
   5 -10 -10 12808.3 1331.04   1
   5 -10 -10 15197.6 1375.99   3
   5 -10  -9 11930.3 1256.11   1
   5 -10  -9 12856.1 1287.59   3
   5 -10  -8 428.864 289.907   1
   5 -10  -8 946.183 405.292   3
   5 -10  -7 3781.30 698.857   1
   5 -10  -6 8368.25 963.735   1
   5 -10  -5 76.5230 180.838   1
   5 -10  -4-18.2652 154.782   1
  -5  10   4-43.8003 125.970   7
   5 -10  -3 6328.64 767.400   1
  -5  10   3 6951.17 738.980   7
  -5  10   2 158.290 186.274   7
   5 -10  -2-89.7807 184.590   1
   5 -10  -1 12217.7 993.849   1
  -5  10   1 14426.0 1103.28   7
   5 -10   0 2733.10 469.351   1
  -5  10   0 2244.30 460.405   7
   5 -10   1 13708.6 1022.69   1
  -5  10  -1 16905.2 1258.19   7
  -5  10  -2 4345.70 659.761   7
   5 -10   2 3609.27 520.233   1
   5 -10   3 10.1230 175.752   1
   5 -10   3-481.126 271.371   3
  -5  10  -3 80.5301 221.553   7
  -5  10  -4 6122.16 833.557   7
   5 -10   4 6407.36 702.565   1
   5 -10   4 7629.43 886.761   3
  -5  10  -5 4039.99 710.764   7
   5 -10   5 4134.05 573.912   1
   5 -10   5 4370.33 644.624   3
  -5  10  -6 129.876 272.123   7
   5 -10   6 895.709 317.473   1
   5 -10   6 663.589 283.721   3
   5 -10   7 161.014 170.754   3
   5 -10   7 224.456 197.140   1
  -5  10  -7 71.9039 265.856   7
  -5  10  -8 7130.06 1024.43   7
   5 -10   8 7040.13 777.315   1
   5 -10   9 25821.6 1496.35   1
  -5  10  -9 26989.3 2012.87   7
   5 -10  10 10267.5 968.482   1
  -5  10 -10 11127.5 1343.25   7
  -5  10 -11 2338.07 627.019   7
   5 -10  11 2067.09 452.700   1
  -5  10 -12 1460.55 641.700   7
  -5  10 -13 420.300 325.512   7
  -5  10 -14 1121.20 534.288   7
  -5  10 -15-274.661 312.332   7
  -5  10 -16 348.905 499.977   7
   5  -9 -16 808.587 397.589   4
   5  -9 -15 1464.74 513.096   1
   5  -9 -14-590.091 317.957   1
   5  -9 -13 616.608 340.284   3
   5  -9 -13 673.928 343.569   1
   5  -9 -12 1171.59 402.551   3
   5  -9 -12 1019.12 423.917   1
   5  -9 -11 368.059 263.650   3
   5  -9 -11 156.788 245.066   1
   5  -9 -10 1705.29 489.336   1
   5  -9 -10 2326.57 546.076   3
   5  -9  -9 2776.48 599.694   3
   5  -9  -9 2529.67 566.578   1
   5  -9  -8 2335.61 572.400   1
   5  -9  -8 2697.12 599.271   3
   5  -9  -7 2365.89 525.348   1
   5  -9  -6 4929.76 712.386   1
   5  -9  -5-310.297 237.478   1
   5  -9  -4 1533.89 399.608   1
   5  -9  -3 455.251 244.826   1
   5  -9  -2 998.011 297.502   1
  -5   9   1 2567.75 460.953   7
   5  -9  -1 3204.78 477.381   1
  -5   9   0 3383.80 526.849   7
   5  -9   0 3748.68 508.168   1
   5  -9   1 2924.27 451.885   1
  -5   9  -1 3746.09 569.036   7
   5  -9   2 8398.37 736.335   1
   5  -9   2 10170.0 967.910   3
  -5   9  -2 8627.24 872.208   7
  -5   9  -3 27791.6 1593.97   7
   5  -9   3 24870.8 1260.55   1
   5  -9   3 26218.1 1537.36   3
   5  -9   4 6268.13 635.053   1
   5  -9   4 6279.46 752.423   3
  -5   9  -4 7847.12 897.421   7
   5  -9   5 4276.55 622.177   3
   5  -9   5 4081.65 517.551   1
  -5   9  -5 4640.65 718.710   7
   5  -9   6 178.655 152.080   3
   5  -9   6 362.704 213.782   1
  -5   9  -6 193.584 225.624   7
  -5   9  -7 5275.22 811.603   7
   5  -9   7 4597.97 576.235   1
   5  -9   7 4911.19 637.743   3
  -5   9  -8 2503.52 616.633   7
   5  -9   8 3159.44 497.236   3
   5  -9   8 3262.03 502.596   1
  -5   9  -9 11272.3 1249.89   7
   5  -9   9 10529.1 905.431   1
  -5   9 -10 3144.89 720.223   7
   5  -9  10 2534.57 471.940   1
  -5   9 -11 1030.36 454.989   7
  -5   9 -12 857.366 442.906   7
  -5   9 -13 4781.87 950.227   7
  -5   9 -14 527.099 365.371   7
  -5   9 -15 134.944 327.513   7
  -5   9 -16 3281.85 825.955   7
   5  -8 -17 930.438 429.510   4
   5  -8 -16 213.505 223.472   4
   5  -8 -15 2992.78 694.766   1
   5  -8 -15 1693.00 539.774   4
   5  -8 -14 811.059 413.963   1
   5  -8 -13 1730.74 487.083   3
   5  -8 -13 1823.12 553.069   1
   5  -8 -12 354.916 243.002   3
   5  -8 -12 437.998 319.571   1
   5  -8 -11 10993.8 1208.03   1
   5  -8 -11 12360.8 1206.27   3
   5  -8 -10 5057.94 793.975   1
   5  -8 -10 5071.96 765.789   3
   5  -8  -9 740.111 346.954   1
   5  -8  -9 1440.39 450.802   3
   5  -8  -8 1592.28 437.965   1
   5  -8  -8 2121.56 495.013   3
   5  -8  -7 5779.86 760.068   1
   5  -8  -7 5923.27 791.974   3
   5  -8  -6 1067.50 320.430   1
   5  -8  -6 2253.14 518.047   3
   5  -8  -5 7765.46 813.898   1
   5  -8  -4 1625.72 379.883   1
   5  -8  -3 771.097 290.424   1
   5  -8  -2 441.810 196.132   1
   5  -8  -1 20461.7 1134.94   1
   5  -8   0 9524.24 748.096   1
   5  -8   0 9382.25 901.744   3
  -5   8  -1 2574.59 459.378   7
   5  -8   1 1498.70 312.912   1
   5  -8   1 1964.33 439.695   3
   5  -8   2 37906.9 1444.43   1
  -5   8  -2 40269.8 1737.25   7
   5  -8   2 36164.9 1719.17   3
  -5   8  -3 41159.8 1822.76   7
   5  -8   3 37466.1 1432.62   1
   5  -8   3 37350.0 1722.96   3
   5  -8   4 26843.2 1216.95   1
   5  -8   4 27492.6 1462.21   3
  -5   8  -4 27761.0 1557.97   7
   5  -8   5 3336.97 529.496   3
   5  -8   5 3175.36 431.579   1
  -5   8  -5 3089.62 571.086   7
  -5   8  -6 315.536 250.366   7
   5  -8   6 215.583 134.980   1
   5  -8   6 383.748 209.484   3
   5  -8   7 16193.9 991.719   1
   5  -8   7 14957.6 1042.62   3
  -5   8  -7 17274.8 1361.83   7
  -5   8  -8 7230.54 550.925   2
   5  -8   8 6887.97 672.797   1
  -5   8  -8 6133.87 838.009   7
   5  -8   8 8133.79 742.953   3
  -5   8  -9 5065.78 489.903   2
   5  -8   9 5542.25 617.326   1
  -5   8  -9 5470.01 856.454   7
  -5   8 -10 2344.45 595.098   7
  -5   8 -10 1757.61 315.572   2
   5  -8  10 1802.44 366.660   1
  -5   8 -11 8976.83 1148.72   7
  -5   8 -11 7857.50 686.857   2
  -5   8 -12 2705.54 424.365   2
  -5   8 -12 3098.07 753.482   7
  -5   8 -13 1543.55 539.854   7
  -5   8 -13 1466.73 323.426   2
  -5   8 -14 2024.01 665.196   7
  -5   8 -14 3605.30 547.394   2
  -5   8 -15 2208.81 647.727   7
  -5   8 -16 726.519 440.785   7
  -5   8 -17 9236.99 1361.16   7
   5  -7 -17 266.686 228.269   4
   5  -7 -16-152.098 220.744   4
   5  -7 -15 628.601 342.954   4
   5  -7 -14 379.612 279.702   1
   5  -7 -13 2092.08 484.146   3
   5  -7 -13 1440.29 478.119   1
   5  -7 -12 2765.36 558.087   3
   5  -7 -12 3525.29 694.538   1
   5  -7 -11 2133.54 486.066   3
   5  -7 -11 1639.55 482.322   1
   5  -7 -10 5265.19 744.804   3
   5  -7 -10 3530.74 646.865   1
   5  -7  -9 353.006 248.063   1
   5  -7  -9 420.185 246.681   3
   5  -7  -8 2671.80 544.406   1
   5  -7  -8 3435.59 606.470   3
   5  -7  -7 9203.22 913.089   1
   5  -7  -7 8738.91 909.133   3
   5  -7  -6 2882.26 502.820   1
   5  -7  -6 4292.07 641.192   3
   5  -7  -5 5811.34 666.599   1
   5  -7  -5 6457.46 770.476   3
   5  -7  -4 5319.16 624.074   1
   5  -7  -4 6252.00 740.938   3
   5  -7  -3 14948.6 975.805   1
   5  -7  -3 17003.6 1183.94   3
   5  -7  -2 30925.4 1351.23   1
   5  -7  -2 33658.8 1631.45   3
   5  -7  -1 3084.12 501.858   3
   5  -7  -1 2757.33 408.718   1
   5  -7   0 2942.00 487.313   3
   5  -7   0 4695.31 504.633   1
   5  -7   1 212.302 217.358   3
   5  -7   1 399.375 175.904   1
   5  -7   2 51965.4 1557.64   1
   5  -7   2 53658.3 1976.29   3
   5  -7   3 3033.71 480.985   3
   5  -7   3 3122.86 392.868   1
  -5   7  -3 2475.11 447.625   7
  -5   7  -4 50048.5 1943.11   7
   5  -7   4 49193.9 1237.51   6
   5  -7   4 48127.6 1486.48   1
   5  -7   4 48790.0 1843.29   3
   5  -7   5 5929.89 455.282   6
   5  -7   5 5661.54 522.299   1
   5  -7   5 5584.61 629.802   3
  -5   7  -5 6094.58 731.461   7
   5  -7   6 3295.86 478.113   3
  -5   7  -6 3685.89 327.058   2
   5  -7   6 3395.40 422.026   1
  -5   7  -6 3624.34 587.472   7
   5  -7   6 3692.19 381.465   6
  -5   7  -7 116.550 213.617   7
   5  -7   7-295.004 183.308   3
   5  -7   7-130.108 101.581   6
   5  -7   7 12.6782 106.012   1
  -5   7  -7-52.1627 62.6097   2
   5  -7   8 2844.65 373.380   6
  -5   7  -8 2711.13 332.525   2
   5  -7   8 2553.39 408.042   3
  -5   7  -8 2076.95 501.201   7
   5  -7   8 2523.00 382.626   1
   5  -7   9 7091.86 614.907   6
  -5   7  -9 7686.76 588.927   2
   5  -7   9 7823.08 674.605   1
  -5   7  -9 7999.52 962.893   7
  -5   7 -10 2492.71 360.964   2
   5  -7  10 2830.75 414.804   1
  -5   7 -10 2263.47 543.184   7
  -5   7 -11 141.632 279.097   7
  -5   7 -11-210.697 146.224   2
  -5   7 -12 7362.45 691.060   2
  -5   7 -12 6377.15 969.499   7
  -5   7 -13 303.828 310.894   7
  -5   7 -13 6.73740 72.6816   2
  -5   7 -14 14133.6 1052.41   2
  -5   7 -14 13871.5 1516.90   7
  -5   7 -15 1543.13 549.171   7
  -5   7 -15 1685.86 396.546   2
  -5   7 -16 328.481 282.590   7
  -5   7 -16 23.5847 120.668   2
  -5   7 -17-346.309 348.523   7
  -5   7 -17-169.729 177.658   2
  -5   7 -18 1553.76 561.775   7
   5  -6 -18-392.321 283.231   4
   5  -6 -17 486.251 315.621   4
   5  -6 -16 1052.24 477.697   4
   5  -6 -15 632.673 355.601   4
   5  -6 -14 287.567 283.709   4
   5  -6 -13 11414.1 1218.72   1
   5  -6 -13 11711.2 1071.90   3
   5  -6 -12 2392.23 490.168   3
   5  -6 -12 2334.51 564.606   1
   5  -6 -11 419.282 168.829   2
   5  -6 -11 85.5157 217.413   1
   5  -6 -11 64.6893 168.148   3
   5  -6 -10 7562.13 903.022   1
   5  -6 -10 8328.69 593.387   2
   5  -6 -10 8360.17 895.182   3
   5  -6  -9 9359.32 951.990   1
   5  -6  -9 10062.4 597.847   2
   5  -6  -9 9915.67 960.068   3
   5  -6  -8 1496.05 413.876   3
   5  -6  -8 1163.12 362.719   1
   5  -6  -8 1951.82 246.721   2
   5  -6  -7 1729.38 411.461   3
   5  -6  -7 1096.03 326.414   1
   5  -6  -7 1229.31 180.964   2
   5  -6  -6 19273.0 1198.37   1
   5  -6  -6 19784.9 1276.14   3
   5  -6  -5 80.1980 174.239   1
   5  -6  -5-84.3486 171.942   3
   5  -6  -4 1660.90 401.525   3
   5  -6  -4 2246.88 399.500   1
   5  -6  -3 8742.19 713.976   1
   5  -6  -3 8640.47 807.235   3
   5  -6  -2 621.298 268.155   3
   5  -6  -2 607.390 211.610   1
   5  -6  -1 1342.89 355.079   3
   5  -6  -1 824.459 233.834   1
   5  -6   0 320.526 215.865   3
   5  -6   0 786.912 215.184   1
   5  -6   1 31021.7 1131.86   1
   5  -6   1 29827.0 1417.65   3
   5  -6   2-84.0584 168.150   3
   5  -6   2 55.4450 92.5998   1
   5  -6   3-26.5027 144.326   3
   5  -6   3-152.478 93.1681   6
   5  -6   3 50.2022 84.1065   1
   5  -6   4-207.956 122.616   1
   5  -6   4 35.6211 93.2286   6
  -5   6  -4 45.2643 42.2098   2
   5  -6   4-29.5890 154.231   3
  -5   6  -4-184.582 231.990   7
   5  -6   5 306.542 164.136   3
   5  -6   5 697.930 190.612   1
   5  -6   5 408.685 140.393   6
  -5   6  -5 339.110 98.4490   2
  -5   6  -5 435.117 266.749   7
   5  -6   6 11092.8 687.254   6
  -5   6  -6 12526.9 585.396   2
   5  -6   6 13190.3 730.016   1
   5  -6   6 13088.8 888.872   3
  -5   6  -6 12679.5 1014.12   7
  -5   6  -7 634.733 302.454   7
   5  -6   7 786.074 233.460   3
   5  -6   7 939.538 211.371   6
   5  -6   7 744.933 198.848   1
  -5   6  -7 630.251 147.057   2
   5  -6   8-150.142 124.343   3
  -5   6  -8-174.388 280.300   7
  -5   6  -8 59.5312 93.0675   2
   5  -6   8 116.458 105.131   1
   5  -6   9-145.777 97.9155   1
  -5   6  -9-94.5917 88.8227   2
  -5   6 -10 1.53525 215.341   7
  -5   6 -10-83.7499 110.471   2
  -5   6 -11 2560.05 588.823   7
  -5   6 -11 3205.70 443.502   2
  -5   6 -12 409.582 319.693   7
  -5   6 -12-45.7524 105.489   2
  -5   6 -13 3167.15 705.308   7
  -5   6 -13 3210.17 474.855   2
  -5   6 -14 272.680 319.203   7
  -5   6 -14-68.1674 135.506   2
  -5   6 -15 9911.59 908.680   2
  -5   6 -15 9122.10 1216.67   7
  -5   6 -16 13962.5 1119.51   2
  -5   6 -16 16118.3 1649.53   7
  -5   6 -17 10103.3 1326.61   7
  -5   6 -17 10535.5 999.606   2
  -5   6 -18 227.577 247.061   7
  -5   6 -18 51.3844 191.106   2
   5  -5 -19 124.546 249.232   4
   5  -5 -18 2450.40 625.396   4
   5  -5 -17 2392.56 622.293   4
   5  -5 -16 4836.39 892.959   4
   5  -5 -15 411.357 299.431   4
   5  -5 -15 713.573 240.768   2
   5  -5 -14 3329.26 694.359   4
   5  -5 -14 3083.86 449.826   2
   5  -5 -13 1771.48 508.421   4
   5  -5 -13 1927.73 346.253   2
   5  -5 -13 1645.76 369.657   3
   5  -5 -12 607.987 257.953   3
   5  -5 -12 970.873 398.129   4
   5  -5 -12 864.704 229.330   2
   5  -5 -12 803.414 352.809   1
   5  -5 -11 2616.86 489.796   3
   5  -5 -11 3486.65 403.901   2
   5  -5 -11 3095.29 579.365   1
   5  -5 -10 6034.54 501.626   2
   5  -5 -10 6244.24 734.297   3
   5  -5 -10 5179.12 721.536   1
   5  -5  -9 271.026 205.862   3
   5  -5  -9 266.258 118.502   2
   5  -5  -9 401.610 219.793   1
   5  -5  -8 720.576 261.117   3
   5  -5  -8 758.340 153.651   2
   5  -5  -8 643.145 282.804   1
   5  -5  -7 4646.31 614.715   1
   5  -5  -7 6202.91 382.771   2
   5  -5  -7 6272.96 713.015   3
   5  -5  -6 48741.7 938.979   2
   5  -5  -6 44799.0 1763.06   1
   5  -5  -6 47418.4 1879.43   3
   5  -5  -5 15361.5 987.799   1
   5  -5  -5 15873.4 1080.53   3
   5  -5  -5 15677.9 444.358   2
   5  -5  -4 802.025 63.3775   2
   5  -5  -4 1198.62 301.609   1
   5  -5  -4 1155.82 312.981   3
   5  -5  -3-322.268 170.499   1
   5  -5  -3-0.91891 166.111   3
   5  -5  -2 177.745 168.163   3
   5  -5  -2 326.931 168.048   1
   5  -5  -1 558.105 174.730   1
   5  -5  -1 239.358 187.141   3
   5  -5   0 67028.8 1598.71   1
   5  -5   0 66612.6 2030.47   3
   5  -5   1 3894.71 375.308   1
   5  -5   1 3890.33 504.749   3
   5  -5   2 7656.93 497.330   6
   5  -5   2 7387.33 493.377   1
   5  -5   2 7049.86 657.445   3
   5  -5   3 2183.43 280.256   6
   5  -5   3 1781.16 349.479   3
   5  -5   3 1986.08 258.234   1
  -5   5  -3 2230.61 153.359   2
   5  -5   4 47930.6 1329.55   6
   5  -5   4 47499.4 1194.99   1
  -5   5  -4 44855.2 854.623   2
   5  -5   4 45758.6 1623.50   3
   5  -5   5 24548.0 991.067   6
  -5   5  -5 26121.0 755.574   2
   5  -5   5 26120.3 887.687   1
   5  -5   5 26268.8 1220.32   3
  -5   5  -5 25027.6 1286.35   7
   5  -5   6 13344.9 761.041   6
  -5   5  -6 14141.6 623.656   2
   5  -5   6 13878.3 668.137   1
   5  -5   6 14755.7 913.237   3
  -5   5  -6 12949.2 959.448   7
  -5   5  -7 11293.2 613.142   2
   5  -5   7 11870.2 632.814   1
   5  -5   7 10937.3 780.420   3
  -5   5  -7 11593.5 957.079   7
  -5   5  -8 8400.86 573.755   2
  -5   5  -8 8332.51 852.979   7
   5  -5   8 8146.99 543.841   1
   5  -5   8 8313.18 666.446   3
  -5   5  -9 9038.39 634.903   2
   5  -5   9 9910.20 702.209   3
  -5   5  -9 9615.68 953.566   7
  -5   5 -10 43224.2 1482.66   2
  -5   5 -10 39155.2 1994.12   7
  -5   5 -11 3171.09 628.318   7
  -5   5 -11 3378.74 454.791   2
  -5   5 -12 3907.65 704.836   7
  -5   5 -12 4766.69 564.101   2
  -5   5 -13 357.448 266.549   7
  -5   5 -13 34.0021 145.957   2
  -5   5 -14 17878.6 1183.70   2
  -5   5 -14 15642.7 1483.52   7
  -5   5 -15 81.9442 203.146   7
  -5   5 -15 68.1790 134.895   2
  -5   5 -16 9634.55 938.397   2
  -5   5 -16 9421.84 1222.49   7
  -5   5 -17-382.851 289.932   7
  -5   5 -17-291.956 207.796   2
  -5   5 -18 445.533 265.629   2
   5  -4 -19 1464.01 504.076   4
   5  -4 -18-582.881 334.321   4
   5  -4 -17 2257.16 561.919   4
   5  -4 -17 972.167 298.481   2
   5  -4 -16-301.433 236.629   4
   5  -4 -16-292.091 169.740   2
   5  -4 -15 953.310 409.743   4
   5  -4 -15 955.535 273.115   2
   5  -4 -14 106.462 210.774   4
   5  -4 -14 257.614 158.945   2
   5  -4 -13 150.129 135.456   3
   5  -4 -13 174.472 215.232   4
   5  -4 -13 215.658 139.863   2
   5  -4 -12 6200.74 578.320   2
   5  -4 -12 4920.13 785.695   4
   5  -4 -12 6268.62 701.092   3
   5  -4 -11 362.645 178.373   3
   5  -4 -11 610.927 317.832   4
   5  -4 -11 206.593 121.187   2
   5  -4 -11 265.151 229.188   1
   5  -4 -10 5287.90 720.026   1
   5  -4 -10 5330.01 467.297   2
   5  -4 -10 4737.86 607.474   3
   5  -4  -9 6258.74 747.424   1
   5  -4  -9 7303.14 506.408   2
   5  -4  -9 5933.77 677.458   3
   5  -4  -8 4006.03 345.114   2
   5  -4  -8 3848.34 541.594   3
   5  -4  -8 3616.08 540.262   1
   5  -4  -7 9578.26 827.846   1
   5  -4  -7 11077.4 520.930   2
   5  -4  -7 10659.0 872.140   3
   5  -4  -6 2836.09 238.446   2
   5  -4  -6 3010.86 479.044   3
   5  -4  -6 3141.19 469.495   1
   5  -4  -5 19078.5 525.859   2
   5  -4  -5 19042.6 1051.44   1
   5  -4  -5 16760.8 1056.01   3
   5  -4  -4 2100.56 351.397   1
   5  -4  -4 2611.46 435.687   3
   5  -4  -3 157.619 116.845   1
   5  -4  -3 213.490 211.636   3
   5  -4  -2 16455.8 835.574   1
   5  -4  -2 16474.1 1002.59   3
   5  -4  -1-18.1038 95.1116   1
   5  -4  -1 28.3799 151.694   3
   5  -4   0 94359.1 1769.76   1
   5  -4   0 94802.9 2344.91   3
   5  -4   1 3667.01 356.095   6
   5  -4   1 3793.08 334.535   1
   5  -4   1 3093.45 433.660   3
  -5   4  -2 5924.45 192.047   2
   5  -4   2 6557.08 412.425   1
   5  -4   2 6060.52 594.454   3
   5  -4   2 6687.75 480.312   6
   5  -4   3 2458.68 379.163   3
  -5   4  -3 2123.19 167.756   2
   5  -4   3 2320.94 234.371   1
   5  -4   3 2036.56 277.902   6
   5  -4   4 475.167 188.582   3
   5  -4   4 307.926 137.763   6
  -5   4  -4 460.092 99.9715   2
   5  -4   4 736.310 139.733   1
   5  -4   5 2933.45 406.817   3
   5  -4   5 2961.09 359.690   6
  -5   4  -5 3005.94 278.085   2
   5  -4   5 3143.52 264.250   1
  -5   4  -5 2859.09 418.529   7
   5  -4   6 272.382 158.845   3
   5  -4   6 189.391 80.4458   1
   5  -4   6 161.595 110.565   6
  -5   4  -6 175.111 93.5169   2
  -5   4  -6 426.290 215.043   7
  -5   4  -7 39664.1 1668.19   7
  -5   4  -7 36443.3 1139.40   2
   5  -4   7 38609.1 972.724   1
   5  -4   7 39126.9 1438.37   3
   5  -4   8 2706.69 379.738   3
  -5   4  -8 2411.35 450.561   7
  -5   4  -8 2887.70 348.283   2
  -5   4  -9 484.584 250.821   7
  -5   4  -9 828.609 207.071   2
   5  -4   9 299.013 140.139   3
  -5   4 -10 13791.2 857.833   2
  -5   4 -10 13876.3 1143.59   7
  -5   4 -11 9.91683 143.322   7
  -5   4 -11 33.4582 120.884   2
  -5   4 -12 93.1140 212.079   7
  -5   4 -12 161.873 163.646   2
  -5   4 -13 10395.8 873.136   2
  -5   4 -13 7496.13 970.882   7
  -5   4 -14 3207.27 668.812   7
  -5   4 -14 3421.37 527.809   2
  -5   4 -15 4121.35 609.359   2
  -5   4 -15 4894.29 840.300   7
  -5   4 -16 2048.55 546.211   7
  -5   4 -16 1195.68 368.952   2
  -5   4 -17 261.073 204.986   2
  -5   4 -18 645.993 297.366   2
  -5   4 -19 4128.25 695.308   2
   5  -3 -19-426.457 290.529   4
   5  -3 -19 56.9668 160.606   2
   5  -3 -18 4050.47 776.641   4
   5  -3 -18 3659.64 599.561   2
   5  -3 -17-386.477 279.462   4
   5  -3 -17 250.532 200.077   2
   5  -3 -16 5205.50 848.848   4
   5  -3 -16 3474.52 526.680   2
   5  -3 -15 757.384 338.666   4
   5  -3 -15 614.407 226.026   2
   5  -3 -14 2027.40 515.932   4
   5  -3 -14 2797.87 436.410   2
   5  -3 -13 222.539 239.293   4
   5  -3 -13 567.433 210.527   2
   5  -3 -12 53882.4 1696.91   2
   5  -3 -12 53328.8 2441.47   4
   5  -3 -12 52934.5 1914.49   3
   5  -3 -11 6729.83 564.838   2
   5  -3 -11 6605.55 856.204   4
   5  -3 -11 6730.88 687.927   3
   5  -3 -10 27.4707 130.680   3
   5  -3 -10 99.0452 83.5269   2
   5  -3 -10-4.01986 280.010   4
   5  -3  -9 428.706 197.490   3
   5  -3  -9 485.613 255.912   1
   5  -3  -9 471.236 152.033   2
   5  -3  -9 4.98869 249.983   4
   5  -3  -8 51396.1 1246.33   2
   5  -3  -8 47632.0 2018.66   4
   5  -3  -8 44829.2 1828.25   1
   5  -3  -8 48905.0 1799.62   3
   5  -3  -7 5106.60 362.059   2
   5  -3  -7 4454.96 571.196   1
   5  -3  -7 4235.76 531.320   3
   5  -3  -6 2827.77 434.370   3
   5  -3  -6 2962.17 254.835   2
   5  -3  -6 2790.84 422.227   1
   5  -3  -5 6828.94 617.834   1
   5  -3  -5 6260.49 334.295   2
   5  -3  -5 5273.55 592.751   3
   5  -3  -4 34328.4 1291.37   1
   5  -3  -4 32650.3 1407.29   3
   5  -3  -3 5719.99 500.398   1
   5  -3  -3 4768.18 539.041   3
   5  -3  -2 4352.91 413.437   1
   5  -3  -2 3735.31 477.984   3
   5  -3  -1 2505.74 395.915   3
   5  -3  -1 2582.46 300.114   1
   5  -3   0 2640.72 402.861   3
   5  -3   0 2741.32 284.925   1
   5  -3   1 68.5835 73.0026   1
   5  -3   1-8.15569 79.0629   6
  -5   3  -1 9.66110 16.8561   2
   5  -3   1 4.49481 120.862   3
   5  -3   2 93.4253 137.145   3
   5  -3   2 249.570 88.2322   1
  -5   3  -2-13.7688 27.7915   2
   5  -3   3 14792.2 743.664   6
   5  -3   3 14290.2 469.032   1
  -5   3  -3 13799.4 485.469   2
   5  -3   3 13558.5 861.978   3
   5  -3   4 1500.70 307.573   3
   5  -3   4 1268.45 131.779   1
  -5   3  -4 1491.58 188.456   2
   5  -3   4 1385.06 109.718   4
   5  -3   4 1319.59 237.011   6
   5  -3   5 677.285 217.866   3
   5  -3   5 710.306 91.5706   1
  -5   3  -5 449.860 125.094   2
   5  -3   5 702.580 194.051   6
   5  -3   6 32080.0 614.078   1
  -5   3  -6 33222.2 1029.31   2
   5  -3   6 32881.6 1322.28   3
  -5   3  -6 35670.3 1428.09   7
  -5   3  -7 10932.0 644.656   2
   5  -3   7 11044.3 766.577   3
  -5   3  -7 11937.7 875.643   7
  -5   3  -8 8267.33 596.541   2
   5  -3   8 8707.78 664.964   3
  -5   3  -8 9671.05 835.625   7
  -5   3  -9 233.009 159.348   7
  -5   3  -9 215.389 160.015   2
   5  -3   9 458.968 166.598   3
  -5   3 -10-98.8838 181.574   7
  -5   3 -10-160.972 140.199   2
  -5   3 -11 475.346 249.242   7
  -5   3 -11 267.428 147.095   2
  -5   3 -12 8837.95 780.720   2
  -5   3 -12 8409.14 951.199   7
  -5   3 -13 2270.74 532.861   7
  -5   3 -13 2352.98 434.701   2
  -5   3 -14 777.094 315.123   7
  -5   3 -14 679.729 268.112   2
  -5   3 -15 1011.81 396.330   7
  -5   3 -15 1138.61 336.505   2
  -5   3 -16 8065.08 882.668   2
  -5   3 -17 11.0414 134.742   2
  -5   3 -18 6605.43 841.953   2
  -5   3 -19 464.936 245.835   2
   5  -2 -20 152.571 204.076   4
   5  -2 -20 980.606 338.793   2
   5  -2 -19 538.930 326.008   4
   5  -2 -19 447.262 246.175   2
   5  -2 -18 660.660 328.565   4
   5  -2 -18-70.9818 95.6863   2
   5  -2 -17 2822.50 639.068   4
   5  -2 -17 2303.24 458.806   2
   5  -2 -16 1751.60 507.373   4
   5  -2 -16 1995.28 412.528   2
   5  -2 -15 1927.61 531.168   4
   5  -2 -15 2271.86 417.018   2
   5  -2 -14-425.693 278.525   4
   5  -2 -14 247.631 156.153   2
   5  -2 -13-235.158 237.645   4
   5  -2 -13 38.9897 122.060   2
   5  -2 -12 355.764 150.820   3
   5  -2 -12 304.331 246.784   4
   5  -2 -12 246.566 143.612   2
   5  -2 -11 5207.48 501.092   2
   5  -2 -11 5897.90 780.377   4
   5  -2 -11 5787.81 621.126   3
   5  -2 -10 614.586 224.456   3
   5  -2 -10 778.737 193.473   2
   5  -2 -10 751.217 271.981   4
   5  -2  -9 30215.8 1069.39   2
   5  -2  -9 31256.4 1663.46   4
   5  -2  -9 32650.2 1436.92   3
   5  -2  -8 2378.19 394.760   3
   5  -2  -8 2422.06 291.427   2
   5  -2  -8 2165.76 452.122   4
   5  -2  -7 17467.5 712.700   2
   5  -2  -7 16800.1 1117.81   4
   5  -2  -7 16582.4 1007.17   3
   5  -2  -6 4619.01 524.958   1
   5  -2  -6 5750.67 379.793   2
   5  -2  -6 4996.86 597.563   4
   5  -2  -6 5131.69 558.866   3
   5  -2  -5 122.311 67.9782   2
   5  -2  -5 133.211 131.202   3
   5  -2  -5-12.7585 128.515   4
   5  -2  -5-10.7327 120.391   1
   5  -2  -4 65042.5 1724.42   1
   5  -2  -4 65213.1 1911.08   4
   5  -2  -4 63269.9 1910.03   3
   5  -2  -3 14266.9 844.779   4
   5  -2  -3 14092.1 901.086   3
   5  -2  -3 14500.9 763.659   1
   5  -2  -2 57717.2 1404.98   1
   5  -2  -2 56718.6 1595.20   4
   5  -2  -2 53791.9 1738.94   3
   5  -2  -1 145.840 151.023   3
   5  -2  -1 308.369 134.102   4
   5  -2  -1 358.025 112.447   1
   5  -2   0 558.059 206.018   3
   5  -2   0 846.921 176.815   4
   5  -2   0 844.834 149.923   1
   5  -2   1 136974. 1519.40   1
   5  -2   1 135554. 1920.70   4
   5  -2   1 140155. 2742.63   3
   5  -2   2 15695.1 758.267   6
   5  -2   2 15148.1 389.169   1
   5  -2   2 15099.8 544.679   4
  -5   2  -2 15976.6 510.148   2
   5  -2   2 15547.8 918.720   3
   5  -2   3 2533.01 321.344   6
   5  -2   3 1950.07 340.902   3
   5  -2   3 2457.85 162.472   4
  -5   2  -3 2737.77 236.908   2
  -5   2  -4 812.350 147.073   2
   5  -2   4 969.632 258.871   3
   5  -2   4 650.235 180.673   6
  -5   2  -5 25271.7 851.712   2
   5  -2   5 25227.5 1168.90   3
   5  -2   5 24210.4 1037.46   6
   5  -2   6 59979.2 1793.63   3
  -5   2  -6 62933.9 1790.15   7
  -5   2  -7 12823.7 864.590   7
  -5   2  -7 12824.0 704.933   2
   5  -2   7 14345.6 878.213   3
  -5   2  -8 6668.62 546.026   2
   5  -2   8 6856.21 606.835   3
  -5   2  -8 6863.88 669.312   7
  -5   2  -9 1369.82 337.502   7
  -5   2  -9 727.883 207.614   2
   5  -2   9 1422.55 278.982   3
  -5   2 -10 6172.24 594.750   2
  -5   2 -10 5088.86 641.153   7
  -5   2 -11 1170.97 321.103   7
  -5   2 -11 2264.46 394.159   2
  -5   2 -12 8819.07 790.149   2
  -5   2 -12 8739.35 928.689   7
  -5   2 -13 14769.5 1067.39   2
  -5   2 -13 14271.7 1217.24   7
  -5   2 -14-177.681 185.681   7
  -5   2 -14 28.7095 154.144   2
  -5   2 -15-55.7534 183.044   2
  -5   2 -16-184.958 182.450   2
  -5   2 -17 2878.80 577.046   2
  -5   2 -18 32.5618 182.003   2
  -5   2 -19-100.152 187.099   2
   5  -1 -20 5948.61 946.192   4
   5  -1 -20 5419.13 772.759   2
   5  -1 -19 1596.20 501.877   4
   5  -1 -19 1063.10 339.416   2
   5  -1 -18 1031.59 436.092   4
   5  -1 -18 153.700 157.604   2
   5  -1 -17 2126.81 564.671   4
   5  -1 -17 2125.17 451.000   2
   5  -1 -16 1104.97 401.565   4
   5  -1 -16 875.167 289.810   2
   5  -1 -15-259.505 246.245   4
   5  -1 -15 57.6265 116.925   2
   5  -1 -14 6625.52 678.918   2
   5  -1 -14 8098.47 991.911   4
   5  -1 -13 2540.09 547.373   4
   5  -1 -13 1623.98 321.240   2
   5  -1 -12 151.584 130.168   3
   5  -1 -12-109.139 123.328   2
   5  -1 -11 1463.83 302.165   3
   5  -1 -11 1847.40 313.531   2
   5  -1 -11 1659.16 435.121   4
   5  -1 -10 208718. 3060.70   2
   5  -1 -10 204103. 4292.63   4
   5  -1 -10 208114. 3548.63   3
   5  -1  -9 11.6297 164.358   3
   5  -1  -9-10.0646 93.1661   2
   5  -1  -9 19.6352 208.678   4
   5  -1  -8 10247.2 608.116   2
   5  -1  -8 8558.96 826.645   4
   5  -1  -8 8460.65 714.200   3
   5  -1  -7 9772.53 842.662   4
   5  -1  -7 9841.80 562.805   2
   5  -1  -7 9337.16 743.194   3
   5  -1  -6 20069.8 753.141   2
   5  -1  -6 19082.7 849.196   5
   5  -1  -6 18987.3 1112.46   4
   5  -1  -6 16897.6 993.884   3
   5  -1  -5 686.078 220.647   3
   5  -1  -5 592.415 172.327   5
   5  -1  -5 624.945 215.574   4
   5  -1  -4 765.668 226.542   3
   5  -1  -4 790.498 190.481   5
   5  -1  -4 1099.02 271.916   4
   5  -1  -3 1055.22 258.316   3
   5  -1  -3 1397.07 247.185   5
   5  -1  -3 971.495 228.257   4
   5  -1  -2 10215.4 635.307   5
   5  -1  -2 10234.4 654.650   4
   5  -1  -2 9554.53 736.913   3
   5  -1  -1 123.709 147.287   3
   5  -1  -1-1.00246 70.8659   4
   5  -1   0 7028.86 525.409   5
   5  -1   0 7686.34 485.067   4
   5  -1   0 7602.30 533.359   6
   5  -1   0 7101.53 636.919   3
   5  -1   1 5609.21 461.663   6
   5  -1   1 5714.35 477.170   5
   5  -1   1 5794.15 377.499   4
   5  -1   1 5538.17 562.880   3
   5  -1   2 2553.82 326.608   6
   5  -1   2 2630.89 390.729   3
   5  -1   2 2825.24 222.903   4
   5  -1   2 2886.58 343.951   5
   5  -1   3 3887.81 403.924   6
   5  -1   3 4302.98 418.252   5
   5  -1   3 4163.66 176.268   4
   5  -1   3 4469.72 510.988   3
   5  -1   4 5319.23 492.848   6
   5  -1   4 5950.41 485.386   5
  -5   1  -4 6608.97 421.466   2
   5  -1   4 6688.75 619.261   3
   5  -1   5 20981.4 909.249   5
  -5   1  -5 20468.6 786.759   2
   5  -1   5 18778.6 934.409   6
   5  -1   5 20188.0 1058.21   3
  -5   1  -6 2262.47 283.597   2
   5  -1   6 2330.71 381.240   3
  -5   1  -6 2394.75 348.324   7
   5  -1   7 390.359 169.037   3
  -5   1  -7 561.279 167.682   2
  -5   1  -7 630.081 215.492   7
  -5   1  -8 6403.81 618.710   7
  -5   1  -8 6139.59 532.468   2
   5  -1   8 7000.04 623.675   3
  -5   1  -9 2624.62 420.940   7
   5  -1   9 2765.48 394.307   3
  -5   1  -9 2802.04 393.586   2
   5  -1  10 1370.58 267.088   3
  -5   1 -10 1237.31 276.519   2
  -5   1 -10 1400.43 333.141   7
  -5   1 -11 620.241 236.158   7
  -5   1 -11 1556.33 334.020   2
  -5   1 -12-35.5680 111.926   7
  -5   1 -12 182.378 190.282   2
  -5   1 -13 49.4513 162.390   2
  -5   1 -14 192.619 196.590   2
  -5   1 -15 596.874 281.532   2
  -5   1 -16 1235.65 379.514   2
  -5   1 -17 3628.83 645.229   2
  -5   1 -18 2669.08 551.668   2
   5   0 -20 632.116 340.345   4
   5   0 -20 929.412 340.876   2
   5   0 -19 8021.61 922.188   2
   5   0 -19 6593.48 990.636   4
   5   0 -18 2389.60 618.153   4
   5   0 -18 2184.12 487.807   2
   5   0 -17 9860.57 969.814   2
   5   0 -17 9417.73 1153.97   4
   5   0 -16 3666.46 707.071   4
   5   0 -16 4714.38 646.130   2
   5   0 -15 13705.5 1038.07   2
   5   0 -15 15961.9 1423.65   4
   5   0 -14 91.6213 211.455   4
   5   0 -14 217.702 168.507   2
   5   0 -13 5267.96 587.470   2
   5   0 -13 6520.04 855.492   4
   5   0 -12 8579.60 716.237   2
   5   0 -12 9248.10 991.152   4
   5   0 -12 7606.96 656.906   3
   5   0 -11 235.661 140.465   2
   5   0 -11 136.024 203.787   4
   5   0 -11 179.448 142.841   3
   5   0 -10 165.609 169.124   3
   5   0 -10 12.0564 110.961   2
   5   0 -10 160.926 193.924   4
   5   0  -9 27149.8 1024.03   5
   5   0  -9 26582.5 1072.13   2
   5   0  -9 24531.1 1444.18   4
   5   0  -9 25371.4 1237.46   3
   5   0  -8 25860.7 1003.96   5
   5   0  -8 23583.1 966.776   2
   5   0  -8 25103.1 1220.83   3
   5   0  -7 135548. 2331.91   5
   5   0  -7 140229. 2228.45   2
   5   0  -7 139141. 3107.88   4
   5   0  -7 135109. 2819.15   3
   5   0  -6 48006.1 1751.10   4
   5   0  -6 46618.3 1645.12   3
   5   0  -6 49442.9 1428.19   5
   5   0  -5 8461.96 608.793   5
   5   0  -5 8224.81 700.227   4
   5   0  -5 7506.67 668.184   3
   5   0  -4 2200.53 361.859   3
   5   0  -4 1936.06 308.252   5
   5   0  -4 1412.61 289.575   4
   5   0  -3 32996.0 1240.86   4
   5   0  -3 33317.2 1214.85   5
   5   0  -3 32038.2 1350.38   3
   5   0  -2 4397.96 455.111   5
   5   0  -2 4082.57 419.744   4
   5   0  -2 3740.35 464.127   3
   5   0  -1 8842.43 632.611   5
   5   0  -1 8998.07 571.228   4
   5   0  -1 8061.75 679.432   3
   5   0   0 3444.75 369.752   6
   5   0   0 2468.76 350.859   5
   5   0   0 2797.82 299.643   4
   5   0   0 3087.89 441.242   3
   5   0   1 11937.5 691.236   6
   5   0   1 11015.4 704.146   5
   5   0   1 11469.6 546.440   4
   5   0   1 11530.9 819.831   3
   5   0   2 36079.3 1210.16   6
   5   0   2 35613.4 1249.08   5
   5   0   2 35636.1 811.391   4
   5   0   2 37249.5 1466.25   3
   5   0   3 129124. 2385.01   5
   5   0   3 131684. 2367.04   6
   5   0   3 132561. 2758.37   3
   5   0   4 64979.0 1952.93   3
   5   0   4 59488.8 1658.13   6
   5   0   4 63931.9 1664.96   5
   5   0   5 5023.18 468.585   5
  -5   0  -5 5468.56 436.195   2
   5   0   5 4968.93 505.576   6
   5   0   5 5193.98 561.696   3
   5   0   6 10778.9 679.024   5
  -5   0  -6 10504.6 627.921   2
   5   0   6 9311.35 740.269   3
  -5   0  -6 10925.1 681.943   7
   5   0   7 891.813 211.345   5
  -5   0  -7 614.538 185.810   2
   5   0   7 572.955 207.413   3
  -5   0  -7 658.324 187.258   7
  -5   0  -8 37386.7 1335.83   2
   5   0   8 36961.0 1472.67   3
  -5   0  -8 39153.7 1437.07   7
  -5   0  -9 23981.0 1130.73   2
   5   0   9 25776.0 1195.69   3
  -5   0  -9 26304.0 1231.60   7
  -5   0 -10 608.146 219.101   7
  -5   0 -10 523.781 207.750   2
  -5   0 -11 11133.6 857.118   2
  -5   0 -11 10796.3 869.845   7
  -5   0 -12-189.668 179.411   2
  -5   0 -13 9391.14 876.765   2
  -5   0 -14 371.163 239.131   2
  -5   0 -15 974.385 341.881   2
  -5   0 -16 13578.0 1190.04   2
  -5   0 -17 535.423 313.128   2
  -5   0 -18 282.967 196.988   2
   5   1 -20 266.719 244.872   4
   5   1 -20 637.978 295.438   2
   5   1 -19 579.937 298.748   4
   5   1 -19 256.535 231.048   2
   5   1 -18 239.836 239.273   4
   5   1 -18-179.684 181.190   2
   5   1 -17 4372.00 802.725   4
   5   1 -17 3056.25 553.639   2
   5   1 -16 775.709 349.740   4
   5   1 -16 876.085 307.282   2
   5   1 -15 2751.85 609.161   4
   5   1 -15 2938.63 508.939   2
   5   1 -14 3572.62 686.494   4
   5   1 -14 2492.35 447.196   2
   5   1 -13 1113.56 399.537   4
   5   1 -13 820.975 245.191   2
   5   1 -12 1063.77 273.771   2
   5   1 -12 1209.04 361.332   4
   5   1 -11 14049.9 743.026   5
   5   1 -11 12452.1 840.644   2
   5   1 -11 12326.6 1109.57   4
   5   1 -11 13061.5 876.447   3
   5   1 -10 1745.23 277.300   5
   5   1 -10 1831.20 319.994   2
   5   1 -10 1430.33 393.985   4
   5   1 -10 1938.02 351.310   3
   5   1  -9 3359.27 391.496   5
   5   1  -9 2974.82 383.108   2
   5   1  -9 3382.79 536.128   4
   5   1  -9 3306.45 453.995   3
   5   1  -8 68349.3 1770.05   5
   5   1  -8 64030.6 1670.32   2
   5   1  -8 63496.2 2207.69   4
   5   1  -8 65381.2 1995.71   3
   5   1  -7 7718.65 613.737   5
   5   1  -7 7413.23 730.563   4
   5   1  -7 7801.79 691.944   3
   5   1  -6 1240.01 296.773   3
   5   1  -6 1039.33 248.107   5
   5   1  -6 1024.17 282.422   4
   5   1  -5 2033.89 345.011   5
   5   1  -5 1866.94 347.041   4
   5   1  -5 2025.20 363.950   3
   5   1  -4 3926.43 464.030   5
   5   1  -4 3862.08 461.751   4
   5   1  -4 3622.91 477.174   3
   5   1  -3-81.8082 123.545   5
   5   1  -3 67.7952 94.2205   4
   5   1  -3 16.5991 142.270   3
   5   1  -2 4303.99 493.560   5
   5   1  -2 4685.19 457.758   4
   5   1  -2 4697.63 533.403   3
   5   1  -1 31348.6 1282.56   5
   5   1  -1 31859.1 1107.29   4
   5   1  -1 30771.2 1358.24   3
   5   1   0 13321.9 730.214   6
   5   1   0 11997.9 805.241   5
   5   1   0 13440.5 674.414   4
   5   1   0 12233.9 869.510   3
   5   1   1 208.264 112.116   6
   5   1   1 354.961 175.908   5
   5   1   1 419.024 114.968   4
  -5  -1  -1 375.387 76.6542   1
   5   1   1 564.055 246.782   3
   5   1   2 40511.9 1310.26   6
   5   1   2 41885.8 940.054   4
   5   1   2 40940.2 1601.81   3
   5   1   2 39425.9 1428.98   5
   5   1   3 118542. 2299.62   6
   5   1   3 115581. 2439.77   5
   5   1   3 114354. 2676.30   3
   5   1   4 1790.44 316.881   6
   5   1   4 1797.46 321.513   5
   5   1   4 1930.73 371.014   3
   5   1   5 74297.9 1963.85   6
   5   1   5 72854.6 1890.03   5
   5   1   5 73698.4 2146.56   3
   5   1   6 76733.3 1926.96   5
  -5  -1  -6 78611.7 1809.79   2
   5   1   6 78493.5 2228.96   3
  -5  -1  -6 83327.3 1757.29   7
   5   1   7 9413.70 673.448   5
  -5  -1  -7 11061.9 683.405   7
  -5  -1  -7 10648.8 699.552   2
   5   1   7 10097.5 796.678   3
  -5  -1  -8 2033.67 339.697   2
   5   1   8 2184.20 329.541   5
  -5  -1  -8 2111.85 319.717   7
   5   1   8 2340.69 397.154   3
   5   1   9 5414.19 500.725   5
  -5  -1  -9 5354.13 557.868   2
  -5  -1  -9 5709.78 537.480   7
  -5  -1 -10 648.823 228.933   2
  -5  -1 -11 12306.8 918.458   2
  -5  -1 -12 181.143 209.863   2
  -5  -1 -13 7000.82 774.804   2
  -5  -1 -14 6.18004 146.501   2
  -5  -1 -15 2198.79 463.818   2
  -5  -1 -16 2513.42 531.469   2
  -5  -1 -17 762.262 325.560   2
  -5  -1 -18 5557.56 811.756   2
   5   2 -19 1635.56 498.373   4
   5   2 -19 1758.30 455.374   2
   5   2 -18 324.694 251.171   4
   5   2 -18 262.641 182.519   2
   5   2 -17 6465.21 814.273   2
   5   2 -17 7123.54 1014.71   4
   5   2 -16-110.426 195.752   4
   5   2 -16 5.14456 152.353   2
   5   2 -15 5133.68 810.150   4
   5   2 -15 4000.76 587.505   2
   5   2 -14 5779.40 684.519   2
   5   2 -14 5655.77 839.891   4
   5   2 -13 15262.6 1322.68   4
   5   2 -13 15675.3 1065.46   2
   5   2 -12 904.869 262.294   2
   5   2 -12 790.082 336.618   4
   5   2 -11 5396.15 580.998   2
   5   2 -11 6304.87 810.871   4
   5   2 -11 5635.86 575.959   3
   5   2 -11 4960.66 488.744   5
   5   2 -10 2925.69 395.529   5
   5   2 -10 2590.92 387.871   2
   5   2 -10 2955.42 532.500   4
   5   2 -10 3326.53 462.426   3
   5   2  -9 5649.67 556.335   5
   5   2  -9 5684.83 550.985   2
   5   2  -9 5726.06 709.670   4
   5   2  -9 5700.68 613.162   3
   5   2  -8 7359.19 772.293   4
   5   2  -8 7508.26 702.847   3
   5   2  -8 8119.03 682.263   5
   5   2  -7 16243.3 970.767   5
   5   2  -7 15702.9 1078.66   4
   5   2  -7 14360.4 967.123   3
   5   2  -6 10851.9 801.257   5
   5   2  -6 9823.20 825.341   4
   5   2  -6 10144.6 822.837   3
   5   2  -5 149727. 3033.82   4
   5   2  -5 143910. 3056.30   3
   5   2  -4 753.913 266.046   5
   5   2  -4 556.944 216.148   4
   5   2  -4 1067.98 300.217   3
   5   2  -3 13442.4 912.315   5
   5   2  -3 13005.3 824.918   4
   5   2  -3 14102.6 964.776   3
   5   2  -2 7481.20 691.833   5
   5   2  -2 7103.96 582.813   4
   5   2  -2 6244.18 648.906   3
   5   2  -1 10295.5 787.130   5
   5   2  -1 9845.96 645.016   4
   5   2  -1 8397.34 751.520   3
   5   2   0 4259.02 515.519   5
   5   2   0 4137.44 425.330   6
   5   2   0 4006.08 386.414   4
  -5  -2   0 3963.06 335.800   1
   5   2   0 3487.04 499.450   3
  -5  -2  -1 1178.07 154.191   1
   5   2   1 1042.47 231.749   6
   5   2   1 1134.79 303.061   5
   5   2   1 1156.03 193.389   4
   5   2   1 990.363 286.134   3
   5   2   2 25485.7 1232.01   5
  -5  -2  -2 24468.6 551.688   1
   5   2   2 24936.4 1288.55   3
   5   2   2 25343.7 1057.63   6
   5   2   3 39888.0 1380.35   6
   5   2   3 36522.3 1460.80   5
   5   2   3 38753.7 1620.41   3
   5   2   4 55613.3 1676.60   6
   5   2   4 53068.3 1745.77   5
   5   2   4 54441.5 1926.24   3
   5   2   5 16105.5 970.955   5
   5   2   5 16556.5 953.523   6
   5   2   5 16445.2 1060.84   3
   5   2   6 5697.46 571.305   5
   5   2   6 4463.33 565.628   3
  -5  -2  -6 5163.36 405.395   7
  -5  -2  -7 31224.0 1265.53   2
   5   2   7 30249.3 1445.63   3
   5   2   7 30335.0 1300.49   5
  -5  -2  -7 32415.7 1046.02   7
  -5  -2  -8 1503.14 308.038   2
   5   2   8 1780.58 317.865   5
   5   2   9 221.242 120.549   5
  -5  -2  -9 86.6959 128.761   2
  -5  -2 -10 283.094 187.770   2
  -5  -2 -11 310.013 217.647   2
  -5  -2 -12-49.9384 152.967   2
  -5  -2 -13 1829.04 426.912   2
  -5  -2 -14 268.219 237.035   2
  -5  -2 -15-117.467 177.165   2
  -5  -2 -16 348.787 243.644   2
  -5  -2 -17 7249.52 924.072   2
   5   3 -19 5613.03 939.783   4
   5   3 -19 2736.15 563.544   2
   5   3 -18 718.155 357.850   4
   5   3 -18 136.359 179.167   2
   5   3 -17-134.776 234.108   4
   5   3 -17-560.407 279.143   2
   5   3 -16 6716.28 977.381   4
   5   3 -16 5652.62 748.825   2
   5   3 -15 57.9505 212.285   4
   5   3 -15-140.077 178.515   2
   5   3 -14 289.964 195.877   2
   5   3 -14-118.041 192.683   4
   5   3 -13 12655.2 991.922   2
   5   3 -13 12979.3 1234.37   4
   5   3 -12 24027.8 1111.02   5
   5   3 -12 22540.2 1272.08   2
   5   3 -11 5963.60 587.400   5
   5   3 -11 5674.17 615.693   2
   5   3 -11 7022.07 848.484   4
   5   3 -11 7180.91 652.784   3
   5   3 -10 16717.3 1016.54   5
   5   3 -10 17503.4 1303.12   4
   5   3 -10 19064.1 1109.70   3
   5   3  -9 31.2930 120.430   5
   5   3  -9-52.5328 153.852   4
   5   3  -9 83.3012 124.734   3
   5   3  -8 51.7858 113.971   5
   5   3  -8 13.6173 137.052   4
   5   3  -8-217.611 158.922   3
   5   3  -7 125.015 118.022   5
   5   3  -7 72.7501 156.831   4
   5   3  -7 106.720 176.055   3
   5   3  -6 7199.31 703.156   5
   5   3  -6 6424.03 683.055   4
   5   3  -6 6618.30 680.111   3
   5   3  -5 1340.52 326.259   5
   5   3  -5 1503.73 339.628   4
   5   3  -5 1332.77 316.133   3
   5   3  -4 2746.46 465.389   5
   5   3  -4 2422.06 394.638   4
   5   3  -4 2691.02 454.531   3
   5   3  -3 22167.6 1243.73   5
   5   3  -3 21130.5 1075.36   4
   5   3  -3 21287.6 1232.25   3
   5   3  -2 23660.9 1277.84   5
   5   3  -2 23819.0 1085.42   4
   5   3  -2 23986.4 1305.69   3
   5   3  -1 2052.19 406.554   5
  -5  -3   1 1942.66 287.220   1
   5   3  -1 2246.10 321.455   4
   5   3  -1 2263.44 422.868   3
   5   3   0 995.186 302.048   5
   5   3   0 1029.93 226.699   6
   5   3   0 1190.87 232.897   4
   5   3   0 1375.85 354.579   3
  -5  -3   0 879.749 189.902   1
   5   3   1 40257.9 1656.12   5
   5   3   1 43313.1 1234.87   4
  -5  -3  -1 40767.5 1076.28   1
   5   3   1 41938.2 1748.70   3
   5   3   1 42054.7 1367.62   6
  -5  -3  -2 518.219 110.092   1
   5   3   2 262.626 173.521   5
   5   3   2 220.390 239.714   3
   5   3   2 418.092 154.179   6
  -5  -3  -3 13648.4 482.676   1
   5   3   3 12962.1 936.875   5
   5   3   3 14111.7 840.588   6
   5   3   3 13820.4 1008.12   3
   5   3   4 2495.51 387.580   6
   5   3   4 2643.92 434.800   5
  -5  -3  -4 2368.72 193.428   1
   5   3   4 2344.54 434.062   3
   5   3   5 22428.2 1142.20   6
   5   3   5 21494.5 1195.88   5
   5   3   5 19782.4 1218.69   3
   5   3   6 130.747 135.071   5
   5   3   6 204.350 175.088   6
   5   3   7 8775.06 758.070   5
  -5  -3  -8 17194.5 1019.36   2
   5   3   8 15867.9 1000.94   5
  -5  -3  -9 16409.2 1028.93   2
   5   3   9 17122.0 1010.99   5
  -5  -3 -10 998.751 308.345   2
  -5  -3 -11 2579.70 455.995   2
  -5  -3 -12 132.344 174.082   2
  -5  -3 -13 3841.50 609.596   2
  -5  -3 -14 1055.30 344.021   2
  -5  -3 -15 2992.86 596.804   2
  -5  -3 -16 7410.55 924.875   2
  -5  -3 -17 2085.43 494.517   2
   5   4 -19 560.112 295.450   2
   5   4 -19 162.397 197.899   4
   5   4 -18 78.8516 142.257   2
   5   4 -18-134.025 142.751   4
   5   4 -17 404.928 245.270   2
   5   4 -17 543.280 316.877   4
   5   4 -16 662.918 293.185   2
   5   4 -16 310.149 352.891   4
   5   4 -15 137.846 186.525   2
   5   4 -15 2110.55 549.002   4
   5   4 -14 3993.81 593.743   2
   5   4 -14 3952.20 748.620   4
   5   4 -13 6660.11 916.948   4
   5   4 -12 594.472 217.666   5
   5   4 -12 685.985 295.494   4
   5   4 -11 5727.36 630.086   5
   5   4 -11 6818.14 860.004   4
   5   4 -10 2745.18 460.690   5
   5   4 -10 2504.10 535.538   4
   5   4 -10 3478.95 488.882   3
   5   4  -9 32.5624 127.108   5
   5   4  -9 41.9938 195.541   4
   5   4  -9 93.9219 133.198   3
   5   4  -8-55.0620 141.574   5
   5   4  -8-171.759 175.523   4
   5   4  -8 1.96867 120.628   3
   5   4  -7 11799.2 945.245   5
   5   4  -7 10362.1 917.512   4
   5   4  -7 11695.4 929.411   3
   5   4  -6 5481.38 652.947   4
   5   4  -6 4411.58 577.243   3
   5   4  -6 5227.92 645.794   5
   5   4  -5 3391.58 516.785   5
   5   4  -5 3189.76 481.491   4
   5   4  -5 3573.73 527.651   3
   5   4  -4-54.1523 183.336   5
   5   4  -4 5.24584 128.326   4
   5   4  -4 86.9361 152.794   3
   5   4  -3 14694.1 922.778   4
   5   4  -3 13857.3 1050.39   5
   5   4  -3 14576.9 1054.00   3
   5   4  -2 12668.3 1002.52   5
   5   4  -2 13479.9 847.987   4
   5   4  -2 12633.5 993.743   3
  -5  -4   2 12930.3 810.823   1
   5   4  -1 9.63582 205.709   5
  -5  -4   1 183.903 120.978   1
   5   4  -1 150.722 122.937   4
   5   4  -1 101.255 206.544   3
   5   4   0 1037.19 312.218   5
   5   4   0 1022.42 214.683   4
  -5  -4   0 547.969 179.178   1
   5   4   0 1074.66 361.050   3
   5   4   1 1010.76 307.780   5
   5   4   1 1206.21 247.570   6
  -5  -4  -1 903.599 200.569   1
   5   4   1 1390.71 384.469   3
   5   4   2 3658.89 427.797   6
   5   4   2 3694.97 568.395   5
  -5  -4  -2 4164.74 349.283   1
   5   4   2 3415.29 545.096   3
   5   4   3 1856.36 416.856   5
  -5  -4  -3 2508.95 259.374   1
   5   4   3 2231.12 343.949   6
   5   4   3 1899.74 426.159   3
   5   4   4 5968.33 687.517   5
  -5  -4  -4 6438.64 401.728   1
   5   4   4 6536.58 601.656   6
   5   4   5 32572.3 1399.04   6
   5   4   5 31533.7 1544.86   5
   5   4   6 8074.62 729.960   6
   5   4   6 8198.14 789.901   5
   5   4   7 5231.27 636.750   5
   5   4   7 4637.71 574.816   6
   5   4   8 3361.62 514.086   5
  -5  -4  -8 2533.81 431.507   2
   5   4   9 131.415 140.838   5
  -5  -4  -9 104.973 176.590   2
  -5  -4 -10 59.1147 137.874   2
  -5  -4 -11 2670.30 486.655   2
  -5  -4 -12 425.757 228.720   2
  -5  -4 -13 1900.37 448.535   2
  -5  -4 -14 823.481 322.302   2
  -5  -4 -15 12225.0 1167.92   2
  -5  -4 -16 5082.61 778.586   2
   5   5 -18 416.410 279.308   4
   5   5 -17 5555.16 911.178   4
   5   5 -16 4539.64 812.786   4
   5   5 -15 325.069 247.374   4
   5   5 -14 14258.7 1353.49   4
   5   5 -13 4942.13 782.097   4
   5   5 -12 5507.73 643.672   5
   5   5 -12 5183.62 766.953   4
   5   5 -11 33.9015 86.0284   5
   5   5 -11 8.93918 163.752   4
   5   5 -10 16263.9 1157.20   5
   5   5 -10 16499.0 1304.74   4
   5   5  -9 280.635 192.792   5
   5   5  -9 110.139 162.989   4
   5   5  -8 24243.8 1423.68   5
   5   5  -8 25604.0 1522.42   4
   5   5  -7 15845.5 1159.34   5
   5   5  -7 17089.5 1198.62   4
   5   5  -7 18650.2 1222.43   3
   5   5  -6 17578.8 1175.89   4
   5   5  -6 18769.5 1230.98   3
   5   5  -6 16350.7 1190.72   5
   5   5  -5 3411.30 556.663   5
   5   5  -5 3025.97 480.741   4
   5   5  -5 3037.67 494.868   3
   5   5  -4 22819.4 1404.44   5
   5   5  -4 23521.8 1253.54   4
   5   5  -4 24583.3 1422.75   3
   5   5  -3 577.379 278.445   5
   5   5  -3 539.344 209.429   4
  -5  -5   3 312.377 188.400   1
   5   5  -3 698.842 296.254   3
   5   5  -2 8365.53 694.872   4
  -5  -5   2 8211.01 693.720   1
   5   5  -2 7622.55 812.723   3
   5   5  -2 7683.11 829.064   5
   5   5  -1 17119.5 1246.60   5
   5   5  -1 17484.9 977.439   4
  -5  -5   1 18309.6 987.020   1
   5   5  -1 18739.1 1271.25   3
   5   5   0 53462.5 2175.48   5
  -5  -5   0 55325.9 1642.82   1
   5   5   0 55129.7 2170.56   3
   5   5   1 4805.73 478.061   6
   5   5   1 4567.38 671.197   5
  -5  -5  -1 4795.27 457.574   1
   5   5   2 14404.9 851.513   6
   5   5   2 12703.2 1060.71   5
  -5  -5  -2 13735.6 721.840   1
   5   5   3 8068.16 657.586   6
   5   5   3 9659.24 945.814   5
  -5  -5  -3 10779.9 613.021   1
   5   5   4 110.965 176.276   5
   5   5   4 134.530 125.447   6
   5   5   5 2677.38 419.903   6
   5   5   5 2216.55 465.958   5
   5   5   6 371.672 242.153   5
   5   5   6 801.370 254.728   6
   5   5   7 4779.08 599.139   6
   5   5   7 4170.80 605.074   5
   5   5   8 63.2131 140.622   5
  -5  -5  -8 264.729 182.828   2
   5   5   8 6.63252 134.246   6
  -5  -5  -9 268.835 164.222   2
   5   5   9-83.4831 130.834   6
   5   5   9-291.001 197.484   5
  -5  -5 -10 16257.0 1152.44   2
  -5  -5 -11 909.023 332.680   2
  -5  -5 -12 261.547 240.732   2
  -5  -5 -13 958.226 328.953   2
  -5  -5 -14 833.893 337.756   2
  -5  -5 -15 703.717 340.138   2
   5   6 -17 1540.44 517.426   4
   5   6 -16 161.952 212.773   4
   5   6 -15 1055.09 386.324   4
   5   6 -14 324.172 254.326   4
   5   6 -13-197.881 222.738   4
   5   6 -12 73.6603 150.258   5
   5   6 -12-650.905 304.140   4
   5   6 -11-419.866 222.618   5
   5   6 -11-104.273 188.061   4
   5   6 -10 6458.19 831.924   4
   5   6 -10 6631.39 790.386   5
   5   6  -9-45.6339 141.982   5
   5   6  -9 190.617 185.972   4
   5   6  -8 43.5887 127.330   5
   5   6  -8 10.1687 102.967   4
   5   6  -7 408.622 301.113   5
   5   6  -7 185.443 182.070   4
   5   6  -6 1276.95 393.540   5
   5   6  -6 1057.18 328.900   4
   5   6  -5 3235.18 585.424   5
   5   6  -5 3130.43 504.561   4
  -5  -6   5 2909.15 502.156   1
  -5  -6   4 2049.83 420.036   1
   5   6  -4 1452.12 416.819   5
   5   6  -4 1632.55 360.704   4
   5   6  -3 363.013 285.595   5
  -5  -6   3 354.034 206.355   1
   5   6  -3 410.801 227.124   4
   5   6  -2 1898.30 477.591   5
  -5  -6   2 1289.26 309.660   1
  -5  -6   1-72.9562 119.731   1
   5   6  -1 289.516 295.935   5
   5   6   0 2402.85 528.371   5
  -5  -6   0 3291.45 437.991   1
   5   6   1 2160.54 500.701   5
  -5  -6  -1 2404.84 361.420   1
   5   6   2 5077.03 523.141   6
   5   6   2 6368.80 825.333   5
  -5  -6  -2 7111.49 579.036   1
   5   6   3 1324.21 401.767   5
   5   6   3 1529.91 312.083   6
  -5  -6  -3 1673.68 278.577   1
   5   6   4 1818.91 344.895   6
   5   6   4 1384.97 417.657   5
   5   6   5 2932.08 563.503   5
   5   6   5 2216.87 391.624   6
   5   6   6 10655.9 875.716   6
   5   6   6 11089.7 1057.73   5
   5   6   7 2074.16 406.942   6
   5   6   7 3951.52 638.160   5
   5   6   8 693.381 303.420   5
   5   6   8 102.796 143.183   6
  -5  -6  -9 205.865 174.859   2
   5   6   9-66.4974 150.475   6
   5   6   9-87.0043 161.115   5
  -5  -6 -10 4924.38 684.322   2
   5   6  10 3726.89 604.671   6
   5   6  11 361.419 244.810   6
  -5  -6 -11 1045.05 346.377   2
  -5  -6 -12 648.939 275.619   2
   5   6  12 611.287 277.737   6
  -5  -6 -13 939.720 323.054   2
   5   6  13 390.418 233.773   6
   5   6  14 2337.59 531.298   6
  -5  -6 -14 2407.89 561.829   2
   5   6  15 1164.26 376.961   6
  -5  -6 -15 1827.21 461.750   2
   5   7 -17 439.085 279.343   4
   5   7 -16 2580.81 631.281   4
   5   7 -15 1207.04 417.856   4
   5   7 -14 894.048 374.492   4
   5   7 -13 228.944 219.367   4
   5   7 -12 6315.99 767.829   5
   5   7 -12 7207.35 933.659   4
   5   7 -11 3497.24 597.081   5
   5   7 -11 3965.27 700.385   4
   5   7 -10 1365.69 404.616   5
   5   7 -10 1107.59 364.588   4
   5   7  -9 1547.57 419.677   5
   5   7  -9 1325.69 402.704   4
   5   7  -8 18791.0 1417.35   5
   5   7  -8 20866.8 1416.77   4
  -5  -7   7 228.151 214.512   1
   5   7  -7 641.719 316.776   5
   5   7  -7 715.789 283.126   4
   5   7  -6 2951.88 577.663   5
  -5  -7   6 2660.68 533.380   1
   5   7  -6 3284.78 558.896   4
   5   7  -5 3861.44 659.114   5
   5   7  -5 4774.84 636.844   4
  -5  -7   5 4760.74 678.346   1
   5   7  -4 22102.9 1571.87   5
  -5  -7   4 27329.1 1525.99   1
   5   7  -3-423.209 300.271   5
  -5  -7   3 319.363 220.322   1
   5   7  -2 24167.1 1662.88   5
  -5  -7   2 26901.1 1414.45   1
   5   7  -1 2205.31 535.528   5
  -5  -7   1 1930.37 380.990   1
  -5  -7   0 17068.8 1048.01   1
   5   7   0 12947.5 1247.60   5
   5   7   1 2434.34 560.356   5
  -5  -7  -1 2662.14 416.715   1
  -5  -7  -2 1416.35 302.728   1
   5   7   2 1973.41 516.933   5
   5   7   3 1063.01 252.139   6
   5   7   3 1451.11 430.926   5
  -5  -7  -3 964.864 236.172   1
   5   7   4 2071.62 364.257   6
   5   7   4 1636.64 471.907   5
   5   7   5 2313.43 548.644   5
   5   7   5 1501.59 315.524   6
   5   7   6 10480.5 862.225   6
   5   7   6 10673.8 1119.58   5
   5   7   7-13.7769 116.107   6
   5   7   7 230.370 217.777   5
   5   7   8 3311.59 606.707   5
   5   7   8 3969.42 579.985   6
  -5  -7  -9 302.771 215.762   2
   5   7   9 127.405 149.666   6
   5   7  10 483.779 225.637   6
  -5  -7 -10 383.917 214.371   2
  -5  -7 -11 1694.68 440.585   2
   5   7  11 1888.71 441.632   6
  -5  -7 -12 2487.29 565.574   2
   5   7  12 1721.21 428.917   6
   5   7  13 123.256 179.147   6
  -5  -7 -13-153.296 205.186   2
   5   7  14 2156.13 506.168   6
   5   8 -16 4441.31 781.223   4
   5   8 -15-20.5381 158.144   4
   5   8 -14 4792.67 800.343   4
   5   8 -13 1132.66 408.811   4
   5   8 -12-316.971 200.012   5
   5   8 -12 141.248 185.705   4
  -5  -8  11-249.842 262.275   1
   5   8 -11-328.834 231.597   5
   5   8 -11 61.2767 150.047   4
   5   8 -10 10972.9 1136.12   5
   5   8 -10 11642.1 1160.84   4
  -5  -8  10 14045.8 1415.39   1
   5   8  -9 1571.49 476.591   5
   5   8  -9 1565.59 429.161   4
  -5  -8   9 1903.71 530.184   1
  -5  -8   8 4236.49 760.611   1
   5   8  -8 3733.39 682.388   5
   5   8  -8 3904.56 639.158   4
   5   8  -7 4272.79 746.827   5
   5   8  -7 5110.00 707.565   4
  -5  -8   7 5615.58 818.563   1
  -5  -8   6 1936.73 474.566   1
   5   8  -6 1615.71 487.496   5
   5   8  -5-42.7935 247.881   5
  -5  -8   5 84.7951 150.742   1
   5   8  -4 1099.69 383.783   5
  -5  -8   4 1008.79 339.881   1
  -5  -8   3 3762.85 587.929   1
   5   8  -3 3736.90 713.824   5
   5   8  -2 1503.13 495.436   5
  -5  -8   2 1482.90 376.516   1
   5   8  -1 545.724 325.182   5
  -5  -8   1 692.846 261.725   1
   5   8   0 62.9516 242.297   5
  -5  -8   0 320.441 192.819   1
   5   8   1 5893.32 905.233   5
  -5  -8  -1 7050.93 690.396   1
  -5  -8  -2 674.862 222.724   1
   5   8   2 1119.52 448.622   5
   5   8   3 5544.60 876.275   5
   5   8   4 36.6350 348.093   5
   5   8   4 58.0255 94.5202   6
   5   8   5 1072.75 284.942   6
   5   8   5 925.211 400.688   5
   5   8   6-75.2931 90.6929   6
   5   8   6 80.9583 269.275   5
   5   8   7 2799.10 470.034   6
   5   8   7 3937.52 713.854   5
   5   8   8 1055.24 370.607   5
   5   8   8 1230.46 337.732   6
  -5  -8  -9 152.368 210.723   2
   5   8   9 560.938 234.584   6
  -5  -8 -10 11.5763 236.084   2
   5   8  10 55.1993 100.618   6
  -5  -8 -11 269.294 219.569   2
  -5  -8 -12 1872.35 490.939   2
   5   9 -14 866.876 363.746   4
  -5  -9  14-23.2254 187.495   1
   5   9 -13 7295.48 979.838   4
  -5  -9  13 8697.97 1280.51   1
   5   9 -12 2768.53 578.426   5
  -5  -9  12 4363.82 883.524   1
   5   9 -12 4315.37 731.464   4
  -5  -9  11 4905.94 904.103   1
   5   9 -11 3929.20 721.152   5
   5   9 -11 4400.01 735.501   4
   5   9 -10 11302.4 1217.61   5
  -5  -9  10 15304.3 1522.79   1
   5   9  -9 324.146 264.623   5
  -5  -9   9 147.926 263.732   1
   5   9  -8 2873.04 659.739   5
  -5  -9   8 2988.20 662.395   1
   5   9  -7 3025.43 646.377   5
  -5  -9   7 2485.97 611.078   1
   5   9  -6 9088.83 1113.33   5
  -5  -9   6 10985.2 1132.03   1
   5   9  -5 1071.55 389.442   5
  -5  -9   5 1158.54 386.734   1
   5   9  -4 1038.29 432.762   5
  -5  -9   4 1416.01 420.947   1
   5   9  -3-353.011 325.689   5
  -5  -9   3-257.012 207.907   1
   5   9  -2 89.6237 315.193   5
  -5  -9   2 809.336 296.409   1
   5   9  -1 370.024 345.748   5
  -5  -9   1 414.552 238.480   1
   5   9   0 3084.33 730.856   5
  -5  -9   0 3490.60 546.062   1
  -5  -9  -1 2522.86 456.302   1
   5   9   1 1807.59 561.092   5
   5   9   2 1077.54 474.957   5
   5   9   3 717.463 401.335   5
   5   9   4 1433.81 480.808   5
   5   9   5 982.212 417.373   5
   5   9   6 883.952 413.497   5
   5   9   7 153.288 244.352   5
   5   9   8 2704.19 636.373   5
  -5  -9  -8 3046.30 571.448   2
  -5  -9  -9-28.6744 169.486   2
  -5  -9 -10 247.935 239.872   2
  -5  -9 -11 28.8953 201.551   2
  -5 -10  13 3987.32 862.545   1
  -5 -10  12 5114.02 978.330   1
  -5 -10  11-467.173 288.987   1
   5  10 -11 24.4820 197.220   5
   5  10 -10-297.281 264.036   5
  -5 -10  10-341.139 295.695   1
   5  10  -9 796.164 385.242   5
  -5 -10   9 698.864 438.817   1
   5  10  -8 3378.69 733.343   5
  -5 -10   8 4048.96 771.262   1
   5  10  -7 885.577 459.611   5
  -5 -10   7 744.597 275.086   1
   5  10  -6 9480.40 1206.32   5
  -5 -10   6 6947.02 940.282   1
  -5 -10   5 340.420 311.689   1
   5  10  -5 156.494 186.284   5
   5  10  -4 681.026 440.275   5
  -5 -10   4 1007.62 374.397   1
   5  10  -3 5729.22 979.225   5
  -5 -10   3 6039.71 807.943   1
   5  10  -2 368.429 338.187   5
  -5 -10   2 270.278 223.119   1
   5  10  -1 742.999 402.144   5
  -5 -10   1 950.023 359.133   1
  -5 -10   0 497.947 246.398   1
   5  10   0 599.434 364.928   5
   5  10   1 13.4833 290.135   5
   5  10   2 786.942 447.611   5
   5  10   3 12665.7 1457.34   5
   5  10   4 1663.77 554.381   5
   5  10   5 523.112 395.632   5
   5  10   6 332.194 332.610   5
   5  10   7-56.5233 154.111   5
  -5 -10  -8 363.482 292.410   2
  -5 -10  -9 1978.59 517.117   2
   5  11 -11 7010.40 1039.39   5
  -5 -11  11 8684.05 1228.77   1
   5  11 -10 7792.86 1099.75   5
  -5 -11  10 11488.0 1378.75   1
   5  11  -9 265.867 276.775   5
  -5 -11   9 559.794 313.495   1
  -5 -11   8 4836.76 839.875   1
   5  11  -8 4343.41 854.771   5
  -5 -11   7 808.534 390.163   1
   5  11  -7-250.186 264.845   5
   5  11  -6-645.253 401.307   5
  -5 -11   6 1004.62 376.975   1
   5  11  -5 2641.87 708.614   5
  -5 -11   5 3345.74 653.023   1
   5  11  -4-562.751 384.980   5
  -5 -11   4 240.685 221.483   1
   5  11  -3-379.841 433.044   5
  -5 -11   3 197.166 202.324   1
   5  11  -2 19.4685 267.452   5
  -5 -11   2 331.989 263.630   1
   5  11  -1 39.1769 432.353   5
  -5 -11   1 183.466 186.170   1
   5  11   0 5648.43 999.114   5
   5  11   1 479.420 372.833   5
   5  11   2 7172.33 1160.79   5
   5  11   3 5401.37 1033.17   5
   5  11   4 150.111 230.184   5
   5  11   5-781.662 456.348   5
   5  11   6 186.034 302.224   5
   5  11   7-71.1834 195.840   5
   5  12  -8 2090.01 623.623   5
  -5 -12   8 1215.90 432.749   1
   5  12  -7-275.194 234.846   5
  -5 -12   7-23.6015 157.777   1
   5  12  -6-468.493 303.332   5
  -5 -12   6-688.855 342.109   1
   5  12  -5 477.572 359.745   5
  -5 -12   5 2213.02 545.941   1
   5  12  -4 922.735 472.767   5
  -5 -12   4 746.253 336.285   1
   5  12  -3 658.621 422.432   5
  -5 -12   3 1648.09 454.703   1
   5  12  -2-492.087 402.412   5
  -5 -12   2-634.777 289.977   1
   5  12  -1 5403.80 1041.32   5
   5  12   0 2.60918 185.893   5
   5  12   1 166.481 311.333   5
   5  12   2 6066.37 1090.34   5
   5  12   3 1528.64 607.274   5
   5  12   4 849.164 425.745   5
   6 -15  -3 1000.82 439.929   3
   6 -15  -3 1403.14 510.981   1
   6 -15  -2 784.767 411.475   3
   6 -15  -2 564.591 328.257   1
   6 -15  -1-124.508 196.230   1
   6 -15  -1-154.158 227.638   3
   6 -15   0 280.686 252.268   3
   6 -15   0-72.4956 136.660   1
   6 -15   1 3301.98 769.627   3
   6 -15   1 3299.99 696.447   1
   6 -15   2 3455.14 787.639   3
   6 -15   2 4470.10 823.402   1
   6 -15   3 724.926 347.788   1
   6 -15   3 788.166 406.402   3
   6 -15   4-205.634 221.286   3
  -6  15  -4 228.438 347.672   7
   6 -15   4 574.952 299.406   1
  -6  15  -5 2393.11 743.895   7
   6 -15   5 2231.96 549.763   1
  -6  15  -6 642.986 419.331   7
   6 -15   6-105.743 217.957   1
   6 -14  -7-457.740 306.934   1
   6 -14  -7-78.0095 216.427   3
   6 -14  -6 2451.81 659.434   3
   6 -14  -6 1982.71 547.395   1
   6 -14  -5 4011.85 846.898   3
   6 -14  -5 3358.65 726.947   1
   6 -14  -4 1071.75 479.711   3
   6 -14  -4 1200.33 427.794   1
   6 -14  -3-249.381 277.078   3
   6 -14  -3-80.3768 188.215   1
   6 -14  -2-586.448 335.421   3
   6 -14  -2 122.927 213.350   1
   6 -14  -1-546.971 359.289   3
   6 -14  -1 161.547 277.074   1
   6 -14   0 643.881 377.320   3
   6 -14   0 723.430 327.690   1
  -6  14  -1-89.4976 149.505   7
   6 -14   1-73.8549 252.598   3
   6 -14   1-22.5926 179.500   1
  -6  14  -2 121.441 258.008   7
   6 -14   2 848.684 434.375   3
   6 -14   2 1251.76 422.104   1
   6 -14   3 277.724 261.125   3
  -6  14  -3-69.3399 149.490   7
   6 -14   3 434.811 239.210   1
  -6  14  -4-448.933 308.329   7
   6 -14   4 206.435 285.361   3
   6 -14   4-284.232 201.625   1
   6 -14   5 6802.79 1063.19   3
  -6  14  -5 7457.35 1160.25   7
   6 -14   5 7875.45 979.386   1
  -6  14  -6-731.814 441.933   7
   6 -14   6-318.331 241.641   1
  -6  14  -7 93.9773 230.648   7
   6 -14   7-631.199 295.426   1
  -6  14  -8 1374.06 622.431   7
   6 -14   8 2517.91 586.448   1
  -6  14  -9-443.317 375.658   7
   6 -13 -10 1523.43 534.137   3
   6 -13  -9 1352.45 486.749   1
   6 -13  -9 1810.84 559.698   3
   6 -13  -8 103.480 287.756   3
   6 -13  -8 93.3384 187.138   1
   6 -13  -7-325.255 243.104   1
   6 -13  -7 489.028 345.556   3
   6 -13  -6 407.026 295.834   1
   6 -13  -6 725.188 362.080   3
   6 -13  -5 652.838 355.244   3
   6 -13  -5 470.652 311.954   1
   6 -13  -4 6.43523 150.935   3
   6 -13  -4 292.999 211.657   1
   6 -13  -3 422.369 330.569   3
   6 -13  -3 1151.53 404.055   1
   6 -13  -2 579.071 373.463   3
   6 -13  -2 102.806 184.727   1
   6 -13  -1 6912.00 1038.29   3
   6 -13  -1 6205.38 882.336   1
  -6  13   1 7471.29 988.193   7
  -6  13   0 178.024 247.626   7
   6 -13   0 10.4187 332.378   3
   6 -13   0 36.7988 147.790   1
   6 -13   1 126.627 247.559   3
   6 -13   1-146.265 208.871   1
  -6  13  -1 524.632 346.529   7
   6 -13   2 117.769 212.792   3
   6 -13   2 246.397 226.278   1
  -6  13  -2-423.384 320.812   7
   6 -13   3 10181.7 1062.31   1
   6 -13   3 8617.42 1171.13   3
  -6  13  -3 10721.1 1277.29   7
  -6  13  -4 828.767 413.795   7
   6 -13   4-92.8869 281.774   3
   6 -13   4 415.823 229.381   1
   6 -13   5 4665.72 854.397   3
  -6  13  -5 5105.74 945.310   7
   6 -13   5 5598.56 776.059   1
  -6  13  -6-11.8189 207.280   7
   6 -13   6 551.844 336.976   3
  -6  13  -7 538.890 450.982   7
   6 -13   7 408.421 247.984   1
  -6  13  -8 767.325 432.076   7
   6 -13   8 1273.24 379.533   1
  -6  13  -9 3374.85 862.539   7
  -6  13 -10 154.689 327.151   7
  -6  13 -11 5601.58 1113.55   7
   6 -12 -12 389.964 295.312   3
   6 -12 -11 7711.99 1099.45   3
   6 -12 -11 7555.51 1133.18   1
   6 -12 -10 239.912 277.668   1
   6 -12 -10 634.888 387.724   3
   6 -12  -9 3287.47 728.775   1
   6 -12  -9 3099.02 733.666   3
   6 -12  -8 402.022 273.716   1
   6 -12  -8 527.760 331.062   3
   6 -12  -7 5300.73 882.830   1
   6 -12  -7 5868.96 947.090   3
   6 -12  -6 453.437 312.314   1
   6 -12  -6 758.819 403.750   3
   6 -12  -5 4595.43 826.835   3
   6 -12  -5 4231.79 742.369   1
   6 -12  -4 290.835 302.390   3
   6 -12  -4 185.608 222.391   1
   6 -12  -3 2615.44 655.420   3
  -6  12   3 2527.10 525.707   7
   6 -12  -3 1954.85 496.860   1
   6 -12  -2 255.521 294.731   3
   6 -12  -2 682.932 336.232   1
  -6  12   2 146.771 192.418   7
   6 -12  -1 5119.06 848.802   3
   6 -12  -1 4999.38 739.821   1
  -6  12   1 4906.05 759.935   7
  -6  12   0 5476.90 833.693   7
   6 -12   0 4203.45 759.549   3
   6 -12   0 5023.85 723.578   1
   6 -12   1 294.433 254.573   1
  -6  12  -1-111.007 212.864   7
   6 -12   2 786.178 364.788   3
   6 -12   2 449.566 276.967   1
  -6  12  -2 661.835 358.610   7
  -6  12  -3 7786.22 1044.72   7
   6 -12   3 8924.05 930.865   1
   6 -12   3 8935.16 1098.81   3
   6 -12   4 793.759 374.313   3
  -6  12  -4 505.194 366.481   7
   6 -12   4 829.025 305.162   1
   6 -12   5 296.479 344.183   3
   6 -12   5-107.662 140.025   1
   6 -12   6-176.264 212.505   3
  -6  12  -6 319.833 271.908   7
   6 -12   6 288.548 244.415   1
   6 -12   7 6301.71 784.279   1
  -6  12  -7 5913.00 1028.13   7
  -6  12  -8 2388.60 666.782   7
   6 -12   8 1462.31 377.646   1
  -6  12  -9-301.916 351.375   7
  -6  12 -10-198.167 354.022   7
  -6  12 -11 1418.65 598.490   7
  -6  12 -12 2587.31 759.901   7
   6 -11 -13-140.484 233.663   3
   6 -11 -13-38.0791 214.663   1
   6 -11 -12 1126.23 463.318   3
   6 -11 -12 960.472 466.053   1
   6 -11 -11 1634.80 534.539   3
   6 -11 -11 2158.33 595.023   1
   6 -11 -10 69.5774 162.743   1
   6 -11 -10 284.534 278.437   3
   6 -11  -9 108.684 203.409   1
   6 -11  -9 433.984 317.767   3
   6 -11  -8 2179.90 563.722   1
   6 -11  -8 3132.35 689.631   3
   6 -11  -7 990.182 428.478   1
   6 -11  -7 1344.22 485.285   3
   6 -11  -6 2568.85 599.576   1
   6 -11  -6 3303.14 680.160   3
   6 -11  -5 275.905 334.142   3
   6 -11  -5 217.627 220.835   1
  -6  11   5 80.3116 147.146   7
   6 -11  -4 715.331 323.347   3
   6 -11  -4 517.563 300.890   1
  -6  11   4 506.350 246.141   7
   6 -11  -3-52.0102 214.908   3
   6 -11  -3 72.3609 199.082   1
  -6  11   3-134.927 203.276   7
   6 -11  -2 7913.46 896.161   1
   6 -11  -2 7829.51 1014.11   3
  -6  11   2 9749.59 996.773   7
   6 -11  -1 6909.95 962.783   3
   6 -11  -1 7970.54 878.064   1
  -6  11   1 7405.80 888.794   7
   6 -11   0 245.799 269.942   3
   6 -11   0 40.4355 162.223   1
  -6  11   0 112.890 250.607   7
   6 -11   1 4696.37 775.473   3
  -6  11  -1 4845.66 749.088   7
   6 -11   1 4448.73 642.271   1
   6 -11   2 6944.42 799.220   1
   6 -11   2 8502.53 1046.27   3
  -6  11  -2 8589.70 1015.41   7
   6 -11   3 5702.73 706.138   1
  -6  11  -3 6736.84 928.800   7
   6 -11   3 5905.75 862.935   3
   6 -11   4 123.249 227.757   3
   6 -11   4-252.235 183.720   1
  -6  11  -4 431.403 342.529   7
  -6  11  -5 440.529 288.246   7
   6 -11   5 424.316 292.644   3
   6 -11   5 1066.20 301.567   1
  -6  11  -6 905.696 422.940   7
   6 -11   6 1248.43 399.630   3
   6 -11   6 1420.51 372.304   1
   6 -11   7 4873.02 766.910   3
   6 -11   7 5822.52 709.675   1
  -6  11  -7 6154.99 1002.92   7
  -6  11  -8 3167.24 772.931   7
   6 -11   8 2927.38 512.777   1
  -6  11  -9 12901.4 1484.16   7
  -6  11 -10 1680.94 630.983   7
  -6  11 -11 7800.44 1243.35   7
  -6  11 -12 510.343 346.873   7
  -6  11 -13 457.260 353.881   7
  -6  11 -14 1305.46 534.689   7
   6 -10 -14 276.016 274.987   1
   6 -10 -13 1186.92 463.657   3
   6 -10 -13 1467.18 529.874   1
   6 -10 -12 1150.20 437.907   3
   6 -10 -12 1264.50 467.682   1
   6 -10 -11 184.765 184.933   3
   6 -10 -11 207.774 261.457   1
   6 -10 -10 371.363 293.534   1
   6 -10 -10 120.602 259.058   3
   6 -10  -9 7825.12 1046.14   1
   6 -10  -9 8282.07 1081.01   3
   6 -10  -8 382.114 263.600   1
   6 -10  -8 396.373 309.942   3
   6 -10  -7 2912.43 571.397   1
   6 -10  -7 3476.38 696.890   3
   6 -10  -6 1322.76 413.447   1
   6 -10  -6 1990.62 526.055   3
   6 -10  -5 1640.97 472.815   3
   6 -10  -5 1933.94 471.029   1
   6 -10  -4 352.680 311.628   3
   6 -10  -4 217.675 206.536   1
   6 -10  -3 2526.78 615.135   3
   6 -10  -3 2186.93 473.087   1
   6 -10  -2 179.493 271.211   3
   6 -10  -2-359.408 240.626   1
  -6  10   2 32.6919 177.584   7
   6 -10  -1 3118.21 629.717   3
   6 -10  -1 2406.62 467.408   1
  -6  10   1 2935.99 531.995   7
  -6  10   0 10036.4 979.886   7
   6 -10   0 8846.44 857.620   1
   6 -10   0 10960.0 1142.07   3
  -6  10  -1 14938.6 1223.39   7
   6 -10   1 15295.5 1097.67   1
   6 -10   1 16356.7 1380.82   3
   6 -10   2 28360.4 1466.99   1
   6 -10   2 29843.9 1838.55   3
  -6  10  -2 32133.0 1834.87   7
  -6  10  -3 382.847 291.678   7
   6 -10   3-67.7618 196.053   3
   6 -10   3 27.4366 113.046   1
  -6  10  -4 395.193 300.382   7
   6 -10   4 312.559 256.818   3
   6 -10   4 166.984 135.800   1
   6 -10   5 12127.7 954.864   1
   6 -10   5 11479.1 1118.80   3
  -6  10  -5 13553.9 1296.15   7
  -6  10  -6 1300.93 430.862   7
   6 -10   6 1684.41 373.920   1
   6 -10   6 1526.24 409.631   3
  -6  10  -7 810.593 369.940   7
   6 -10   7 1015.74 292.109   1
   6 -10   7 1135.66 365.128   3
  -6  10  -8 721.087 340.100   7
   6 -10   8 917.941 284.364   1
  -6  10  -9 2052.64 572.687   7
  -6  10 -10 493.079 404.712   7
  -6  10 -11 1588.20 500.825   7
  -6  10 -12 3298.66 825.024   7
  -6  10 -13 3926.23 893.430   7
  -6  10 -14 637.168 426.892   7
  -6  10 -15 7423.81 1253.49   7
   6  -9 -15 1970.20 597.261   4
   6  -9 -15 1867.60 591.194   1
   6  -9 -14 3456.56 754.304   1
   6  -9 -13-64.2175 176.546   3
   6  -9 -13-86.4178 220.275   1
   6  -9 -12-193.207 185.275   3
   6  -9 -12-703.045 382.307   1
   6  -9 -11 1158.98 384.930   3
   6  -9 -11 1490.71 487.320   1
   6  -9 -10 5014.36 827.961   3
   6  -9 -10 4932.22 816.169   1
   6  -9  -9 4572.96 775.320   1
   6  -9  -9 5247.36 845.374   3
   6  -9  -8 580.921 292.690   3
   6  -9  -8 790.602 338.179   1
   6  -9  -7 92.2859 203.926   1
   6  -9  -7 250.340 240.162   3
   6  -9  -6 10313.1 1052.23   1
   6  -9  -6 11670.4 1184.17   3
   6  -9  -5 6305.23 798.552   1
   6  -9  -5 6434.71 878.082   3
   6  -9  -4 19549.7 1340.32   1
   6  -9  -4 22805.7 1603.82   3
   6  -9  -3 798.938 348.083   3
   6  -9  -3 250.342 197.261   1
   6  -9  -2 50.1087 214.879   3
   6  -9  -2-108.344 138.973   1
   6  -9  -1 210.482 215.095   3
   6  -9  -1-593.124 255.507   1
   6  -9   0 21571.4 1249.32   1
   6  -9   0 23763.4 1579.46   3
   6  -9   1 463.168 274.481   3
   6  -9   1 301.645 175.268   1
  -6   9  -1 394.123 284.088   7
   6  -9   2 7471.02 702.369   1
   6  -9   2 6773.45 842.239   3
  -6   9  -2 7004.28 825.884   7
   6  -9   3 2038.10 472.578   3
  -6   9  -3 3027.74 581.904   7
   6  -9   3 2619.83 428.959   1
   6  -9   4 5641.44 604.528   1
   6  -9   4 6020.34 782.454   3
  -6   9  -4 6886.98 859.472   7
  -6   9  -5 1073.39 421.283   7
   6  -9   5 1045.06 309.685   3
   6  -9   5 1031.01 266.878   1
  -6   9  -6 3180.10 650.285   7
   6  -9   6 3355.62 475.359   1
   6  -9   6 3585.10 590.781   3
   6  -9   7 2663.53 421.801   1
   6  -9   7 2799.84 520.170   3
  -6   9  -7 3267.63 684.422   7
  -6   9  -8 3602.16 717.547   7
   6  -9   8 3475.94 476.033   1
  -6   9  -9 224.846 287.174   7
  -6   9 -10 5509.13 938.335   7
  -6   9 -11 414.024 283.438   7
  -6   9 -12 9161.28 1288.29   7
  -6   9 -13 757.600 421.329   7
  -6   9 -14 723.166 437.563   7
  -6   9 -15 238.363 248.488   7
  -6   9 -16-83.3415 168.861   7
   6  -8 -16 504.461 328.513   4
   6  -8 -15-305.325 269.982   4
   6  -8 -14 2449.14 639.475   4
   6  -8 -14 1972.69 556.007   1
   6  -8 -13 585.637 320.498   3
   6  -8 -13 18.4502 195.084   1
   6  -8 -12 760.446 357.949   3
   6  -8 -12 783.168 376.422   1
   6  -8 -11-547.419 309.786   3
   6  -8 -11-160.769 276.117   1
   6  -8 -10 326.130 221.829   3
   6  -8 -10 471.836 267.009   1
   6  -8  -9 443.269 330.182   3
   6  -8  -9 123.624 182.301   1
   6  -8  -8 2164.46 528.130   1
   6  -8  -8 1155.02 403.627   3
   6  -8  -7 956.597 350.679   1
   6  -8  -7 577.788 248.375   3
   6  -8  -6 359.455 228.099   1
   6  -8  -6 373.960 294.332   3
   6  -8  -5 363.794 292.919   3
   6  -8  -5 335.663 193.426   1
   6  -8  -4 1641.81 442.268   3
   6  -8  -4 1849.15 409.402   1
   6  -8  -3 309.072 271.539   3
   6  -8  -3 956.702 294.428   1
   6  -8  -2 3460.93 615.481   3
   6  -8  -2 3054.37 482.292   1
   6  -8  -1 60.6603 185.420   3
   6  -8  -1-277.869 193.083   1
   6  -8   0 13696.5 938.527   1
   6  -8   0 14565.9 1186.41   3
   6  -8   1 7728.65 687.605   1
   6  -8   1 8393.15 902.811   3
   6  -8   2 124.594 126.468   1
  -6   8  -2 94.2289 188.169   7
   6  -8   3 150.541 197.775   3
  -6   8  -3 95.7275 249.486   7
   6  -8   3 210.500 145.244   1
   6  -8   4 18510.1 1002.87   1
  -6   8  -4 19469.2 1346.59   7
   6  -8   4 16797.0 1209.91   3
  -6   8  -5 4343.88 687.635   7
   6  -8   5 4456.37 632.919   3
   6  -8   5 4790.50 510.008   1
   6  -8   6-81.7021 104.654   1
   6  -8   6-1.16343 177.757   3
   6  -8   6-60.3279 69.2134   6
  -6   8  -6 201.223 270.286   7
  -6   8  -7 157.537 237.873   7
   6  -8   7 357.617 202.977   3
   6  -8   7 24.5806 95.5638   1
  -6   8  -8 270.207 293.619   7
   6  -8   8-18.2638 126.005   3
  -6   8  -9-188.272 242.493   7
  -6   8 -10 3625.00 759.648   7
  -6   8 -11 1062.49 408.276   7
  -6   8 -12-765.054 426.305   7
  -6   8 -13 4641.31 928.714   7
  -6   8 -14 20885.2 1955.25   7
  -6   8 -15 9254.06 1315.46   7
  -6   8 -16 34.4852 195.212   7
   6  -7 -17 286.795 227.969   4
   6  -7 -16 6595.77 1102.30   4
   6  -7 -15 4030.16 829.828   4
   6  -7 -14 166.587 218.289   4
   6  -7 -13-185.329 163.698   3
   6  -7 -13-360.455 334.908   4
   6  -7 -13-93.5046 260.176   1
   6  -7 -12 2100.48 516.008   3
   6  -7 -12 1274.79 459.854   1
   6  -7 -11 1924.34 486.740   3
   6  -7 -11 1999.92 519.230   1
   6  -7 -10 682.470 288.801   3
   6  -7 -10 1251.50 447.378   1
   6  -7  -9 666.885 311.799   3
   6  -7  -9 137.609 209.135   1
   6  -7  -8 30538.8 1761.26   1
   6  -7  -8 35668.2 1963.38   3
   6  -7  -7 4166.77 657.726   3
   6  -7  -7 4214.14 655.257   1
   6  -7  -6 7275.52 811.096   1
   6  -7  -6 9442.52 991.451   3
   6  -7  -5 1552.37 383.754   1
   6  -7  -5 2549.88 538.687   3
   6  -7  -4 15602.5 1088.92   1
   6  -7  -4 16928.0 1274.50   3
   6  -7  -3 13302.6 976.408   1
   6  -7  -3 14252.5 1156.56   3
   6  -7  -2 9340.45 783.506   1
   6  -7  -2 8624.99 899.038   3
   6  -7  -1 4337.74 652.509   3
   6  -7  -1 3800.07 489.913   1
   6  -7   0 3354.17 567.762   3
   6  -7   0 3011.13 416.995   1
   6  -7   1 439.587 244.195   3
   6  -7   1 365.811 177.106   1
   6  -7   2 9724.15 701.127   1
   6  -7   2 8704.39 864.173   3
   6  -7   3-77.7296 160.543   3
   6  -7   3 148.855 111.948   1
  -6   7  -3 262.363 276.334   7
   6  -7   4 16125.7 811.944   6
  -6   7  -4 15963.3 1153.15   7
   6  -7   4 14847.7 831.277   1
   6  -7   4 14104.0 1060.62   3
   6  -7   5 523.005 229.548   3
   6  -7   5 522.790 175.231   6
   6  -7   5 910.337 209.671   1
  -6   7  -5 1115.95 335.606   7
   6  -7   6 11102.4 699.673   1
   6  -7   6 11692.4 747.143   6
   6  -7   6 9541.08 856.580   3
  -6   7  -6 10794.6 1023.45   7
  -6   7  -7 1596.76 428.550   7
   6  -7   7 1494.23 266.766   1
   6  -7   7 1595.56 287.186   6
   6  -7   7 1562.14 347.970   3
   6  -7   8 14304.0 900.471   6
   6  -7   8 12343.1 944.134   3
  -6   7  -8 13246.5 1216.36   7
   6  -7   9 9629.11 776.909   6
  -6   7  -9 7569.17 963.781   7
  -6   7 -10 1365.61 456.104   7
   6  -7  10 1335.06 316.666   6
   6  -7  11 35.6434 101.732   6
  -6   7 -11-534.102 349.253   7
  -6   7 -12 3732.26 766.515   7
   6  -7  12 4959.72 631.801   6
   6  -7  13 4514.93 611.990   6
  -6   7 -13 3911.06 819.064   7
  -6   7 -14 4612.79 884.805   7
   6  -7  14 4403.64 632.359   6
  -6   7 -15-432.836 332.452   7
  -6   7 -16-333.077 320.192   7
  -6   7 -17 348.505 284.306   7
   6  -6 -17 1912.86 556.372   4
   6  -6 -16 518.161 334.910   4
   6  -6 -15 2159.76 605.305   4
   6  -6 -14 143.735 248.251   4
   6  -6 -13 11062.2 1293.30   4
   6  -6 -13 12708.3 1160.27   3
   6  -6 -12 11302.5 1209.21   1
   6  -6 -12 10345.4 1205.29   4
   6  -6 -12 10740.5 1069.54   3
   6  -6 -11 3595.03 640.568   3
   6  -6 -11 2750.29 611.443   1
   6  -6 -10-208.410 212.161   3
   6  -6 -10 98.2834 179.291   1
   6  -6  -9 1536.85 424.921   3
   6  -6  -9 1249.53 386.298   1
   6  -6  -8 9107.03 949.245   1
   6  -6  -8 9075.79 961.808   3
   6  -6  -7 2116.28 505.406   3
   6  -6  -7 1759.41 410.803   1
   6  -6  -6 4382.06 618.204   1
   6  -6  -6 5551.48 733.068   3
   6  -6  -5 9216.13 834.203   1
   6  -6  -5 9349.28 929.843   3
   6  -6  -4 1179.46 363.657   3
   6  -6  -4 1237.00 306.929   1
   6  -6  -3 46836.6 1725.05   1
   6  -6  -3 46662.1 2002.39   3
   6  -6  -2 54038.3 1773.93   1
   6  -6  -2 51609.7 2076.78   3
   6  -6  -1 13865.7 868.278   1
   6  -6  -1 13609.9 1066.31   3
   6  -6   0 3686.75 569.529   3
   6  -6   0 3582.35 427.303   1
   6  -6   1 16206.1 867.324   1
   6  -6   1 14804.1 1082.28   3
   6  -6   2 18832.6 900.895   1
   6  -6   2 16547.5 1128.84   3
   6  -6   3 1549.68 354.847   3
   6  -6   3 1452.58 257.281   6
   6  -6   3 1636.68 274.706   1
   6  -6   4 1850.11 388.150   3
   6  -6   4 1925.37 300.183   6
   6  -6   4 2294.48 304.508   1
  -6   6  -4 2185.16 428.858   7
   6  -6   5 32356.4 1074.22   1
   6  -6   5 31047.2 1195.14   6
   6  -6   5 29784.7 1464.79   3
  -6   6  -5 29571.7 1539.01   7
   6  -6   6 178.499 122.938   6
   6  -6   6 87.3548 134.951   3
   6  -6   6 301.163 118.682   1
   6  -6   7 427.675 202.770   3
  -6   6  -7 916.236 341.187   7
   6  -6   7 668.940 206.436   6
  -6   6  -7 581.697 130.693   2
  -6   6  -8 3850.81 646.265   7
   6  -6   8 5510.59 577.217   6
  -6   6  -8 4796.50 419.687   2
   6  -6   8 4967.29 598.058   3
   6  -6   9 8229.32 728.687   6
  -6   6  -9 8084.51 583.123   2
  -6   6  -9 8620.36 977.889   7
  -6   6 -10 4895.56 779.794   7
   6  -6  10 5935.04 647.372   6
  -6   6 -10 6427.36 566.486   2
   6  -6  11 9751.63 851.866   6
  -6   6 -11 9373.60 724.125   2
  -6   6 -11 8336.85 1034.89   7
  -6   6 -12 11547.7 853.564   2
  -6   6 -12 11456.9 1273.00   7
  -6   6 -13 2391.04 638.984   7
  -6   6 -13 1932.32 390.574   2
  -6   6 -14-21.8469 221.744   7
  -6   6 -14-121.938 152.228   2
  -6   6 -15 607.793 375.225   7
  -6   6 -16 913.867 439.690   7
  -6   6 -17 5862.84 1006.52   7
   6  -5 -18 672.649 370.009   4
   6  -5 -17 1739.28 554.378   4
   6  -5 -16 74.1540 199.668   4
   6  -5 -15 571.204 328.751   4
   6  -5 -14 25981.3 1955.75   4
   6  -5 -13 3429.29 577.940   3
   6  -5 -13 2990.92 666.892   4
   6  -5 -12 421.267 273.453   3
   6  -5 -12 318.344 273.440   4
   6  -5 -11 1253.18 360.213   3
   6  -5 -11 816.452 292.674   4
   6  -5 -11 970.325 365.950   1
   6  -5 -10 3937.88 627.305   3
   6  -5 -10 3667.43 641.884   1
   6  -5  -9 3.82244 201.634   3
   6  -5  -9-286.251 241.917   1
   6  -5  -8-24.9525 215.932   3
   6  -5  -8 157.852 172.369   1
   6  -5  -7-82.6425 188.569   3
   6  -5  -7 27.0713 152.951   1
   6  -5  -6 16367.4 1106.61   1
   6  -5  -6 20221.2 1319.96   3
   6  -5  -5 1655.59 400.943   3
   6  -5  -5 1901.70 391.724   1
   6  -5  -4 8992.02 765.463   1
   6  -5  -4 9661.43 899.901   3
   6  -5  -3 6372.48 611.377   1
   6  -5  -3 6569.59 734.876   3
   6  -5  -2 21168.3 1058.57   1
   6  -5  -2 21923.5 1303.92   3
   6  -5  -1 56840.5 1653.90   1
   6  -5  -1 58652.4 2096.58   3
   6  -5   0 39207.3 1303.13   1
   6  -5   0 36577.9 1648.30   3
   6  -5   1-572.703 258.284   3
   6  -5   1 66.8015 104.325   1
   6  -5   2 9445.19 631.498   6
   6  -5   2 10803.3 614.894   1
   6  -5   2 8740.09 797.163   3
   6  -5   3 7166.12 558.629   6
   6  -5   3 8998.94 534.288   1
   6  -5   3 8102.28 759.078   3
  -6   5  -4 7037.29 311.968   2
   6  -5   4 7726.86 473.856   1
   6  -5   4 7366.42 582.081   6
   6  -5   4 8024.79 749.138   3
   6  -5   5 31169.0 1224.77   6
  -6   5  -5 31105.0 798.413   2
   6  -5   5 32402.7 937.014   1
   6  -5   5 30331.1 1449.19   3
  -6   5  -5 28596.7 1436.28   7
   6  -5   6 18837.9 985.770   6
  -6   5  -6 19931.8 735.097   2
   6  -5   6 16644.7 1070.84   3
  -6   5  -6 19169.0 1221.31   7
  -6   5  -7-73.0711 183.537   7
   6  -5   7-124.657 140.610   3
   6  -5   7 33.1685 109.570   6
  -6   5  -7 68.1026 86.9366   2
   6  -5   8 6652.58 636.555   6
  -6   5  -8 6842.99 518.697   2
   6  -5   8 6110.34 645.440   3
  -6   5  -8 6773.47 797.942   7
   6  -5   9 6133.67 636.421   6
  -6   5  -9 7053.10 570.154   2
   6  -5   9 6833.88 653.661   3
  -6   5  -9 7061.98 854.691   7
  -6   5 -10 152.629 221.510   7
  -6   5 -10 127.298 152.284   2
  -6   5 -11 6782.07 638.382   2
  -6   5 -11 6168.46 871.945   7
  -6   5 -12 1620.95 503.942   7
  -6   5 -12 3253.38 467.770   2
  -6   5 -13 2225.31 620.724   7
  -6   5 -13 3311.87 493.250   2
  -6   5 -14 1241.34 436.091   7
  -6   5 -14 981.624 309.544   2
  -6   5 -15 7706.34 1100.19   7
  -6   5 -15 9482.31 908.039   2
  -6   5 -16 2916.57 698.051   7
  -6   5 -16 3232.61 546.476   2
  -6   5 -17 937.527 314.863   2
   6  -4 -18-906.621 418.765   4
   6  -4 -17 417.639 321.326   4
   6  -4 -16 240.721 294.812   4
   6  -4 -15-290.462 268.406   4
   6  -4 -14-273.049 264.127   4
   6  -4 -13 4279.78 615.147   3
   6  -4 -13 4686.84 796.218   4
   6  -4 -12 298.453 220.355   3
   6  -4 -12-40.1512 86.6934   2
   6  -4 -12 107.387 228.248   4
   6  -4 -11 34041.7 1225.42   2
   6  -4 -11 30736.2 1922.12   4
   6  -4 -11 32368.2 1693.27   3
   6  -4 -10 11167.2 661.882   2
   6  -4 -10 9378.42 1048.58   4
   6  -4 -10 9519.21 914.034   3
   6  -4  -9 990.625 310.207   3
   6  -4  -9 911.868 179.755   2
   6  -4  -9 607.510 311.656   4
   6  -4  -9 755.394 297.468   1
   6  -4  -8 3598.82 568.583   3
   6  -4  -8 3032.72 301.196   2
   6  -4  -8 3544.00 614.926   4
   6  -4  -8 2914.06 515.741   1
   6  -4  -7 506.190 249.670   3
   6  -4  -7 749.235 143.440   2
   6  -4  -7 467.664 236.283   1
   6  -4  -6 19078.9 1159.50   1
   6  -4  -6 19211.5 1243.98   3
   6  -4  -5 10834.2 835.257   1
   6  -4  -5 10538.1 916.612   3
   6  -4  -4 7763.02 673.063   1
   6  -4  -4 6793.56 744.999   3
   6  -4  -3 30191.8 1253.51   1
   6  -4  -3 29989.5 1503.86   3
   6  -4  -2 380.725 182.505   1
   6  -4  -2 323.515 253.004   3
   6  -4  -1 166243. 2629.24   1
   6  -4  -1 166679. 3425.64   3
   6  -4   0 13969.8 726.394   1
   6  -4   0 13862.0 989.168   3
   6  -4   1 28648.8 961.689   1
   6  -4   1 26176.6 1344.94   3
   6  -4   2 7357.41 564.896   6
   6  -4   2 7880.19 464.317   1
   6  -4   2 6512.13 684.181   3
   6  -4   3 13081.4 765.101   6
   6  -4   3 13467.2 559.514   1
  -6   4  -3 12601.7 408.264   2
   6  -4   3 12743.1 932.359   3
   6  -4   4 16578.6 880.589   6
   6  -4   4 16797.9 570.003   1
  -6   4  -4 17555.9 581.805   2
   6  -4   4 15807.4 1038.21   3
   6  -4   5 26603.4 1148.44   6
  -6   4  -5 27059.8 833.696   2
   6  -4   5 26020.6 1314.18   3
   6  -4   6 239.657 178.085   3
   6  -4   6 518.211 194.372   6
  -6   4  -6 359.151 117.512   2
  -6   4  -6 423.240 234.708   7
   6  -4   7 9639.05 744.998   6
  -6   4  -7 9812.04 603.532   2
   6  -4   7 9457.26 799.215   3
  -6   4  -7 9375.98 863.214   7
   6  -4   8 2775.38 424.480   6
  -6   4  -8 2776.69 350.717   2
   6  -4   8 2473.67 413.293   3
  -6   4  -8 2109.07 445.475   7
  -6   4  -9 6534.69 566.146   2
   6  -4   9 7839.33 704.107   3
  -6   4  -9 6993.73 813.373   7
  -6   4 -10 1304.36 395.831   7
  -6   4 -10 1750.52 322.299   2
  -6   4 -11 54767.7 1842.38   2
  -6   4 -11 53245.9 2430.42   7
  -6   4 -12 15466.6 1032.10   2
  -6   4 -12 12861.7 1237.81   7
  -6   4 -13 941.709 376.971   7
  -6   4 -13 883.953 290.085   2
  -6   4 -14 3.77642 65.6860   7
  -6   4 -14 444.617 238.281   2
  -6   4 -15 2015.79 558.900   7
  -6   4 -15 2352.62 474.199   2
  -6   4 -16 656.638 262.876   2
  -6   4 -17 458.028 287.238   2
  -6   4 -18 834.517 364.569   2
   6  -3 -19 1886.78 562.050   4
   6  -3 -18-237.311 268.971   4
   6  -3 -17 2543.02 654.236   4
   6  -3 -16 3956.27 784.110   4
   6  -3 -15 1133.96 292.703   2
   6  -3 -15 1313.68 426.810   4
   6  -3 -14 1312.69 302.448   2
   6  -3 -14 365.661 253.642   4
   6  -3 -13 779.960 225.693   2
   6  -3 -13-152.421 204.965   4
   6  -3 -12 59205.1 1770.19   2
   6  -3 -12 60968.7 2696.10   4
   6  -3 -12 64507.7 2283.12   3
   6  -3 -11 6466.58 559.554   2
   6  -3 -11 5836.95 817.562   4
   6  -3 -11 6078.63 716.801   3
   6  -3 -10 8611.52 603.707   2
   6  -3 -10 7727.11 926.727   4
   6  -3 -10 9345.22 873.938   3
   6  -3  -9 2065.61 438.905   3
   6  -3  -9 1726.43 262.425   2
   6  -3  -9 1727.17 451.272   4
   6  -3  -8 3359.25 530.725   3
   6  -3  -8 3415.78 331.794   2
   6  -3  -8 2770.65 514.383   4
   6  -3  -7 21223.3 1246.06   1
   6  -3  -7 24263.5 812.818   2
   6  -3  -7 24167.7 1439.63   4
   6  -3  -7 22908.3 1333.63   3
   6  -3  -6 920.648 296.562   3
   6  -3  -6 789.193 284.801   4
   6  -3  -6 1272.44 334.724   1
   6  -3  -5-167.179 178.499   3
   6  -3  -5-108.157 195.683   4
   6  -3  -5 24.8889 135.200   1
   6  -3  -4 1735.00 390.069   3
   6  -3  -4 2198.51 397.749   4
   6  -3  -4 1854.30 323.862   1
   6  -3  -3 3662.54 435.273   1
   6  -3  -3 3907.88 490.093   4
   6  -3  -3 3248.71 513.381   3
   6  -3  -2 123.973 204.192   3
   6  -3  -2 44.7887 113.582   4
   6  -3  -2 102.883 115.830   1
   6  -3  -1 1491.48 367.874   3
   6  -3  -1 1279.21 267.900   4
   6  -3  -1 1223.37 222.647   1
   6  -3   0 360.121 194.169   3
  -6   3   0 294.461 44.7446   2
   6  -3   0 573.643 165.375   4
   6  -3   0 421.233 129.851   1
   6  -3   1 54719.5 1539.67   6
   6  -3   1 56516.2 1166.13   1
   6  -3   1 53958.9 1377.46   4
  -6   3  -1 54455.4 745.461   2
   6  -3   1 56466.1 1951.46   3
   6  -3   2 58975.0 1019.63   1
  -6   3  -2 60730.0 935.924   2
   6  -3   2 57434.6 1261.13   4
   6  -3   2 57643.6 1957.75   3
   6  -3   3 57638.1 1624.74   6
   6  -3   3 54388.5 985.828   4
  -6   3  -3 55877.8 1034.57   2
   6  -3   3 55148.1 1915.24   3
   6  -3   4 9226.82 671.535   6
  -6   3  -4 9960.16 493.568   2
   6  -3   4 9263.09 793.637   3
   6  -3   5 270.045 180.934   3
   6  -3   5 54.0636 100.536   6
  -6   3  -5 41.4515 68.1487   2
   6  -3   6 1156.91 303.461   3
   6  -3   6 1160.43 271.791   6
  -6   3  -6 1166.66 291.359   7
  -6   3  -6 1352.88 226.927   2
   6  -3   7 325.216 177.423   3
  -6   3  -7 494.030 164.600   2
   6  -3   7 368.031 180.583   6
  -6   3  -7 805.216 260.767   7
  -6   3  -8 175.950 187.366   7
  -6   3  -8 67.9464 97.7059   2
   6  -3   8-72.1572 112.369   3
  -6   3  -9 1291.87 348.412   7
  -6   3  -9 1643.44 309.153   2
   6  -3   9 1178.37 310.908   3
  -6   3 -10 193.805 190.258   7
  -6   3 -10 355.836 169.672   2
  -6   3 -11 3523.50 623.065   7
  -6   3 -11 3858.35 514.212   2
  -6   3 -12 3584.65 639.642   7
  -6   3 -12 4452.04 575.877   2
  -6   3 -13 201.427 228.273   7
  -6   3 -13 519.379 233.153   2
  -6   3 -14 304.522 253.107   7
  -6   3 -14 685.811 257.463   2
  -6   3 -15 14520.6 1150.01   2
  -6   3 -16 3049.46 548.026   2
  -6   3 -17 5335.25 747.009   2
  -6   3 -18 2251.28 504.674   2
   6  -2 -19 1522.33 516.720   4
   6  -2 -18-218.022 271.326   4
   6  -2 -17 3931.31 583.604   2
   6  -2 -17 6108.39 967.952   4
   6  -2 -16 118.942 124.940   2
   6  -2 -16-6.03139 162.269   4
   6  -2 -15 2747.33 445.491   2
   6  -2 -15 3306.32 668.384   4
   6  -2 -14 2029.00 382.148   2
   6  -2 -14 1375.50 449.482   4
   6  -2 -13 748.110 242.134   2
   6  -2 -13 1016.23 375.737   4
   6  -2 -12 421.402 206.194   3
   6  -2 -12 494.978 178.539   2
   6  -2 -12-19.2884 193.426   4
   6  -2 -11 7054.10 600.965   2
   6  -2 -11 7354.27 906.771   4
   6  -2 -11 6150.85 693.221   3
   6  -2 -10 785.791 266.173   3
   6  -2 -10 876.002 210.093   2
   6  -2 -10 1297.71 398.973   4
   6  -2  -9 20213.4 905.220   2
   6  -2  -9 17254.4 1284.66   4
   6  -2  -9 19805.1 1224.08   3
   6  -2  -8 11420.8 638.216   2
   6  -2  -8 10026.3 958.506   4
   6  -2  -8 9522.80 838.036   3
   6  -2  -7 1545.09 371.307   3
   6  -2  -7 1339.60 215.550   2
   6  -2  -7 1211.58 332.908   4
   6  -2  -6 4858.49 612.327   4
   6  -2  -6 4713.53 599.297   3
   6  -2  -5 3836.51 545.786   3
   6  -2  -5 4893.67 589.240   4
   6  -2  -4 1557.76 366.723   3
   6  -2  -4 2132.35 378.314   4
   6  -2  -3 5288.93 554.008   4
   6  -2  -3 4607.50 577.753   3
   6  -2  -2 694.970 251.084   3
   6  -2  -2 1436.90 285.125   4
   6  -2  -1 45303.3 1412.16   4
   6  -2  -1 46482.8 1776.48   3
   6  -2   0 384.927 214.122   3
   6  -2   0 403.149 139.634   4
   6  -2   1 50737.4 1252.14   4
   6  -2   1 51638.0 1867.16   3
   6  -2   1 49051.8 1486.86   6
   6  -2   2 14595.5 823.866   6
   6  -2   2 15520.4 592.122   4
  -6   2  -2 17038.5 582.414   2
   6  -2   2 16493.8 1064.45   3
   6  -2   3 28889.3 589.706   4
  -6   2  -3 30962.2 851.015   2
   6  -2   3 28870.2 1405.54   3
   6  -2   3 29229.3 1181.06   6
  -6   2  -4 30969.3 925.436   2
   6  -2   4 30485.4 1433.12   3
   6  -2   4 29331.8 1214.05   6
   6  -2   5 9730.40 724.076   6
  -6   2  -5 9740.03 564.085   2
   6  -2   5 8544.60 775.554   3
   6  -2   6 9966.16 765.001   6
  -6   2  -6 11438.7 650.894   2
   6  -2   6 10304.3 844.106   3
  -6   2  -6 10923.8 806.793   7
   6  -2   7 43071.7 1634.89   6
  -6   2  -7 42453.0 1331.70   2
   6  -2   7 42757.9 1703.99   3
  -6   2  -7 45371.1 1713.52   7
  -6   2  -8 2509.11 357.584   2
   6  -2   8 2654.98 446.253   3
  -6   2  -8 2794.95 456.360   7
  -6   2  -9 44647.0 1557.42   2
   6  -2   9 43196.9 1691.06   3
  -6   2  -9 44807.4 1873.03   7
  -6   2 -10 245.526 196.332   7
  -6   2 -10 124.380 106.073   2
  -6   2 -11 15518.0 1021.42   2
  -6   2 -11 16305.8 1237.70   7
  -6   2 -12 4558.45 699.095   7
  -6   2 -12 4199.12 563.720   2
  -6   2 -13 13041.0 1032.21   2
  -6   2 -13 13329.6 1198.85   7
  -6   2 -14 34126.6 1722.14   2
  -6   2 -15 1997.10 446.216   2
  -6   2 -16-1.36093 130.343   2
  -6   2 -17 1958.95 451.246   2
  -6   2 -18 1512.73 424.353   2
   6  -1 -19 455.875 245.168   2
   6  -1 -19-57.2097 164.342   4
   6  -1 -18 2519.20 488.354   2
   6  -1 -18 4569.13 875.071   4
   6  -1 -17 67.5351 113.396   2
   6  -1 -17 176.000 205.047   4
   6  -1 -16 3349.70 534.069   2
   6  -1 -16 2684.68 623.545   4
   6  -1 -15 1432.52 340.385   2
   6  -1 -15 984.714 403.995   4
   6  -1 -14 361.772 201.658   2
   6  -1 -14 5.34727 204.571   4
   6  -1 -13 3083.48 450.963   2
   6  -1 -13 2495.29 556.211   4
   6  -1 -12 8415.03 710.024   2
   6  -1 -12 7667.15 943.285   4
   6  -1 -12 9896.63 852.880   3
   6  -1 -11 5460.35 550.186   2
   6  -1 -11 5104.07 759.933   4
   6  -1 -11 5346.57 633.392   3
   6  -1 -10 4483.90 470.555   2
   6  -1 -10 4460.70 690.715   4
   6  -1 -10 5263.82 641.982   3
   6  -1  -9 11740.6 720.686   2
   6  -1  -9 10385.0 996.616   4
   6  -1  -9 9213.87 829.580   3
   6  -1  -8 1471.29 349.510   3
   6  -1  -8 1498.69 250.117   2
   6  -1  -8 1450.22 376.506   4
   6  -1  -7 5454.64 677.492   4
   6  -1  -7 4959.41 608.273   3
   6  -1  -6 10439.5 707.861   5
   6  -1  -6 8827.95 807.798   4
   6  -1  -6 10359.4 865.982   3
   6  -1  -5 6891.13 576.745   5
   6  -1  -5 7231.00 700.218   4
   6  -1  -5 6152.92 675.425   3
   6  -1  -4 1494.00 355.901   3
   6  -1  -4 1659.12 298.429   5
   6  -1  -4 1460.27 316.493   4
   6  -1  -3 12703.2 790.456   5
   6  -1  -3 11981.0 800.771   4
   6  -1  -3 11461.1 892.433   3
   6  -1  -2 2345.96 416.892   3
   6  -1  -2 2999.53 395.664   5
   6  -1  -2 2826.71 377.758   4
   6  -1  -1 2238.63 417.139   3
   6  -1  -1 2290.68 345.891   5
   6  -1  -1 1977.56 297.485   4
   6  -1   0 5093.21 504.207   5
   6  -1   0 4932.38 428.876   4
   6  -1   0 4040.77 547.513   3
   6  -1   1 150913. 2645.82   6
   6  -1   1 149621. 2680.55   5
   6  -1   1 150536. 2106.84   4
   6  -1   1 149736. 3212.16   3
   6  -1   2 33483.1 1270.13   6
   6  -1   2 34964.4 1297.07   5
   6  -1   2 34517.9 860.288   4
   6  -1   2 35682.0 1572.94   3
   6  -1   3 30234.0 1221.60   6
   6  -1   3 29841.5 1208.12   5
   6  -1   3 26914.4 529.377   4
   6  -1   3 31603.6 1486.60   3
   6  -1   4 55134.0 1705.84   6
   6  -1   4 59831.5 1704.49   5
  -6   1  -4 59599.5 1357.92   2
   6  -1   4 55410.8 1965.13   3
   6  -1   5 9598.99 739.971   6
   6  -1   5 11532.5 756.024   5
  -6   1  -5 11168.4 623.729   2
   6  -1   5 10083.1 838.773   3
   6  -1   6 4304.36 528.765   6
  -6   1  -6 3256.65 366.205   2
  -6   1  -6 4515.96 498.718   7
   6  -1   6 3916.56 532.790   3
  -6   1  -7 703.440 207.495   2
   6  -1   7 699.833 257.678   6
   6  -1   7 461.116 234.203   3
  -6   1  -7 571.039 223.067   7
  -6   1  -8 2221.90 397.234   7
   6  -1   8 1804.73 361.882   3
  -6   1  -8 1890.65 316.286   2
  -6   1  -9 6842.73 627.294   2
   6  -1   9 7922.69 742.925   3
  -6   1  -9 6805.41 706.647   7
  -6   1 -10-206.709 168.095   7
   6  -1  10 157.743 154.448   3
  -6   1 -10-47.6454 125.616   2
  -6   1 -11-200.043 178.266   7
  -6   1 -11 38.7319 137.200   2
  -6   1 -12 4599.23 596.230   2
  -6   1 -13 788.486 275.727   2
  -6   1 -14 979.499 295.941   2
  -6   1 -15-408.959 246.882   2
  -6   1 -16 9461.54 993.772   2
  -6   1 -17 8926.00 978.534   2
  -6   1 -18 105.415 145.473   2
   6   0 -19 2863.16 673.837   4
   6   0 -19 2642.11 541.415   2
   6   0 -18-270.706 185.064   2
   6   0 -18 2.14190 305.792   4
   6   0 -17 661.833 321.450   2
   6   0 -17 777.977 378.303   4
   6   0 -16 907.280 288.725   2
   6   0 -16 806.993 384.819   4
   6   0 -15 21195.9 1307.25   2
   6   0 -15 19500.6 1623.80   4
   6   0 -14-133.451 131.049   2
   6   0 -14 37.2587 248.848   4
   6   0 -13 3927.92 515.651   2
   6   0 -13 4174.68 719.264   4
   6   0 -12 318.717 160.755   2
   6   0 -12-62.4818 114.668   4
   6   0 -12 687.405 289.665   3
   6   0 -11 268.898 153.425   2
   6   0 -11-2.92491 197.226   4
   6   0 -11 149.855 136.243   3
   6   0 -10 3342.61 503.190   3
   6   0 -10 4006.96 461.540   2
   6   0 -10 3532.73 622.243   4
   6   0  -9 7796.36 625.129   5
   6   0  -9 6407.52 553.610   2
   6   0  -9 6612.72 792.611   4
   6   0  -9 5829.55 665.000   3
   6   0  -8 556.161 233.037   3
   6   0  -8 394.805 163.312   5
   6   0  -8 552.505 259.640   4
   6   0  -7 5489.24 532.484   5
   6   0  -7 5146.92 652.062   4
   6   0  -7 4944.33 610.150   3
   6   0  -6 15642.8 896.557   5
   6   0  -6 14168.7 1014.26   4
   6   0  -6 14506.1 1027.06   3
   6   0  -5 7626.19 639.690   5
   6   0  -5 7273.65 698.714   4
   6   0  -5 7157.26 723.465   3
   6   0  -4 7280.40 633.952   5
   6   0  -4 6309.74 621.771   4
   6   0  -4 6310.02 679.536   3
   6   0  -3 534.344 278.107   3
   6   0  -3 553.791 228.376   5
   6   0  -3 248.105 165.931   4
   6   0  -2 782.971 251.283   5
   6   0  -2 776.440 283.235   3
   6   0  -2 536.239 194.931   4
   6   0  -1 4731.41 517.192   5
   6   0  -1 4790.02 463.452   4
   6   0  -1 5044.14 612.920   3
   6   0   0 28824.6 1252.70   5
   6   0   0 29929.4 1065.66   4
   6   0   0 29954.5 1466.75   3
   6   0   1 25266.7 1109.02   6
   6   0   1 23920.3 1131.39   5
   6   0   1 25844.9 891.142   4
   6   0   1 24931.1 1341.21   3
   6   0   2 2377.44 367.391   6
   6   0   2 2696.42 399.562   5
   6   0   2 2350.44 231.695   4
   6   0   2 2201.42 433.478   3
   6   0   3 11957.4 791.734   6
   6   0   3 11729.2 791.670   5
   6   0   3 11894.7 938.232   3
   6   0   4 0.74857 170.604   6
   6   0   4-12.2935 132.506   5
   6   0   4 327.734 256.278   3
   6   0   5 17110.7 1009.63   6
   6   0   5 18908.4 995.583   5
  -6   0  -5 18713.1 861.704   2
   6   0   5 19336.0 1200.43   3
  -6   0  -6 239.194 136.117   2
   6   0   6 196.538 187.065   6
   6   0   6 161.691 128.450   5
  -6   0  -6 109.763 117.198   7
   6   0   6 343.572 234.882   3
  -6   0  -7 525.249 172.583   2
   6   0   7 121.869 130.572   5
   6   0   7 306.010 205.026   6
   6   0   7 47.0640 141.735   3
  -6   0  -7 674.418 220.489   7
  -6   0  -8 160.807 141.785   2
  -6   0  -8 123.465 150.136   7
   6   0   8 248.098 173.704   3
  -6   0  -9 2027.45 354.257   2
  -6   0  -9 2387.30 413.198   7
   6   0   9 1806.03 365.476   3
  -6   0 -10 239.665 164.830   2
  -6   0 -11 6354.68 664.856   2
  -6   0 -12 213.683 201.827   2
  -6   0 -13 385.038 222.339   2
  -6   0 -14 730.679 317.935   2
  -6   0 -15 4602.23 693.460   2
  -6   0 -16 3339.99 609.314   2
  -6   0 -17-127.281 184.318   2
   6   1 -19-34.7042 162.927   2
   6   1 -19-43.8648 185.881   4
   6   1 -18 1145.68 353.354   2
   6   1 -18 1105.58 448.073   4
   6   1 -17 304.464 186.851   2
   6   1 -17 149.146 216.875   4
   6   1 -16 567.426 256.051   2
   6   1 -16 516.951 327.817   4
   6   1 -15 1331.97 353.743   2
   6   1 -15 1196.96 454.623   4
   6   1 -14 14746.0 1073.33   2
   6   1 -14 17228.1 1504.09   4
   6   1 -13-10.9789 80.1818   2
   6   1 -13 197.113 254.282   4
   6   1 -12 13384.0 943.864   2
   6   1 -12 14614.7 1291.68   4
   6   1 -12 14613.5 1022.79   3
   6   1 -11 955.483 227.728   5
   6   1 -11 754.326 229.362   2
   6   1 -11 822.965 322.501   4
   6   1 -11 862.084 285.859   3
   6   1 -10 4756.25 505.679   5
   6   1 -10 4022.66 651.921   4
   6   1 -10 4407.75 603.123   3
   6   1  -9 7148.90 630.476   5
   6   1  -9 6941.79 821.379   4
   6   1  -9 6929.96 734.644   3
   6   1  -8 2776.21 401.381   5
   6   1  -8 3501.49 563.064   4
   6   1  -8 3007.82 478.741   3
   6   1  -7 21.5340 101.166   5
   6   1  -7 148.703 118.415   4
   6   1  -7-178.338 166.531   3
   6   1  -6 2807.15 418.730   5
   6   1  -6 1670.16 359.360   4
   6   1  -6 2462.38 440.160   3
   6   1  -5 49062.0 1737.20   5
   6   1  -5 45576.5 1744.08   4
   6   1  -5 47078.0 1880.06   3
   6   1  -4 8429.20 734.380   5
   6   1  -4 8906.29 742.863   4
   6   1  -4 9151.02 840.764   3
   6   1  -3 1848.51 370.246   5
   6   1  -3 1325.65 290.252   4
   6   1  -3 1335.54 340.428   3
   6   1  -2 1816.86 356.811   5
   6   1  -2 1919.46 322.512   4
   6   1  -2 1354.71 357.532   3
   6   1  -1 35373.4 1480.90   5
   6   1  -1 35733.7 1289.33   4
   6   1  -1 33901.0 1600.59   3
   6   1   0 39514.4 1250.83   4
   6   1   0 40184.2 1751.34   3
   6   1   1 469.277 205.013   5
   6   1   1 1203.22 203.393   4
  -6  -1  -1 1229.29 120.931   1
   6   1   1 1048.24 253.066   6
   6   1   1 983.451 310.551   3
   6   1   2 3733.90 450.727   6
   6   1   2 3517.52 481.572   5
   6   1   2 3626.34 304.782   4
   6   1   2 3799.88 556.985   3
   6   1   3 32058.5 1318.94   6
   6   1   3 31452.6 1369.55   5
   6   1   3 30971.4 1541.86   3
   6   1   4 26015.9 1221.91   6
   6   1   4 24466.6 1209.56   5
   6   1   4 22035.0 1313.46   3
   6   1   5 4442.67 537.689   6
   6   1   5 4922.51 545.203   5
   6   1   5 4269.87 581.798   3
   6   1   6 4534.02 558.639   6
   6   1   6 3877.78 480.682   5
  -6  -1  -6 4661.74 473.603   2
   6   1   6 5149.85 635.300   3
  -6  -1  -6 5075.53 480.077   7
   6   1   7 17813.3 1125.19   6
   6   1   7 15739.1 946.525   5
  -6  -1  -7 16964.2 910.902   7
  -6  -1  -7 18446.0 959.842   2
   6   1   7 16379.9 1126.72   3
  -6  -1  -8 837.339 236.206   2
   6   1   8 573.912 190.313   5
  -6  -1  -8 1080.40 264.054   7
   6   1   8 701.994 280.738   6
   6   1   8 965.730 304.762   3
  -6  -1  -9 640.137 222.752   2
   6   1   9 761.968 232.314   5
  -6  -1 -10 3005.99 456.374   2
  -6  -1 -11 8000.56 779.135   2
  -6  -1 -12 1345.62 381.828   2
  -6  -1 -13 1753.22 416.449   2
  -6  -1 -14 26585.8 1591.92   2
  -6  -1 -15 793.076 355.772   2
  -6  -1 -16 731.261 309.374   2
  -6  -1 -17-35.7620 141.090   2
   6   2 -19-439.110 271.910   2
   6   2 -19 43.9933 193.143   4
   6   2 -18 2180.33 496.718   2
   6   2 -18 2957.52 667.000   4
   6   2 -17 174.569 213.724   2
   6   2 -17 1052.36 428.910   4
   6   2 -16 256.147 179.076   2
   6   2 -16 959.087 384.186   4
   6   2 -15 3117.60 537.069   2
   6   2 -15 4148.77 764.919   4
   6   2 -14 3466.70 554.726   2
   6   2 -14 4251.65 769.900   4
   6   2 -13 18075.9 1174.18   2
   6   2 -13 20813.0 1615.31   4
   6   2 -12 3112.08 420.080   5
   6   2 -12 3166.73 622.271   4
   6   2 -11 731.425 215.055   5
   6   2 -11 1083.51 392.220   4
   6   2 -11 639.211 270.930   3
   6   2 -10 28.2612 82.4505   5
   6   2 -10-96.6544 192.242   4
   6   2 -10 137.017 146.274   3
   6   2  -9 1814.36 357.148   5
   6   2  -9 2097.60 414.656   3
   6   2  -9 1556.72 412.624   4
   6   2  -8 11217.2 866.458   5
   6   2  -8 10681.9 979.769   4
   6   2  -8 10939.6 941.222   3
   6   2  -7 487.388 203.389   5
   6   2  -7 500.216 266.636   4
   6   2  -7 597.692 255.898   3
   6   2  -6 1456.84 333.957   5
   6   2  -6 1072.76 313.289   4
   6   2  -6 1727.90 395.538   3
   6   2  -5-35.3065 136.565   5
   6   2  -5-145.304 160.032   4
   6   2  -5 31.9157 163.057   3
   6   2  -4 1961.53 401.495   5
   6   2  -4 2186.05 396.301   4
   6   2  -4 1900.90 420.481   3
   6   2  -3 5392.85 629.238   5
   6   2  -3 6295.17 617.818   4
   6   2  -3 5843.78 703.106   3
   6   2  -2 591.520 253.711   5
   6   2  -2 694.524 218.342   4
   6   2  -2 899.425 318.489   3
   6   2  -1 542.724 228.552   5
   6   2  -1 498.232 177.804   4
   6   2  -1 788.605 326.904   3
  -6  -2   0 94.7389 77.0829   1
   6   2   0 64.1879 172.175   5
   6   2   0 32.6051 97.1868   4
   6   2   0 151.685 177.551   3
   6   2   1 14365.2 863.564   6
   6   2   1 15223.6 1037.82   5
   6   2   1 13575.6 694.359   4
  -6  -2  -1 13625.2 501.230   1
   6   2   1 12107.5 999.931   3
   6   2   2 372.854 177.103   6
   6   2   2 702.725 269.067   5
   6   2   2 697.295 285.472   3
   6   2   3 1219.21 290.672   6
   6   2   3 1343.89 320.306   5
   6   2   3 1537.39 390.314   3
   6   2   4 10560.5 801.788   6
   6   2   4 10143.5 835.469   5
   6   2   4 9782.14 910.962   3
   6   2   5 316.270 178.409   6
   6   2   5 311.789 209.938   3
   6   2   6 11281.6 891.922   6
   6   2   6 11033.2 858.797   5
   6   2   6 10876.0 953.598   3
  -6  -2  -6 11712.4 678.028   7
   6   2   7 5060.58 633.996   6
   6   2   7 6005.75 626.385   5
  -6  -2  -7 6631.39 619.382   2
   6   2   7 5709.85 697.754   3
  -6  -2  -8 791.799 243.468   2
   6   2   8 517.202 237.262   6
   6   2   8 357.875 187.978   5
   6   2   9 4883.04 661.774   6
   6   2   9 5293.83 566.833   5
  -6  -2  -9 4694.28 557.756   2
  -6  -2 -10 1.97128 158.876   2
  -6  -2 -11 3477.09 531.124   2
  -6  -2 -12 178.192 181.955   2
  -6  -2 -13 4666.10 669.621   2
  -6  -2 -14 11414.8 1070.50   2
  -6  -2 -15 2028.98 475.453   2
  -6  -2 -16 114.409 127.680   2
   6   3 -18 4808.79 887.686   4
   6   3 -17 1158.93 452.763   4
   6   3 -16 2174.50 578.501   4
   6   3 -15 317.132 271.423   4
   6   3 -14 2018.27 561.852   4
   6   3 -13 2355.45 585.572   4
   6   3 -12 12196.5 869.764   5
   6   3 -12 11183.2 1166.07   4
   6   3 -11 2559.19 427.856   5
   6   3 -11 2393.60 548.161   4
   6   3 -11 2211.67 412.190   3
   6   3 -10 13724.4 996.625   5
   6   3 -10 12347.8 1144.64   4
   6   3 -10 13854.9 1070.93   3
   6   3  -9 997.287 285.847   5
   6   3  -9 447.618 254.471   4
   6   3  -9 1418.11 372.767   3
   6   3  -8 29613.0 1503.05   5
   6   3  -8 28501.5 1627.40   4
   6   3  -8 33019.3 1661.00   3
   6   3  -7 7146.21 751.842   5
   6   3  -7 6241.48 737.505   4
   6   3  -7 7672.08 807.347   3
   6   3  -6 2581.42 462.263   5
   6   3  -6 2360.60 456.866   4
   6   3  -6 2506.66 472.627   3
   6   3  -5 613.063 256.756   5
   6   3  -5 482.973 193.284   4
   6   3  -5 274.693 202.156   3
   6   3  -4 3959.59 574.693   5
   6   3  -4 3835.14 523.936   4
   6   3  -4 3474.64 568.506   3
   6   3  -3 15059.7 1106.74   5
   6   3  -3 13476.7 916.333   4
   6   3  -3 14342.2 1120.46   3
   6   3  -2 26765.8 1451.22   5
   6   3  -2 27656.3 1244.97   4
   6   3  -2 28637.2 1568.41   3
   6   3  -1 21665.9 1305.37   5
   6   3  -1 22527.0 1072.75   4
  -6  -3   1 22152.7 970.542   1
   6   3  -1 22217.4 1392.96   3
   6   3   0 20719.7 1279.63   5
   6   3   0 21139.0 975.319   4
  -6  -3   0 21330.6 848.582   1
   6   3   0 19543.0 1313.13   3
   6   3   1 2552.74 374.547   6
   6   3   1 2410.29 461.281   5
  -6  -3  -1 2637.64 268.571   1
   6   3   1 2424.76 495.490   3
   6   3   2 11413.3 809.554   6
   6   3   2 13192.9 1022.67   5
   6   3   2 12112.3 1041.22   3
   6   3   3 31737.6 1365.97   6
   6   3   3 32208.6 1587.58   5
   6   3   3 28440.8 1574.85   3
   6   3   4 218.309 187.277   6
   6   3   4 367.016 227.284   5
   6   3   4 77.8752 154.011   3
   6   3   5 7912.67 727.618   6
   6   3   5 7969.35 797.133   5
   6   3   5 7920.18 846.247   3
   6   3   6 838.488 276.937   6
   6   3   6 592.128 255.404   5
   6   3   6 364.953 241.518   3
   6   3   7 9057.06 847.941   6
   6   3   7 9996.88 865.620   5
  -6  -3  -7 9459.44 770.096   2
   6   3   8 8221.25 834.773   6
   6   3   8 7543.59 738.527   5
  -6  -3  -8 8030.09 737.415   2
  -6  -3  -9 76.7138 136.496   2
   6   3   9-131.238 129.640   5
   6   3   9-175.210 267.562   6
  -6  -3 -10 629.533 248.575   2
   6   3  10 522.287 260.618   6
  -6  -3 -11 1388.12 361.534   2
  -6  -3 -12 13713.7 1115.55   2
  -6  -3 -13 4244.07 654.469   2
  -6  -3 -14 1215.89 368.939   2
  -6  -3 -15 434.206 284.269   2
  -6  -3 -16 614.589 314.237   2
   6   4 -18 2840.34 652.515   4
   6   4 -17-27.2054 224.872   4
   6   4 -16 1359.75 446.979   4
   6   4 -15 469.757 331.192   4
   6   4 -14 959.082 372.328   4
   6   4 -13 618.595 322.810   4
   6   4 -12 6889.54 717.537   5
   6   4 -12 7504.85 977.226   4
   6   4 -11 2660.99 464.240   5
   6   4 -11 3246.89 650.836   4
   6   4 -11 1993.24 410.136   3
   6   4 -10-195.012 186.380   5
   6   4 -10 274.814 218.802   4
   6   4 -10 198.694 161.929   3
   6   4  -9 795.878 280.965   5
   6   4  -9 911.348 341.751   4
   6   4  -9 461.440 238.755   3
   6   4  -8 1526.52 389.150   5
   6   4  -8 2383.29 499.991   4
   6   4  -8 2154.84 451.797   3
   6   4  -7-48.3452 163.892   5
   6   4  -7-167.990 203.273   4
   6   4  -7 270.459 206.299   3
   6   4  -6 15.4848 182.162   5
   6   4  -6 103.476 148.058   4
   6   4  -6-111.668 188.004   3
   6   4  -5 165.945 181.630   5
   6   4  -5 324.616 202.355   4
   6   4  -5 32.4315 172.075   3
   6   4  -4 159.368 241.937   5
   6   4  -4 499.426 213.236   4
   6   4  -4 462.178 231.422   3
   6   4  -3 2.40901 225.596   5
   6   4  -3 44.0063 116.924   4
   6   4  -3 135.808 211.223   3
   6   4  -2 13699.2 1107.17   5
   6   4  -2 12584.8 866.423   4
  -6  -4   2 12686.5 831.878   1
   6   4  -2 12814.0 1097.85   3
   6   4  -1-48.2353 243.787   5
   6   4  -1 122.067 116.774   4
  -6  -4   1 265.018 136.136   1
   6   4  -1 32.8369 255.206   3
  -6  -4   0 2341.71 317.992   1
   6   4   0 1751.18 443.003   5
   6   4   0 1723.97 449.968   3
   6   4   1-26.8914 111.908   6
   6   4   1 194.317 208.389   5
  -6  -4  -1-128.918 82.0271   1
   6   4   1 78.1729 245.593   3
   6   4   2-465.411 195.703   6
   6   4   2 48.1782 172.518   5
   6   4   2 26.6107 156.280   3
   6   4   3 1131.41 284.013   6
   6   4   3 1262.63 348.715   5
   6   4   3 1054.46 341.994   3
   6   4   4 6105.97 640.843   6
   6   4   4 7372.19 816.468   5
   6   4   4 6029.78 765.871   3
   6   4   5 28295.0 1561.37   5
   6   4   5 30223.1 1442.14   6
   6   4   6 759.950 274.827   5
   6   4   6 364.853 188.574   6
   6   4   7 1628.80 383.727   6
   6   4   7 2481.61 467.242   5
   6   4   8 5922.86 732.261   6
   6   4   8 5964.21 695.332   5
  -6  -4  -8 5373.89 645.391   2
  -6  -4  -9 3709.27 542.372   2
   6   4   9 4784.59 673.720   6
   6   4   9 4416.19 584.874   5
  -6  -4 -10 2412.38 469.180   2
   6   4  10 2060.05 497.487   6
  -6  -4 -11-322.303 211.486   2
   6   4  11-328.327 246.829   6
   6   4  12 1807.69 478.898   6
  -6  -4 -12 2178.00 481.856   2
   6   4  13 3159.98 615.067   6
  -6  -4 -13 2705.06 535.768   2
   6   4  14-391.909 249.650   6
  -6  -4 -14 13.3587 209.204   2
   6   4  15 2384.75 583.767   6
  -6  -4 -15 1317.02 417.747   2
   6   5 -17 790.958 362.109   4
   6   5 -16 157.052 191.095   4
   6   5 -15 21.6201 146.529   4
   6   5 -14 2011.49 578.341   4
   6   5 -13-66.6952 169.264   4
   6   5 -12 1854.18 403.804   5
   6   5 -12 1683.54 485.050   4
   6   5 -11 102.399 183.097   5
   6   5 -11 311.018 269.521   4
   6   5 -10 24328.3 1489.81   5
   6   5 -10 21255.8 1534.89   4
   6   5  -9 2553.64 519.761   5
   6   5  -9 1608.19 448.735   4
   6   5  -8 138.269 175.894   5
   6   5  -8 570.101 271.337   4
   6   5  -8 533.729 280.676   3
   6   5  -7 2956.06 547.868   5
   6   5  -7 3819.88 603.472   4
   6   5  -7 4192.55 636.259   3
   6   5  -6 11095.7 1039.08   5
   6   5  -6 9598.99 910.516   4
   6   5  -6 10995.2 1024.15   3
   6   5  -5 5114.84 721.802   5
   6   5  -5 5310.72 664.212   4
   6   5  -5 5255.78 726.638   3
   6   5  -4 7533.63 861.977   5
   6   5  -4 6982.37 729.748   4
   6   5  -4 7522.38 858.774   3
  -6  -5   4 8480.05 799.044   1
   6   5  -3 5168.04 740.712   5
   6   5  -3 4934.82 586.452   4
  -6  -5   3 5167.82 601.922   1
   6   5  -3 5187.89 712.685   3
   6   5  -2 14196.1 1195.91   5
   6   5  -2 15138.5 985.673   4
  -6  -5   2 14803.3 941.637   1
   6   5  -2 16404.9 1283.74   3
   6   5  -1 689.531 314.985   5
  -6  -5   1 616.334 214.777   1
   6   5  -1 779.356 321.070   3
   6   5   0 540.489 274.265   5
   6   5   0 318.523 271.546   3
  -6  -5   0 247.766 130.553   1
   6   5   1 449.647 311.455   5
  -6  -5  -1 597.156 166.156   1
   6   5   2 4365.21 522.761   6
   6   5   2 5689.93 775.612   5
   6   5   3 3068.39 448.938   6
   6   5   3 3051.54 584.883   5
   6   5   4 6183.01 644.242   6
   6   5   4 5641.86 762.474   5
   6   5   5 329.281 182.719   6
   6   5   5 31.0492 163.960   5
   6   5   6 1612.22 365.190   6
   6   5   6 1307.62 375.606   5
   6   5   7 172.218 202.194   6
   6   5   7 768.329 277.290   5
  -6  -5  -8 1200.72 355.596   2
   6   5   8 764.395 272.411   6
   6   5   8 911.147 310.335   5
  -6  -5  -9 3499.69 573.323   2
   6   5   9 3601.42 606.572   6
   6   5   9 3697.77 570.817   5
  -6  -5 -10 2888.33 522.850   2
   6   5  10 2219.99 488.532   6
  -6  -5 -11 1729.23 425.754   2
   6   5  11 2060.91 506.284   6
  -6  -5 -12 2461.55 507.747   2
   6   5  12 2234.78 527.818   6
   6   5  13 468.950 263.636   6
  -6  -5 -13 1032.86 388.440   2
   6   5  14 798.388 326.942   6
  -6  -5 -14 1558.29 421.930   2
   6   6 -16 13848.1 1419.11   4
   6   6 -15 554.952 341.176   4
   6   6 -14 599.168 319.129   4
   6   6 -13 247.802 229.663   4
   6   6 -12 12400.0 1083.68   5
   6   6 -12 12984.7 1282.53   4
   6   6 -11 4218.92 655.652   5
   6   6 -11 4391.52 737.663   4
   6   6 -10 1762.73 443.749   5
   6   6 -10 2212.35 518.317   4
   6   6  -9 3136.13 589.393   5
   6   6  -9 2988.28 580.726   4
   6   6  -8 5803.40 782.430   5
   6   6  -8 7437.46 871.397   4
   6   6  -7 5786.29 789.285   5
   6   6  -7 6665.56 796.046   4
   6   6  -6 11620.3 1109.09   5
   6   6  -6 10365.5 966.984   4
  -6  -6   6 12598.1 1105.75   1
   6   6  -5-63.8616 196.508   5
  -6  -6   5 62.0483 192.201   1
   6   6  -5 205.746 205.501   4
   6   6  -4 5129.79 764.959   5
   6   6  -4 4289.83 589.554   4
  -6  -6   4 5339.81 677.236   1
   6   6  -3 98.4833 242.200   5
   6   6  -3 305.501 181.145   4
  -6  -6   3 260.051 170.468   1
   6   6  -2 1320.85 392.098   5
  -6  -6   2 1444.49 345.010   1
   6   6  -1 1317.08 428.098   5
  -6  -6   1 1120.98 265.773   1
   6   6   0 999.315 383.217   5
  -6  -6   0 1660.86 320.249   1
   6   6   1 852.990 356.531   5
   6   6   2 1575.62 461.001   5
   6   6   3 5044.75 583.369   6
   6   6   3 6155.29 853.095   5
   6   6   4 828.014 382.517   5
   6   6   4 487.150 202.562   6
   6   6   5 4170.33 572.466   6
   6   6   5 3866.58 678.170   5
   6   6   6 3247.55 505.535   6
   6   6   6 2225.40 506.825   5
   6   6   7 499.324 234.728   6
   6   6   7 122.037 196.305   5
  -6  -6  -8 1299.06 371.704   2
   6   6   8 1314.64 377.334   5
   6   6   8 1391.94 374.970   6
  -6  -6  -9 174.851 173.117   2
   6   6   9 305.753 244.835   6
  -6  -6 -10 728.439 310.638   2
   6   6  10 527.605 254.380   6
   6   6  11 3531.80 619.142   6
  -6  -6 -11 4010.69 670.328   2
  -6  -6 -12-94.2439 186.679   2
   6   6  12 205.755 183.075   6
  -6  -6 -13 840.860 341.290   2
   6   6  13 288.976 194.803   6
   6   6  14 181.719 182.965   6
   6   7 -15 5979.80 913.670   4
   6   7 -14 7352.35 1027.99   4
   6   7 -13 2163.56 593.787   4
   6   7 -12 12834.8 1155.92   5
   6   7 -12 14476.4 1376.68   4
   6   7 -11 1510.74 409.819   5
   6   7 -11 2059.78 514.783   4
   6   7 -10-38.4743 176.955   5
   6   7 -10 149.896 180.673   4
   6   7  -9-133.665 193.760   5
   6   7  -9 207.331 198.194   4
   6   7  -8 2490.11 559.015   5
  -6  -7   8 2917.01 629.624   1
   6   7  -8 3312.62 593.938   4
   6   7  -7 3513.79 660.714   5
   6   7  -7 2972.32 551.461   4
  -6  -7   7 2893.04 578.012   1
   6   7  -6 1492.97 449.066   5
   6   7  -6 1592.86 411.572   4
  -6  -7   6 1422.71 426.621   1
  -6  -7   5 496.292 239.814   1
   6   7  -5 485.870 299.450   5
   6   7  -5 556.853 259.502   4
   6   7  -4 2470.62 568.653   5
  -6  -7   4 3433.14 561.949   1
   6   7  -3 2670.09 588.142   5
  -6  -7   3 2986.21 524.558   1
  -6  -7   2 2242.08 426.441   1
   6   7  -2 1838.38 515.573   5
   6   7  -1 710.756 307.578   5
  -6  -7   1 930.431 275.488   1
   6   7   0 3011.41 649.581   5
  -6  -7   0 2715.74 433.638   1
   6   7   1 1060.71 402.329   5
   6   7   2 256.141 317.089   5
   6   7   3 8850.21 1079.35   5
   6   7   4 2110.10 395.805   6
   6   7   4 3367.55 670.707   5
   6   7   5 1753.74 373.914   6
   6   7   5 1438.27 452.016   5
   6   7   6 269.598 187.613   6
   6   7   6 378.399 206.263   5
   6   7   7 999.798 291.732   6
   6   7   7 2260.61 553.643   5
  -6  -7  -8 397.758 243.778   2
   6   7   8 156.547 136.356   6
   6   7   8 403.302 265.210   5
   6   7   9 3631.83 597.833   6
  -6  -7  -9 4334.92 678.419   2
  -6  -7 -10 263.349 223.557   2
   6   7  10-110.654 146.758   6
  -6  -7 -11 234.710 200.633   2
   6   7  11-12.1363 62.1534   6
  -6  -7 -12 31.7704 118.145   2
   6   7  12 34.9424 98.2375   6
   6   7  13-240.158 173.844   6
   6   8 -14 9535.59 1137.90   4
  -6  -8  14 9980.92 1372.75   1
   6   8 -13-68.5008 187.349   4
  -6  -8  13-404.222 278.890   1
   6   8 -12 678.567 318.665   5
   6   8 -12 1289.90 447.352   4
  -6  -8  12 943.066 452.775   1
   6   8 -11 744.936 315.321   5
   6   8 -11 1394.57 433.430   4
   6   8 -10 214.383 236.345   5
   6   8 -10 1062.51 366.065   4
  -6  -8  10 639.031 383.058   1
   6   8  -9 6223.04 902.151   5
   6   8  -9 6432.62 863.843   4
  -6  -8   9 8561.44 1106.38   1
   6   8  -8 2745.21 607.430   5
   6   8  -8 2538.86 562.942   4
  -6  -8   8 2963.00 657.817   1
   6   8  -7 6027.25 907.186   5
   6   8  -7 6262.84 818.967   4
  -6  -8   7 8110.41 1003.74   1
   6   8  -6 3038.51 649.201   5
  -6  -8   6 2710.08 542.962   1
   6   8  -5 9940.42 1156.47   5
  -6  -8   5 11890.9 1112.22   1
   6   8  -4 2134.54 564.022   5
  -6  -8   4 2003.48 459.532   1
  -6  -8   3 821.769 308.618   1
   6   8  -3 69.7735 248.806   5
   6   8  -2 1607.43 525.415   5
  -6  -8   2 2758.88 478.786   1
   6   8  -1 140.303 336.174   5
  -6  -8   1 94.3558 167.992   1
   6   8   0-863.211 433.268   5
   6   8   1 17365.2 1572.21   5
   6   8   2-395.605 343.584   5
   6   8   3 1508.51 522.200   5
   6   8   4 509.329 341.650   5
   6   8   5 1141.60 303.774   6
   6   8   5 175.772 257.148   5
   6   8   6 3684.54 536.111   6
   6   8   6 3552.42 738.197   5
   6   8   7 1288.72 414.539   5
   6   8   8 1141.18 415.046   5
  -6  -8  -8 814.481 327.885   2
  -6  -8  -9-190.789 215.495   2
  -6  -8 -10 454.439 239.254   2
  -6  -8 -11 969.647 361.080   2
  -6  -9  13 4693.44 921.905   1
   6   9 -13 5869.19 917.283   4
   6   9 -12 12853.6 1322.31   4
  -6  -9  12 14204.8 1595.00   1
   6   9 -11 1098.25 399.588   5
  -6  -9  11-337.386 277.490   1
   6   9 -10 3089.28 647.384   5
  -6  -9  10 3730.14 786.206   1
  -6  -9   9 880.840 394.860   1
   6   9  -9 1733.75 526.636   5
   6   9  -8 1368.06 501.399   5
  -6  -9   8 726.034 321.103   1
   6   9  -7-711.454 384.043   5
  -6  -9   7 20.9040 205.649   1
   6   9  -6 1854.28 511.497   5
  -6  -9   6 2690.68 580.670   1
  -6  -9   5-269.586 226.844   1
   6   9  -5-488.953 317.219   5
   6   9  -4 453.969 339.409   5
  -6  -9   4 796.318 305.032   1
   6   9  -3-27.1593 302.394   5
  -6  -9   3 175.428 147.676   1
   6   9  -2 14510.4 1481.47   5
  -6  -9   2 17619.6 1253.21   1
   6   9  -1-236.325 277.317   5
   6   9   0 8946.80 1191.20   5
   6   9   1 21057.5 1821.03   5
   6   9   2-149.986 299.011   5
   6   9   3 2261.09 635.545   5
   6   9   4 250.967 288.825   5
   6   9   5 1375.26 522.383   5
   6   9   6 2007.19 608.178   5
   6   9   7-383.969 269.206   5
  -6  -9  -8 2165.61 559.946   2
  -6  -9  -9 1051.39 399.876   2
   6  10 -11-1.91151 124.362   5
  -6 -10  11-179.646 263.784   1
   6  10 -10-315.287 280.171   5
  -6 -10  10-134.755 245.945   1
   6  10  -9 694.896 382.581   5
  -6 -10   9 547.484 305.906   1
   6  10  -8 113.285 223.436   5
  -6 -10   8 301.456 245.365   1
  -6 -10   7 697.388 323.953   1
   6  10  -7-154.862 267.159   5
  -6 -10   6 1144.00 418.906   1
   6  10  -6 272.924 294.992   5
   6  10  -5 14687.9 1557.45   5
  -6 -10   5 15015.6 1320.11   1
   6  10  -4 985.025 432.748   5
  -6 -10   4 1287.63 405.679   1
   6  10  -3 3361.98 787.693   5
  -6 -10   3 3176.09 580.963   1
   6  10  -2-27.8028 224.051   5
   6  10  -1 962.889 498.610   5
   6  10   0 5051.13 947.088   5
   6  10   1-609.910 371.597   5
   6  10   2-544.986 398.259   5
   6  10   3 7.08706 251.821   5
   6  10   4 77.2901 224.100   5
   6  10   5 5317.38 948.629   5
   6  10   6-106.075 235.109   5
   6  10   7 864.749 367.477   5
  -6 -11   9 1941.95 555.717   1
   6  11  -9 2943.87 682.816   5
   6  11  -8 1428.66 513.352   5
  -6 -11   8 3295.27 706.655   1
   6  11  -7-830.795 428.955   5
  -6 -11   7-96.2262 215.581   1
   6  11  -6 510.319 322.872   5
  -6 -11   6 622.883 290.013   1
   6  11  -5 964.920 459.130   5
  -6 -11   5 136.772 206.401   1
   6  11  -4 834.901 439.889   5
   6  11  -3 332.406 371.032   5
   6  11  -2 334.195 355.052   5
   6  11  -1 3518.85 832.411   5
   6  11   0 6604.58 1086.65   5
   6  11   1 2513.61 747.974   5
   6  11   2-776.155 466.782   5
   6  11   3 2735.71 757.810   5
   6  11   4 654.574 406.206   5
   6  11   5 541.334 329.916   5
   7 -15  -2 2829.34 670.983   1
   7 -15  -1-14.0562 106.992   1
   7 -15   0 323.435 251.417   3
   7 -15   0-105.458 204.301   1
   7 -15   1 1582.14 648.781   3
   7 -15   1 2573.67 634.071   1
   7 -15   2 2291.03 669.414   3
   7 -15   2 2211.16 573.040   1
  -7  15  -3 5136.77 981.072   7
   7 -15   3 3479.04 786.738   3
   7 -15   3 3432.80 684.725   1
  -7  15  -4 1832.03 589.677   7
   7 -15   4 1068.29 452.617   3
   7 -15   4 811.065 339.263   1
   7 -14  -6 841.166 388.142   1
   7 -14  -6 448.757 343.815   3
   7 -14  -5 988.780 404.656   1
   7 -14  -5 2994.08 784.357   3
   7 -14  -4 761.450 471.195   3
   7 -14  -4 85.3141 186.178   1
   7 -14  -3 945.904 507.555   3
   7 -14  -3 1424.20 461.463   1
   7 -14  -2 4624.03 931.039   3
   7 -14  -2 4248.22 779.535   1
   7 -14  -1 273.026 278.382   3
   7 -14  -1 447.219 293.551   1
  -7  14   0 4381.30 821.992   7
   7 -14   0 4808.45 924.173   3
   7 -14   0 3161.80 658.984   1
  -7  14  -1 292.613 268.330   7
   7 -14   1 390.947 307.046   3
   7 -14   1-5.24979 167.547   1
  -7  14  -2 251.068 263.197   7
   7 -14   2 111.760 343.547   3
   7 -14   2 32.3107 189.645   1
   7 -14   3-306.872 286.361   3
   7 -14   3-161.241 216.157   1
  -7  14  -4 1371.27 515.616   7
   7 -14   4 684.052 370.292   3
   7 -14   4 336.836 233.710   1
  -7  14  -5 1850.66 616.355   7
   7 -14   5 998.600 439.198   3
   7 -14   5 1645.81 447.450   1
  -7  14  -6 172.853 288.614   7
  -7  14  -7 215.438 287.930   7
   7 -13  -9-265.373 217.647   3
   7 -13  -9 64.6516 109.675   1
   7 -13  -8-240.004 254.008   1
   7 -13  -8 1117.95 458.347   3
   7 -13  -7 227.942 274.796   1
   7 -13  -7-106.553 242.045   3
   7 -13  -6 129.724 176.381   1
   7 -13  -6 25.8044 258.156   3
   7 -13  -5 54.0435 186.744   1
   7 -13  -5-2.32874 210.688   3
   7 -13  -4 1626.37 617.859   3
   7 -13  -4 1222.99 451.904   1
   7 -13  -3 912.787 453.269   3
   7 -13  -3 707.323 381.992   1
   7 -13  -2 1854.58 596.124   3
   7 -13  -2 1780.16 487.251   1
  -7  13   2 1668.74 512.375   7
  -7  13   1 4554.91 802.082   7
   7 -13  -1 4148.12 833.295   3
   7 -13  -1 4123.15 731.258   1
  -7  13   0 7231.94 1035.14   7
   7 -13   0 6835.65 1112.97   3
   7 -13   0 6474.59 885.927   1
   7 -13   1 1651.53 556.863   3
  -7  13  -1 1435.19 514.231   7
   7 -13   1 1336.08 411.578   1
  -7  13  -2 699.962 378.502   7
   7 -13   2 377.277 313.768   3
   7 -13   2 47.6524 233.988   1
  -7  13  -3 2370.00 633.954   7
   7 -13   3 2157.81 601.425   3
   7 -13   3 1797.10 464.405   1
   7 -13   4 1318.49 465.110   3
   7 -13   4 833.603 321.171   1
  -7  13  -4 1815.96 569.728   7
  -7  13  -5 1554.26 575.898   7
   7 -13   5 2029.88 595.345   3
   7 -13   5 1205.28 355.244   1
  -7  13  -6 1961.37 647.313   7
  -7  13  -7 1523.77 582.661   7
  -7  13  -8 9136.98 1352.69   7
  -7  13  -9 3629.20 895.061   7
  -7  13 -10 1641.63 603.805   7
   7 -12 -11 162.878 197.525   3
   7 -12 -10-234.938 280.177   3
   7 -12 -10-236.688 246.014   1
   7 -12  -9 78.9464 139.691   1
   7 -12  -9-100.603 230.301   3
   7 -12  -8 2467.16 630.372   1
   7 -12  -8 1099.36 461.224   3
   7 -12  -7 130.108 197.896   1
   7 -12  -7 517.485 369.547   3
   7 -12  -6 2527.60 603.046   1
   7 -12  -6 3170.39 749.350   3
   7 -12  -5-35.1921 177.358   1
   7 -12  -5 141.991 254.288   3
   7 -12  -4 2210.50 630.212   3
   7 -12  -4 1566.65 431.389   1
  -7  12   4 1751.29 470.686   7
   7 -12  -3 4621.34 854.120   3
   7 -12  -3 5385.99 810.121   1
  -7  12   3 3937.15 704.390   7
   7 -12  -2 6750.91 1013.62   3
   7 -12  -2 5813.13 838.661   1
  -7  12   2 6365.45 872.275   7
   7 -12  -1 568.188 417.766   3
   7 -12  -1 640.741 267.275   1
  -7  12   1 1190.39 416.236   7
   7 -12   0 13016.0 1188.51   1
   7 -12   0 13953.1 1485.77   3
  -7  12   0 15470.0 1413.58   7
  -7  12  -1 1278.14 455.022   7
   7 -12   1 1982.20 571.978   3
   7 -12   1 1338.65 390.694   1
  -7  12  -2 1340.24 506.612   7
   7 -12   2 1913.33 579.782   3
   7 -12   2 1213.57 355.196   1
  -7  12  -3-115.037 252.796   7
   7 -12   3 510.826 349.663   3
   7 -12   3 297.845 217.385   1
   7 -12   4 7344.90 1083.99   3
   7 -12   4 5939.20 766.358   1
  -7  12  -4 8833.05 1171.96   7
  -7  12  -5 607.159 357.234   7
   7 -12   5 742.405 286.012   1
   7 -12   5 282.212 257.301   3
   7 -12   6 1122.25 415.710   3
  -7  12  -6 1191.35 487.853   7
  -7  12  -7 588.401 360.188   7
  -7  12  -8 490.379 399.736   7
  -7  12  -9 404.794 382.551   7
  -7  12 -10 379.504 368.709   7
  -7  12 -11 6516.92 1186.54   7
   7 -11 -12 2960.00 705.141   3
   7 -11 -12 1899.79 575.434   1
   7 -11 -11 512.986 292.869   3
   7 -11 -11 601.315 362.539   1
   7 -11 -10 3199.08 735.162   3
   7 -11 -10 2314.13 618.981   1
   7 -11  -9 1388.30 524.870   1
   7 -11  -9 673.640 362.217   3
   7 -11  -8 1865.49 522.716   1
   7 -11  -8 1436.78 500.792   3
   7 -11  -7 4351.37 775.548   1
   7 -11  -7 3964.11 812.180   3
   7 -11  -6 736.421 338.587   1
   7 -11  -6 1042.65 441.880   3
   7 -11  -5 308.801 261.746   1
   7 -11  -5 1868.30 603.554   3
   7 -11  -4 453.441 329.741   3
   7 -11  -4-174.248 223.685   1
   7 -11  -3-69.3018 239.530   3
   7 -11  -3-16.9112 152.673   1
  -7  11   3-194.915 228.888   7
   7 -11  -2 4129.87 786.401   3
   7 -11  -2 3026.68 579.706   1
  -7  11   2 3084.55 599.527   7
   7 -11  -1 1347.72 464.164   3
   7 -11  -1 1417.95 414.912   1
  -7  11   1 1238.12 421.629   7
   7 -11   0 14546.6 1189.85   1
   7 -11   0 14097.1 1411.48   3
  -7  11   0 14215.6 1278.85   7
  -7  11  -1 2148.04 559.509   7
   7 -11   1 1399.46 464.914   3
   7 -11   1 1796.79 413.639   1
   7 -11   2 414.244 292.128   3
   7 -11   2 129.014 160.897   1
  -7  11  -2 518.886 325.269   7
  -7  11  -3 282.028 281.186   7
   7 -11   3 84.1491 236.235   3
   7 -11   3 331.513 247.330   1
   7 -11   4 18.3368 235.130   3
  -7  11  -4 239.196 291.854   7
   7 -11   4 196.214 144.293   1
  -7  11  -5 5368.60 902.474   7
   7 -11   5 4297.99 770.119   3
   7 -11   5 5000.50 650.673   1
  -7  11  -6 621.164 388.027   7
   7 -11   6-224.338 223.507   3
  -7  11  -7-318.982 325.359   7
  -7  11  -8 472.632 441.291   7
  -7  11  -9 1291.44 545.796   7
  -7  11 -10 16439.9 1755.15   7
  -7  11 -11 3592.19 847.260   7
  -7  11 -12 2620.39 745.124   7
  -7  11 -13 590.456 270.184   7
   7 -10 -13-181.702 216.194   3
   7 -10 -13-341.846 271.648   1
   7 -10 -12-302.588 297.494   3
   7 -10 -12 655.896 370.647   1
   7 -10 -11 169.403 242.156   3
   7 -10 -11 72.9058 179.994   1
   7 -10 -10-299.737 267.612   3
   7 -10 -10 488.582 290.638   1
   7 -10  -9 3284.13 714.736   3
   7 -10  -9 3002.95 685.274   1
   7 -10  -8 571.735 382.272   1
   7 -10  -8-92.7338 231.464   3
   7 -10  -7 4644.02 793.914   1
   7 -10  -7 3719.59 746.687   3
   7 -10  -6 4435.41 744.251   1
   7 -10  -6 6208.09 960.205   3
   7 -10  -5 83.1707 201.765   1
   7 -10  -5 808.952 425.349   3
   7 -10  -4 227.539 257.700   3
   7 -10  -4-241.179 238.826   1
   7 -10  -3-25.6755 229.217   3
   7 -10  -3 508.095 267.181   1
   7 -10  -2 3506.99 697.442   3
   7 -10  -2 4337.68 654.021   1
   7 -10  -1 950.643 442.689   3
   7 -10  -1 835.453 299.396   1
   7 -10   0-491.407 319.264   3
   7 -10   0 170.398 173.512   1
  -7  10   0-138.704 261.976   7
   7 -10   1 1978.43 542.196   3
  -7  10  -1 2816.39 571.621   7
   7 -10   1 3095.15 520.455   1
   7 -10   2 9270.19 865.251   1
   7 -10   2 10611.7 1157.73   3
  -7  10  -2 10982.0 1124.10   7
  -7  10  -3 3344.02 653.738   7
   7 -10   3 2188.56 547.365   3
   7 -10   3 2865.20 481.680   1
   7 -10   4 4797.16 789.020   3
   7 -10   4 5358.61 639.584   1
  -7  10  -4 5455.80 856.931   7
   7 -10   5 8421.38 786.743   1
   7 -10   5 7900.49 963.842   3
  -7  10  -5 9463.74 1136.96   7
   7 -10   6 12142.6 1186.35   3
  -7  10  -6 11526.1 1271.32   7
  -7  10  -7 87.4520 302.970   7
   7 -10   7 255.904 241.061   3
  -7  10  -8 745.308 395.437   7
  -7  10  -9 102.027 289.444   7
  -7  10 -10 1726.52 572.282   7
  -7  10 -11 3996.05 871.916   7
  -7  10 -12 4177.85 953.701   7
  -7  10 -13 24929.8 2219.24   7
  -7  10 -14 370.472 371.944   7
   7  -9 -14 477.016 337.947   1
   7  -9 -14 594.512 384.196   4
   7  -9 -13-468.178 324.332   3
   7  -9 -13 726.970 370.306   1
   7  -9 -12 1215.51 440.705   3
   7  -9 -12 144.814 256.718   1
   7  -9 -11 865.743 377.820   3
   7  -9 -11 1629.57 499.051   1
   7  -9 -10 10237.3 1196.32   1
   7  -9 -10 11618.6 1283.16   3
   7  -9  -9-437.552 339.439   3
   7  -9  -9-121.969 203.629   1
   7  -9  -8 11950.1 1226.79   1
   7  -9  -8 12367.8 1310.88   3
   7  -9  -7 5237.15 796.661   1
   7  -9  -7 5664.92 875.685   3
   7  -9  -6 3559.32 647.465   1
   7  -9  -6 4667.71 811.204   3
   7  -9  -5 3848.78 652.294   1
   7  -9  -5 4194.73 771.824   3
   7  -9  -4 10.3347 260.559   3
   7  -9  -4-32.6460 171.479   1
   7  -9  -3 14505.7 1163.27   1
   7  -9  -3 14785.9 1369.76   3
   7  -9  -2 4440.45 757.509   3
   7  -9  -2 4889.07 660.196   1
   7  -9  -1 769.677 364.650   3
   7  -9  -1 516.819 223.511   1
   7  -9   0 1684.17 447.055   3
   7  -9   0 1779.77 389.587   1
   7  -9   1 491.392 313.220   3
   7  -9   1 183.475 175.580   1
  -7   9  -1 567.924 317.125   7
   7  -9   2 12625.4 944.595   1
   7  -9   2 11804.6 1164.46   3
  -7   9  -2 12125.6 1116.04   7
   7  -9   3 10082.0 829.464   1
   7  -9   3 9488.50 1035.82   3
  -7   9  -3 10861.3 1099.13   7
   7  -9   4 27.1280 167.364   3
  -7   9  -4-99.5186 196.618   7
   7  -9   4 144.126 140.708   1
  -7   9  -5 789.965 309.838   7
   7  -9   5 275.294 239.095   3
   7  -9   5 461.729 209.883   1
  -7   9  -6 220.003 275.483   7
   7  -9   6 577.793 250.681   3
  -7   9  -7 5717.36 895.573   7
   7  -9   7 5050.58 724.694   3
  -7   9  -8 3234.55 692.197   7
  -7   9  -9 920.399 395.316   7
  -7   9 -10 3869.85 812.470   7
  -7   9 -11 2007.97 608.660   7
  -7   9 -12 492.623 348.881   7
  -7   9 -13 296.408 321.411   7
  -7   9 -14 727.835 417.280   7
  -7   9 -15 904.067 489.251   7
   7  -8 -15 2684.37 734.109   4
   7  -8 -14 2195.43 700.635   4
   7  -8 -13 1448.56 470.511   3
   7  -8 -13 742.360 387.041   4
   7  -8 -13 720.338 393.338   1
   7  -8 -12 18.4548 192.824   3
   7  -8 -12 149.797 228.269   1
   7  -8 -11 241.567 263.084   3
   7  -8 -11 515.320 352.092   1
   7  -8 -10-430.166 323.856   3
   7  -8 -10-192.090 213.761   1
   7  -8  -9 7259.55 957.860   1
   7  -8  -9 7672.11 1008.58   3
   7  -8  -8 188.748 224.986   3
   7  -8  -8 17.5963 160.267   1
   7  -8  -7 1759.56 467.305   1
   7  -8  -7 1956.26 525.472   3
   7  -8  -6 4953.40 720.085   1
   7  -8  -6 5984.24 892.858   3
   7  -8  -5 23599.0 1511.09   1
   7  -8  -5 26158.6 1766.11   3
   7  -8  -4 16531.4 1227.59   1
   7  -8  -4 16620.8 1403.02   3
   7  -8  -3 6639.17 752.523   1
   7  -8  -3 7634.28 944.215   3
   7  -8  -2 2862.55 590.280   3
   7  -8  -2 3024.37 498.228   1
   7  -8  -1-240.964 232.269   3
   7  -8  -1 397.115 231.165   1
   7  -8   0-11.7640 208.606   3
   7  -8   0 243.467 169.152   1
   7  -8   1 6342.49 649.942   1
   7  -8   1 5835.81 798.775   3
   7  -8   2 1204.72 381.656   3
   7  -8   2 1108.95 277.576   1
   7  -8   3 19291.5 1059.93   1
   7  -8   3 17020.3 1314.23   3
  -7   8  -3 19057.1 1363.25   7
   7  -8   4 458.344 255.629   3
  -7   8  -4 497.504 294.379   7
   7  -8   4 465.117 191.962   1
   7  -8   5 7918.38 876.760   3
  -7   8  -5 9040.50 995.709   7
   7  -8   6 11529.1 778.729   6
   7  -8   6 10478.2 1012.50   3
  -7   8  -6 9809.42 1077.49   7
   7  -8   7 20921.2 1089.98   6
  -7   8  -7 18123.4 1479.33   7
   7  -8   7 17324.1 1269.49   3
   7  -8   8 32315.1 1678.67   3
  -7   8  -8 36473.6 2155.69   7
  -7   8  -9 16689.7 1515.32   7
  -7   8 -10 6147.78 958.122   7
  -7   8 -11 8906.99 1216.63   7
  -7   8 -12 2845.24 747.814   7
  -7   8 -13 319.658 283.878   7
  -7   8 -14 133.742 318.667   7
  -7   8 -15 15701.9 1727.03   7
   7  -7 -16 8244.61 1213.34   4
   7  -7 -15 285.515 266.313   4
   7  -7 -14 860.779 385.093   4
   7  -7 -13-692.812 318.537   3
   7  -7 -13-235.938 241.240   4
   7  -7 -12 2667.66 620.614   3
   7  -7 -12 2838.26 659.590   4
   7  -7 -12 2091.43 576.155   1
   7  -7 -11 204.174 231.238   3
   7  -7 -11 259.551 253.680   1
   7  -7 -10 459.646 287.816   3
   7  -7 -10 1348.34 454.882   1
   7  -7  -9 1441.15 463.460   3
   7  -7  -9 1580.66 444.216   1
   7  -7  -8 4925.70 769.793   3
   7  -7  -8 4892.27 747.934   1
   7  -7  -7 3087.44 609.637   3
   7  -7  -7 2634.89 539.378   1
   7  -7  -6 2083.93 434.185   1
   7  -7  -6 2341.17 546.522   3
   7  -7  -5 315.589 193.731   1
   7  -7  -5-34.9329 211.296   3
   7  -7  -4 10072.6 923.467   1
   7  -7  -4 11226.8 1110.36   3
   7  -7  -3 7378.51 759.100   1
   7  -7  -3 8209.17 955.780   3
   7  -7  -2 7633.53 747.754   1
   7  -7  -2 8052.78 922.186   3
   7  -7  -1 277.655 254.188   3
   7  -7  -1 219.740 153.364   1
   7  -7   0 13228.6 907.097   1
   7  -7   0 11747.0 1082.64   3
   7  -7   1 3055.07 574.021   3
   7  -7   1 3684.49 470.749   1
   7  -7   2 9093.87 702.101   1
   7  -7   2 8250.37 884.801   3
   7  -7   3 9322.98 684.217   1
   7  -7   3 9097.45 921.681   3
   7  -7   4 700.532 284.482   3
  -7   7  -4 411.526 299.511   7
   7  -7   5 145.662 168.476   3
   7  -7   5 269.098 149.239   6
  -7   7  -5 355.928 293.442   7
   7  -7   6 331.934 205.452   3
   7  -7   6 13.4096 80.8508   6
  -7   7  -6 127.138 228.624   7
   7  -7   7 972.646 307.601   3
   7  -7   7 1113.08 268.897   6
  -7   7  -7 868.195 368.911   7
  -7   7  -8 696.840 323.044   7
   7  -7   8 1095.34 310.835   3
   7  -7   8 710.464 230.843   6
   7  -7   9 3353.32 495.502   6
  -7   7  -9 3091.84 633.768   7
   7  -7  10 18582.6 1177.52   6
  -7   7 -10 17738.3 1546.21   7
   7  -7  11 8680.36 838.652   6
  -7   7 -11 8740.04 1153.53   7
  -7   7 -12 1064.76 469.030   7
   7  -7  12 1660.15 385.718   6
  -7   7 -13 631.531 353.731   7
   7  -7  13 602.479 240.639   6
  -7   7 -14 1014.60 452.356   7
   7  -7  14 293.536 212.717   6
  -7   7 -15-459.782 317.098   7
  -7   7 -16 408.786 275.171   7
   7  -6 -17 86.7573 181.528   4
   7  -6 -16 948.771 459.148   4
   7  -6 -15 133.370 219.512   4
   7  -6 -14 174.039 263.790   4
   7  -6 -13 10611.6 1308.72   4
   7  -6 -13 9701.39 1037.99   3
   7  -6 -12 162.054 197.120   3
   7  -6 -12 294.580 301.431   4
   7  -6 -11 3681.94 674.215   3
   7  -6 -11 3726.66 746.941   4
   7  -6 -11 3668.75 688.735   1
   7  -6 -10-372.379 284.640   4
   7  -6 -10-235.864 228.901   1
   7  -6 -10 72.4640 168.259   3
   7  -6  -9-365.832 240.694   3
   7  -6  -9 123.479 214.926   1
   7  -6  -8 564.509 314.724   3
   7  -6  -8 1098.27 353.151   1
   7  -6  -7 20845.3 1407.62   1
   7  -6  -7 21053.5 1510.53   3
   7  -6  -6 15958.8 1184.67   1
   7  -6  -6 16222.2 1317.12   3
   7  -6  -5 2833.94 570.463   3
   7  -6  -5 2274.52 457.151   1
   7  -6  -4 792.919 287.384   1
   7  -6  -4 703.323 363.659   3
   7  -6  -3 47764.4 1819.54   1
   7  -6  -3 47336.1 2161.83   3
   7  -6  -2 340.614 181.141   1
   7  -6  -2 202.529 258.898   3
   7  -6  -1 18291.2 1041.85   1
   7  -6  -1 16042.1 1231.98   3
   7  -6   0 22.5937 160.868   3
   7  -6   0 356.129 172.474   1
   7  -6   1 1421.40 397.665   3
   7  -6   1 2144.47 332.348   1
   7  -6   2 326.691 253.780   3
   7  -6   2 590.270 174.865   1
   7  -6   3 55108.9 1496.24   1
   7  -6   3 45095.8 1980.49   3
   7  -6   4 160.895 158.471   3
   7  -6   4 0.73461 80.8168   6
   7  -6   5 3432.98 554.441   3
   7  -6   5 2079.62 350.978   6
  -7   6  -5 2290.37 481.834   7
   7  -6   6 4361.60 631.797   3
   7  -6   6 4508.43 518.009   6
  -7   6  -6 4483.79 663.035   7
  -7   6  -7 942.481 350.509   7
   7  -6   7 1236.40 359.085   3
   7  -6   7 802.821 232.786   6
   7  -6   8 52.7211 135.323   3
   7  -6   8-43.5749 113.183   6
   7  -6   9 37063.8 1638.05   6
  -7   6  -9 35532.5 2038.96   7
   7  -6  10 13443.7 1019.19   6
  -7   6 -10 13495.6 1311.37   7
  -7   6 -11 537.872 351.368   7
   7  -6  11 1476.44 369.437   6
  -7   6 -12 104.739 228.422   7
   7  -6  12 6.14352 138.255   6
  -7   6 -13 6091.95 981.846   7
   7  -6  13 6976.74 826.496   6
   7  -6  14 1482.45 414.427   6
  -7   6 -14 856.532 473.320   7
  -7   6 -15 118.343 251.592   7
   7  -6  15 521.943 300.188   6
  -7   6 -16 409.405 296.289   7
   7  -6  16-223.422 217.187   6
   7  -5 -17 891.057 436.051   4
   7  -5 -16 5414.68 959.937   4
   7  -5 -15-333.962 243.416   4
   7  -5 -14 19518.4 1738.92   4
   7  -5 -13 6118.81 955.855   4
   7  -5 -13 7939.17 921.140   3
   7  -5 -12 5565.54 784.768   3
   7  -5 -12 4660.98 822.966   4
   7  -5 -11 679.317 295.172   3
   7  -5 -11 651.287 348.652   4
   7  -5 -10 435.072 245.466   3
   7  -5 -10-160.913 210.414   4
   7  -5 -10 367.398 256.129   1
   7  -5  -9 470.625 261.986   3
   7  -5  -9 133.519 243.858   4
   7  -5  -9 450.682 260.419   1
   7  -5  -8 6797.22 815.089   1
   7  -5  -8 6590.22 880.085   4
   7  -5  -8 7059.85 857.435   3
   7  -5  -7 2662.04 547.078   3
   7  -5  -7 2373.42 488.714   1
   7  -5  -6 386.907 265.526   3
   7  -5  -6-136.627 158.117   1
   7  -5  -5 465.211 301.871   3
   7  -5  -5 212.173 180.451   1
   7  -5  -4 1023.58 368.758   3
   7  -5  -4 602.226 250.570   1
   7  -5  -3 12274.0 883.173   1
   7  -5  -3 13445.7 1120.30   3
   7  -5  -2 357.148 259.582   3
   7  -5  -2 303.679 171.942   1
   7  -5  -1 10372.7 737.466   1
   7  -5  -1 8920.37 889.745   3
   7  -5   0 1255.43 255.694   1
   7  -5   0 694.629 293.092   3
   7  -5   1 8761.18 606.636   1
   7  -5   1 7368.98 809.818   3
   7  -5   2 162.004 183.456   3
   7  -5   2 180.072 112.483   1
   7  -5   3 2196.32 435.261   3
   7  -5   3 2351.36 365.736   6
   7  -5   4 415.406 210.304   3
   7  -5   4 736.277 217.314   6
   7  -5   5 258.972 185.140   3
   7  -5   5 659.065 228.953   6
  -7   5  -5 731.883 281.063   7
   7  -5   6 3845.43 579.495   3
   7  -5   6 4783.43 544.103   6
  -7   5  -6 4861.10 656.970   7
  -7   5  -7 562.330 286.101   7
   7  -5   7 1214.62 352.419   3
   7  -5   7 731.679 233.664   6
  -7   5  -8 1585.60 415.661   7
   7  -5   8 1109.39 331.084   3
   7  -5   8 2016.48 380.742   6
  -7   5  -9 240.596 213.943   7
   7  -5   9 366.700 214.440   6
  -7   5 -10-1.61500 177.304   7
   7  -5  10-7.70802 159.258   6
  -7   5 -11 74.7371 180.983   7
   7  -5  11 332.622 197.943   6
  -7   5 -12 1866.14 541.328   7
   7  -5  12 2427.51 490.105   6
   7  -5  13 23278.1 1525.46   6
  -7   5 -13 21875.8 1789.68   7
  -7   5 -14 4516.44 840.437   7
   7  -5  14 4167.09 673.975   6
  -7   5 -15 1646.86 546.691   7
   7  -5  15 1926.08 475.697   6
   7  -5  16 11263.6 1154.75   6
   7  -5  17-61.7300 142.110   6
   7  -4 -18 1028.71 430.960   4
   7  -4 -17-62.1777 186.034   4
   7  -4 -16 283.574 225.945   4
   7  -4 -15 841.623 374.880   4
   7  -4 -14 2052.26 559.105   4
   7  -4 -13 163.990 188.503   3
   7  -4 -13-222.870 246.313   4
   7  -4 -12 1163.26 382.177   3
   7  -4 -12 1619.38 462.868   4
   7  -4 -11 7032.84 963.570   4
   7  -4 -11 7348.88 863.094   3
   7  -4 -10-101.783 172.550   3
   7  -4 -10 762.734 335.931   4
   7  -4  -9 8831.79 1007.79   4
   7  -4  -9 8534.10 929.236   3
   7  -4  -8 11417.2 1111.31   4
   7  -4  -8 12138.8 1093.79   3
   7  -4  -7 2739.78 538.247   3
   7  -4  -7 2676.40 494.317   1
   7  -4  -7 2885.28 544.784   4
   7  -4  -6 2371.48 496.469   3
   7  -4  -6 1584.20 414.416   4
   7  -4  -6 2050.05 406.361   1
   7  -4  -5 1483.55 371.743   3
   7  -4  -5 1124.18 323.355   4
   7  -4  -5 1098.20 299.856   1
   7  -4  -4 7888.77 712.636   1
   7  -4  -4 8712.72 827.923   4
   7  -4  -4 7787.24 843.296   3
   7  -4  -3 2013.80 448.644   3
   7  -4  -3 3530.57 506.209   4
   7  -4  -3 2569.68 399.192   1
   7  -4  -2 8763.78 669.463   1
   7  -4  -2 9799.93 803.395   4
   7  -4  -2 9452.51 920.008   3
   7  -4  -1 20881.7 966.038   1
   7  -4  -1 19984.7 1084.72   4
   7  -4  -1 17706.9 1239.35   3
   7  -4   0 719.115 281.917   3
   7  -4   0 774.776 230.732   4
   7  -4   0 1184.62 217.652   1
   7  -4   1 20286.4 797.077   1
   7  -4   1 18895.8 912.810   4
   7  -4   1 17366.9 1204.69   3
   7  -4   2 1851.00 419.878   3
   7  -4   2 2402.37 366.692   6
   7  -4   2 2376.42 290.733   4
   7  -4   3-43.6435 170.037   3
   7  -4   3-145.660 151.294   6
   7  -4   4 16337.0 960.876   6
   7  -4   4 16230.8 1144.08   3
   7  -4   5 19061.2 1060.34   6
   7  -4   5 18171.7 1219.80   3
   7  -4   6 3234.78 522.684   3
   7  -4   6 3284.93 461.455   6
  -7   4  -6 3390.33 331.924   2
  -7   4  -6 3310.34 533.498   7
   7  -4   7 11078.1 860.495   6
  -7   4  -7 12008.4 678.719   2
   7  -4   7 11329.2 964.991   3
  -7   4  -7 11582.3 993.897   7
  -7   4  -8 1806.94 426.906   7
   7  -4   8 1815.95 377.767   6
  -7   4  -8 1957.93 302.059   2
   7  -4   8 1668.92 373.450   3
  -7   4  -9 3820.15 641.010   7
   7  -4   9 4558.33 596.350   6
  -7   4  -9 3939.68 454.206   2
   7  -4   9 4109.84 569.978   3
  -7   4 -10 16940.8 980.442   2
   7  -4  10 15852.9 1139.91   6
  -7   4 -10 15906.2 1318.54   7
  -7   4 -11 4333.25 722.328   7
   7  -4  11 4161.18 618.233   6
  -7   4 -11 4262.52 530.747   2
   7  -4  12 8208.39 881.459   6
  -7   4 -12 9547.89 820.677   2
  -7   4 -12 8448.98 1038.41   7
  -7   4 -13 172.310 242.012   7
   7  -4  13 79.7041 207.782   6
  -7   4 -13 158.218 155.626   2
  -7   4 -14-158.436 243.072   7
   7  -4  14-238.298 213.492   6
  -7   4 -14 104.415 141.235   2
   7  -4  15 444.704 272.626   6
   7  -4  16 1447.73 436.548   6
   7  -4  17-676.301 332.652   6
   7  -3 -18 1083.65 451.132   4
   7  -3 -17-936.091 410.203   4
   7  -3 -16 2447.82 629.317   4
   7  -3 -15 6047.85 961.306   4
   7  -3 -14 4178.70 769.067   4
   7  -3 -13 4222.57 784.001   4
   7  -3 -12 1311.74 398.659   3
   7  -3 -12 896.687 400.820   4
   7  -3 -11 5939.00 866.440   4
   7  -3 -11 5531.58 737.194   3
   7  -3 -10 6000.25 848.946   4
   7  -3 -10 7252.69 826.053   3
   7  -3  -9 6150.70 831.776   4
   7  -3  -9 7259.94 833.676   3
   7  -3  -8 4035.08 633.633   3
   7  -3  -8 3297.11 587.714   4
   7  -3  -7 5314.94 726.486   4
   7  -3  -7 5644.45 730.741   3
   7  -3  -6 43563.9 1938.63   4
   7  -3  -6 47054.8 2044.33   3
   7  -3  -5 21383.3 1305.63   4
   7  -3  -5 23280.4 1432.88   3
   7  -3  -4 11939.3 937.693   4
   7  -3  -4 12147.2 1023.39   3
   7  -3  -3 4112.49 607.834   3
   7  -3  -3 3546.44 490.883   4
   7  -3  -2 836.815 315.542   3
   7  -3  -2 1034.55 266.858   4
   7  -3  -1 122862. 2526.91   4
   7  -3  -1 119462. 3143.24   3
   7  -3   0 33614.7 1229.81   4
   7  -3   0 32256.3 1622.66   3
   7  -3   1 10705.4 633.761   4
   7  -3   1 11530.9 980.064   3
   7  -3   2 4048.99 595.271   3
   7  -3   2 4692.66 510.158   6
   7  -3   2 4757.98 370.213   4
  -7   3  -2 4701.65 285.293   2
   7  -3   3 1197.98 343.776   3
   7  -3   3 680.112 225.589   6
  -7   3  -3 777.558 134.136   2
   7  -3   4 23438.7 1167.28   6
  -7   3  -4 23263.8 787.092   2
   7  -3   4 22445.8 1350.72   3
   7  -3   5 660.027 221.977   6
   7  -3   5 916.135 308.355   3
  -7   3  -5 785.088 169.078   2
   7  -3   6 7672.65 707.079   6
  -7   3  -6 7900.16 542.864   2
   7  -3   6 7559.90 793.343   3
  -7   3  -6 8543.42 794.193   7
   7  -3   7 15768.9 1046.91   6
  -7   3  -7 17471.1 862.544   2
   7  -3   7 15661.1 1133.46   3
  -7   3  -7 16482.7 1143.50   7
  -7   3  -8 295.109 220.937   7
   7  -3   8 17.2644 141.621   6
  -7   3  -8 99.7838 101.710   2
   7  -3   8 363.178 181.657   3
   7  -3   9 5536.40 672.973   6
  -7   3  -9 7344.30 640.601   2
   7  -3   9 5214.22 642.294   3
  -7   3  -9 5766.87 742.059   7
  -7   3 -10 136.439 197.412   7
   7  -3  10 589.961 266.616   6
  -7   3 -10 510.997 200.368   2
  -7   3 -11 415.429 286.725   7
   7  -3  11 717.441 294.898   6
  -7   3 -11 211.267 148.306   2
  -7   3 -12 3229.23 652.844   7
   7  -3  12 3406.55 597.749   6
  -7   3 -12 3426.68 519.037   2
  -7   3 -13 420.722 329.524   7
   7  -3  13-54.9114 230.706   6
  -7   3 -13 273.057 188.393   2
  -7   3 -14 9929.62 926.332   2
  -7   3 -15 5554.09 729.916   2
   7  -3  16 992.852 374.559   6
  -7   3 -16 844.213 342.261   2
   7  -3  17 360.001 295.362   6
   7  -2 -18 382.788 323.090   4
   7  -2 -17 8624.84 1170.71   4
   7  -2 -16 353.802 323.136   4
   7  -2 -15-505.548 290.554   4
   7  -2 -14 2817.50 659.592   4
   7  -2 -13 273.980 269.654   4
   7  -2 -12 548.690 228.118   3
   7  -2 -12 680.825 205.873   2
   7  -2 -12 566.706 325.970   4
   7  -2 -11 597.089 246.291   3
   7  -2 -11 872.352 224.081   2
   7  -2 -11 782.034 336.158   4
   7  -2 -10 1376.83 375.823   3
   7  -2 -10 53.5818 206.931   4
   7  -2  -9 7889.42 910.001   4
   7  -2  -9 7934.04 847.658   3
   7  -2  -8 247.569 173.091   3
   7  -2  -8 251.285 185.261   4
   7  -2  -7 1802.44 422.300   3
   7  -2  -7 1557.79 391.084   4
   7  -2  -6 1568.10 402.443   3
   7  -2  -6 1376.53 372.337   4
   7  -2  -5-19.9670 173.526   3
   7  -2  -5-31.2981 136.489   4
   7  -2  -4 6166.23 658.677   4
   7  -2  -4 5630.14 707.519   3
   7  -2  -3 13418.3 915.090   4
   7  -2  -3 13884.0 1080.03   3
   7  -2  -2 17821.9 1004.23   4
   7  -2  -2 18864.1 1259.36   3
   7  -2  -1 2025.07 441.410   3
   7  -2  -1 1691.86 294.477   4
   7  -2   0 10465.2 671.521   4
   7  -2   0 11386.2 973.302   3
   7  -2   1 637.255 265.089   3
   7  -2   1 1069.21 198.263   4
   7  -2   2 2681.47 485.702   3
   7  -2   2 3202.03 439.820   6
   7  -2   2 3000.03 275.181   4
  -7   2  -2 3325.55 283.092   2
   7  -2   3 2181.21 438.578   3
   7  -2   3 2754.40 418.595   6
  -7   2  -3 2943.70 285.359   2
   7  -2   4 2298.15 454.673   3
   7  -2   4 2771.35 417.300   6
  -7   2  -4 2517.43 287.795   2
   7  -2   5 10545.6 816.280   6
  -7   2  -5 10325.7 610.654   2
   7  -2   5 10533.4 943.261   3
   7  -2   6 2901.37 453.953   6
  -7   2  -6 1813.46 358.371   7
   7  -2   6 2494.54 466.029   3
  -7   2  -6 2080.24 290.653   2
   7  -2   7 555.030 237.285   6
  -7   2  -7 579.973 173.984   2
   7  -2   7 544.493 241.580   3
  -7   2  -7 562.662 249.231   7
  -7   2  -8 512.370 233.806   7
   7  -2   8 335.817 217.264   6
  -7   2  -8 255.057 151.702   2
   7  -2   8 274.614 189.324   3
   7  -2   9 190.420 173.552   6
  -7   2  -9-99.1875 118.755   2
   7  -2   9 149.844 192.996   3
  -7   2  -9 28.7151 131.013   7
   7  -2  10 8718.04 892.281   6
  -7   2 -10 7182.61 685.935   2
  -7   2 -10 8277.21 883.928   7
  -7   2 -11 1602.90 411.874   7
   7  -2  11 1770.80 442.223   6
  -7   2 -11 2081.08 385.750   2
   7  -2  12 4037.51 652.910   6
  -7   2 -12 4636.06 594.738   2
  -7   2 -13 484.577 219.049   2
  -7   2 -14 886.203 309.772   2
  -7   2 -15 573.747 275.941   2
  -7   2 -16 722.180 297.154   2
   7  -2  17 3690.50 730.775   6
  -7   2 -17 3317.61 620.032   2
   7  -1 -18 427.555 312.807   4
   7  -1 -17 1935.06 571.890   4
   7  -1 -16 2125.50 594.017   4
   7  -1 -15-307.177 171.015   2
   7  -1 -15-290.609 201.578   4
   7  -1 -14 8383.27 782.967   2
   7  -1 -14 7909.18 1057.75   4
   7  -1 -13 627.106 216.254   2
   7  -1 -13 744.677 342.308   4
   7  -1 -12 522.596 189.415   2
   7  -1 -12 219.404 263.225   4
   7  -1 -12 155.241 178.773   3
   7  -1 -11 1024.98 321.227   3
   7  -1 -11 712.555 322.626   4
   7  -1 -10 1142.60 376.845   4
   7  -1 -10 1184.15 352.871   3
   7  -1  -9 1871.26 418.623   3
   7  -1  -9 1460.80 416.012   4
   7  -1  -8 4540.07 647.734   3
   7  -1  -8 2994.31 544.562   4
   7  -1  -7 21381.0 1374.19   4
   7  -1  -7 22311.2 1393.89   3
   7  -1  -6 18565.6 1040.46   5
   7  -1  -6 15247.9 1119.28   4
   7  -1  -6 17149.9 1224.29   3
   7  -1  -5 229.496 231.814   3
   7  -1  -5 100.313 136.842   5
   7  -1  -5 147.673 162.054   4
   7  -1  -4 25150.1 1204.15   5
   7  -1  -4 24709.0 1283.73   4
   7  -1  -4 25137.1 1464.97   3
   7  -1  -3 64367.9 1919.31   5
   7  -1  -3 64142.6 1974.72   4
   7  -1  -3 64394.5 2336.11   3
   7  -1  -2 26922.5 1249.41   5
   7  -1  -2 25488.2 1188.97   4
   7  -1  -2 27394.2 1524.36   3
   7  -1  -1 1308.84 361.786   3
   7  -1  -1 1257.15 310.827   5
   7  -1  -1 1231.21 248.407   4
   7  -1   0 4226.08 620.196   3
   7  -1   0 4888.46 537.937   5
   7  -1   0 4325.96 424.386   4
   7  -1   1 15718.1 945.223   6
   7  -1   1 14296.9 921.302   5
   7  -1   1 14443.6 704.531   4
   7  -1   1 14491.6 1112.79   3
   7  -1   2 33731.0 1407.13   6
   7  -1   2 33642.4 1401.45   5
   7  -1   2 33120.5 1674.02   3
  -7   1  -3 26.0866 67.1217   2
   7  -1   3-143.310 201.588   6
   7  -1   3 173.910 175.581   5
   7  -1   3 285.145 200.855   3
   7  -1   4 19539.8 1100.78   6
   7  -1   4 20777.6 1113.09   5
  -7   1  -4 20979.1 860.102   2
   7  -1   4 17995.0 1246.12   3
   7  -1   5 7926.17 727.566   6
  -7   1  -5 7119.00 533.604   2
   7  -1   5 7106.12 788.073   3
   7  -1   6 8258.29 769.333   6
  -7   1  -6 8433.29 615.651   2
   7  -1   6 7904.30 833.611   3
   7  -1   7 1599.86 369.561   6
  -7   1  -7 2174.12 339.526   2
   7  -1   7 2132.88 441.382   3
  -7   1  -7 2335.13 416.241   7
   7  -1   8 7656.37 788.838   6
  -7   1  -8 7356.61 640.717   2
   7  -1   8 7309.34 808.945   3
  -7   1  -8 8339.32 791.102   7
   7  -1   9 20485.6 1322.73   6
  -7   1  -9 19634.3 1099.56   2
   7  -1   9 17188.7 1213.55   3
  -7   1  -9 18561.5 1219.12   7
  -7   1 -10 338.286 197.163   7
   7  -1  10 341.290 248.132   6
  -7   1 -10 260.460 178.582   2
   7  -1  11 8000.47 891.585   6
  -7   1 -11 7558.53 748.333   2
   7  -1  12 21701.2 1502.48   6
  -7   1 -12 17172.5 1174.42   2
   7  -1  13 4671.22 728.430   6
  -7   1 -13 4616.11 647.367   2
  -7   1 -14 789.362 341.121   2
  -7   1 -15 132.679 180.177   2
   7  -1  16-130.813 225.119   6
  -7   1 -16-74.0414 158.581   2
  -7   1 -17 718.599 334.687   2
   7   0 -18 236.678 256.500   4
   7   0 -17 1850.24 438.925   2
   7   0 -17 2403.87 634.395   4
   7   0 -16 1430.64 357.120   2
   7   0 -16 2673.89 655.987   4
   7   0 -15 1710.94 382.361   2
   7   0 -15 1974.33 543.041   4
   7   0 -14 715.119 253.792   2
   7   0 -14 794.508 385.738   4
   7   0 -13-96.0190 276.482   4
   7   0 -12 4623.19 767.447   4
   7   0 -12 5296.70 681.572   3
   7   0 -11 2112.29 513.600   4
   7   0 -11 2468.25 495.918   3
   7   0 -10 13703.5 1227.37   4
   7   0 -10 14639.5 1151.81   3
   7   0  -9 15.3959 100.247   5
   7   0  -9 149.821 205.247   4
   7   0  -9-287.463 207.740   3
   7   0  -8 12023.6 849.097   5
   7   0  -8 10179.6 980.964   4
   7   0  -8 11130.9 1001.72   3
   7   0  -7 2234.62 380.912   5
   7   0  -7 1727.40 415.832   4
   7   0  -7 1961.20 433.716   3
   7   0  -6 511.260 258.556   3
   7   0  -6 102.293 134.443   5
   7   0  -6 494.456 241.952   4
   7   0  -5 220.121 172.856   5
   7   0  -5 318.263 180.121   4
   7   0  -5 365.470 227.234   3
   7   0  -4 2696.64 438.706   5
   7   0  -4 2816.97 451.646   4
   7   0  -4 2614.00 511.014   3
   7   0  -3 4165.86 525.400   5
   7   0  -3 4931.35 556.839   4
   7   0  -3 4567.29 655.318   3
   7   0  -2 2025.83 381.489   5
   7   0  -2 2652.50 398.542   4
   7   0  -2 2395.43 475.967   3
   7   0  -1 26222.2 1302.27   5
   7   0  -1 26498.2 1145.66   4
   7   0  -1 24806.1 1478.75   3
   7   0   0 1525.13 344.596   5
   7   0   0 1842.59 280.705   4
   7   0   0 1182.32 362.953   3
   7   0   1 45.1724 158.997   6
   7   0   1 283.168 183.897   5
   7   0   1 11.4294 70.0772   4
   7   0   2 15680.6 970.822   6
   7   0   2 16083.3 1014.95   5
   7   0   2 15890.9 1188.48   3
   7   0   3 3448.19 473.936   6
   7   0   3 3215.25 467.921   5
   7   0   3 3106.96 552.579   3
   7   0   4 306.439 205.115   6
   7   0   4 520.447 217.655   5
   7   0   4 88.1482 195.872   3
   7   0   5 14325.8 1000.01   6
   7   0   5 13431.8 922.962   5
  -7   0  -5 14138.7 790.351   2
   7   0   5 13214.4 1092.47   3
  -7   0  -6-122.219 119.359   2
   7   0   6 44.8966 198.637   6
   7   0   6-75.1937 138.187   5
   7   0   6-181.108 181.111   3
   7   0   7 5913.36 694.682   6
   7   0   7 5486.37 602.184   5
  -7   0  -7 4539.62 493.425   2
   7   0   7 4933.66 672.356   3
  -7   0  -7 5638.81 606.141   7
  -7   0  -8 3473.96 486.549   7
   7   0   8 3768.08 574.589   6
  -7   0  -8 3913.11 478.976   2
   7   0   8 2988.01 532.184   3
   7   0   9 16589.0 1226.67   6
  -7   0  -9 15788.7 1013.58   2
   7   0   9 13700.0 1094.41   3
   7   0  10 227.573 224.032   6
   7   0  10 133.002 228.269   3
  -7   0 -10-225.978 169.359   2
   7   0  11 70.3935 194.745   6
  -7   0 -11 273.248 175.331   2
   7   0  12 30335.2 1812.50   6
  -7   0 -12 28649.4 1541.22   2
   7   0  13 3424.77 644.807   6
  -7   0 -13 2414.93 479.376   2
   7   0  14-83.8550 234.763   6
  -7   0 -14 257.397 200.283   2
   7   0  15 1280.90 446.291   6
  -7   0 -15 1382.70 396.244   2
   7   0  16 2617.95 603.713   6
  -7   0 -16 1753.67 450.689   2
   7   1 -18 2230.17 613.430   4
   7   1 -17-381.672 286.521   4
   7   1 -16 224.732 282.691   4
   7   1 -15 229.119 251.048   4
   7   1 -14 810.014 385.168   4
   7   1 -13 3400.05 692.530   4
   7   1 -12 431.985 244.401   4
   7   1 -12 286.237 261.122   3
   7   1 -11 1115.32 274.400   5
   7   1 -11 1422.91 387.137   3
   7   1 -11 825.765 320.822   4
   7   1 -10 5.16721 89.1696   5
   7   1 -10-361.942 249.459   4
   7   1 -10-98.6969 162.396   3
   7   1  -9 4957.04 580.932   5
   7   1  -9 4566.72 693.104   4
   7   1  -9 4613.68 675.676   3
   7   1  -8 3994.32 524.083   5
   7   1  -8 3883.03 631.908   4
   7   1  -8 4354.54 644.808   3
   7   1  -7-1.86785 121.402   5
   7   1  -7-181.431 173.345   4
   7   1  -7-130.139 181.080   3
   7   1  -6 117.926 159.690   5
   7   1  -6 188.520 169.253   4
   7   1  -6-76.7812 174.622   3
   7   1  -5 5517.16 635.377   5
   7   1  -5 6185.25 690.258   4
   7   1  -5 5474.77 723.373   3
   7   1  -4 23989.8 1307.28   5
   7   1  -4 22105.2 1239.34   4
   7   1  -4 24381.5 1492.11   3
   7   1  -3 9946.55 853.580   5
   7   1  -3 10136.3 800.496   4
   7   1  -3 9946.65 964.549   3
   7   1  -2 9942.19 854.064   5
   7   1  -2 9821.84 758.856   4
   7   1  -2 9530.55 945.165   3
   7   1  -1 4006.32 546.680   5
   7   1  -1 4034.53 457.864   4
   7   1  -1 4029.24 632.162   3
   7   1   0 549.853 249.081   5
   7   1   0 395.182 160.400   4
   7   1   0 606.448 305.053   3
   7   1   1 5838.26 603.216   6
   7   1   1 6128.30 665.652   5
   7   1   1 5368.49 446.533   4
   7   1   1 5225.10 713.452   3
   7   1   2 5094.92 573.418   6
   7   1   2 5589.41 644.145   5
   7   1   2 5955.90 766.703   3
   7   1   3 3657.33 493.963   6
   7   1   3 3072.01 476.740   5
   7   1   3 3292.09 563.723   3
   7   1   4 809.148 263.215   6
   7   1   4 1121.33 305.911   5
   7   1   4 1095.73 345.358   3
   7   1   5 2301.88 423.175   6
   7   1   5 1809.30 359.716   5
   7   1   5 2056.42 463.898   3
   7   1   6 27735.5 1460.24   6
   7   1   6 31687.8 1457.74   5
  -7  -1  -6 29714.1 1256.62   2
   7   1   6 29578.5 1679.40   3
  -7  -1  -6 30789.4 1277.05   7
  -7  -1  -7 222.957 152.521   2
   7   1   7-29.1695 143.133   6
   7   1   7 20.1867 147.984   5
   7   1   7 74.1799 152.392   3
  -7  -1  -8 2256.50 387.879   2
   7   1   8 1803.45 423.064   6
   7   1   8 2272.68 394.536   5
   7   1   8 2071.05 457.017   3
  -7  -1  -9 3375.45 482.558   2
   7   1   9 3585.24 602.999   6
   7   1   9 3582.17 590.145   3
   7   1  10 21507.2 1469.03   6
  -7  -1 -10 22863.0 1294.24   2
   7   1  11 1761.61 455.363   6
  -7  -1 -11 2466.21 474.701   2
   7   1  12 770.046 329.237   6
  -7  -1 -12 625.740 275.787   2
   7   1  13 1258.19 410.939   6
  -7  -1 -13 977.431 329.559   2
   7   1  14-274.858 213.680   6
  -7  -1 -14 248.914 167.542   2
   7   1  15 1023.20 395.463   6
  -7  -1 -15 652.776 299.757   2
   7   1  16-305.359 207.867   6
  -7  -1 -16-411.675 240.869   2
   7   2 -17 375.435 291.899   4
   7   2 -16 2125.29 565.798   4
   7   2 -15 329.659 266.868   4
   7   2 -14 2501.78 590.896   4
   7   2 -13 679.590 341.268   4
   7   2 -12 8297.32 722.485   5
   7   2 -12 9237.78 1079.81   4
   7   2 -11 62.8966 133.102   5
   7   2 -11 345.642 269.858   4
   7   2 -11 428.155 254.048   3
   7   2 -10 14538.9 1009.18   5
   7   2 -10 12771.1 1200.62   4
   7   2 -10 13939.3 1156.62   3
   7   2  -9 421.214 200.226   5
   7   2  -9 607.118 260.305   4
   7   2  -9 790.576 313.708   3
   7   2  -8 3692.57 544.867   5
   7   2  -8 3558.48 616.906   4
   7   2  -8 4404.07 663.456   3
   7   2  -7 1582.19 360.123   5
   7   2  -7 1465.74 384.340   4
   7   2  -7 1339.60 395.309   3
   7   2  -6 417.471 235.114   5
   7   2  -6 189.604 164.709   4
   7   2  -6-148.079 189.364   3
   7   2  -5 229.040 158.179   5
   7   2  -5 84.9600 139.827   4
   7   2  -5 554.808 277.717   3
   7   2  -4 10904.6 942.033   5
   7   2  -4 10131.7 866.733   4
   7   2  -4 10904.9 1029.68   3
   7   2  -3 4587.85 637.582   5
   7   2  -3 5521.08 612.405   4
   7   2  -3 5636.89 757.810   3
   7   2  -2 14284.8 1080.81   5
   7   2  -2 14943.2 946.933   4
   7   2  -2 15238.0 1218.02   3
   7   2  -1 322.550 229.137   5
  -7  -2   1 209.228 115.830   1
   7   2  -1 181.774 140.823   4
   7   2  -1 171.046 223.616   3
   7   2   0 5425.54 676.727   5
   7   2   0 5692.51 512.697   4
   7   2   0 4944.02 717.261   3
   7   2   1 912.122 259.837   6
   7   2   1 1233.70 349.848   5
   7   2   1 967.137 202.900   4
   7   2   1 855.172 325.924   3
   7   2   2 24754.6 1267.04   6
   7   2   2 26224.7 1433.89   5
   7   2   2 23364.9 1520.88   3
   7   2   3 10263.2 830.664   6
   7   2   3 10540.0 912.934   5
   7   2   3 9540.81 986.842   3
   7   2   4 1298.96 317.660   6
   7   2   4 1905.40 406.354   5
   7   2   4 1137.00 363.215   3
   7   2   5 3461.38 520.484   6
   7   2   5 3855.11 544.219   5
   7   2   5 2403.65 503.344   3
   7   2   6 80.6859 162.734   6
   7   2   6-111.654 181.175   5
  -7  -2  -6 122.653 139.319   2
   7   2   6 140.240 191.938   3
   7   2   7 12181.9 1028.41   6
   7   2   7 13569.7 1003.84   5
  -7  -2  -7 14900.8 967.745   2
   7   2   7 12024.5 1090.81   3
  -7  -2  -8 1704.45 347.840   2
   7   2   8 1942.23 450.124   6
   7   2   8 1632.07 356.660   5
  -7  -2  -9 663.513 251.193   2
   7   2   9 580.765 264.911   6
   7   2   9 794.692 263.035   5
  -7  -2 -10 636.366 243.415   2
   7   2  10 1218.97 387.725   6
   7   2  11 5109.31 761.096   6
  -7  -2 -11 5853.28 714.280   2
   7   2  12-271.156 236.005   6
  -7  -2 -12 57.4787 151.465   2
   7   2  13 762.123 316.951   6
  -7  -2 -13 275.447 196.499   2
   7   2  14 5106.72 802.259   6
  -7  -2 -14 4373.17 693.730   2
   7   2  15 2673.78 599.007   6
  -7  -2 -15 3724.21 649.680   2
   7   3 -17 4715.19 891.790   4
   7   3 -16 9129.97 1204.11   4
   7   3 -15 26.9033 97.7891   4
   7   3 -14-75.4084 102.500   4
   7   3 -13 247.627 251.248   4
   7   3 -12 6250.96 678.466   5
   7   3 -12 6426.36 919.346   4
   7   3 -11 6528.87 712.319   5
   7   3 -11 6546.08 884.129   4
   7   3 -11 6107.00 769.881   3
   7   3 -10 719.491 265.091   5
   7   3 -10 899.408 343.909   4
   7   3 -10 558.229 253.625   3
   7   3  -9 2772.89 486.971   5
   7   3  -9 2681.95 552.129   4
   7   3  -9 3105.37 559.582   3
   7   3  -8-93.1807 175.871   5
   7   3  -8-80.8292 182.644   4
   7   3  -7 39304.8 1840.21   5
   7   3  -7 39573.6 1927.24   4
   7   3  -7 42049.8 2048.83   3
   7   3  -6 11013.1 987.510   5
   7   3  -6 11381.3 1003.98   4
   7   3  -6 12041.1 1108.94   3
   7   3  -5 2216.02 456.425   5
   7   3  -5 2151.68 435.187   4
   7   3  -5 2840.30 562.747   3
   7   3  -4 2710.43 518.466   5
   7   3  -4 1815.64 385.826   4
   7   3  -4 2264.24 519.775   3
   7   3  -3 4300.05 650.920   5
   7   3  -3 3011.17 464.774   4
   7   3  -3 3064.40 575.312   3
   7   3  -2 760.033 332.167   5
   7   3  -2 717.722 238.236   4
  -7  -3   2 774.571 201.778   1
   7   3  -2 1130.03 384.461   3
   7   3  -1-441.203 259.240   5
   7   3  -1-21.6191 86.8614   4
   7   3  -1-169.120 238.353   3
   7   3   0 374.005 253.664   5
   7   3   0 402.240 170.022   4
   7   3   0 549.322 282.478   3
   7   3   1 1569.12 406.912   5
   7   3   1 2286.89 516.000   3
   7   3   2 635.174 262.420   6
   7   3   2 598.878 298.989   5
   7   3   2 356.829 245.402   3
   7   3   3 10148.8 845.334   6
   7   3   3 9594.21 928.514   5
   7   3   3 7727.51 917.699   3
   7   3   4 1152.09 319.903   6
   7   3   4 1047.03 347.786   5
   7   3   4 1391.01 391.912   3
   7   3   5 4753.05 614.478   6
   7   3   5 5939.89 722.360   5
   7   3   5 5838.01 791.951   3
   7   3   6 2961.15 501.693   6
   7   3   6 3415.25 553.238   5
   7   3   6 3990.04 652.106   3
  -7  -3  -7 3100.66 483.034   2
   7   3   7 2985.69 522.415   6
   7   3   7 2793.79 492.629   5
   7   3   8 10402.0 992.016   6
   7   3   8 11092.7 931.137   5
  -7  -3  -8 10973.4 905.018   2
  -7  -3  -9 1619.46 375.944   2
   7   3   9 1067.78 368.159   6
   7   3   9 804.516 264.824   5
  -7  -3 -10 3731.92 582.619   2
   7   3  10 5294.25 761.733   6
  -7  -3 -11 1481.16 392.396   2
   7   3  11 1886.72 476.066   6
   7   3  12 411.859 282.804   6
  -7  -3 -12-6.62633 129.997   2
   7   3  13-59.8515 156.008   6
  -7  -3 -13-398.714 244.101   2
   7   3  14 423.193 252.276   6
  -7  -3 -14 202.225 163.724   2
   7   3  15 110.750 156.593   6
  -7  -3 -15 172.585 162.367   2
   7   4 -17-490.407 304.686   4
   7   4 -16 2363.16 616.174   4
   7   4 -15-317.846 298.774   4
   7   4 -14 6367.98 960.670   4
   7   4 -13 4104.06 799.224   4
   7   4 -12 21.0854 110.261   5
   7   4 -12 351.254 246.963   4
   7   4 -11 5000.86 654.146   5
   7   4 -11 4772.91 781.466   4
   7   4 -11 5074.05 705.590   3
   7   4 -10 362.453 239.437   4
   7   4 -10 34.9704 162.465   3
   7   4  -9-381.468 236.147   5
   7   4  -9-59.1857 160.765   4
   7   4  -9 327.389 228.982   3
   7   4  -8 1474.01 400.615   5
   7   4  -8 1641.83 420.064   4
   7   4  -8 1789.85 431.630   3
   7   4  -7 1571.51 388.887   5
   7   4  -7 1684.15 420.719   4
   7   4  -7 1735.80 448.684   3
   7   4  -6 13821.9 1164.31   5
   7   4  -6 14020.1 1130.81   4
   7   4  -6 14850.4 1264.93   3
   7   4  -5 4562.08 685.047   5
   7   4  -5 4353.53 609.298   4
   7   4  -5 4837.11 738.055   3
   7   4  -4-143.580 214.975   5
   7   4  -4 11.8184 112.463   4
   7   4  -4 39.9025 247.934   3
   7   4  -3 7314.92 862.683   5
   7   4  -3 6334.47 683.893   4
   7   4  -3 6834.92 877.481   3
  -7  -4   3 7032.00 671.879   1
   7   4  -2 9128.20 947.573   5
   7   4  -2 8541.53 753.213   4
  -7  -4   2 9417.94 714.842   1
   7   4  -2 10083.4 1043.78   3
   7   4  -1 2829.25 564.891   5
   7   4  -1 3031.60 431.924   4
   7   4  -1 2813.55 582.308   3
   7   4   0 3186.46 585.066   5
   7   4   0 3389.48 626.567   3
   7   4   1 1818.85 440.942   5
   7   4   1 589.329 300.061   3
   7   4   2 2139.55 403.031   6
   7   4   2 2998.30 570.574   5
   7   4   2 2130.99 514.594   3
   7   4   3 6517.09 695.450   6
   7   4   3 7719.64 887.608   5
   7   4   3 7449.23 913.307   3
   7   4   4 11168.4 924.330   6
   7   4   4 11396.3 1061.47   5
   7   4   4 11095.6 1123.14   3
   7   4   5 2249.78 447.673   6
   7   4   5 1897.87 450.530   5
   7   4   6 291.070 196.534   6
   7   4   6 168.152 198.321   5
  -7  -4  -7 262.288 217.437   2
   7   4   7 597.393 305.570   6
   7   4   7 436.982 243.458   5
  -7  -4  -8 538.630 242.089   2
   7   4   8 375.338 222.028   6
   7   4   8 532.724 247.732   5
   7   4   9 8425.46 937.578   6
  -7  -4  -9 8034.85 834.071   2
  -7  -4 -10 1114.93 313.891   2
   7   4  10 1351.31 415.574   6
  -7  -4 -11 442.269 245.600   2
   7   4  11 216.392 207.574   6
  -7  -4 -12 820.700 305.077   2
   7   4  12 10.2623 172.220   6
   7   4  13 1749.07 528.540   6
  -7  -4 -13 3529.57 602.731   2
   7   4  14 2345.51 562.002   6
  -7  -4 -14 2107.96 507.795   2
   7   5 -16 4729.07 848.968   4
   7   5 -15 262.440 260.539   4
   7   5 -14 20335.4 1731.06   4
   7   5 -13 491.075 301.963   4
   7   5 -12 263.081 182.356   5
   7   5 -12 299.222 229.135   4
   7   5 -11-176.075 190.342   5
   7   5 -11 281.363 207.424   4
   7   5 -10 1643.78 422.912   5
   7   5 -10 1809.85 475.998   4
   7   5  -9 7931.43 914.074   5
   7   5  -9 7199.82 910.363   4
   7   5  -8 791.803 321.933   5
   7   5  -8 779.057 319.998   4
   7   5  -8 1005.35 346.279   3
   7   5  -7 2001.35 474.985   5
   7   5  -7 1439.48 420.295   4
   7   5  -7 1477.72 433.413   3
   7   5  -6 1769.54 458.164   5
   7   5  -6 1597.68 400.024   4
   7   5  -6 1724.65 444.550   3
   7   5  -5 5282.58 766.269   5
   7   5  -5 5199.92 674.047   4
  -7  -5   5 6263.80 740.887   1
   7   5  -5 5573.05 801.086   3
  -7  -5   4 2691.30 469.184   1
   7   5  -4 2947.77 593.886   5
   7   5  -4 2194.30 438.160   4
   7   5  -4 2847.61 576.182   3
  -7  -5   3 724.515 246.734   1
   7   5  -3 1158.89 419.793   5
   7   5  -3 769.347 253.199   4
   7   5  -3 902.548 365.096   3
   7   5  -2-16.5025 179.111   5
   7   5  -2-31.9826 125.147   4
  -7  -5   2-9.28573 73.0592   1
   7   5  -2 34.5217 199.370   3
   7   5  -1 1111.21 382.874   5
   7   5  -1 965.295 373.393   3
   7   5   0 1353.31 437.445   5
   7   5   0 508.570 270.448   3
   7   5   1 11899.5 1147.19   5
   7   5   1 9693.15 1072.70   3
   7   5   2 4187.86 698.159   5
   7   5   3 1411.46 337.903   6
   7   5   3 307.013 302.974   5
   7   5   4 1013.12 315.131   6
   7   5   4 1170.37 393.581   5
   7   5   5 5327.52 674.334   6
   7   5   5 5601.61 786.974   5
   7   5   6 2400.80 473.755   6
   7   5   6 1625.12 443.409   5
   7   5   7 8316.74 881.258   6
   7   5   7 8889.79 954.749   5
  -7  -5  -8-74.1727 171.505   2
   7   5   8 43.0624 158.952   5
  -7  -5  -9 355.373 220.206   2
   7   5   9-315.592 238.432   6
  -7  -5 -10 1939.56 445.429   2
   7   5  10 2131.84 500.666   6
  -7  -5 -11-317.804 240.848   2
   7   5  11-373.959 244.041   6
  -7  -5 -12-79.4258 155.770   2
   7   5  12-187.054 189.195   6
   7   5  13-281.229 241.872   6
  -7  -5 -13 7.85412 145.251   2
   7   6 -15 3459.43 744.210   4
   7   6 -14 1901.48 547.434   4
   7   6 -13 61.2020 119.494   4
   7   6 -12-746.223 270.948   5
   7   6 -12-5.50963 79.5614   4
   7   6 -11 2581.81 553.187   5
   7   6 -11 2012.74 525.478   4
   7   6 -10 717.161 311.368   5
   7   6 -10 1025.97 385.439   4
   7   6  -9 10858.3 1111.71   5
   7   6  -9 12183.9 1197.26   4
   7   6  -8 3170.67 614.785   5
   7   6  -8 2536.92 528.734   4
   7   6  -7 365.528 289.233   5
   7   6  -7 513.747 254.464   4
  -7  -6   7-74.3189 208.163   1
   7   6  -6 4872.99 768.835   5
  -7  -6   6 4605.08 685.893   1
   7   6  -6 4590.18 684.637   4
   7   6  -5 4836.82 762.874   5
   7   6  -5 4889.68 670.945   4
  -7  -6   5 5118.80 696.101   1
  -7  -6   4 3158.96 531.418   1
   7   6  -4 2236.16 540.942   5
   7   6  -4 2874.84 497.559   4
   7   6  -3 1728.96 508.799   5
  -7  -6   3 2316.78 424.311   1
   7   6  -2 221.584 250.063   5
   7   6  -1 24807.3 1748.10   5
   7   6   0 194.882 274.199   5
   7   6   1 3691.56 716.476   5
   7   6   2-118.813 241.781   5
   7   6   3 4683.53 779.351   5
   7   6   4 5927.02 692.928   6
   7   6   4 5458.26 838.291   5
   7   6   5 693.899 253.178   6
   7   6   5 364.575 278.023   5
   7   6   6 1435.20 377.550   6
   7   6   6 831.752 341.747   5
   7   6   7 227.122 179.967   6
   7   6   7 701.771 300.616   5
  -7  -6  -8 398.494 237.689   2
   7   6   8 89.2025 148.296   6
   7   6   8 626.759 304.841   5
  -7  -6  -9 1703.70 436.906   2
   7   6   9 1958.25 457.252   6
  -7  -6 -10 817.397 324.014   2
   7   6  10 810.422 306.717   6
  -7  -6 -11 1020.70 339.401   2
   7   6  11 1924.93 467.935   6
   7   6  12 2076.77 495.933   6
  -7  -6 -12 2454.18 549.117   2
   7   7 -14 5401.43 890.067   4
   7   7 -13-640.688 324.938   4
   7   7 -12 1732.30 435.967   5
   7   7 -12 2072.22 540.319   4
   7   7 -11 2816.42 599.465   5
   7   7 -11 2868.48 641.856   4
  -7  -7  10 330.041 241.337   1
   7   7 -10 1017.23 358.792   5
   7   7 -10 1250.95 409.856   4
  -7  -7   9 4364.64 820.391   1
   7   7  -9 3869.05 715.476   5
   7   7  -9 3412.69 637.845   4
   7   7  -8 666.242 335.028   5
  -7  -7   8 1090.93 439.595   1
   7   7  -8 1250.17 398.400   4
   7   7  -7 671.348 275.758   5
   7   7  -7 935.900 334.219   4
  -7  -7   7 562.041 329.100   1
  -7  -7   6 646.470 304.530   1
   7   7  -6 325.516 269.569   5
   7   7  -6 425.747 228.916   4
   7   7  -5 1758.82 503.632   5
  -7  -7   5 3156.50 563.888   1
   7   7  -4 2139.30 549.843   5
  -7  -7   4 1937.93 434.720   1
   7   7  -3 3983.45 757.840   5
   7   7  -2 6814.37 985.803   5
   7   7  -1 29430.7 2004.21   5
   7   7   0 2345.75 614.801   5
   7   7   1 114.878 269.829   5
   7   7   2 322.527 304.474   5
   7   7   3 599.424 343.486   5
   7   7   4 10805.5 1219.12   5
   7   7   5 1372.27 337.473   6
   7   7   5 782.564 387.262   5
   7   7   6 198.289 160.179   6
   7   7   6 272.258 244.123   5
   7   7   7 406.377 182.932   6
   7   7   7 462.828 271.900   5
  -7  -7  -8 905.699 336.529   2
   7   7   8 1249.87 353.198   6
   7   7   8 1027.49 392.341   5
   7   7   9 6293.31 820.759   6
  -7  -7  -9 6809.84 880.840   2
  -7  -7 -10-554.663 264.969   2
   7   7  10 93.3391 113.388   6
   7   7  11-301.595 195.372   6
  -7  -8  13 967.838 467.977   1
   7   8 -12 377.654 248.860   4
  -7  -8  12 1027.48 458.614   1
  -7  -8  11 1780.40 539.280   1
   7   8 -11 766.164 307.898   5
   7   8 -11 754.577 344.291   4
   7   8 -10 199.524 214.688   5
   7   8 -10 106.055 204.892   4
  -7  -8  10-354.416 302.066   1
   7   8  -9 906.120 344.817   4
  -7  -8   9 789.051 313.814   1
   7   8  -8 8037.27 1058.48   5
   7   8  -8 8113.83 983.893   4
  -7  -8   8 9080.83 1098.08   1
   7   8  -7 15114.2 1451.06   5
  -7  -8   7 16212.9 1405.75   1
   7   8  -6 1263.33 464.524   5
  -7  -8   6 1689.58 468.214   1
   7   8  -5 1947.48 556.321   5
  -7  -8   5 2155.76 487.092   1
   7   8  -4 6666.35 975.011   5
   7   8  -3 6910.13 1026.45   5
   7   8  -2 514.436 384.317   5
   7   8  -1-180.780 298.154   5
   7   8   0 210.252 300.563   5
   7   8   1 1072.91 501.791   5
   7   8   2 490.286 347.566   5
   7   8   3 208.268 304.196   5
   7   8   4 3708.77 777.345   5
   7   8   5 4601.17 848.384   5
   7   8   6 529.923 355.514   5
   7   8   7-211.011 213.614   5
  -7  -8  -8-104.819 162.683   2
  -7  -8  -9 138.004 180.995   2
  -7  -9  11 1336.06 537.882   1
   7   9 -11 796.464 363.608   5
  -7  -9  10 3703.34 748.908   1
   7   9 -10 3240.04 683.245   5
   7   9  -9 281.215 275.225   5
  -7  -9   9-568.409 319.062   1
   7   9  -8-2.02859 166.614   5
  -7  -9   8-283.901 195.191   1
   7   9  -7 6536.48 999.163   5
  -7  -9   7 7725.94 988.388   1
  -7  -9   6 2828.92 594.410   1
   7   9  -6 2606.19 646.238   5
   7   9  -5 5022.02 888.703   5
   7   9  -4 940.627 446.319   5
   7   9  -3 6006.50 986.971   5
   7   9  -2 1847.49 567.449   5
   7   9  -1 9320.87 1248.00   5
   7   9   0 963.893 457.291   5
   7   9   1 2774.78 679.106   5
   7   9   2 4738.73 903.965   5
   7   9   3 259.562 310.249   5
   7   9   4 192.311 235.095   5
   7   9   5 294.372 241.406   5
   7   9   6 704.501 374.064   5
  -7  -9  -7 220.554 194.213   2
   7   9   7 181.962 227.374   5
   7  10  -9-666.975 359.052   5
  -7 -10   9 670.934 381.085   1
  -7 -10   8 448.878 276.659   1
   7  10  -8-17.3670 283.145   5
   7  10  -7 1587.16 540.700   5
   7  10  -6 2778.26 684.869   5
   7  10  -5 9141.12 1226.34   5
   7  10  -4 3283.70 780.706   5
   7  10  -3 788.005 433.818   5
   7  10  -2 323.239 323.548   5
   7  10  -1-33.8077 291.982   5
   7  10   0-233.675 326.249   5
   7  10   1 51.0760 233.537   5
   7  10   2 799.725 448.724   5
   7  10   3 1329.50 534.281   5
   7  10   4-189.674 271.512   5
   8 -14  -4 1730.92 531.608   1
   8 -14  -3 573.888 405.528   3
   8 -14  -3 390.653 264.742   1
   8 -14  -2 3189.46 821.961   3
   8 -14  -2 3233.09 695.032   1
  -8  14   1 7148.24 1051.14   7
   8 -14  -1 7140.26 1174.38   3
   8 -14  -1 6948.38 991.565   1
  -8  14   0 860.844 407.325   7
   8 -14   0 441.732 310.597   3
   8 -14   0 331.584 256.669   1
  -8  14  -1 325.988 332.486   7
   8 -14   1-45.6409 237.637   3
   8 -14   1-372.681 242.600   1
  -8  14  -2 2444.87 693.197   7
   8 -14   2 2524.48 692.612   3
  -8  14  -3-120.242 264.081   7
   8 -14   3 225.556 312.501   3
  -8  14  -4 261.452 340.156   7
   8 -14   4 775.070 385.936   3
  -8  14  -5 510.856 399.549   7
   8 -13  -7 100.740 131.559   1
   8 -13  -7 899.425 429.233   3
   8 -13  -6 329.084 247.299   1
   8 -13  -6-279.406 307.117   3
   8 -13  -5 2520.09 621.516   1
   8 -13  -5 1479.42 616.859   3
   8 -13  -4 1057.15 396.248   1
   8 -13  -4 999.325 504.566   3
  -8  13   3 436.471 277.145   7
   8 -13  -3 1009.12 488.785   3
   8 -13  -3 364.162 242.721   1
  -8  13   2 2094.57 548.110   7
   8 -13  -2 3011.11 750.763   3
   8 -13  -2 2450.58 578.776   1
  -8  13   1 2363.67 610.086   7
   8 -13  -1 801.127 425.060   3
   8 -13  -1 1512.87 460.689   1
  -8  13   0 152.550 222.255   7
   8 -13   0 310.191 296.619   3
   8 -13   0 538.012 269.612   1
   8 -13   1 827.516 420.057   3
  -8  13  -1 1315.61 492.868   7
   8 -13   1 1114.78 394.982   1
  -8  13  -2 904.324 417.020   7
   8 -13   2 836.637 446.466   3
   8 -13   2 395.892 240.065   1
  -8  13  -3 1712.40 581.967   7
   8 -13   3 565.477 355.075   3
  -8  13  -4-465.965 356.604   7
   8 -13   4 84.0178 322.036   3
  -8  13  -5-258.418 332.519   7
   8 -13   5 269.805 252.973   3
  -8  13  -6 2332.52 684.015   7
  -8  13  -7-994.856 480.063   7
  -8  13  -8 2134.78 744.114   7
   8 -12 -10 1608.01 555.065   3
   8 -12  -9 2957.63 738.463   3
   8 -12  -9 2510.55 665.077   1
   8 -12  -8 3902.34 853.864   3
   8 -12  -8 2536.19 661.845   1
   8 -12  -7 671.036 353.582   1
   8 -12  -7 1060.89 473.166   3
   8 -12  -6 570.579 338.676   1
   8 -12  -6 16.6493 238.758   3
   8 -12  -5 767.858 354.504   1
   8 -12  -5 696.277 373.236   3
  -8  12   5 386.767 236.843   7
   8 -12  -4 356.711 231.903   1
   8 -12  -4 428.349 301.706   3
  -8  12   4 620.857 314.053   7
   8 -12  -3 1251.06 476.319   3
   8 -12  -3 1151.58 411.596   1
  -8  12   3 1711.14 506.651   7
   8 -12  -2 1302.74 505.458   3
   8 -12  -2 2300.11 522.532   1
  -8  12   2 2133.03 552.497   7
   8 -12  -1 1608.76 564.918   3
   8 -12  -1 2748.19 565.213   1
  -8  12   1 2288.66 606.549   7
  -8  12   0 4654.15 841.238   7
   8 -12   0 2556.15 663.412   3
   8 -12   0 3590.25 635.914   1
   8 -12   1 6785.50 1062.91   3
   8 -12   1 6343.30 836.445   1
  -8  12  -1 7558.01 1077.12   7
  -8  12  -2 3567.44 761.016   7
   8 -12   2 2786.90 696.726   3
   8 -12   2 1802.32 450.130   1
   8 -12   3 8917.64 1211.32   3
  -8  12  -3 9128.38 1204.58   7
  -8  12  -4 5776.27 993.288   7
   8 -12   4 3539.56 753.966   3
  -8  12  -5 892.046 442.355   7
   8 -12   5 492.904 307.392   3
  -8  12  -6-352.176 334.627   7
   8 -12   6-84.2635 243.690   3
  -8  12  -7 7794.10 1191.69   7
  -8  12  -8 2552.17 565.300   7
  -8  12  -9-115.958 294.433   7
  -8  12 -10 6095.04 1117.80   7
   8 -11 -11 1066.72 461.586   3
   8 -11 -11 1831.37 568.186   1
   8 -11 -10-505.157 315.838   3
   8 -11 -10 957.286 420.448   1
   8 -11  -9 441.755 292.570   3
   8 -11  -9 209.131 233.152   1
   8 -11  -8 8111.14 1195.88   3
   8 -11  -8 8745.49 1148.30   1
   8 -11  -7 3766.22 767.808   1
   8 -11  -7 4761.58 889.169   3
   8 -11  -6-144.420 216.102   1
   8 -11  -6-365.065 341.322   3
   8 -11  -5 4239.36 764.938   1
   8 -11  -5 5609.63 970.804   3
   8 -11  -4 178.145 250.373   1
   8 -11  -4 228.771 234.908   3
   8 -11  -3 202.096 291.570   3
   8 -11  -3 268.269 221.001   1
   8 -11  -2 236.205 328.039   3
   8 -11  -2-110.530 173.249   1
  -8  11   2 145.824 227.409   7
   8 -11  -1-89.4111 275.830   3
   8 -11  -1-134.459 174.934   1
  -8  11   1 459.770 269.304   7
   8 -11   0-198.265 291.963   3
   8 -11   0 171.381 200.891   1
  -8  11   0 127.391 232.207   7
   8 -11   1-118.762 251.105   3
   8 -11   1 95.1054 155.388   1
  -8  11  -1 155.070 277.338   7
  -8  11  -2 1211.04 474.806   7
   8 -11   2 1708.41 532.924   3
   8 -11   2 632.324 257.179   1
  -8  11  -3 6898.98 1011.72   7
   8 -11   3 6010.20 954.986   3
  -8  11  -4 566.365 390.420   7
   8 -11   4 284.092 197.647   3
  -8  11  -5 238.584 328.957   7
   8 -11   5 753.533 342.777   3
  -8  11  -6 3980.15 832.742   7
   8 -11   6 3006.10 648.563   3
  -8  11  -7-417.498 374.577   7
  -8  11  -8 4098.26 861.038   7
  -8  11  -9-95.5708 243.562   7
  -8  11 -10 1579.07 599.452   7
  -8  11 -11 243.845 273.686   7
   8 -10 -13 542.564 304.135   3
   8 -10 -12 271.405 211.523   3
   8 -10 -12 446.193 297.160   1
   8 -10 -11-956.369 446.472   3
   8 -10 -11 94.9500 153.363   1
   8 -10 -10 285.430 301.819   3
   8 -10 -10-23.2957 169.671   1
   8 -10  -9 2170.64 608.988   3
   8 -10  -9 2170.49 599.699   1
   8 -10  -8 8870.86 1125.60   1
   8 -10  -8 9492.92 1244.47   3
   8 -10  -7 5445.15 877.805   1
   8 -10  -7 6089.00 1010.07   3
   8 -10  -6 1746.22 509.190   1
   8 -10  -6 1206.40 460.044   3
   8 -10  -5 4521.99 757.626   1
   8 -10  -5 4876.28 907.820   3
   8 -10  -4 1215.05 436.978   1
   8 -10  -4 1411.06 522.898   3
   8 -10  -3 1188.50 472.492   3
   8 -10  -3 924.650 352.102   1
   8 -10  -2 4386.32 782.632   3
   8 -10  -2 3160.42 561.023   1
   8 -10  -1 1757.45 530.844   3
   8 -10  -1 1290.25 380.981   1
   8 -10   0 1469.97 460.986   3
   8 -10   0 2396.87 483.045   1
  -8  10   0 3034.69 631.911   7
   8 -10   1 6049.33 937.538   3
   8 -10   1 6117.81 733.821   1
  -8  10  -1 6555.68 902.844   7
   8 -10   2-98.1066 254.656   3
   8 -10   2-288.363 186.551   1
  -8  10  -2-169.056 248.139   7
   8 -10   3-192.978 275.536   3
  -8  10  -3 687.247 414.076   7
  -8  10  -4-119.963 280.055   7
   8 -10   4-358.800 277.603   3
   8 -10   5 30922.4 1981.41   3
  -8  10  -5 30938.9 2087.32   7
   8 -10   6 16711.0 1440.60   3
  -8  10  -6 19248.0 1701.51   7
  -8  10  -7 882.068 488.702   7
   8 -10   7 604.234 318.297   3
  -8  10  -8 6605.75 1054.65   7
  -8  10  -9 10876.5 1365.61   7
  -8  10 -10 3208.32 768.746   7
  -8  10 -11 3551.69 825.492   7
  -8  10 -12 1854.03 593.913   7
  -8  10 -13 8069.50 1299.02   7
   8  -9 -13 220.310 262.465   3
   8  -9 -13-173.604 267.173   1
   8  -9 -13-310.546 323.102   4
   8  -9 -12 1490.78 535.189   3
   8  -9 -12 1064.56 428.694   4
   8  -9 -12 1915.19 549.076   1
   8  -9 -11 962.505 392.644   3
   8  -9 -11 170.551 209.670   1
   8  -9 -10 3087.74 700.198   3
   8  -9 -10 3415.31 733.570   1
   8  -9  -9 4211.63 810.862   3
   8  -9  -9 3153.04 683.108   1
   8  -9  -8 303.818 344.107   3
   8  -9  -8-443.986 304.713   1
   8  -9  -7 8502.13 1033.41   1
   8  -9  -7 11639.1 1322.42   3
   8  -9  -6 15947.3 1373.37   1
   8  -9  -6 18933.5 1657.97   3
   8  -9  -5 3143.57 605.368   1
   8  -9  -5 2811.52 677.700   3
   8  -9  -4 5953.34 937.587   3
   8  -9  -4 6198.24 806.173   1
   8  -9  -3 416.909 265.747   1
   8  -9  -3 174.452 265.666   3
   8  -9  -2-1111.18 418.785   3
   8  -9  -2-260.769 185.895   1
   8  -9  -1-253.600 290.910   3
   8  -9  -1 146.035 161.045   1
   8  -9   0 146.242 231.772   3
   8  -9   0 604.921 255.186   1
   8  -9   1 12037.5 974.981   1
   8  -9   1 12195.3 1248.26   3
   8  -9   2 2748.86 612.816   3
  -8   9  -2 3089.82 623.559   7
   8  -9   3 10240.8 1121.68   3
  -8   9  -3 9038.59 1042.08   7
   8  -9   4 2492.83 576.950   3
  -8   9  -4 2592.14 606.169   7
  -8   9  -5 1040.58 416.618   7
   8  -9   5-276.494 235.896   3
  -8   9  -6 363.674 321.988   7
   8  -9   6-362.970 240.096   3
  -8   9  -7 544.076 331.512   7
   8  -9   7 299.385 225.988   3
  -8   9  -8 27592.8 2044.50   7
  -8   9  -9 1274.48 516.539   7
  -8   9 -10 135.543 211.768   7
  -8   9 -11 73.0816 191.104   7
  -8   9 -12 5811.05 1035.53   7
  -8   9 -13 848.040 431.795   7
  -8   9 -14 604.699 406.876   7
   8  -8 -14 266.557 333.221   4
   8  -8 -13 1709.56 523.157   3
   8  -8 -13 989.347 441.299   4
   8  -8 -12-323.052 273.730   3
   8  -8 -12-392.119 317.183   1
   8  -8 -12 2.38238 104.223   4
   8  -8 -11 434.896 322.189   3
   8  -8 -11-11.5049 173.520   4
   8  -8 -11 303.467 283.473   1
   8  -8 -10 3016.87 657.789   3
   8  -8 -10 1810.54 533.740   1
   8  -8  -9-177.969 236.892   3
   8  -8  -9-193.349 237.337   1
   8  -8  -8 58.1733 264.247   3
   8  -8  -8-1.70528 188.290   1
   8  -8  -7 173.505 288.011   3
   8  -8  -7 481.615 296.071   1
   8  -8  -6 1075.40 436.594   3
   8  -8  -6 1723.89 456.873   1
   8  -8  -5 10948.1 1065.40   1
   8  -8  -5 12717.5 1308.49   3
   8  -8  -4 1727.47 407.235   1
   8  -8  -4 2189.92 541.754   3
   8  -8  -3 4987.16 694.468   1
   8  -8  -3 4835.28 806.560   3
   8  -8  -2 494.489 227.518   1
   8  -8  -2-42.6451 230.078   3
   8  -8  -1 1113.70 404.006   3
   8  -8  -1 442.636 200.881   1
   8  -8   0 6014.66 862.621   3
   8  -8   0 5761.99 662.052   1
   8  -8   1 257.724 270.480   3
   8  -8   1 264.989 187.064   1
   8  -8   2 3578.91 642.402   3
   8  -8   3 226.711 222.435   3
  -8   8  -3-37.7248 208.669   7
   8  -8   4 3211.98 611.857   3
  -8   8  -4 3313.83 632.030   7
   8  -8   5 1921.71 480.358   3
  -8   8  -5 1060.17 396.410   7
  -8   8  -6 2219.04 554.257   7
   8  -8   6 2202.12 503.314   3
   8  -8   7 27385.7 1696.90   3
  -8   8  -7 29537.0 1959.14   7
  -8   8  -8 6808.02 977.103   7
  -8   8  -9 661.946 381.822   7
  -8   8 -10 2749.50 679.962   7
  -8   8 -11 2998.77 719.987   7
  -8   8 -12 495.301 342.998   7
  -8   8 -13 1841.88 574.521   7
  -8   8 -14-655.480 461.448   7
   8  -7 -15 2373.03 663.506   4
   8  -7 -14 1411.39 534.558   4
   8  -7 -13-252.204 225.454   3
   8  -7 -13-54.2264 204.605   4
   8  -7 -12 1275.51 446.012   3
   8  -7 -12 978.975 417.131   4
   8  -7 -11 193.740 267.052   3
   8  -7 -11-208.460 221.255   1
   8  -7 -11-163.906 239.523   4
   8  -7 -10 7962.13 1110.66   4
   8  -7 -10 7288.50 998.539   1
   8  -7 -10 7785.24 1030.92   3
   8  -7  -9 5410.69 899.341   4
   8  -7  -9 6076.21 865.081   1
   8  -7  -9 8032.25 1060.22   3
   8  -7  -8 704.262 366.344   3
   8  -7  -8 407.930 260.693   1
   8  -7  -7 201.724 197.772   3
   8  -7  -7 354.421 271.669   1
   8  -7  -6-143.187 212.548   3
   8  -7  -6-169.018 201.346   1
   8  -7  -5 9844.79 968.042   1
   8  -7  -5 10926.9 1179.83   3
   8  -7  -4 528.048 277.401   3
   8  -7  -4 128.561 175.243   1
   8  -7  -3 8961.40 870.750   1
   8  -7  -3 7776.70 980.386   3
   8  -7  -2 3445.78 531.262   1
   8  -7  -2 3515.93 653.600   3
   8  -7  -1 12412.1 944.710   1
   8  -7  -1 12362.5 1204.59   3
   8  -7   0 2068.15 377.579   1
   8  -7   0 2440.01 537.776   3
   8  -7   1 9595.33 1037.55   3
   8  -7   2 141.115 182.650   3
   8  -7   3 26968.5 1697.17   3
   8  -7   4-2.90727 216.045   3
  -8   7  -4 85.9237 192.608   7
   8  -7   5 2661.78 547.489   3
  -8   7  -5 2431.16 538.729   7
   8  -7   6 1026.42 344.621   3
   8  -7   6 872.095 254.070   6
  -8   7  -6 601.752 339.779   7
  -8   7  -7 661.843 317.250   7
   8  -7   7 1018.69 346.003   3
   8  -7   7 623.740 222.731   6
  -8   7  -8 1009.90 415.723   7
   8  -7   8 935.065 309.970   3
   8  -7   8 792.741 280.535   6
  -8   7  -9-162.957 297.922   7
   8  -7   9 714.673 264.989   6
  -8   7 -10 4950.37 871.714   7
   8  -7  10 6233.06 720.238   6
   8  -7  11 16833.1 1217.05   6
  -8   7 -11 15280.3 1547.68   7
  -8   7 -12 226.707 274.968   7
   8  -7  12-394.661 232.848   6
   8  -7  13 10214.0 1001.30   6
  -8   7 -13 9215.33 1268.58   7
  -8   7 -14 5512.05 1013.05   7
  -8   7 -15-804.543 397.080   7
   8  -6 -16 557.832 412.027   4
   8  -6 -15 2692.29 692.937   4
   8  -6 -14-415.422 288.857   4
   8  -6 -13 4275.41 767.550   3
   8  -6 -13 2863.70 722.890   4
   8  -6 -12-222.354 307.549   3
   8  -6 -12-52.1256 186.037   4
   8  -6 -11 1887.73 522.983   3
   8  -6 -11 1510.74 513.199   4
   8  -6 -10 501.913 292.775   3
   8  -6 -10 421.539 314.993   4
   8  -6  -9 4155.95 741.319   3
   8  -6  -9 3745.14 717.553   4
   8  -6  -9 4390.26 748.321   1
   8  -6  -8 3882.44 708.655   3
   8  -6  -8 3436.31 671.629   4
   8  -6  -8 3415.61 628.113   1
   8  -6  -7 1144.34 413.845   3
   8  -6  -7 809.260 383.710   4
   8  -6  -7 1006.15 338.357   1
   8  -6  -6 1559.53 444.338   3
   8  -6  -6 1742.00 423.689   1
   8  -6  -5 10339.0 957.860   1
   8  -6  -5 9825.38 1079.15   3
   8  -6  -4 4324.03 727.625   3
   8  -6  -4 3358.90 543.361   1
   8  -6  -3 8065.67 786.064   1
   8  -6  -3 8517.08 1001.30   3
   8  -6  -2 2019.67 495.555   3
   8  -6  -2 2128.49 393.753   1
   8  -6  -1 1110.72 403.388   3
   8  -6  -1 1490.31 310.113   1
   8  -6   0-206.353 239.265   3
   8  -6   0 101.821 107.695   1
   8  -6   1 1243.27 398.705   3
   8  -6   2 19436.6 1413.35   3
   8  -6   3 2281.03 500.756   3
   8  -6   4 13974.9 1174.57   3
   8  -6   5 763.561 309.506   3
   8  -6   5 550.614 188.955   6
  -8   6  -5 397.192 243.513   7
   8  -6   6 7260.72 718.805   6
  -8   6  -6 5493.99 773.699   7
   8  -6   6 5999.32 786.082   3
   8  -6   7 172.147 188.480   3
   8  -6   7-206.793 175.176   6
   8  -6   8 16646.9 1134.80   6
   8  -6   8 13245.9 1124.04   3
  -8   6  -8 15302.7 1356.34   7
  -8   6  -9 369.311 270.556   7
   8  -6   9 558.544 245.803   6
  -8   6 -10 6309.73 948.487   7
   8  -6  10 7129.28 792.411   6
  -8   6 -11-143.248 170.685   7
   8  -6  11 17.6774 144.374   6
  -8   6 -12-42.5947 205.478   7
   8  -6  12 588.607 254.341   6
   8  -6  13 1030.42 326.822   6
  -8   6 -13 336.576 290.685   7
  -8   6 -14 2125.53 623.794   7
   8  -6  14 1859.71 469.414   6
  -8   6 -15 2827.87 719.113   7
   8  -6  15 4019.63 693.318   6
   8  -5 -16 167.891 241.699   4
   8  -5 -15 137.601 213.870   4
   8  -5 -14-76.5700 212.557   4
   8  -5 -13 1647.24 461.501   3
   8  -5 -13 1521.98 518.642   4
   8  -5 -12 4808.38 773.209   3
   8  -5 -12 4716.93 854.226   4
   8  -5 -11 495.394 269.153   3
   8  -5 -11 396.853 255.429   4
   8  -5 -10 6434.21 888.635   3
   8  -5 -10 6474.81 948.676   4
   8  -5  -9 1383.76 435.166   3
   8  -5  -9 1001.02 382.784   4
   8  -5  -8 6331.85 876.798   4
   8  -5  -8 7495.32 943.798   3
   8  -5  -7 1143.50 419.706   3
   8  -5  -7 734.843 293.789   1
   8  -5  -7 1003.27 375.338   4
   8  -5  -6 5454.05 810.924   3
   8  -5  -6 4799.78 721.695   4
   8  -5  -6 4255.09 625.932   1
   8  -5  -5-27.3335 141.889   3
   8  -5  -5-305.300 210.992   4
   8  -5  -5 45.6759 147.783   1
   8  -5  -4 2172.35 523.843   3
   8  -5  -4 2608.92 506.852   4
   8  -5  -4 2357.99 428.757   1
   8  -5  -3 38117.5 1595.66   1
   8  -5  -3 35589.8 1732.55   4
   8  -5  -3 37355.2 1997.98   3
   8  -5  -2 37562.6 1497.30   1
   8  -5  -2 33659.6 1599.82   4
   8  -5  -2 34348.9 1900.16   3
   8  -5  -1 10371.8 747.045   1
   8  -5  -1 9566.01 812.940   4
   8  -5  -1 9121.71 982.153   3
   8  -5   0 7695.32 687.994   4
   8  -5   0 7604.86 902.242   3
   8  -5   1 7022.46 849.634   3
   8  -5   2 2132.06 460.438   3
   8  -5   3 12.1167 179.150   3
   8  -5   4 12115.8 890.269   6
   8  -5   4 11197.2 1044.05   3
   8  -5   5 41527.8 1673.34   6
   8  -5   5 34306.1 1821.21   3
   8  -5   6 1333.04 392.415   3
   8  -5   6 1875.72 383.881   6
  -8   5  -6 1406.99 400.357   7
   8  -5   7 4082.53 637.698   3
   8  -5   7 3707.65 537.371   6
  -8   5  -7 3398.24 600.220   7
  -8   5  -8 1401.64 442.118   7
   8  -5   8 1115.08 330.110   6
   8  -5   8 954.432 352.700   3
   8  -5   9 683.017 280.584   6
  -8   5  -9 641.186 312.405   7
  -8   5 -10 134.437 217.903   7
   8  -5  10 434.154 213.141   6
  -8   5 -11 5802.87 905.795   7
   8  -5  11 4051.96 626.281   6
  -8   5 -12 7601.88 1061.99   7
   8  -5  12 7486.32 877.508   6
  -8   5 -13 5925.35 936.876   7
   8  -5  13 6906.17 867.664   6
  -8   5 -14 4837.33 875.945   7
   8  -5  14 5548.29 801.410   6
   8  -5  15 7392.60 967.233   6
   8  -4 -17-412.473 304.264   4
   8  -4 -16 1417.69 579.798   4
   8  -4 -15 147.843 302.272   4
   8  -4 -14 337.125 305.328   4
   8  -4 -13 4460.86 716.941   3
   8  -4 -13 4466.54 832.463   4
   8  -4 -12 252.619 228.280   3
   8  -4 -12 439.693 310.741   4
   8  -4 -11 698.513 293.125   3
   8  -4 -11 1194.92 423.881   4
   8  -4 -10 359.508 250.593   3
   8  -4 -10-153.446 223.500   4
   8  -4  -9-179.936 191.710   3
   8  -4  -9 592.434 296.792   4
   8  -4  -8 7057.76 899.861   4
   8  -4  -8 6837.94 878.853   3
   8  -4  -7 705.311 320.768   3
   8  -4  -7 848.254 339.264   4
   8  -4  -6 597.395 292.999   3
   8  -4  -6 274.437 222.380   4
   8  -4  -5 1829.25 468.115   3
   8  -4  -5 1536.18 405.196   4
   8  -4  -4-125.505 211.601   3
   8  -4  -4 190.824 183.543   4
   8  -4  -3 20272.8 1251.28   4
   8  -4  -3 22644.8 1527.59   3
   8  -4  -2 264.024 290.232   3
   8  -4  -2 305.490 194.029   4
   8  -4  -1 305.335 240.257   3
   8  -4  -1 604.702 213.912   4
   8  -4   0 2035.47 475.095   3
   8  -4   0 2282.50 349.710   4
   8  -4   1-73.3020 156.799   3
   8  -4   2 3275.14 567.016   3
   8  -4   3 287.801 258.765   3
   8  -4   3 669.173 231.055   6
   8  -4   4 1555.13 401.680   3
   8  -4   4 2331.20 406.337   6
   8  -4   5 635.212 284.910   3
   8  -4   5 1057.09 299.933   6
   8  -4   6 3058.10 559.018   3
   8  -4   6 3925.47 549.400   6
  -8   4  -6 3647.54 592.796   7
   8  -4   7-80.7008 163.457   6
   8  -4   7 5.33784 145.593   3
  -8   4  -7-48.7256 177.957   7
   8  -4   8 11783.3 975.976   6
   8  -4   8 9424.00 964.538   3
  -8   4  -8 9269.53 987.246   7
  -8   4  -9 5173.31 770.514   7
   8  -4   9 4530.60 625.413   6
  -8   4 -10 1149.26 390.115   7
   8  -4  10 1630.62 415.789   6
  -8   4 -11 1503.91 456.757   7
   8  -4  11 1159.59 363.909   6
  -8   4 -12 145.912 172.426   7
   8  -4  12-108.141 158.263   6
  -8   4 -13 3466.95 704.784   7
   8  -4  13 4109.15 701.446   6
   8  -4  14 717.340 304.299   6
   8  -4  15 1792.47 490.744   6
   8  -3 -17 299.434 268.844   4
   8  -3 -16-357.435 301.131   4
   8  -3 -15 530.018 321.930   4
   8  -3 -14 614.542 371.438   4
   8  -3 -13-105.484 188.222   4
   8  -3 -12 4419.94 696.008   3
   8  -3 -12 3581.91 716.558   4
   8  -3 -11-215.474 227.796   3
   8  -3 -11 338.952 253.387   4
   8  -3 -10 214.889 164.783   3
   8  -3 -10 209.101 225.248   4
   8  -3  -9 4125.33 665.100   3
   8  -3  -9 3111.99 612.123   4
   8  -3  -8 11966.8 1147.95   4
   8  -3  -8 13422.4 1196.63   3
   8  -3  -7-284.935 215.081   3
   8  -3  -7 511.176 273.847   4
   8  -3  -6 144.612 239.424   3
   8  -3  -6 88.8393 182.563   4
   8  -3  -5 1610.21 444.974   3
   8  -3  -5 1867.30 402.545   4
   8  -3  -4 18568.2 1213.56   4
   8  -3  -4 21445.8 1476.13   3
   8  -3  -3 1870.77 444.988   3
   8  -3  -3 1280.30 306.980   4
   8  -3  -2 2596.02 512.358   3
   8  -3  -2 2664.88 427.063   4
   8  -3  -1 110.035 198.519   3
   8  -3  -1-31.9622 94.2298   4
   8  -3   0 40575.6 1391.46   4
   8  -3   0 40861.2 1992.60   3
   8  -3   1 1387.23 397.333   3
   8  -3   2 16924.2 1291.84   3
   8  -3   3 7428.56 704.250   6
   8  -3   3 6523.26 810.769   3
   8  -3   4 96.9927 190.300   3
   8  -3   4 86.0829 132.352   6
   8  -3   5 238.446 160.718   6
   8  -3   5 29.7869 156.832   3
   8  -3   6 2872.91 466.833   6
  -8   3  -6 3669.75 561.044   7
   8  -3   6 3743.05 616.808   3
   8  -3   7 9308.63 859.855   6
   8  -3   7 9433.09 981.936   3
  -8   3  -7 10448.1 978.425   7
  -8   3  -8 726.223 283.266   7
   8  -3   8 708.340 277.842   6
   8  -3   8 652.564 273.981   3
  -8   3  -9 2521.01 535.346   7
   8  -3   9 2792.87 514.045   6
   8  -3   9 2809.42 533.906   3
   8  -3  10 32669.4 1756.09   6
  -8   3 -10 30117.4 1829.14   7
  -8   3 -11 4264.33 714.965   7
   8  -3  11 5204.86 736.159   6
   8  -3  12-46.2444 225.486   6
   8  -3  13 7338.69 922.702   6
   8  -3  14 161.350 190.412   6
   8  -3  15 2361.46 588.055   6
   8  -2 -17 104.644 238.239   4
   8  -2 -16 2707.11 676.057   4
   8  -2 -15 444.309 283.725   4
   8  -2 -14 1715.67 548.803   4
   8  -2 -13-192.761 247.020   4
   8  -2 -12 9363.65 1127.24   4
   8  -2 -12 8756.78 973.806   3
   8  -2 -11 127.270 192.400   3
   8  -2 -11 166.736 253.729   4
   8  -2 -10 438.457 295.557   3
   8  -2 -10 477.309 284.649   4
   8  -2  -9 5659.53 817.890   4
   8  -2  -9 6335.27 831.885   3
   8  -2  -8 6919.05 859.006   4
   8  -2  -8 7403.50 894.571   3
   8  -2  -7 657.626 319.375   3
   8  -2  -7 246.408 236.511   4
   8  -2  -6 4613.28 687.684   3
   8  -2  -6 4031.16 616.574   4
   8  -2  -5 1871.77 437.998   3
   8  -2  -5 1324.55 343.683   4
   8  -2  -4 117.852 200.849   3
   8  -2  -4 12.4922 144.833   4
   8  -2  -3 1150.76 361.345   3
   8  -2  -3 981.965 280.930   4
   8  -2  -2 395.250 258.249   3
   8  -2  -2 162.497 131.528   4
   8  -2  -1 7610.92 646.119   4
   8  -2  -1 6356.46 804.789   3
   8  -2   0-94.6490 184.952   3
   8  -2   0 216.982 117.130   4
   8  -2   1-256.915 228.205   3
   8  -2   2 5408.65 735.539   3
   8  -2   2 7226.46 704.929   6
   8  -2   3 3752.66 518.360   6
  -8   2  -3 3539.67 332.825   2
   8  -2   3 3340.45 600.066   3
  -8   2  -4 621.250 166.177   2
   8  -2   4 717.287 269.941   6
   8  -2   4 279.451 225.443   3
   8  -2   5 5830.96 665.608   6
  -8   2  -5 4907.42 447.258   2
   8  -2   5 4718.67 689.992   3
   8  -2   6 259.412 214.511   6
   8  -2   6-114.904 180.775   3
  -8   2  -6 239.435 122.576   2
   8  -2   7 1185.64 315.022   6
  -8   2  -7 1685.34 298.984   2
   8  -2   7 1365.69 384.988   3
  -8   2  -7 1126.75 349.433   7
  -8   2  -8 140.057 161.432   7
   8  -2   8 33.4186 211.713   6
  -8   2  -8 60.3646 84.4031   2
   8  -2   8 113.004 194.456   3
  -8   2  -9 918.912 320.005   7
   8  -2   9 1756.76 434.034   6
  -8   2  -9 1153.72 285.177   2
   8  -2   9 1113.92 358.554   3
   8  -2  10 18522.4 1344.31   6
  -8   2 -10 18997.8 1128.81   2
  -8   2 -10 18094.3 1360.19   7
   8  -2  11 5263.70 753.701   6
  -8   2 -11 5704.44 652.163   2
   8  -2  12 360.137 254.223   6
  -8   2 -12 867.052 281.159   2
   8  -2  13 234.758 240.234   6
   8  -2  14 3575.56 672.414   6
   8  -2  15 8129.29 1047.95   6
   8  -1 -17 758.923 392.559   4
   8  -1 -16-130.209 245.864   4
   8  -1 -15 1538.23 506.133   4
   8  -1 -14 776.176 368.221   4
   8  -1 -13-543.273 338.152   4
   8  -1 -12-22.1557 169.069   4
   8  -1 -12 216.747 207.510   3
   8  -1 -11 1711.65 477.859   4
   8  -1 -11 1704.06 436.208   3
   8  -1 -10 1452.25 433.073   4
   8  -1 -10 1616.74 437.902   3
   8  -1  -9 2027.15 479.612   3
   8  -1  -9 1623.99 424.318   4
   8  -1  -8-100.981 186.173   3
   8  -1  -8 382.477 242.137   4
   8  -1  -7 4557.53 708.127   3
   8  -1  -7 4144.69 636.764   4
   8  -1  -6 5622.29 765.383   3
   8  -1  -6 4799.81 662.457   4
   8  -1  -5 12227.0 919.090   5
   8  -1  -5 9804.38 893.942   4
   8  -1  -5 11024.6 1076.46   3
   8  -1  -4 253.103 204.441   3
   8  -1  -4 330.285 203.875   5
   8  -1  -4 91.3459 105.373   4
   8  -1  -3 6550.32 676.231   5
   8  -1  -3 5842.10 795.158   3
   8  -1  -2 5138.11 736.984   3
   8  -1  -2 5074.17 609.469   5
   8  -1  -2 4659.57 538.656   4
   8  -1  -1 355.528 257.873   3
   8  -1  -1 38.2628 182.248   5
   8  -1  -1 400.586 151.614   4
   8  -1   0 6663.66 702.221   5
   8  -1   0 6880.50 571.042   4
   8  -1   0 5437.50 757.783   3
   8  -1   1 2070.23 486.226   3
   8  -1   1 2024.15 406.145   5
   8  -1   2 6453.43 670.134   6
   8  -1   2 6718.14 697.117   5
   8  -1   2 5974.18 794.275   3
   8  -1   3 6479.89 681.647   6
   8  -1   3 6722.04 694.843   5
  -8   1  -3 7208.71 520.089   2
   8  -1   3 7574.68 884.812   3
   8  -1   4 5031.12 632.040   6
  -8   1  -4 5176.48 460.639   2
   8  -1   4 4511.27 695.112   3
   8  -1   5 6033.77 691.687   6
  -8   1  -5 5468.71 494.593   2
   8  -1   5 5248.35 760.530   3
  -8   1  -6-213.972 97.3558   2
   8  -1   6 192.737 203.986   6
   8  -1   6 163.038 175.038   3
   8  -1   7 274.978 200.391   6
   8  -1   7 573.347 279.045   3
  -8   1  -7 638.233 249.284   7
  -8   1  -7 401.994 182.170   2
  -8   1  -8 24524.5 1434.75   7
   8  -1   8 23121.5 1441.45   6
  -8   1  -8 24783.3 1218.14   2
   8  -1   8 22556.3 1529.57   3
  -8   1  -9 2283.26 467.427   7
   8  -1   9 2619.21 520.993   6
   8  -1   9 2786.12 550.827   3
  -8   1  -9 2599.98 411.843   2
   8  -1  10-92.0127 204.951   6
  -8   1 -10-292.254 174.063   2
   8  -1  11 25.6412 181.695   6
  -8   1 -11 69.9675 152.909   2
   8  -1  12 2598.14 552.670   6
  -8   1 -12 2670.17 484.076   2
   8  -1  13 76.4372 211.852   6
  -8   1 -13 181.731 168.404   2
   8  -1  14 857.409 344.542   6
  -8   1 -14 162.690 213.864   2
   8  -1  15 1141.74 420.087   6
  -8   1 -15 685.763 277.432   2
   8   0 -17-716.749 363.154   4
   8   0 -16 4930.94 913.107   4
   8   0 -15-230.355 284.198   4
   8   0 -14 1994.21 549.823   4
   8   0 -13 1755.34 528.296   4
   8   0 -12 2875.77 635.646   4
   8   0 -12 5395.66 745.976   3
   8   0 -11 2077.40 527.709   4
   8   0 -11 1344.17 401.058   3
   8   0 -10 9087.52 1039.05   4
   8   0 -10 10711.9 1073.71   3
   8   0  -9 679.439 308.241   4
   8   0  -9 747.687 337.224   3
   8   0  -8 966.080 287.156   5
   8   0  -8 764.827 308.740   4
   8   0  -8 1265.60 399.267   3
   8   0  -7 13754.4 1002.29   5
   8   0  -7 12548.2 1101.75   4
   8   0  -7 15350.6 1272.73   3
   8   0  -6 30381.9 1477.95   5
   8   0  -6 28297.7 1590.28   4
   8   0  -6 31926.9 1837.35   3
   8   0  -5 272.085 219.024   5
   8   0  -5 695.971 268.148   4
   8   0  -5 684.066 308.571   3
   8   0  -4 3008.78 478.227   5
   8   0  -4 2224.64 419.689   4
   8   0  -3 814.405 282.777   5
   8   0  -3 1316.85 314.559   4
   8   0  -3 922.612 377.243   3
   8   0  -2 5968.50 674.360   5
   8   0  -2 5704.01 602.261   4
   8   0  -2 5754.19 784.399   3
   8   0  -1 243.993 222.608   5
   8   0  -1 121.784 105.717   4
   8   0  -1-34.3333 200.322   3
   8   0   0 14613.5 1036.08   5
   8   0   0 15252.8 841.566   4
   8   0   0 14919.3 1259.66   3
   8   0   1 5537.68 657.012   5
   8   0   1 6389.44 837.280   3
   8   0   2 5735.83 647.311   6
   8   0   2 6529.08 710.015   5
   8   0   2 6836.95 866.715   3
   8   0   3 7348.88 746.080   6
   8   0   3 8297.58 783.422   5
   8   0   3 7785.00 926.598   3
  -8   0  -4 652.136 202.969   2
   8   0   4 346.585 201.267   6
   8   0   4 584.266 247.148   5
   8   0   4 519.179 300.811   3
   8   0   5 7018.08 753.027   6
   8   0   5 7386.82 739.035   5
  -8   0  -5 6377.19 567.860   2
   8   0   5 5801.11 799.285   3
   8   0   6 4925.95 639.765   6
   8   0   6 4881.83 615.899   5
  -8   0  -6 5045.13 526.581   2
   8   0   6 4489.82 708.971   3
  -8   0  -7-61.6936 116.750   2
   8   0   7 128.785 187.830   6
  -8   0  -7 33.8003 114.573   7
   8   0   7 214.447 195.063   3
  -8   0  -8 1803.08 354.592   2
   8   0   8 1630.67 407.080   6
   8   0   8 1555.78 434.158   3
   8   0   9 93.8886 188.872   6
   8   0   9-5.64984 135.875   3
  -8   0  -9 230.451 183.748   2
   8   0  10 283.016 221.572   6
  -8   0 -10 178.238 179.448   2
   8   0  11 20.3764 194.340   6
  -8   0 -11-17.7769 139.945   2
   8   0  12 2258.90 558.731   6
  -8   0 -12 2083.03 436.103   2
   8   0  13 2466.68 562.835   6
  -8   0 -13 2588.58 503.473   2
   8   0  14-418.789 254.266   6
  -8   0 -14 265.303 210.526   2
   8   0  15 5622.25 919.921   6
  -8   0 -15 4871.24 732.673   2
   8   1 -17 1655.90 547.440   4
   8   1 -16-2.23303 278.304   4
   8   1 -15 1464.47 491.254   4
   8   1 -14 4152.79 807.975   4
   8   1 -13 5269.26 880.283   4
   8   1 -12 678.306 353.397   4
   8   1 -11 1487.80 478.456   4
   8   1 -11 1394.77 415.614   3
   8   1 -10 477.982 225.960   5
   8   1 -10 430.751 281.183   4
   8   1 -10-58.1450 181.734   3
   8   1  -9 4606.23 604.590   5
   8   1  -9 5258.81 780.418   4
   8   1  -9 5115.46 755.046   3
   8   1  -8 147.117 180.691   5
   8   1  -8 167.408 197.166   4
   8   1  -8 230.919 234.451   3
   8   1  -7 7050.41 753.173   5
   8   1  -7 7030.30 823.440   4
   8   1  -7 6749.97 873.385   3
   8   1  -6 1189.10 331.384   5
   8   1  -6 1195.34 363.069   4
   8   1  -6 828.852 342.506   3
   8   1  -5 1495.50 383.153   5
   8   1  -5 1297.29 350.384   4
   8   1  -5 1562.39 449.219   3
   8   1  -4 4560.35 619.894   5
   8   1  -4 4589.76 607.506   4
   8   1  -4 5473.27 789.341   3
   8   1  -3 836.146 292.733   5
   8   1  -3 933.069 281.337   4
   8   1  -3 668.655 333.970   3
   8   1  -2 3.29146 146.131   5
   8   1  -2 180.310 143.601   4
   8   1  -2-10.5002 233.585   3
   8   1  -1 473.839 247.081   5
   8   1  -1 462.393 175.657   4
   8   1  -1 661.890 288.888   3
   8   1   0 954.682 307.137   5
   8   1   0 961.956 235.811   4
   8   1   0 620.698 321.224   3
   8   1   1 95.2810 197.675   5
   8   1   1 257.636 229.025   3
   8   1   2 2750.29 463.990   6
   8   1   2 2721.55 487.500   5
   8   1   2 2032.44 489.628   3
   8   1   3 15115.7 1069.25   6
   8   1   3 15948.3 1127.89   5
   8   1   3 15161.6 1301.33   3
   8   1   4 8552.89 831.585   6
   8   1   4 7951.30 793.792   5
   8   1   4 7243.31 913.064   3
   8   1   5 4380.81 611.773   6
   8   1   5 4984.80 632.682   5
  -8  -1  -5 5902.86 590.359   2
   8   1   5 4718.01 752.352   3
  -8  -1  -6 2075.32 365.042   2
   8   1   6 1871.34 432.073   6
   8   1   6 1660.22 379.622   5
   8   1   6 1707.90 482.590   3
   8   1   7 15976.2 1226.71   6
   8   1   7 16784.6 1146.93   5
  -8  -1  -7 16507.2 1025.26   2
   8   1   7 14785.9 1292.56   3
   8   1   8 4117.15 636.716   6
  -8  -1  -8 5001.13 587.703   2
   8   1   8 4906.14 736.333   3
  -8  -1  -9 329.757 185.493   2
   8   1   9-138.151 263.481   6
   8   1   9 19.6168 164.862   3
   8   1  10 500.105 290.206   6
  -8  -1 -10 220.865 163.008   2
   8   1  11 1193.76 396.748   6
  -8  -1 -11 982.004 323.779   2
   8   1  12-12.0156 243.129   6
  -8  -1 -12 372.900 218.103   2
   8   1  13 1575.37 458.206   6
  -8  -1 -13 1548.37 433.824   2
   8   1  14 2281.40 563.890   6
  -8  -1 -14 2374.92 512.030   2
  -8  -1 -15 33.8084 217.884   2
   8   2 -16 2494.87 673.514   4
   8   2 -15 536.412 351.961   4
   8   2 -14 449.533 314.015   4
   8   2 -13 435.572 278.972   4
   8   2 -12 2481.96 441.173   5
   8   2 -12 1445.07 467.321   4
   8   2 -11 236.028 162.917   5
   8   2 -11 611.587 318.190   4
   8   2 -11 454.601 243.630   3
   8   2 -10-213.154 168.255   5
   8   2 -10 290.751 212.646   4
   8   2 -10 94.3102 138.882   3
   8   2  -9 7326.61 786.301   5
   8   2  -9 6338.96 854.238   4
   8   2  -9 6408.91 856.018   3
   8   2  -8 12033.9 1009.44   5
   8   2  -8 13820.8 1216.89   4
   8   2  -8 15386.5 1318.04   3
   8   2  -7 1165.51 336.923   5
   8   2  -7 837.351 315.186   4
   8   2  -7 436.480 286.835   3
   8   2  -6 615.019 272.109   5
   8   2  -6 700.568 290.262   4
   8   2  -6 422.933 276.730   3
   8   2  -5 6127.54 748.135   5
   8   2  -5 6307.12 746.581   4
   8   2  -5 7104.74 895.944   3
   8   2  -4 10032.2 965.527   5
   8   2  -4 9468.22 872.922   4
   8   2  -4 10159.1 1085.15   3
   8   2  -3 276.655 206.695   5
   8   2  -3 765.295 243.501   4
   8   2  -3 1006.84 376.906   3
   8   2  -2 305.036 237.368   5
   8   2  -2 169.534 135.889   4
   8   2  -2 187.769 248.028   3
   8   2  -1 8218.39 861.903   5
   8   2  -1 7528.87 663.011   4
   8   2  -1 8501.33 994.170   3
   8   2   0 847.475 313.026   5
   8   2   0 1150.28 248.427   4
   8   2   0 714.254 337.204   3
   8   2   1 11572.3 1021.15   5
   8   2   1 12483.3 1207.58   3
   8   2   2 2014.26 447.934   5
   8   2   2 1717.58 463.202   3
   8   2   3 1900.71 412.846   6
   8   2   3 2209.71 473.616   5
   8   2   3 1605.77 474.746   3
   8   2   4 6321.72 730.663   6
   8   2   4 7392.99 799.544   5
   8   2   4 6447.73 883.524   3
   8   2   5-181.881 183.098   6
   8   2   5-81.7425 147.652   5
   8   2   5-484.720 294.890   3
  -8  -2  -6 234.811 173.104   2
   8   2   6-376.288 233.495   6
   8   2   6-16.1171 146.428   5
   8   2   6 161.360 216.912   3
   8   2   7 5273.75 724.158   6
   8   2   7 4550.91 627.514   5
  -8  -2  -7 4758.71 595.261   2
   8   2   7 4952.21 773.832   3
  -8  -2  -8 923.930 264.500   2
   8   2   8 1597.62 434.330   6
   8   2   8 1033.49 294.012   5
  -8  -2  -9 80.7626 138.434   2
   8   2   9-204.355 207.666   6
   8   2   9-68.5652 127.517   5
  -8  -2 -10-185.345 179.048   2
   8   2  10 307.218 289.607   6
   8   2  11 714.298 339.097   6
  -8  -2 -11 635.213 251.258   2
   8   2  12 641.589 328.370   6
  -8  -2 -12 619.161 271.411   2
   8   2  13 3047.01 665.250   6
  -8  -2 -13 3189.50 570.525   2
   8   2  14-26.7860 76.1675   6
  -8  -2 -14 346.265 248.491   2
   8   3 -16 4111.05 826.392   4
   8   3 -15 15073.6 1549.19   4
   8   3 -14 1428.77 479.620   4
   8   3 -13 1214.22 454.916   4
   8   3 -12 5470.75 672.436   5
   8   3 -12 5690.51 895.078   4
   8   3 -11 3352.32 549.047   5
   8   3 -11 4301.59 770.656   4
   8   3 -11 2902.76 583.895   3
   8   3 -10 190.492 211.359   5
   8   3 -10 145.767 214.817   4
   8   3 -10 291.063 232.405   3
   8   3  -9 5492.21 708.953   5
   8   3  -9 6022.08 850.034   4
   8   3  -9 7503.93 940.329   3
   8   3  -8 21.7371 165.013   5
   8   3  -8 117.888 216.411   4
   8   3  -8-339.585 227.958   3
   8   3  -7-245.809 221.786   5
   8   3  -7 182.192 162.685   4
   8   3  -7 486.847 294.028   3
   8   3  -6 1688.90 426.901   5
   8   3  -6 2090.60 460.764   4
   8   3  -6 2630.02 579.333   3
   8   3  -5 12740.4 1121.59   5
   8   3  -5 12553.8 1055.90   4
   8   3  -5 12897.2 1241.08   3
   8   3  -4 498.525 263.588   5
   8   3  -4 357.041 193.506   4
   8   3  -4 451.265 313.290   3
   8   3  -3 701.521 327.198   5
   8   3  -3 766.496 247.555   4
   8   3  -3 946.020 383.744   3
   8   3  -2 161.146 210.532   5
   8   3  -2 270.319 150.223   4
   8   3  -2-11.5737 197.909   3
   8   3  -1 5313.89 748.809   5
   8   3  -1 4930.83 548.861   4
   8   3  -1 5028.87 804.320   3
   8   3   0 4582.88 711.392   5
   8   3   0 4301.16 745.892   3
   8   3   1 162.586 196.024   5
   8   3   1-112.270 255.386   3
   8   3   2 4372.84 669.371   5
   8   3   2 3970.88 724.851   3
   8   3   3 371.879 201.830   6
   8   3   3 142.373 219.280   5
   8   3   3 643.846 294.646   3
   8   3   4 11446.1 993.626   6
   8   3   4 12478.1 1094.78   5
   8   3   4 11812.1 1203.14   3
   8   3   5 8548.86 881.036   6
   8   3   5 9203.21 929.204   5
   8   3   5 8415.89 1017.39   3
  -8  -3  -6 1026.43 294.761   2
   8   3   6 1396.68 380.047   6
   8   3   6 988.240 303.902   5
   8   3   6 649.434 323.366   3
  -8  -3  -7-118.179 156.106   2
   8   3   7-74.1257 162.219   6
   8   3   7-528.789 255.351   5
   8   3   8 5847.10 788.723   6
   8   3   8 5686.91 701.976   5
  -8  -3  -8 6262.74 727.718   2
  -8  -3  -9-40.0952 107.166   2
   8   3   9 332.219 226.965   6
  -8  -3 -10-22.6030 56.9273   2
   8   3  10 180.467 226.395   6
  -8  -3 -11 1011.45 326.329   2
   8   3  11-138.546 187.421   6
   8   3  12 363.365 272.741   6
  -8  -3 -12 294.467 210.697   2
   8   3  13 2380.79 571.174   6
  -8  -3 -13 1528.38 400.857   2
   8   4 -15 590.769 403.638   4
   8   4 -14 649.410 342.077   4
   8   4 -13 910.141 385.159   4
   8   4 -12 15422.9 1158.88   5
   8   4 -12 13030.8 1354.85   4
   8   4 -11 5767.29 736.691   5
   8   4 -11 6652.01 927.584   4
   8   4 -11 5258.25 778.200   3
   8   4 -10 973.010 365.095   5
   8   4 -10 800.640 324.587   4
   8   4 -10 817.806 328.873   3
   8   4  -9 1969.39 474.810   5
   8   4  -9 2564.63 581.807   4
   8   4  -9 2052.11 506.367   3
   8   4  -8 1434.56 415.014   5
   8   4  -8 1624.48 462.630   4
   8   4  -8 1014.66 396.483   3
   8   4  -7 392.147 277.977   5
   8   4  -7 301.574 219.197   4
   8   4  -7-185.578 211.360   3
   8   4  -6-263.265 247.032   5
   8   4  -6-326.372 228.714   4
   8   4  -6-238.956 257.394   3
   8   4  -5 492.183 300.067   5
   8   4  -5 584.173 236.182   4
   8   4  -5 908.014 366.953   3
   8   4  -4 484.890 257.026   5
   8   4  -4 387.650 199.835   4
   8   4  -4 330.223 255.530   3
   8   4  -3 7466.48 924.894   5
   8   4  -3 7529.25 766.314   4
   8   4  -3 8833.60 1052.68   3
   8   4  -2 7249.64 911.731   5
   8   4  -2 7880.73 751.852   4
   8   4  -2 6413.40 893.099   3
   8   4  -1 1221.53 407.224   5
   8   4  -1 1040.07 394.146   3
   8   4   0 6291.69 859.498   5
   8   4   0 7446.63 980.014   3
   8   4   1 2026.65 484.486   5
   8   4   1 2561.11 583.868   3
   8   4   2 15483.9 1310.18   5
   8   4   2 16977.0 1467.71   3
   8   4   3 682.113 331.978   5
   8   4   3 587.534 380.529   3
   8   4   4 301.456 199.907   6
   8   4   4-157.854 276.268   5
   8   4   4-48.2671 251.316   3
   8   4   5 4689.95 662.527   6
   8   4   5 5280.25 753.756   5
   8   4   6 4555.32 671.828   6
   8   4   6 4430.51 690.442   5
  -8  -4  -7 67.6365 227.610   2
   8   4   7 399.635 237.416   6
   8   4   7 104.944 189.699   5
  -8  -4  -8 2829.60 524.989   2
   8   4   8 2983.93 589.132   6
   8   4   8 3291.85 569.256   5
  -8  -4  -9 1289.93 332.380   2
   8   4   9 2878.54 579.208   6
  -8  -4 -10 62.0720 174.360   2
   8   4  10 461.273 286.749   6
  -8  -4 -11-201.570 195.822   2
   8   4  11 743.977 320.466   6
   8   4  12 88.0622 178.453   6
  -8  -4 -12-123.985 178.777   2
   8   5 -14 78.3818 120.064   4
   8   5 -13 11162.8 1274.26   4
   8   5 -12 5990.12 755.546   5
   8   5 -12 6276.15 945.576   4
   8   5 -11 8101.55 915.542   5
   8   5 -11 8228.86 1074.02   4
   8   5 -10 5995.66 818.994   5
   8   5 -10 6766.37 934.008   4
   8   5  -9 1423.79 438.280   5
   8   5  -9 2726.61 580.149   4
   8   5  -8 490.145 268.858   5
   8   5  -8 209.927 196.873   4
   8   5  -8 331.764 259.538   3
   8   5  -7 3715.18 665.620   5
   8   5  -7 3367.62 621.292   4
   8   5  -7 3251.37 644.359   3
  -8  -5   6 1524.01 383.478   1
   8   5  -6 2069.99 547.873   5
   8   5  -6 2226.20 501.636   4
   8   5  -6 2157.13 543.672   3
   8   5  -5 3447.55 645.738   5
   8   5  -5 2833.78 522.290   4
   8   5  -5 3810.53 709.470   3
   8   5  -4 4526.17 758.244   5
   8   5  -4 4885.99 667.523   4
   8   5  -4 5297.98 831.879   3
   8   5  -3 50251.3 2450.29   5
   8   5  -3 42785.8 1871.75   4
   8   5  -3 48948.9 2526.02   3
   8   5  -2 1743.82 501.215   5
   8   5  -2 2308.34 589.369   3
   8   5  -1 857.412 387.954   5
   8   5  -1 797.399 327.832   3
   8   5   0 8696.68 1039.22   5
   8   5   0 7862.35 1045.75   3
   8   5   1 197.205 236.751   5
   8   5   2 5810.14 860.339   5
   8   5   3 2050.56 527.339   5
   8   5   4 6402.27 760.382   6
   8   5   4 6376.71 876.995   5
   8   5   5 407.268 219.290   6
   8   5   5 143.698 201.314   5
   8   5   6 2459.93 507.120   6
   8   5   6 2979.81 611.339   5
  -8  -5  -7 3715.84 611.252   2
   8   5   7 3090.64 575.431   6
   8   5   7 3404.65 626.058   5
  -8  -5  -8 789.130 318.645   2
   8   5   8 613.951 328.502   6
   8   5   8 80.7470 178.401   5
  -8  -5  -9 728.118 325.954   2
   8   5   9 948.425 344.611   6
  -8  -5 -10 184.108 188.639   2
   8   5  10-283.222 236.021   6
  -8  -5 -11 92.8053 249.087   2
   8   5  11 430.212 164.697   6
   8   6 -13 2297.83 596.786   4
   8   6 -12 38.2142 160.144   4
   8   6 -11 3490.05 637.903   5
   8   6 -11 3687.61 728.697   4
   8   6 -10 13720.7 1266.57   5
   8   6 -10 15440.4 1405.05   4
   8   6  -9 8365.47 1020.68   5
   8   6  -9 8535.10 1016.76   4
  -8  -6   9 9376.37 1130.83   1
   8   6  -8 11476.1 1194.39   5
   8   6  -8 12672.5 1208.03   4
  -8  -6   8 12091.6 1228.84   1
  -8  -6   7 5369.59 802.945   1
   8   6  -7 5055.74 797.875   5
   8   6  -7 3309.75 615.372   4
   8   6  -6 2329.82 540.957   5
   8   6  -6 1940.33 444.956   4
   8   6  -5 108.014 217.212   5
   8   6  -5 273.975 186.302   4
   8   6  -4 3262.24 665.798   5
   8   6  -3-278.635 242.666   5
   8   6  -2-83.2487 212.850   5
   8   6  -1 331.937 289.667   5
   8   6   0 4480.10 810.509   5
   8   6   1-212.177 251.123   5
   8   6   2 18144.9 1561.37   5
   8   6   3 19150.7 1597.62   5
   8   6   4 1297.92 451.964   5
   8   6   5-124.190 235.451   5
   8   6   6 461.391 222.075   6
   8   6   6 162.596 203.298   5
  -8  -6  -7 2397.49 556.229   2
   8   6   7 2066.17 464.660   6
   8   6   7 1998.78 505.628   5
  -8  -6  -8 1855.23 476.528   2
   8   6   8 936.741 339.704   6
  -8  -6  -9 538.050 265.537   2
   8   6   9 137.694 157.262   6
  -8  -6 -10 4004.42 670.730   2
   8   6  10 3710.29 678.669   6
   8   7 -12 928.127 374.281   4
  -8  -7  12 846.831 399.443   1
   8   7 -11-303.868 212.993   5
   8   7 -11 789.341 337.815   4
  -8  -7  11 789.421 418.241   1
   8   7 -10 408.336 278.873   5
  -8  -7  10 681.917 337.666   1
   8   7 -10 480.307 277.988   4
   8   7  -9 2696.52 595.490   5
   8   7  -9 3345.49 644.237   4
  -8  -7   9 3353.53 685.858   1
   8   7  -8 2588.35 598.831   5
  -8  -7   8 2741.85 598.049   1
   8   7  -8 2475.93 543.302   4
   8   7  -7 3360.18 673.896   5
   8   7  -7 4096.40 674.194   4
   8   7  -6-56.6969 214.211   5
   8   7  -5 2966.02 648.524   5
   8   7  -4 3884.85 758.016   5
   8   7  -3 1616.05 494.600   5
   8   7  -2 6347.19 959.818   5
   8   7  -1 3781.80 742.293   5
   8   7   0 1579.12 531.019   5
   8   7   1 1036.98 421.215   5
   8   7   2 185.676 256.691   5
   8   7   3 655.634 356.807   5
   8   7   4 211.348 254.447   5
   8   7   5 2588.67 620.506   5
   8   7   6 3371.10 693.206   5
  -8  -7  -7 1288.29 421.120   2
   8   7   7 1057.23 334.638   6
   8   7   7 276.216 240.848   5
  -8  -7  -8 1898.34 491.710   2
   8   7   8 1009.04 346.307   6
   8   7   9 4115.89 684.177   6
   8   8 -11 1255.59 414.662   5
  -8  -8  11 2071.11 630.815   1
  -8  -8  10 428.095 332.554   1
   8   8 -10 447.397 270.461   5
   8   8 -10 577.229 318.430   4
   8   8  -9 979.680 379.729   5
   8   8  -8 2322.46 567.317   5
   8   8  -7 9187.69 1164.99   5
   8   8  -6 8024.04 1092.90   5
   8   8  -5 384.113 268.836   5
   8   8  -4-111.346 217.660   5
   8   8  -3 1257.51 463.268   5
   8   8  -2-184.155 234.759   5
   8   8  -1 86.5147 302.245   5
   8   8   0 4140.51 851.521   5
   8   8   1 1031.61 446.765   5
   8   8   2 2075.87 603.906   5
   8   8   3-209.456 248.364   5
   8   8   4 11547.6 1343.28   5
   8   8   5 3460.33 773.777   5
   8   8   6 54.1828 205.939   5
   8   9  -8-81.3009 162.010   5
   8   9  -7 2308.33 615.013   5
   8   9  -6 133.006 255.656   5
   8   9  -5 4610.54 856.754   5
   8   9  -4-53.9409 232.022   5
   8   9  -3 1648.31 550.800   5
   8   9  -2 2283.68 650.499   5
   8   9  -1-159.712 266.948   5
   8   9   0-49.0298 240.263   5
   8   9   1-352.168 294.317   5
   8   9   2 714.864 380.195   5
   8   9   3 1354.43 489.279   5
   8   9   4-825.814 410.468   5
  -9  14   1 842.933 387.996   7
  -9  14   0 2235.40 612.212   7
  -9  14  -1 18900.2 1822.03   7
   9 -13  -6-17.0171 173.464   1
   9 -13  -5 422.902 228.677   1
   9 -13  -5-273.641 404.611   3
   9 -13  -4-411.788 266.722   1
   9 -13  -4 450.082 381.541   3
  -9  13   4 326.307 293.413   7
  -9  13   3 710.958 393.603   7
   9 -13  -3 808.873 372.683   1
   9 -13  -3 1078.77 447.832   3
   9 -13  -2 104.288 187.633   1
   9 -13  -2 2.58907 117.851   3
  -9  13   1-24.0537 243.246   7
   9 -13  -1 144.050 275.998   3
  -9  13   0 2216.57 607.863   7
   9 -13   0 1259.99 489.171   3
  -9  13  -1 4670.48 917.100   7
   9 -13   1 4235.52 887.580   3
  -9  13  -2 373.461 356.238   7
   9 -13   2 112.181 274.556   3
  -9  13  -3 1279.80 490.456   7
   9 -13   3 1024.91 401.085   3
  -9  13  -4 6263.63 1091.59   7
   9 -13   4 5382.75 981.733   3
  -9  13  -5 341.919 304.686   7
  -9  13  -6 2987.67 814.547   7
   9 -12  -8-687.835 415.406   3
   9 -12  -8 702.746 375.312   1
   9 -12  -7 4038.32 873.832   3
   9 -12  -7 2055.21 558.705   1
   9 -12  -6 4143.42 880.352   3
  -9  12   6 4113.02 744.259   7
   9 -12  -6 3268.94 720.852   1
   9 -12  -5 609.815 351.530   1
   9 -12  -5 472.305 380.305   3
  -9  12   5 183.625 209.676   7
   9 -12  -4 1842.65 494.049   1
   9 -12  -4 2080.20 662.247   3
  -9  12   4 2207.37 558.682   7
   9 -12  -3 339.572 249.254   1
   9 -12  -3 121.504 236.829   3
  -9  12   3 241.431 264.432   7
   9 -12  -2-838.479 336.569   1
   9 -12  -2-287.810 234.078   3
  -9  12   2-197.824 251.272   7
   9 -12  -1 5706.12 1025.62   3
  -9  12   1 5145.98 899.642   7
   9 -12   0-363.536 325.308   3
  -9  12   0 29.1412 248.178   7
  -9  12  -1-223.149 333.618   7
   9 -12   1-146.276 256.553   3
  -9  12  -2 1483.00 608.605   7
   9 -12   2 2371.46 650.444   3
   9 -12   3 25848.9 2078.88   3
  -9  12  -3 28220.8 2182.51   7
   9 -12   4 9605.14 1261.63   3
  -9  12  -4 9883.16 1327.57   7
  -9  12  -5 402.603 349.883   7
   9 -12   5-108.281 209.199   3
  -9  12  -6 2764.17 752.717   7
  -9  12  -7 1876.08 652.931   7
  -9  12  -8-814.509 432.160   7
   9 -11 -10 1102.23 440.673   3
   9 -11 -10-47.3140 201.170   1
   9 -11  -9 1043.56 454.624   3
   9 -11  -9 1788.65 539.560   1
   9 -11  -8-474.064 363.867   3
   9 -11  -8 176.671 182.647   1
   9 -11  -7-304.936 300.889   3
   9 -11  -7 98.9723 210.500   1
   9 -11  -6 5791.69 1002.72   3
   9 -11  -6 4902.34 831.210   1
   9 -11  -5 735.515 321.552   1
   9 -11  -5 7.18420 193.805   3
   9 -11  -4 467.890 285.406   1
   9 -11  -4-343.692 280.092   3
   9 -11  -3 415.611 272.628   1
   9 -11  -3 126.592 282.559   3
   9 -11  -2 477.510 239.429   1
   9 -11  -2-58.0975 230.001   3
  -9  11   2 145.241 239.693   7
   9 -11  -1 12613.2 1451.17   3
  -9  11   1 12286.3 1321.68   7
   9 -11   0-243.141 253.421   3
  -9  11   0 220.301 280.496   7
   9 -11   1-325.462 298.073   3
  -9  11  -1-21.6918 240.599   7
   9 -11   2 675.233 394.982   3
  -9  11  -2 560.505 384.496   7
  -9  11  -3 1196.81 479.298   7
   9 -11   3 515.218 362.946   3
  -9  11  -4 255.517 308.201   7
   9 -11   4-105.339 192.692   3
  -9  11  -5 1353.64 501.448   7
   9 -11   5 120.859 177.559   3
   9 -11   6 16048.3 1508.25   3
  -9  11  -6 18852.1 1800.77   7
  -9  11  -7 3493.65 818.933   7
  -9  11  -8 559.613 368.360   7
  -9  11  -9 852.289 416.209   7
  -9  11 -10 308.374 312.126   7
   9 -10 -12 565.084 314.481   3
   9 -10 -11 215.169 142.839   3
   9 -10 -11-41.1942 251.714   4
   9 -10 -11 408.080 285.352   1
   9 -10 -10 726.534 348.954   3
   9 -10 -10 208.599 292.177   4
   9 -10  -9 1183.86 550.434   3
   9 -10  -9 1404.43 467.905   1
   9 -10  -8 1440.70 510.184   3
   9 -10  -8 425.029 297.460   1
   9 -10  -7 948.529 424.602   3
   9 -10  -7 844.645 381.846   1
   9 -10  -6 439.846 250.105   3
   9 -10  -6-375.429 256.825   1
   9 -10  -5-397.777 355.597   3
   9 -10  -5 312.013 231.910   1
   9 -10  -4 341.215 250.955   1
   9 -10  -4 228.565 252.589   3
   9 -10  -3-177.371 188.238   1
   9 -10  -3 152.340 265.614   3
   9 -10  -2 957.434 341.276   1
   9 -10  -2 1417.91 521.935   3
   9 -10  -1 300.856 303.368   3
   9 -10   0 2072.26 572.157   3
   9 -10   1-147.885 212.952   3
  -9  10  -1 142.638 218.489   7
   9 -10   2 1420.48 499.581   3
  -9  10  -2 1687.68 532.785   7
   9 -10   3-112.692 252.872   3
  -9  10  -3 177.114 245.692   7
  -9  10  -4 352.735 305.208   7
   9 -10   4 1036.93 435.489   3
  -9  10  -5 5402.74 939.266   7
   9 -10   5 4880.11 816.802   3
  -9  10  -6 4976.71 909.099   7
   9 -10   6 2455.33 607.052   3
  -9  10  -7 540.468 359.620   7
  -9  10  -8 346.307 315.778   7
  -9  10  -9 1126.40 481.041   7
  -9  10 -10 190.262 245.939   7
  -9  10 -11-452.560 402.577   7
   9  -9 -12 652.154 332.362   3
   9  -9 -12 398.434 267.677   4
   9  -9 -11 200.935 213.491   3
   9  -9 -11 165.069 243.376   1
   9  -9 -11-261.439 301.401   4
   9  -9 -10 157.041 186.818   4
   9  -9 -10 709.127 416.821   1
   9  -9  -9 668.700 286.498   3
   9  -9  -9 228.684 274.639   4
   9  -9  -8 534.452 359.914   3
   9  -9  -8 159.563 228.860   1
   9  -9  -7 2669.50 670.079   3
   9  -9  -7 1629.58 489.413   1
   9  -9  -6 5990.51 999.079   3
   9  -9  -6 4903.31 790.823   1
   9  -9  -5-156.362 253.063   3
   9  -9  -5 380.983 245.545   1
   9  -9  -4 391.429 287.927   3
   9  -9  -4-198.611 189.167   1
   9  -9  -3 7396.30 879.505   1
   9  -9  -3 7938.29 1107.20   3
   9  -9  -2 1121.62 337.335   1
   9  -9  -2 980.346 470.974   3
   9  -9  -1 2341.40 599.401   3
   9  -9   0 2927.05 668.942   3
   9  -9   1 24176.6 1834.92   3
   9  -9   2 939.799 405.361   3
  -9   9  -2 1352.26 439.779   7
   9  -9   3-7.53390 141.608   3
  -9   9  -3 3.51935 263.942   7
   9  -9   4 13355.5 1354.22   3
  -9   9  -4 11951.9 1276.41   7
   9  -9   5 3243.94 676.275   3
  -9   9  -5 3980.89 779.558   7
  -9   9  -6 4874.04 877.806   7
   9  -9   6 2785.95 602.499   3
  -9   9  -7-579.379 341.725   7
   9  -9   7-114.174 130.180   3
  -9   9  -8 1961.06 586.921   7
  -9   9  -9 11423.8 1398.89   7
  -9   9 -10 401.027 328.212   7
  -9   9 -11 5913.51 1042.41   7
  -9   9 -12 2120.00 632.438   7
   9  -8 -13 213.538 267.197   3
   9  -8 -13 672.399 358.991   4
   9  -8 -12-149.899 155.218   3
   9  -8 -12 772.528 382.959   4
   9  -8 -11 3236.77 719.906   3
   9  -8 -11 2956.84 725.033   4
   9  -8 -10-460.904 311.290   3
   9  -8 -10-326.385 277.256   1
   9  -8 -10-168.382 203.001   4
   9  -8  -9 653.984 343.456   3
   9  -8  -9 558.620 335.144   4
   9  -8  -9 405.626 300.527   1
   9  -8  -8-80.7668 219.094   3
   9  -8  -8-396.791 293.419   4
   9  -8  -8-136.362 209.589   1
   9  -8  -7 2489.15 628.441   3
   9  -8  -7 1505.82 491.526   4
   9  -8  -7 1719.24 466.663   1
   9  -8  -6 2121.07 591.220   3
   9  -8  -6 2045.80 509.813   1
   9  -8  -5 701.103 394.249   3
   9  -8  -5 1067.46 341.876   1
   9  -8  -4 2721.07 653.744   3
   9  -8  -4 3851.69 629.848   1
   9  -8  -3 1439.52 481.771   3
   9  -8  -3 1616.73 401.261   1
   9  -8  -2 1354.12 438.058   3
   9  -8  -2 1128.17 342.724   1
   9  -8  -1 1049.85 394.861   3
   9  -8   0 2493.05 588.123   3
   9  -8   1 1238.45 448.954   3
   9  -8   2-89.6670 212.092   3
   9  -8   3 1974.56 496.829   3
  -9   8  -3 2077.77 526.075   7
   9  -8   4 1893.28 510.947   3
  -9   8  -4 2105.68 545.590   7
   9  -8   5-1038.61 382.729   3
  -9   8  -5 184.924 237.835   7
  -9   8  -6 956.031 459.097   7
   9  -8   6 488.155 330.906   3
  -9   8  -7 4241.64 794.555   7
   9  -8   7 3131.63 613.860   3
  -9   8  -8 1567.03 515.061   7
  -9   8  -9 1032.35 449.757   7
  -9   8 -10 651.677 417.221   7
  -9   8 -11 81.3494 217.198   7
  -9   8 -12 708.103 373.312   7
  -9   8 -13 6459.57 1098.14   7
   9  -7 -14 322.574 323.507   4
   9  -7 -13-288.190 268.628   3
   9  -7 -13-158.880 248.500   4
   9  -7 -12-996.280 393.258   3
   9  -7 -12-142.234 246.727   4
   9  -7 -11 2696.17 639.747   3
   9  -7 -11 5367.51 966.557   4
   9  -7 -10 88.6637 125.712   3
   9  -7 -10-61.7041 266.970   4
   9  -7  -9 825.423 389.955   3
   9  -7  -9 1294.27 450.972   4
   9  -7  -8 2461.90 614.580   3
   9  -7  -8 2814.55 681.537   4
   9  -7  -8 2506.46 586.768   1
   9  -7  -7 381.059 351.544   3
   9  -7  -7 329.003 297.400   4
   9  -7  -7 656.439 318.707   1
   9  -7  -6 3696.97 732.839   3
   9  -7  -6 3256.84 686.857   4
   9  -7  -6 2490.79 545.904   1
   9  -7  -5 12708.2 1131.00   1
   9  -7  -5 10762.2 1153.66   4
   9  -7  -4 22083.6 1436.16   1
   9  -7  -4 22638.5 1620.19   4
   9  -7  -4 23504.2 1784.83   3
   9  -7  -3 276.378 308.143   3
   9  -7  -3 43.3184 116.306   4
   9  -7  -3 216.691 158.251   1
   9  -7  -2 1144.04 422.238   3
   9  -7  -2 1271.92 371.315   4
   9  -7  -1 1343.07 438.063   3
   9  -7  -1 762.755 279.318   4
   9  -7   0 285.200 300.780   3
   9  -7   1 1396.74 454.128   3
   9  -7   2 10255.8 1141.08   3
   9  -7   3 8949.18 1050.80   3
   9  -7   4 2527.67 573.625   3
  -9   7  -4 2798.17 579.446   7
   9  -7   5 5111.16 793.096   3
  -9   7  -5 5907.60 846.309   7
   9  -7   6 6603.34 892.088   3
  -9   7  -6 7340.70 967.501   7
  -9   7  -7 4010.18 760.866   7
   9  -7   7 3043.40 605.845   3
   9  -7   7 3708.77 561.513   6
  -9   7  -8-99.9386 209.330   7
   9  -7   8-13.9501 111.144   6
   9  -7   9 10667.9 976.479   6
  -9   7  -9 8797.42 1157.34   7
  -9   7 -10 3212.40 720.159   7
   9  -7  10 4197.35 635.080   6
  -9   7 -11 3635.32 783.826   7
   9  -7  11 3015.15 561.841   6
  -9   7 -12 1993.09 608.645   7
   9  -7  12 3142.94 566.639   6
  -9   7 -13 498.074 295.879   7
  -9   7 -14 4770.21 998.868   7
   9  -6 -15 1113.02 471.455   4
   9  -6 -14 1063.71 443.973   4
   9  -6 -13-94.3990 185.106   3
   9  -6 -13 313.390 253.056   4
   9  -6 -12 3640.31 722.536   3
   9  -6 -12 4638.80 879.024   4
   9  -6 -11 4016.99 766.509   3
   9  -6 -11 3992.25 784.732   4
   9  -6 -10 4599.25 828.346   3
   9  -6 -10 4190.55 796.884   4
   9  -6  -9 223.572 273.978   3
   9  -6  -9 548.883 350.234   4
   9  -6  -8 620.611 372.271   3
   9  -6  -8 1551.10 465.115   4
   9  -6  -7 236.519 256.736   3
   9  -6  -7 668.264 331.829   4
   9  -6  -6 278.238 288.769   3
   9  -6  -6-128.878 163.823   1
   9  -6  -6 280.151 225.798   4
   9  -6  -5 2903.07 634.475   3
   9  -6  -5 2447.24 551.985   4
   9  -6  -5 2632.06 508.140   1
   9  -6  -4 7651.37 801.928   1
   9  -6  -4 7594.98 915.551   4
   9  -6  -4 7394.97 993.001   3
   9  -6  -3-266.815 256.388   3
   9  -6  -3-175.854 183.545   4
   9  -6  -3 205.988 167.373   1
   9  -6  -2 23.9809 199.636   3
   9  -6  -2 430.260 202.099   4
   9  -6  -1-208.842 227.106   3
   9  -6  -1 406.252 193.844   4
   9  -6   0 7516.86 940.282   3
   9  -6   1 1346.93 450.595   3
   9  -6   2 5025.99 793.378   3
   9  -6   3 642.634 307.699   3
   9  -6   4-255.034 227.935   3
   9  -6   5 1751.17 484.205   3
  -9   6  -5 2683.93 527.055   7
   9  -6   6 4914.19 765.777   3
   9  -6   6 7471.76 777.764   6
  -9   6  -6 7045.40 907.681   7
  -9   6  -7 5968.37 867.070   7
   9  -6   7 5024.15 769.638   3
   9  -6   7 7042.12 781.353   6
  -9   6  -8 394.971 310.953   7
   9  -6   8 131.586 142.834   6
   9  -6   9 11419.6 1031.09   6
  -9   6  -9 9957.05 1185.20   7
  -9   6 -10 823.452 377.388   7
   9  -6  10 482.621 263.035   6
  -9   6 -11 3719.14 784.052   7
   9  -6  11 5449.78 740.503   6
  -9   6 -12 478.800 359.883   7
   9  -6  12 700.226 278.164   6
  -9   6 -13 4323.10 837.247   7
   9  -6  13 3482.91 621.424   6
   9  -6  14 1311.69 384.142   6
   9  -5 -15 138.275 189.349   4
   9  -5 -14-349.820 273.955   4
   9  -5 -13 1513.36 436.069   3
   9  -5 -13 1286.43 488.467   4
   9  -5 -12 207.513 223.697   3
   9  -5 -12-43.7694 196.704   4
   9  -5 -11 48.1011 189.706   3
   9  -5 -11-166.872 245.343   4
   9  -5 -10 992.418 392.412   3
   9  -5 -10 671.687 343.627   4
   9  -5  -9 10146.4 1184.08   4
   9  -5  -9 9384.22 1131.73   3
   9  -5  -8 1396.72 481.902   3
   9  -5  -8 1743.13 487.951   4
   9  -5  -7 120.388 202.536   3
   9  -5  -7 1327.72 442.962   4
   9  -5  -6 3221.38 669.234   3
   9  -5  -6 3225.21 598.777   4
   9  -5  -5 2563.71 598.909   3
   9  -5  -5 1624.17 419.518   4
   9  -5  -4 32.2869 185.583   3
   9  -5  -4 64.4229 179.668   4
   9  -5  -3 1461.98 442.475   3
   9  -5  -3 832.384 304.661   4
   9  -5  -2 7870.86 789.894   4
   9  -5  -2 7843.68 978.994   3
   9  -5  -1 2327.92 577.529   3
   9  -5  -1 2611.66 430.086   4
   9  -5   0 301.962 254.939   3
   9  -5   1 5354.83 800.440   3
   9  -5   2 304.067 239.199   3
   9  -5   3 92.8495 170.966   3
   9  -5   4 11.0154 200.880   3
   9  -5   5 486.169 269.884   3
   9  -5   5 1167.64 341.653   6
   9  -5   6 24.9755 147.911   3
   9  -5   6-11.2842 134.059   6
  -9   5  -6 130.269 203.530   7
   9  -5   7 8520.62 862.773   6
   9  -5   7 6649.82 876.561   3
  -9   5  -7 8819.25 1027.21   7
   9  -5   8 21068.6 1373.74   6
   9  -5   8 17235.2 1386.79   3
  -9   5  -8 19223.7 1541.86   7
  -9   5  -9 5672.12 866.893   7
   9  -5   9 6634.40 803.839   6
  -9   5 -10 1116.50 426.901   7
   9  -5  10 500.308 262.559   6
  -9   5 -11 4102.81 791.904   7
   9  -5  11 4367.91 692.536   6
  -9   5 -12-429.501 272.551   7
   9  -5  12 189.873 225.397   6
   9  -5  13 738.505 329.416   6
   9  -5  14-224.066 205.114   6
   9  -4 -15 301.562 264.978   4
   9  -4 -14 3683.71 832.736   4
   9  -4 -13 19.9239 124.311   4
   9  -4 -12 1344.09 427.207   3
   9  -4 -12 1501.91 502.345   4
   9  -4 -11 85.4973 169.964   3
   9  -4 -11 728.128 353.825   4
   9  -4 -10 3655.29 696.292   3
   9  -4 -10 3534.26 723.769   4
   9  -4  -9 1919.61 511.745   3
   9  -4  -9 2400.29 580.912   4
   9  -4  -8 871.103 402.471   3
   9  -4  -8 451.503 313.729   4
   9  -4  -7 1241.92 434.119   3
   9  -4  -7 638.907 291.638   4
   9  -4  -6 223.152 212.436   3
   9  -4  -6 278.764 216.029   4
   9  -4  -5 125.686 191.302   3
   9  -4  -5 60.0396 145.016   4
   9  -4  -4 741.888 366.371   3
   9  -4  -4 859.695 292.569   4
   9  -4  -3 1850.88 545.806   3
   9  -4  -3 1500.99 363.828   4
   9  -4  -2 12146.4 942.136   4
   9  -4  -2 10475.4 1110.98   3
   9  -4  -1 2812.01 593.819   3
   9  -4  -1 3336.90 463.944   4
   9  -4   0 9547.25 1051.20   3
   9  -4   1 558.779 295.826   3
   9  -4   2 7981.95 966.465   3
   9  -4   3 280.318 234.092   3
   9  -4   4 252.472 234.595   3
   9  -4   4 497.546 234.412   6
   9  -4   5 1483.31 421.446   3
   9  -4   5 1439.73 369.418   6
   9  -4   6 228.350 188.508   6
   9  -4   6 87.9325 131.768   3
  -9   4  -6 390.433 251.580   7
   9  -4   7 117.280 224.751   6
   9  -4   7 49.9695 176.981   3
  -9   4  -7 301.710 246.053   7
   9  -4   8 23086.0 1451.94   6
   9  -4   8 22487.4 1585.65   3
  -9   4  -8 22139.0 1603.02   7
  -9   4  -9 4387.66 758.841   7
   9  -4   9 4202.17 659.600   6
  -9   4 -10 643.811 309.210   7
   9  -4  10 133.670 163.367   6
  -9   4 -11 31.8878 144.549   7
   9  -4  11-25.0071 190.844   6
   9  -4  12 5976.46 825.537   6
   9  -4  13 1112.47 365.493   6
   9  -4  14 672.537 351.771   6
   9  -3 -16 264.567 235.724   4
   9  -3 -15 1976.65 601.616   4
   9  -3 -14 35.9930 158.363   4
   9  -3 -13 2287.80 596.192   4
   9  -3 -12 168.639 175.386   3
   9  -3 -12-108.906 189.676   4
   9  -3 -11 251.321 228.929   3
   9  -3 -11 477.425 292.696   4
   9  -3 -10 2288.69 554.895   3
   9  -3 -10 1440.37 453.823   4
   9  -3  -9 1788.04 501.194   3
   9  -3  -9 1444.44 473.903   4
   9  -3  -8 3134.64 640.490   3
   9  -3  -8 4296.13 715.155   4
   9  -3  -7 14913.2 1271.16   4
   9  -3  -7 16735.6 1438.68   3
   9  -3  -6 5710.14 858.922   3
   9  -3  -6 5510.17 752.580   4
   9  -3  -5-135.591 237.304   3
   9  -3  -5 180.795 194.634   4
   9  -3  -4-101.211 196.705   3
   9  -3  -4 379.473 227.841   4
   9  -3  -3 1105.39 410.867   3
   9  -3  -3 709.173 257.975   4
   9  -3  -2 134.260 219.164   3
   9  -3  -2-50.8096 96.0331   4
   9  -3  -1 15015.6 1324.75   3
   9  -3   0 376.018 247.710   3
   9  -3   1-81.7495 175.832   3
   9  -3   2-195.239 245.865   3
   9  -3   3 23647.9 1642.62   3
   9  -3   4 156.583 165.764   6
   9  -3   4-253.997 232.976   3
   9  -3   5-189.086 169.716   6
   9  -3   5-35.0439 177.366   3
   9  -3   6 9031.18 893.436   6
   9  -3   6 8709.33 1025.96   3
  -9   3  -6 8179.41 890.502   7
   9  -3   7 7692.40 835.607   6
   9  -3   7 7443.00 929.143   3
  -9   3  -7 9010.90 963.972   7
  -9   3  -8 1160.75 379.368   7
   9  -3   8 1317.46 350.230   6
   9  -3   8 978.685 363.850   3
  -9   3  -9 335.954 246.915   7
   9  -3   9 99.4919 191.931   6
  -9   3 -10 119.465 178.386   7
   9  -3  10 53.3510 184.129   6
   9  -3  11 3991.08 668.741   6
   9  -3  12 1358.82 422.451   6
   9  -3  13-640.196 329.556   6
   9  -3  14-399.236 282.651   6
   9  -2 -16 537.801 319.931   4
   9  -2 -15 1833.83 555.350   4
   9  -2 -14-249.507 203.950   4
   9  -2 -13 1795.43 559.166   4
   9  -2 -12 4053.12 781.414   4
   9  -2 -12 4956.19 805.833   3
   9  -2 -11 142.761 227.872   4
   9  -2 -11-138.334 238.674   3
   9  -2 -10 1117.09 440.469   3
   9  -2 -10 1338.97 447.629   4
   9  -2  -9 603.965 320.813   3
   9  -2  -9 153.225 247.096   4
   9  -2  -8 57.4218 223.184   3
   9  -2  -8 150.704 158.231   4
   9  -2  -7 4952.65 797.760   3
   9  -2  -7 4275.25 688.268   4
   9  -2  -6 297.341 216.798   3
   9  -2  -6 49.6435 176.834   4
   9  -2  -5 2551.40 569.176   3
   9  -2  -5 2146.63 462.346   4
   9  -2  -4 692.726 335.318   3
   9  -2  -4 313.180 201.900   4
   9  -2  -3 885.583 377.679   3
   9  -2  -3 1321.62 332.738   4
   9  -2  -2 14261.5 972.011   4
   9  -2  -2 14142.2 1291.01   3
   9  -2  -1 2447.20 573.262   3
   9  -2   0 265.199 264.079   3
   9  -2   1 3509.09 653.869   3
   9  -2   2 5082.62 783.448   3
   9  -2   3 5588.86 812.730   3
   9  -2   4 7070.99 774.163   6
   9  -2   4 5933.45 857.992   3
   9  -2   5 1128.67 339.861   6
   9  -2   5 828.425 409.108   3
   9  -2   6 57.7740 188.549   6
  -9   2  -6-381.272 229.216   7
   9  -2   6-120.185 219.832   3
   9  -2   7 467.550 313.272   6
   9  -2   7 37.6105 184.253   3
  -9   2  -7 523.735 258.488   7
  -9   2  -8 2351.00 495.764   7
   9  -2   8 2872.51 544.978   6
   9  -2   8 2160.37 508.342   3
  -9   2  -9 174.861 207.428   7
   9  -2   9 43.7763 179.939   6
   9  -2  10 8760.20 974.519   6
   9  -2  11-468.900 282.482   6
   9  -2  12-189.546 215.202   6
   9  -2  13 4817.78 795.221   6
   9  -2  14 231.708 247.708   6
   9  -1 -16 397.229 289.777   4
   9  -1 -15 2504.64 657.514   4
   9  -1 -14 569.496 330.170   4
   9  -1 -13 1776.10 557.004   4
   9  -1 -12-327.962 279.395   4
   9  -1 -12 117.227 146.966   3
   9  -1 -11 4753.91 803.781   4
   9  -1 -11 5020.24 797.986   3
   9  -1 -10 88.4269 216.389   4
   9  -1 -10 706.187 311.502   3
   9  -1  -9 7305.21 944.368   4
   9  -1  -9 8329.55 1014.54   3
   9  -1  -8 5805.45 806.273   4
   9  -1  -8 7696.11 972.662   3
   9  -1  -7 2210.56 497.608   4
   9  -1  -7 2577.27 584.405   3
   9  -1  -6 1573.46 395.578   4
   9  -1  -6 2491.48 559.881   3
   9  -1  -5 67.4576 189.427   4
   9  -1  -5-288.907 260.877   3
   9  -1  -4 253.724 180.370   4
   9  -1  -4 792.356 369.118   3
   9  -1  -3 4524.82 633.701   5
   9  -1  -3 4298.85 571.915   4
   9  -1  -3 4438.53 753.902   3
   9  -1  -2 230.850 195.545   5
   9  -1  -2-28.3598 93.8643   4
   9  -1  -2 142.527 221.186   3
   9  -1  -1 1669.71 390.369   5
   9  -1  -1 1645.44 463.711   3
   9  -1   0 4521.75 623.557   5
   9  -1   0 3501.63 691.168   3
   9  -1   1 18899.8 1495.47   3
   9  -1   2 3488.58 676.674   3
   9  -1   3 990.446 317.738   6
   9  -1   3 666.561 327.935   3
   9  -1   4 14031.5 1092.21   6
   9  -1   4 13724.8 1297.93   3
   9  -1   5 12132.8 1044.36   6
   9  -1   5 13023.2 1263.03   3
   9  -1   6 3657.37 596.051   6
  -9   1  -6 3056.04 514.720   7
   9  -1   6 2780.54 598.227   3
   9  -1   7 353.992 232.064   6
   9  -1   7 470.967 297.628   3
  -9   1  -7 230.340 181.883   7
   9  -1   8 1009.07 358.673   6
   9  -1   8 1292.67 419.859   3
   9  -1   9 2954.19 575.075   6
   9  -1   9 2669.61 571.469   3
   9  -1  10 4079.94 688.348   6
   9  -1  11 4440.45 741.677   6
   9  -1  12 667.091 331.777   6
   9  -1  13 6632.37 946.961   6
   9   0 -15 4578.59 889.259   4
   9   0 -14-76.1587 222.845   4
   9   0 -13 331.321 279.083   4
   9   0 -12 266.080 260.470   4
   9   0 -12 567.285 299.826   3
   9   0 -11 923.199 386.907   4
   9   0 -11 821.868 353.058   3
   9   0 -10 439.831 302.648   4
   9   0 -10 999.580 381.064   3
   9   0  -9 401.102 256.041   4
   9   0  -9-130.461 167.151   3
   9   0  -8-169.051 198.757   4
   9   0  -8-166.433 229.966   3
   9   0  -7 639.576 270.189   5
   9   0  -7 341.805 221.775   4
   9   0  -7 954.395 380.832   3
   9   0  -6 3780.94 582.245   5
   9   0  -6 3389.45 589.472   4
   9   0  -6 4385.05 752.040   3
   9   0  -5 9860.03 928.550   5
   9   0  -5 10429.2 976.786   4
   9   0  -5 9608.08 1108.14   3
   9   0  -4 3333.57 555.625   5
   9   0  -4 3246.74 529.758   4
   9   0  -4 3901.95 706.384   3
   9   0  -3 17023.9 1200.48   5
   9   0  -3 15169.9 1078.08   4
   9   0  -3 16745.4 1437.31   3
   9   0  -2 52.9995 163.507   5
   9   0  -2-9.23862 88.7605   4
   9   0  -2 1.69423 190.931   3
   9   0  -1 10265.9 938.588   5
   9   0  -1 10008.4 1124.73   3
   9   0   0 503.312 252.380   5
   9   0   0 29.0261 222.080   3
   9   0   1 2875.36 528.966   5
   9   0   1 2516.12 573.919   3
   9   0   2 2825.08 513.654   5
   9   0   2 3353.39 685.428   3
   9   0   3 3254.89 540.552   6
   9   0   3 2907.80 527.550   5
  -9   0  -3 2960.69 381.670   2
   9   0   3 3003.38 620.887   3
   9   0   4 7353.80 805.587   6
   9   0   4 7100.94 789.954   5
  -9   0  -4 8464.29 661.797   2
   9   0   4 7496.93 975.451   3
   9   0   5 5899.56 746.509   6
  -9   0  -5 6072.20 581.449   2
   9   0   5 5001.84 811.980   3
  -9   0  -6 270.216 151.581   2
   9   0   6-27.7993 164.283   6
   9   0   6-7.01066 260.669   3
  -9   0  -7 206.492 161.213   2
   9   0   7 411.511 283.947   6
   9   0   7 557.201 303.652   3
   9   0   8-15.9567 138.429   6
   9   0   8 311.636 262.046   3
  -9   0  -8 94.4731 108.762   2
   9   0   9 5097.71 764.721   6
  -9   0  -9 5256.74 630.222   2
   9   0   9 4069.52 723.463   3
   9   0  10 5328.41 797.598   6
   9   0  11 2234.16 534.989   6
   9   0  12-400.678 287.155   6
   9   0  13 6252.42 930.521   6
   9   1 -15 1633.03 605.504   4
   9   1 -14 3645.88 773.185   4
   9   1 -13 548.057 351.281   4
   9   1 -12 603.189 320.558   4
   9   1 -11 6566.55 960.653   4
   9   1 -11 7365.98 953.912   3
   9   1 -10 480.557 282.479   4
   9   1 -10 113.710 189.588   3
   9   1  -9 1998.47 426.490   5
   9   1  -9 1128.71 390.779   4
   9   1  -9 1039.00 406.331   3
   9   1  -8 1720.29 402.638   5
   9   1  -8 940.706 354.265   4
   9   1  -8 776.706 338.926   3
   9   1  -7 1673.38 403.119   5
   9   1  -7 1471.02 421.063   4
   9   1  -7 2027.77 528.390   3
   9   1  -6-44.4271 174.492   5
   9   1  -6 21.7726 130.821   4
   9   1  -6-126.756 226.106   3
   9   1  -5 1521.26 401.456   5
   9   1  -5 1360.05 360.985   4
   9   1  -5 1571.37 500.491   3
   9   1  -4 7112.69 812.579   5
   9   1  -4 6836.90 761.570   4
   9   1  -4 7576.96 999.971   3
   9   1  -3 1610.08 426.172   5
   9   1  -3 1128.97 304.590   4
   9   1  -3 971.263 414.942   3
   9   1  -2 3936.21 619.130   5
   9   1  -2 4087.52 540.119   4
   9   1  -2 4380.51 765.780   3
   9   1  -1 3064.04 564.853   5
   9   1  -1 3558.73 687.049   3
   9   1   0 2594.00 494.838   5
   9   1   0 2278.34 583.370   3
   9   1   1 6521.53 786.863   5
   9   1   1 6657.50 933.174   3
   9   1   2 158.340 188.921   5
   9   1   2 158.862 258.190   3
   9   1   3 1961.83 445.874   5
   9   1   3 1368.56 442.380   3
   9   1   4 98.7800 172.752   6
   9   1   4 316.177 215.677   5
   9   1   4 326.143 286.947   3
  -9  -1  -5 1184.83 280.885   2
   9   1   5 643.096 281.128   6
   9   1   5 1101.43 344.832   5
   9   1   5 970.182 389.367   3
  -9  -1  -6-237.606 152.613   2
   9   1   6 376.496 247.589   6
   9   1   6-173.611 170.445   5
   9   1   6-247.858 252.636   3
  -9  -1  -7 2467.97 430.720   2
   9   1   7 1851.11 474.096   6
   9   1   7 2271.54 555.276   3
  -9  -1  -8 57.7832 126.448   2
   9   1   8 246.289 213.720   6
   9   1   8 418.525 277.136   3
  -9  -1  -9 135.687 176.732   2
   9   1   9-226.371 237.469   6
   9   1  10 891.224 336.423   6
  -9  -1 -10 399.993 218.152   2
   9   1  11 5292.65 820.522   6
  -9  -1 -11 5370.49 697.756   2
   9   1  12 1356.18 422.617   6
  -9  -1 -12 986.029 320.255   2
   9   2 -15 4719.55 886.304   4
   9   2 -14 13367.0 1454.12   4
   9   2 -13 4529.35 849.189   4
   9   2 -12 481.598 260.936   4
   9   2 -11 295.856 179.675   5
   9   2 -11 362.328 286.464   4
   9   2 -11 200.895 236.556   3
   9   2 -10 563.662 299.499   5
   9   2 -10 1239.22 443.514   3
   9   2  -9 129.748 160.148   5
   9   2  -9-125.559 194.481   4
   9   2  -9-167.118 207.674   3
   9   2  -8 512.191 280.035   5
   9   2  -8 839.670 340.418   4
   9   2  -8 1.79436 229.188   3
   9   2  -7 365.156 222.637   5
   9   2  -7 288.371 213.299   4
   9   2  -7 301.386 307.074   3
   9   2  -6 356.097 235.466   5
   9   2  -6-151.446 205.064   4
   9   2  -6-337.035 270.502   3
   9   2  -5 10605.2 1026.73   5
   9   2  -5 10611.7 1005.69   4
   9   2  -5 12071.6 1264.79   3
   9   2  -4 17943.3 1321.37   5
   9   2  -4 17766.4 1231.58   4
   9   2  -4 19551.3 1610.49   3
   9   2  -3 1652.19 443.991   5
   9   2  -3 1986.40 397.927   4
   9   2  -3 2321.72 593.560   3
   9   2  -2 14794.7 1208.91   5
   9   2  -2 14555.4 1002.66   4
   9   2  -2 16451.5 1490.27   3
   9   2  -1 9620.60 981.989   5
   9   2  -1 8633.95 1081.48   3
   9   2   0 10964.7 1043.74   5
   9   2   0 10377.4 1189.30   3
   9   2   1 203.368 222.996   5
   9   2   1 415.366 311.893   3
   9   2   2 1208.01 381.965   5
   9   2   2 926.805 410.321   3
   9   2   3 1934.47 446.216   5
   9   2   3 2111.49 553.468   3
   9   2   4 519.287 264.319   6
   9   2   4 610.897 281.435   5
   9   2   4 333.737 225.765   3
  -9  -2  -5 2421.17 435.042   2
   9   2   5 2301.55 490.108   6
   9   2   5 2528.28 501.796   5
   9   2   5 2986.41 654.677   3
   9   2   6 11220.9 1073.10   6
   9   2   6 9853.10 958.366   5
  -9  -2  -6 11007.6 903.172   2
   9   2   6 10442.5 1185.19   3
  -9  -2  -7 3858.88 549.828   2
   9   2   7 4383.38 691.542   6
   9   2   7 5494.70 714.506   5
   9   2   7 4670.32 821.439   3
  -9  -2  -8 946.205 295.074   2
   9   2   8 836.746 325.695   6
   9   2   8 1101.16 333.051   5
  -9  -2  -9 4346.85 615.000   2
   9   2   9 3710.47 674.846   6
   9   2  10 131.748 209.411   6
  -9  -2 -10 68.1638 146.235   2
   9   2  11 1505.69 458.240   6
  -9  -2 -11 1784.70 420.588   2
   9   2  12 1313.01 434.562   6
  -9  -2 -12 1513.54 411.037   2
   9   3 -14 423.787 309.452   4
   9   3 -13 16166.1 1568.85   4
   9   3 -12 2689.40 638.798   4
   9   3 -11 655.197 295.109   5
   9   3 -11 426.965 283.745   4
   9   3 -11 23.7258 146.986   3
   9   3 -10 437.135 255.605   5
   9   3 -10 449.808 286.165   4
   9   3 -10 454.266 274.272   3
   9   3  -9 1995.19 493.917   5
   9   3  -9 2587.99 576.785   4
   9   3  -9 2709.61 619.859   3
   9   3  -8 3222.70 582.975   5
   9   3  -8 4078.25 717.405   4
   9   3  -8 3644.74 711.477   3
   9   3  -7 541.743 283.977   5
   9   3  -7 575.035 284.090   4
   9   3  -7 204.687 264.097   3
   9   3  -6 13738.2 1195.10   5
   9   3  -6 12386.1 1126.80   4
   9   3  -6 16361.1 1496.08   3
   9   3  -5 11588.9 1111.11   5
   9   3  -5 10389.6 992.776   4
   9   3  -5 12999.9 1322.46   3
   9   3  -4 14176.2 1240.09   5
   9   3  -4 13006.9 1059.93   4
   9   3  -4 14860.8 1442.11   3
   9   3  -3 1735.21 439.288   5
   9   3  -3 1610.20 362.822   4
   9   3  -3 2786.29 640.068   3
   9   3  -2 11494.8 1121.61   5
   9   3  -2 12467.6 1333.01   3
   9   3  -1 664.733 314.857   5
   9   3  -1 253.181 289.295   3
   9   3   0 3477.75 638.623   5
   9   3   0 2078.03 561.951   3
   9   3   1 5153.37 759.368   5
   9   3   1 7108.51 995.878   3
   9   3   2 6500.90 853.826   5
   9   3   2 8014.88 1057.93   3
   9   3   3 434.441 267.889   5
   9   3   3 495.149 346.434   3
   9   3   4 163.932 183.818   5
   9   3   4-505.058 310.614   3
   9   3   5 273.196 207.282   6
   9   3   5-295.891 225.513   5
   9   3   5-254.174 234.944   3
  -9  -3  -6 153.210 177.845   2
   9   3   6-133.857 202.696   6
   9   3   6 183.004 238.092   5
  -9  -3  -7 188.593 150.859   2
   9   3   7-221.387 237.529   6
   9   3   7 361.355 238.184   5
  -9  -3  -8 505.958 240.690   2
   9   3   8 741.808 304.871   6
   9   3   8 199.547 182.755   5
  -9  -3  -9 20.5393 60.1798   2
   9   3   9 979.093 296.487   6
  -9  -3 -10 170.760 150.921   2
   9   3  10 424.204 252.638   6
   9   3  11 5494.06 853.267   6
  -9  -3 -11 4446.78 684.516   2
   9   4 -13 3363.44 726.433   4
   9   4 -12 4301.39 795.311   4
   9   4 -11 2690.21 525.514   5
   9   4 -11 1607.03 498.643   4
   9   4 -10 6841.19 850.589   5
   9   4 -10 6412.64 920.156   4
   9   4 -10 6664.86 939.892   3
   9   4  -9-49.8525 178.970   5
   9   4  -9-54.4905 181.569   4
   9   4  -9 25.4729 141.075   3
   9   4  -8 6081.76 822.657   5
   9   4  -8 4558.68 721.749   4
   9   4  -8 3770.37 708.125   3
   9   4  -7 1259.54 425.442   5
   9   4  -7 848.771 332.816   4
   9   4  -7 709.253 367.181   3
   9   4  -6 2163.13 532.487   5
   9   4  -6 2059.55 489.197   4
   9   4  -6 1586.58 476.389   3
   9   4  -5 723.890 360.373   5
   9   4  -5 1150.51 364.069   4
   9   4  -5 612.746 359.008   3
   9   4  -4 936.926 369.997   5
   9   4  -4 681.462 269.523   4
   9   4  -4 567.542 351.377   3
   9   4  -3 1539.12 467.085   5
   9   4  -3 2373.66 460.401   4
   9   4  -3 1847.44 549.712   3
   9   4  -2 147.265 263.526   5
   9   4  -2 254.711 304.039   3
   9   4  -1 3807.13 704.383   5
   9   4  -1 5308.87 896.032   3
   9   4   0 18611.8 1488.77   5
   9   4   0 14806.7 1453.83   3
   9   4   1 10244.9 1121.41   5
   9   4   1 7943.02 1072.63   3
   9   4   2 161.425 217.890   5
   9   4   2-110.138 209.311   3
   9   4   3 114.776 225.126   5
   9   4   3 2.02574 249.635   3
   9   4   4-248.245 240.353   5
   9   4   5 1934.70 470.144   6
   9   4   5 1810.07 464.036   5
  -9  -4  -6 1141.83 358.236   2
   9   4   6 1023.73 358.246   6
   9   4   6 966.808 347.937   5
  -9  -4  -7 2441.61 481.082   2
   9   4   7 3113.44 603.756   6
   9   4   7 2832.14 568.664   5
  -9  -4  -8 2960.63 544.032   2
   9   4   8 3219.24 595.061   6
   9   4   8 2928.20 546.222   5
  -9  -4  -9 1076.97 359.813   2
   9   4   9 862.755 323.899   6
  -9  -4 -10 1775.90 449.733   2
   9   4  10 1242.67 425.037   6
   9   5 -12 450.018 293.640   4
   9   5 -11 4802.41 710.210   5
   9   5 -11 4784.31 794.551   4
   9   5 -10 990.344 354.069   5
   9   5 -10 1420.03 445.950   4
   9   5  -9 947.064 358.597   5
   9   5  -9 1154.74 422.064   4
   9   5  -8 106.997 213.395   5
   9   5  -8 385.380 240.170   4
   9   5  -8-87.6099 153.199   3
   9   5  -7 1461.23 463.615   5
   9   5  -7 1344.97 391.907   4
   9   5  -7 1248.13 446.276   3
   9   5  -6 2203.51 549.287   5
   9   5  -6 2103.20 476.763   4
   9   5  -6 3619.79 741.483   3
   9   5  -5 2243.45 576.663   5
   9   5  -5 2229.59 481.413   4
   9   5  -5 1859.34 538.789   3
   9   5  -4 2728.87 623.526   5
   9   5  -4 3512.45 575.480   4
   9   5  -4 3156.55 680.012   3
   9   5  -3 537.459 358.779   5
   9   5  -3 511.740 350.472   3
   9   5  -2 10605.6 1173.46   5
   9   5  -2 7687.96 1083.10   3
   9   5  -1 776.551 450.822   5
   9   5  -1 1712.02 525.731   3
   9   5   0 1813.15 555.106   5
   9   5   1-406.993 297.688   5
   9   5   2 1.77993 266.183   5
   9   5   3 1292.94 433.202   5
   9   5   4 1161.41 415.884   5
   9   5   5 238.857 236.168   5
  -9  -5  -6 3553.49 627.198   2
   9   5   6 3298.15 637.134   5
  -9  -5  -7 2398.51 462.096   2
   9   5   7 1868.65 473.324   5
  -9  -5  -8 6646.46 821.806   2
   9   5   8 7058.82 915.774   6
  -9  -5  -9 5900.38 764.655   2
   9   5   9 5620.70 838.903   6
   9   6 -11-1.55125 145.812   5
   9   6 -11 663.310 310.907   4
   9   6 -10-274.869 246.688   5
   9   6 -10 576.967 301.961   4
   9   6  -9 4908.13 800.159   5
   9   6  -9 5025.74 781.262   4
   9   6  -8 7506.80 977.583   5
   9   6  -8 8971.75 1032.85   4
   9   6  -7 331.614 252.328   5
   9   6  -7 444.180 283.420   4
   9   6  -6 2404.56 595.734   5
   9   6  -6 2150.29 485.264   4
   9   6  -5 221.477 297.696   5
   9   6  -4 1731.57 513.985   5
   9   6  -3 636.070 372.970   5
   9   6  -2 3092.87 680.793   5
   9   6  -1 1377.28 496.903   5
   9   6   0-150.525 263.541   5
   9   6   1 3103.68 683.250   5
   9   6   2 7347.17 1046.16   5
   9   6   3 645.841 378.604   5
   9   6   4-178.480 199.313   5
   9   6   5 274.963 274.833   5
  -9  -6  -6 297.187 225.048   2
   9   6   6-646.810 357.994   5
  -9  -6  -7-78.8505 181.692   2
   9   6   7-208.468 187.267   5
   9   6   8 1405.91 408.867   6
   9   7 -10 416.458 241.185   5
   9   7  -9 1366.93 475.293   5
   9   7  -9 1302.97 432.199   4
   9   7  -8-349.864 274.983   5
   9   7  -8 49.7694 105.754   4
   9   7  -7 5550.09 866.886   5
   9   7  -6 337.596 262.115   5
   9   7  -5 2467.95 639.707   5
   9   7  -4-382.296 288.080   5
   9   7  -3 2331.26 601.798   5
   9   7  -2 9129.35 1199.35   5
   9   7  -1-18.8147 245.415   5
   9   7   0-160.242 229.722   5
   9   7   1 2010.83 616.136   5
   9   7   2 1711.63 560.793   5
   9   7   3 421.267 299.072   5
   9   7   4 202.473 249.501   5
   9   7   5-240.228 280.138   5
   9   7   6 2905.94 644.149   5
   9   8  -6 734.373 391.555   5
   9   8  -5 201.831 264.104   5
   9   8  -4 1079.22 421.141   5
   9   8  -3 4463.95 851.210   5
   9   8  -2 297.073 257.254   5
   9   8  -1-82.8040 184.984   5
   9   8   0 798.760 437.508   5
   9   8   1 703.093 368.203   5
   9   8   2 971.774 434.524   5
 -10  13   1-58.5098 209.148   7
 -10  13   0 410.159 297.456   7
  10 -12  -5 3872.31 903.507   3
 -10  12   5 1150.96 450.460   7
  10 -12  -4 2291.77 670.732   3
 -10  12   4 3028.38 699.324   7
  10 -12  -3 396.922 304.395   3
 -10  12   3 617.672 373.467   7
  10 -12  -2-155.671 214.377   3
 -10  12   2-354.379 348.962   7
  10 -12  -1 429.474 339.086   3
 -10  12   1 812.125 414.729   7
  10 -12   0 265.216 263.374   3
 -10  12   0 263.538 293.947   7
 -10  12  -1-409.382 334.281   7
  10 -12   1 630.855 394.884   3
 -10  12  -2 327.824 329.814   7
  10 -12   2 240.859 312.319   3
 -10  12  -3-136.793 318.681   7
  10 -12   3 255.791 281.690   3
 -10  12  -4 554.825 403.737   7
  10 -12   4 68.6759 242.391   3
 -10  12  -5 649.754 457.376   7
  10 -12   5 532.169 320.548   3
  10 -11  -8 41.9883 142.336   4
  10 -11  -8 14.8062 135.501   1
  10 -11  -7 2896.45 730.951   3
  10 -11  -7 1771.32 516.271   1
  10 -11  -6-502.956 339.056   3
  10 -11  -6 250.945 210.433   1
  10 -11  -5 977.263 520.695   3
  10 -11  -4 705.210 408.738   3
  10 -11  -3 39.9277 188.008   3
  10 -11  -2 3049.01 775.771   3
  10 -11  -1 8003.58 1204.60   3
 -10  11   1 8351.82 1148.53   7
  10 -11   0 3302.15 766.809   3
 -10  11   0 4193.08 842.972   7
  10 -11   1 247.598 243.320   3
 -10  11  -1-169.657 296.509   7
  10 -11   2 778.646 375.973   3
 -10  11  -2 830.083 499.310   7
 -10  11  -3 179.064 312.147   7
  10 -11   3-288.087 278.681   3
 -10  11  -4 3029.92 747.033   7
  10 -11   4 2347.00 628.684   3
 -10  11  -5 380.881 339.964   7
  10 -11   5-366.920 269.259   3
 -10  11  -6 136.362 242.352   7
 -10  11  -7 559.465 386.016   7
  10 -10 -10 319.540 291.215   1
  10 -10  -9-495.752 357.318   4
  10 -10  -9 620.686 336.878   1
  10 -10  -8 2672.59 690.881   3
  10 -10  -8 3353.65 775.276   4
  10 -10  -8 2388.54 614.851   1
  10 -10  -7 1228.42 503.936   3
  10 -10  -7 614.622 358.939   4
  10 -10  -7 1447.00 481.397   1
  10 -10  -6 2682.70 691.184   3
  10 -10  -6 2164.24 577.774   4
  10 -10  -6 2330.40 604.525   1
  10 -10  -5 214.824 239.535   3
  10 -10  -4 443.927 313.426   3
  10 -10  -3 621.677 362.625   3
  10 -10  -2 6624.73 1087.73   3
  10 -10  -1 104.608 210.210   3
  10 -10   0 902.875 412.672   3
  10 -10   1 1066.05 449.302   3
 -10  10  -1 196.633 257.321   7
  10 -10   2 1779.60 557.863   3
 -10  10  -2 1672.19 546.211   7
  10 -10   3 263.610 283.771   3
 -10  10  -3 274.826 260.530   7
 -10  10  -4 937.024 425.823   7
  10 -10   4 1173.75 422.956   3
 -10  10  -5-8.98347 139.549   7
  10 -10   5 457.525 291.504   3
 -10  10  -6 851.988 418.912   7
  10 -10   6 802.430 400.228   3
 -10  10  -7 701.659 366.003   7
 -10  10  -8 183.808 312.328   7
 -10  10  -9 84.6558 233.137   7
  10  -9 -11-804.781 408.916   3
  10  -9 -11 143.965 221.246   4
  10  -9 -10 724.034 399.353   3
  10  -9 -10-223.525 200.664   4
  10  -9  -9 1352.43 487.614   3
  10  -9  -9 114.301 212.265   4
  10  -9  -8 4487.79 892.149   3
  10  -9  -8 3597.99 795.494   4
  10  -9  -8 4559.59 829.483   1
  10  -9  -7 4811.28 945.426   3
  10  -9  -7 3276.47 747.630   4
  10  -9  -7 4720.02 811.653   1
  10  -9  -6 5420.25 967.389   3
  10  -9  -6 4717.95 842.341   4
  10  -9  -6 4442.85 745.784   1
  10  -9  -5 4407.20 853.565   3
  10  -9  -5 4074.03 760.076   4
  10  -9  -4 68.9893 205.669   3
  10  -9  -4 356.651 245.616   4
  10  -9  -3 45.2761 250.526   3
  10  -9  -2 1394.91 502.293   3
  10  -9  -1 439.090 352.986   3
  10  -9   0 5875.26 960.778   3
  10  -9   1 1203.58 488.642   3
  10  -9   2 2402.93 630.674   3
 -10   9  -2 1838.84 558.790   7
  10  -9   3 1049.49 420.253   3
 -10   9  -3 1071.18 434.486   7
  10  -9   4 1585.27 513.239   3
 -10   9  -4 1021.87 463.410   7
 -10   9  -5 2269.93 626.361   7
  10  -9   5 2712.17 638.138   3
 -10   9  -6-114.941 265.012   7
  10  -9   6-286.005 210.817   3
 -10   9  -7 2136.06 608.386   7
 -10   9  -8 2260.58 629.251   7
 -10   9  -9 393.643 270.592   7
 -10   9 -10 5155.12 1040.79   7
  10  -8 -12 3466.15 740.242   3
  10  -8 -12 2146.91 623.125   4
  10  -8 -11-214.237 194.496   3
  10  -8 -11-1165.64 447.074   4
  10  -8 -10 333.145 297.933   3
  10  -8 -10 1219.32 478.504   4
  10  -8  -9 451.445 310.519   3
  10  -8  -9 1336.20 493.185   4
  10  -8  -8 7049.01 1103.09   3
  10  -8  -8 6059.17 990.229   4
  10  -8  -7 4455.58 875.084   3
  10  -8  -7 3526.89 683.935   1
  10  -8  -7 4097.92 798.497   4
  10  -8  -6 4772.87 898.398   3
  10  -8  -6 4079.16 776.758   4
  10  -8  -6 4144.61 699.399   1
  10  -8  -5 723.788 372.155   3
  10  -8  -5 242.673 251.164   4
  10  -8  -4 557.777 348.997   3
  10  -8  -4 188.685 232.835   4
  10  -8  -3 444.507 322.741   3
  10  -8  -2 1898.18 564.157   3
  10  -8  -1 701.975 368.209   3
  10  -8   0 471.312 295.518   3
  10  -8   1 1230.22 445.842   3
  10  -8   2 2663.99 634.321   3
  10  -8   3 457.437 300.196   3
 -10   8  -3 131.310 266.094   7
  10  -8   4 3267.88 685.651   3
 -10   8  -4 3591.16 714.370   7
  10  -8   5 463.762 296.076   3
 -10   8  -5 770.284 370.862   7
 -10   8  -6 133.450 230.664   7
  10  -8   6-61.4218 142.604   3
 -10   8  -7 1343.76 489.063   7
 -10   8  -8 821.816 389.461   7
 -10   8  -9 1294.12 506.012   7
 -10   8 -10 677.369 336.505   7
 -10   8 -11 1339.39 542.694   7
  10  -7 -12 1680.60 557.383   3
  10  -7 -12 1503.65 532.865   4
  10  -7 -11 1604.46 500.748   3
  10  -7 -11 1042.74 449.093   4
  10  -7 -10 328.194 304.051   3
  10  -7 -10 267.027 216.780   4
  10  -7  -9 488.929 371.561   3
  10  -7  -9 666.108 330.045   4
  10  -7  -8-321.434 314.104   3
  10  -7  -8-172.998 196.516   4
  10  -7  -7 529.014 247.565   3
  10  -7  -7 496.637 321.347   4
  10  -7  -6 3529.66 765.355   3
  10  -7  -6 2824.26 629.411   4
  10  -7  -5 2970.48 684.746   3
  10  -7  -5 3894.39 697.859   4
  10  -7  -4 3944.84 811.492   3
  10  -7  -4 4153.66 708.517   4
  10  -7  -3 3367.53 721.649   3
  10  -7  -3 2810.03 576.914   4
  10  -7  -2 237.470 296.469   3
  10  -7  -1 615.908 368.750   3
  10  -7   0 441.388 320.539   3
  10  -7   1-375.842 351.831   3
  10  -7   2-405.682 313.682   3
  10  -7   3 608.898 354.577   3
  10  -7   4 2572.45 621.981   3
 -10   7  -4 3077.77 656.967   7
  10  -7   5 212.637 240.812   3
 -10   7  -5-12.5869 265.423   7
  10  -7   6 13611.7 1344.21   3
 -10   7  -6 13868.1 1416.26   7
  10  -7   7 12062.1 1239.89   3
 -10   7  -7 20877.0 1749.79   7
 -10   7  -8 416.574 318.350   7
 -10   7  -9 3029.90 703.720   7
  10  -7   9 2848.02 541.311   6
 -10   7 -10 2592.06 662.765   7
  10  -7  10 1538.93 421.972   6
 -10   7 -11 511.017 361.882   7
 -10   7 -12 762.246 361.085   7
  10  -6 -13 145.927 186.754   4
  10  -6 -12 918.383 412.536   3
  10  -6 -12 517.046 321.674   4
  10  -6 -11-102.303 215.748   3
  10  -6 -11 319.884 272.471   4
  10  -6 -10 563.404 299.445   3
  10  -6 -10 1590.77 543.577   4
  10  -6  -9 1033.57 420.433   3
  10  -6  -9 481.604 347.643   4
  10  -6  -8 6.37796 150.913   3
  10  -6  -8-52.5891 142.451   4
  10  -6  -7 792.220 399.737   3
  10  -6  -7 1042.42 382.294   4
  10  -6  -6 5206.36 890.774   3
  10  -6  -6 4489.84 749.842   4
  10  -6  -5 6334.32 993.203   3
  10  -6  -5 5295.87 792.687   4
  10  -6  -4 3231.78 725.584   3
  10  -6  -4 1897.32 457.815   4
  10  -6  -3 764.566 404.680   3
  10  -6  -3 835.047 298.225   4
  10  -6  -2 2351.16 618.263   3
  10  -6  -1 3747.70 738.712   3
  10  -6   0 5878.50 899.163   3
  10  -6   1 521.539 326.241   3
  10  -6   2 120.306 212.217   3
  10  -6   3 4358.07 769.069   3
  10  -6   4 3690.02 713.932   3
  10  -6   5-305.969 259.284   3
 -10   6  -5 575.526 321.991   7
  10  -6   6 9248.38 1101.68   3
 -10   6  -6 11179.7 1216.07   7
 -10   6  -7 1057.18 398.647   7
  10  -6   7 826.983 355.802   3
 -10   6  -8 2089.70 555.539   7
  10  -6   8 2331.22 499.626   6
 -10   6  -9 471.448 301.518   7
  10  -6   9 806.294 312.009   6
 -10   6 -10 167.866 186.967   7
  10  -6  10 711.129 304.560   6
 -10   6 -11 1723.40 545.708   7
  10  -6  11 1047.51 364.814   6
 -10   6 -12-366.887 248.981   7
  10  -6  12 582.376 300.026   6
  10  -5 -14 1640.16 530.801   4
  10  -5 -13 1640.79 559.817   4
  10  -5 -12 2904.90 640.315   3
  10  -5 -12 1681.70 544.355   4
  10  -5 -11 68.0123 159.316   3
  10  -5 -11-456.861 332.907   4
  10  -5 -10 6136.71 958.671   3
  10  -5 -10 7631.49 1083.53   4
  10  -5  -9 2499.77 631.570   3
  10  -5  -9 1503.83 506.824   4
  10  -5  -8 578.643 335.756   3
  10  -5  -8 292.757 250.224   4
  10  -5  -7 3776.38 743.718   3
  10  -5  -7 4570.18 777.066   4
  10  -5  -6 37.9987 207.536   3
  10  -5  -6 260.034 228.832   4
  10  -5  -5 956.917 415.404   3
  10  -5  -5 1189.65 374.684   4
  10  -5  -4 275.140 274.206   3
  10  -5  -4 188.169 154.473   4
  10  -5  -3 18401.5 1614.12   3
  10  -5  -2 1155.74 378.973   3
  10  -5  -1 729.608 354.329   3
  10  -5   0 1186.30 410.734   3
  10  -5   1 868.810 378.114   3
  10  -5   2 6548.96 925.190   3
  10  -5   3 243.292 227.033   3
  10  -5   4 1658.84 479.269   3
 -10   5  -5 4147.82 712.574   7
  10  -5   5 3973.40 722.398   3
  10  -5   6 4157.07 745.012   3
 -10   5  -6 5214.47 813.423   7
  10  -5   7 2252.34 486.086   6
  10  -5   7 1303.11 417.471   3
 -10   5  -7 1627.81 475.061   7
 -10   5  -8 464.569 252.739   7
  10  -5   8 242.649 185.277   6
 -10   5  -9 6590.85 954.172   7
  10  -5   9 6334.95 829.200   6
 -10   5 -10 306.815 211.974   7
  10  -5  10 551.545 278.826   6
 -10   5 -11 2292.51 582.511   7
  10  -5  11 2143.23 512.241   6
  10  -5  12 2222.20 502.783   6
  10  -4 -14 465.437 296.929   4
  10  -4 -13 758.724 395.735   4
  10  -4 -12 5009.82 850.896   3
  10  -4 -12 4670.48 880.675   4
  10  -4 -11-436.008 282.203   3
  10  -4 -11 557.786 336.178   4
  10  -4 -10 700.323 313.505   3
  10  -4 -10 2214.34 548.458   4
  10  -4  -9 1151.46 417.713   3
  10  -4  -9 1416.79 488.089   4
  10  -4  -8 2473.01 628.060   3
  10  -4  -8 3105.65 651.328   4
  10  -4  -7 396.672 297.619   3
  10  -4  -7 751.962 331.647   4
  10  -4  -6 495.857 334.897   3
  10  -4  -6-109.972 150.811   4
  10  -4  -5-13.5372 319.674   3
  10  -4  -5 341.477 226.389   4
  10  -4  -4 1907.82 528.546   3
  10  -4  -4 2263.29 458.076   4
  10  -4  -3 698.714 377.097   3
  10  -4  -2 776.695 383.927   3
  10  -4  -1-446.573 307.285   3
  10  -4   0 5980.79 901.717   3
  10  -4   1 5641.85 866.563   3
  10  -4   2 981.246 398.101   3
  10  -4   3 3188.00 651.901   3
  10  -4   4 1751.16 493.276   3
  10  -4   5-125.038 208.162   3
  10  -4   6 4783.31 687.092   6
  10  -4   6 4361.59 786.588   3
 -10   4  -6 3918.88 689.276   7
  10  -4   7 483.237 268.097   6
  10  -4   7 525.764 302.211   3
 -10   4  -7 1291.76 434.474   7
 -10   4  -8 3327.12 670.009   7
  10  -4   8 2918.98 574.865   6
  10  -4   8 3203.65 662.399   3
 -10   4  -9 259.487 192.542   7
  10  -4   9 17.8075 131.401   6
 -10   4 -10 558.558 328.819   7
  10  -4  10 384.875 246.635   6
  10  -4  11 4744.05 765.332   6
  10  -4  12 458.376 283.219   6
  10  -3 -14 4909.61 907.830   4
  10  -3 -13 608.268 356.050   4
  10  -3 -12 1103.58 439.923   4
  10  -3 -12 1000.58 403.406   3
  10  -3 -11 2177.03 626.224   4
  10  -3 -11 2322.54 607.488   3
  10  -3 -10 1343.40 442.937   3
  10  -3 -10 1733.65 528.102   4
  10  -3  -9 8434.29 1063.33   4
  10  -3  -9 9074.76 1131.59   3
  10  -3  -8 8127.97 1013.56   4
  10  -3  -8 8653.42 1110.65   3
  10  -3  -7 665.881 364.663   3
  10  -3  -7 126.657 194.770   4
  10  -3  -6 55.9342 199.232   3
  10  -3  -6 7.33036 174.096   4
  10  -3  -5 990.566 398.600   3
  10  -3  -5 834.681 302.195   4
  10  -3  -4 6718.18 782.766   4
  10  -3  -4 7926.35 1060.26   3
  10  -3  -3 1198.95 460.076   3
  10  -3  -2 545.128 320.662   3
  10  -3  -1 6986.56 969.299   3
  10  -3   0 3162.86 669.846   3
  10  -3   1 861.593 395.873   3
  10  -3   2 7782.38 1037.65   3
  10  -3   3 5296.24 839.769   3
  10  -3   4 4626.17 789.140   3
  10  -3   5 1003.48 336.145   6
  10  -3   5 1277.48 433.736   3
  10  -3   6 3004.96 560.449   6
  10  -3   6 2026.00 525.197   3
 -10   3  -6 2869.48 598.762   7
  10  -3   7 1195.69 421.204   3
 -10   3  -7 1988.40 490.232   7
 -10   3  -8 3874.51 691.290   7
  10  -3   8 3290.05 607.965   6
  10  -3   8 2630.32 582.255   3
 -10   3  -9 2303.98 550.850   7
  10  -3   9 1805.67 462.493   6
  10  -3  10 1235.70 413.076   6
  10  -3  11 2392.43 590.664   6
  10  -3  12 3135.74 659.827   6
  10  -2 -14 3071.03 723.745   4
  10  -2 -13 1038.47 386.286   4
  10  -2 -12 359.647 306.463   4
  10  -2 -12 611.112 437.413   3
  10  -2 -11-306.612 246.997   4
  10  -2 -11 288.577 264.760   3
  10  -2 -10 718.952 312.326   4
  10  -2 -10 479.404 289.543   3
  10  -2  -9 2668.57 599.674   4
  10  -2  -9 3007.39 666.522   3
  10  -2  -8-41.7026 183.600   4
  10  -2  -8 52.4269 225.023   3
  10  -2  -7 242.223 251.904   4
  10  -2  -7 632.853 351.773   3
  10  -2  -6 17669.0 1367.49   4
  10  -2  -6 19346.1 1650.67   3
  10  -2  -5 12160.2 1082.17   4
  10  -2  -5 11736.4 1293.21   3
  10  -2  -4 146.629 166.325   4
  10  -2  -4 269.082 254.283   3
  10  -2  -3 64.0078 187.737   3
  10  -2  -2 15534.3 1464.62   3
  10  -2  -1 4641.96 790.093   3
  10  -2   0 519.320 292.362   3
  10  -2   1-374.242 310.463   3
  10  -2   2 1161.58 443.647   3
  10  -2   3 114.787 310.596   3
  10  -2   4 4711.24 800.693   3
  10  -2   5 1521.97 433.009   6
  10  -2   5 1487.21 497.081   3
  10  -2   6 231.928 189.051   6
  10  -2   6-7.54161 185.120   3
 -10   2  -6 614.198 299.380   7
  10  -2   7 2049.91 486.468   6
  10  -2   7 1766.30 510.688   3
 -10   2  -7 2143.90 488.349   7
  10  -2   8 1565.70 435.649   6
  10  -2   8 1602.13 460.987   3
  10  -2   9 4582.61 748.395   6
  10  -2  10 1932.66 493.155   6
  10  -2  11 188.984 231.867   6
  10  -2  12 275.158 304.959   6
  10  -1 -14 1420.98 517.475   4
  10  -1 -13 2870.62 698.039   4
  10  -1 -12 132.233 195.821   4
  10  -1 -12-3.73251 209.580   3
  10  -1 -11 49.9393 155.647   4
  10  -1 -11-53.4602 179.196   3
  10  -1 -10 1116.02 426.805   4
  10  -1 -10 720.885 353.191   3
  10  -1  -9 14.1228 200.649   4
  10  -1  -9 213.746 227.289   3
  10  -1  -8 850.866 346.662   4
  10  -1  -8 877.179 406.165   3
  10  -1  -7 2687.54 566.817   4
  10  -1  -7 2828.47 644.387   3
  10  -1  -6 7808.46 918.949   4
  10  -1  -6 9238.09 1149.05   3
  10  -1  -5-388.087 245.289   4
  10  -1  -5 247.020 247.175   3
  10  -1  -4-56.2084 139.214   4
  10  -1  -4-388.142 308.009   3
  10  -1  -3 1458.75 518.796   3
  10  -1  -2 10244.0 1204.74   3
  10  -1  -1 6755.10 992.968   3
  10  -1   0 1292.74 478.962   3
  10  -1   1-165.448 231.487   3
  10  -1   2-54.1119 199.305   3
  10  -1   3 255.413 244.460   3
  10  -1   4 2571.43 634.577   3
  10  -1   5 144.700 192.275   6
  10  -1   5-79.5008 243.503   3
  10  -1   6 2989.64 569.070   6
  10  -1   6 2380.58 586.312   3
 -10   1  -6 3794.84 619.988   7
  10  -1   7 1585.22 444.103   6
  10  -1   7 1517.49 466.141   3
  10  -1   8 1010.66 387.528   6
  10  -1   8 822.575 369.058   3
  10  -1   9 5746.56 828.784   6
  10  -1  10 44.0996 233.145   6
  10  -1  11 86.0989 200.374   6
  10   0 -14 2874.57 696.900   4
  10   0 -13 2079.74 570.424   4
  10   0 -12 43.8814 260.386   4
  10   0 -11 1316.38 473.308   4
  10   0 -11 1495.99 465.987   3
  10   0 -10 354.791 256.211   4
  10   0 -10 532.980 349.165   3
  10   0  -9-137.454 222.764   4
  10   0  -9 286.633 239.310   3
  10   0  -8-454.549 279.836   4
  10   0  -8-263.123 279.913   3
  10   0  -7 18304.8 1427.24   4
  10   0  -7 17539.3 1590.20   3
  10   0  -6 2785.66 537.796   4
  10   0  -6 3873.92 748.256   3
  10   0  -5 7511.78 875.480   5
  10   0  -5 6804.58 815.082   4
  10   0  -5 8058.11 1084.65   3
  10   0  -4 53784.7 2279.19   5
  10   0  -4 47507.6 2022.83   4
  10   0  -4 51586.6 2715.22   3
  10   0  -3 15817.9 1242.85   5
  10   0  -3 15681.2 1503.62   3
  10   0  -2 1388.40 402.827   5
  10   0  -2 969.666 428.466   3
  10   0  -1 41.0995 185.226   5
  10   0  -1-572.248 332.139   3
  10   0   0 6644.29 812.266   5
  10   0   0 5498.43 917.091   3
  10   0   1 3045.27 575.534   5
  10   0   1 2747.30 660.180   3
  10   0   2 3140.55 579.365   5
  10   0   2 2452.39 607.462   3
  10   0   3 2653.86 632.696   3
  10   0   4 4908.34 856.293   3
  10   0   5-14.2572 143.346   6
  10   0   5-70.0631 227.119   3
  10   0   6 7402.22 889.989   6
  10   0   6 5158.16 877.432   3
  10   0   7 2690.89 576.467   6
  10   0   7 2289.21 583.558   3
  10   0   8 3486.39 666.471   6
  10   0   8 3264.21 685.690   3
  10   0   9 4210.83 725.024   6
  10   0  10 201.965 250.092   6
  10   0  11 1725.53 506.713   6
  10   1 -13 1244.74 455.852   4
  10   1 -12 990.446 402.582   4
  10   1 -11-45.6848 200.284   4
  10   1 -11-402.783 268.055   3
  10   1 -10 2912.73 625.589   4
  10   1 -10 3594.26 718.496   3
  10   1  -9 8878.92 1052.35   4
  10   1  -9 9219.61 1144.14   3
  10   1  -8 379.952 270.094   5
  10   1  -8 253.901 227.031   4
  10   1  -8-7.99003 146.160   3
  10   1  -7 9181.67 964.075   5
  10   1  -7 8141.30 965.040   4
  10   1  -7 9316.65 1186.51   3
  10   1  -6 14194.6 1201.54   5
  10   1  -6 11745.6 1107.20   4
  10   1  -6 11984.1 1344.79   3
  10   1  -5-36.1657 147.573   5
  10   1  -5 253.372 205.906   4
  10   1  -5-2.02403 239.495   3
  10   1  -4 3245.86 587.753   5
  10   1  -4 2782.40 496.816   4
  10   1  -4 2852.55 657.793   3
  10   1  -3 1290.55 405.350   5
  10   1  -3 1823.47 558.636   3
  10   1  -2 2113.59 500.285   5
  10   1  -2 1442.45 478.555   3
  10   1  -1 14393.9 1208.90   5
  10   1  -1 13734.6 1442.89   3
  10   1   0 2649.53 543.787   5
  10   1   0 1439.32 513.562   3
  10   1   1 1387.42 412.825   5
  10   1   1 384.055 273.322   3
  10   1   2 536.708 288.576   5
  10   1   2 51.2958 217.833   3
  10   1   3 304.462 253.807   5
  10   1   3 309.874 266.114   3
  10   1   4-88.1585 191.180   5
  10   1   4-401.505 274.234   3
  10   1   5-65.7746 183.807   3
  10   1   6 104.564 182.656   6
  10   1   6-382.825 270.152   3
  10   1   7 2850.96 584.649   6
  10   1   7 3017.73 652.670   3
  10   1   8 8114.93 998.061   6
  10   1   8 9143.59 1158.61   3
  10   1   9 8374.83 1018.93   6
  10   1  10 97.6844 205.550   6
  10   2 -13 672.209 354.095   4
  10   2 -12 6939.52 1025.25   4
  10   2 -11 290.074 255.290   4
  10   2 -11 1391.53 463.831   3
  10   2 -10 110.721 242.921   4
  10   2 -10 485.937 328.180   3
  10   2  -9 3892.68 652.008   5
  10   2  -9 4796.18 798.197   4
  10   2  -9 2648.35 626.342   3
  10   2  -8 57.2540 116.755   5
  10   2  -8 13.2271 196.685   4
  10   2  -8 150.778 180.727   3
  10   2  -7 112.663 204.818   5
  10   2  -7 217.865 202.746   4
  10   2  -7 123.286 243.839   3
  10   2  -6 112.946 228.938   5
  10   2  -6 227.700 178.166   4
  10   2  -6 529.392 356.671   3
  10   2  -5 3738.67 645.133   5
  10   2  -5 3580.51 592.709   4
  10   2  -5 3354.45 730.317   3
  10   2  -4 989.374 383.466   5
  10   2  -4 1129.47 446.696   3
  10   2  -3 5451.18 783.707   5
  10   2  -3 6835.85 1031.86   3
  10   2  -2 17841.9 1379.97   5
  10   2  -2 17704.3 1629.92   3
  10   2  -1 10895.8 1089.68   5
  10   2  -1 10084.7 1249.17   3
  10   2   0 946.352 347.412   5
  10   2   0 797.211 421.803   3
  10   2   1 939.664 361.787   5
  10   2   1 1145.83 458.460   3
  10   2   2-262.329 261.324   5
  10   2   2 372.483 332.267   3
  10   2   3 6220.95 829.024   5
  10   2   3 5248.59 904.286   3
  10   2   4 202.350 222.843   5
  10   2   4 200.986 332.288   3
  10   2   5 816.751 330.135   5
  10   2   5 159.760 271.493   3
  10   2   6 6211.82 843.678   6
  10   2   6 6258.07 816.853   5
  10   2   6 4844.25 908.551   3
  10   2   7 4770.37 756.131   6
  10   2   8 1193.42 416.302   6
  10   2   9 1635.80 490.355   6
  10   2  10 3076.72 656.700   6
  10   3 -12-273.144 223.632   4
  10   3 -11 1674.86 413.565   5
  10   3 -11 1623.10 522.901   4
  10   3 -10 1063.14 352.068   5
  10   3 -10 1082.60 398.329   4
  10   3 -10 299.403 211.609   3
  10   3  -9-39.6930 143.515   5
  10   3  -9 138.459 167.224   4
  10   3  -8 4294.24 705.622   5
  10   3  -8 3889.22 685.481   4
  10   3  -8 3094.25 735.162   3
  10   3  -7 9910.41 1070.17   5
  10   3  -7 9596.34 1028.74   4
  10   3  -7 9818.04 1221.21   3
  10   3  -6 2288.07 537.832   5
  10   3  -6 1519.23 413.851   4
  10   3  -6 2626.96 649.765   3
  10   3  -5 3766.00 659.495   5
  10   3  -5 3379.84 588.546   4
  10   3  -5 3787.13 766.863   3
  10   3  -4 3446.64 642.891   5
  10   3  -4 5615.24 954.392   3
  10   3  -3 1017.49 373.346   5
  10   3  -3 867.827 445.807   3
  10   3  -2 8627.18 1017.50   5
  10   3  -2 7046.25 1068.66   3
  10   3  -1 775.487 349.696   5
  10   3  -1 616.994 333.972   3
  10   3   0-531.291 303.829   5
  10   3   0-254.166 284.542   3
  10   3   1 6032.24 849.065   5
  10   3   1 6600.08 1004.23   3
  10   3   2 2607.32 575.556   5
  10   3   2 2670.72 689.712   3
  10   3   3 3133.42 635.493   5
  10   3   3 3308.44 718.064   3
 -10  -3  -4 247.923 190.181   2
  10   3   4-82.8886 232.618   5
  10   3   4 99.9905 167.206   3
 -10  -3  -5 5426.29 686.590   2
  10   3   5 4884.84 745.033   5
  10   3   6 8094.13 935.280   5
 -10  -3  -6 9270.86 908.840   2
  10   3   7 6230.72 865.722   6
  10   3   7 7412.86 883.852   5
  10   3   8-207.751 183.417   6
  10   3   9 3151.08 652.975   6
  10   4 -11 4261.16 663.673   5
  10   4 -11 3869.60 726.748   4
  10   4 -10 5651.99 783.585   5
  10   4 -10 5697.32 876.564   4
  10   4 -10 4183.33 786.626   3
  10   4  -9-370.445 256.392   5
  10   4  -9 31.2528 121.794   4
  10   4  -9-239.032 248.171   3
  10   4  -8 328.034 234.115   5
  10   4  -8 363.814 214.988   4
  10   4  -8 206.555 212.131   3
  10   4  -7-63.5806 141.331   5
  10   4  -7-305.653 291.656   3
  10   4  -6 3495.75 665.001   5
  10   4  -6 2107.21 467.125   4
  10   4  -6 2494.77 647.309   3
  10   4  -5 190.016 180.383   5
  10   4  -5 600.594 372.703   3
  10   4  -4 690.515 348.632   5
  10   4  -4-360.119 304.392   3
  10   4  -3-322.286 284.014   5
  10   4  -3-173.679 276.523   3
  10   4  -2-375.188 285.254   5
  10   4  -2-567.891 348.530   3
  10   4  -1-157.246 271.371   5
  10   4  -1-260.021 216.084   3
  10   4   0 3054.25 637.631   5
  10   4   0 2417.71 658.052   3
  10   4   1 1813.20 500.685   5
  10   4   1 1651.49 514.291   3
  10   4   2 2273.72 569.914   5
  10   4   2 2251.58 639.037   3
  10   4   3-200.800 255.815   5
  10   4   4 284.379 230.802   5
 -10  -4  -5-10.6751 158.032   2
  10   4   5 583.142 331.548   5
 -10  -4  -6 2256.56 488.519   2
  10   4   6 1570.44 444.112   5
 -10  -4  -7 2545.20 502.605   2
  10   4   7 3052.14 592.660   5
  10   5 -10 1306.07 411.945   5
  10   5 -10 286.515 208.947   4
  10   5  -9 2869.51 580.763   5
  10   5  -9 3027.83 619.230   4
  10   5  -8 145.115 202.791   5
  10   5  -8 585.716 281.764   4
  10   5  -7 1608.92 486.878   5
  10   5  -7 1103.08 343.741   4
  10   5  -6-19.3616 119.272   5
  10   5  -6 183.064 173.729   4
  10   5  -5 2206.01 564.651   5
  10   5  -5 2752.96 694.860   3
  10   5  -4 16241.5 1455.63   5
  10   5  -4 14296.8 1541.00   3
  10   5  -3 656.794 349.517   5
  10   5  -2 438.196 312.919   5
  10   5  -1-54.1801 213.212   5
  10   5   0 3347.19 680.415   5
  10   5   1 1419.40 459.844   5
  10   5   2-773.545 365.877   5
  10   5   3 698.173 362.312   5
  10   5   4 11308.8 1207.88   5
 -10  -5  -5 4541.67 701.863   2
  10   5   5 3808.86 729.751   5
 -10  -5  -6 656.260 265.043   2
  10   5   6 521.202 270.624   5
  10   6  -8-61.6052 132.184   5
  10   6  -8 17.9160 140.961   4
  10   6  -7-600.014 298.295   5
  10   6  -6-189.714 184.857   5
  10   6  -5 153.760 193.986   5
  10   6  -4 921.731 396.565   5
  10   6  -3-80.4406 189.973   5
  10   6  -2 1806.48 530.742   5
  10   6  -1 1246.37 472.235   5
  10   6   0 1600.11 506.378   5
  10   6   1-101.393 253.449   5
  10   6   2 950.368 426.043   5
  10   6   3 1036.98 384.178   5
  11 -11  -3 1585.37 573.133   3
  11 -11  -2 345.734 256.014   3
 -11  11   2-370.734 319.900   7
  11 -11  -1 840.095 472.567   3
 -11  11   1-151.318 217.574   7
  11 -11   0-261.379 279.783   3
 -11  11   0 36.1793 368.700   7
  11 -11   1 2949.32 746.061   3
 -11  11  -1 3301.66 772.291   7
  11 -11   2 3480.96 799.607   3
 -11  11  -2 4375.52 878.608   7
 -11  11  -3 4085.57 868.355   7
  11 -11   3 3175.73 761.056   3
  11 -11   4-198.797 280.085   3
  11 -10  -7-144.476 226.371   4
  11 -10  -6-804.728 390.146   3
  11 -10  -5 1502.76 504.588   3
  11 -10  -4 233.227 268.687   3
  11 -10  -3 43.6157 252.887   3
  11 -10  -2 1325.42 511.908   3
  11 -10  -1-35.1265 175.722   3
  11 -10   0 620.212 403.765   3
 -11  10   0 866.283 436.784   7
  11 -10   1 211.671 229.641   3
 -11  10  -1 975.281 484.797   7
  11 -10   2 531.010 345.338   3
 -11  10  -2 1049.65 451.630   7
  11 -10   3 648.869 423.595   3
 -11  10  -3 468.611 373.941   7
 -11  10  -4 2649.66 711.598   7
  11 -10   4 1336.83 443.706   3
 -11  10  -5 2049.17 598.072   7
  11 -10   5 978.319 442.736   3
 -11  10  -6 290.632 301.744   7
  11  -9  -9 87.0584 240.340   4
  11  -9  -8-524.860 315.883   3
  11  -9  -8 52.1689 114.363   4
  11  -9  -7 1226.11 496.725   3
  11  -9  -7 986.709 414.184   4
  11  -9  -6 7212.77 1141.72   3
  11  -9  -5 291.992 290.180   3
  11  -9  -4-495.167 340.004   3
  11  -9  -3 587.241 370.828   3
  11  -9  -2 317.197 260.062   3
  11  -9  -1-155.387 268.736   3
  11  -9   0 775.718 372.991   3
  11  -9   1 969.552 421.820   3
  11  -9   2 116.744 251.865   3
 -11   9  -2 4.14150 120.227   7
  11  -9   3 279.087 242.174   3
 -11   9  -3 19.0409 328.249   7
  11  -9   4 13074.2 1450.46   3
 -11   9  -4 14091.5 1517.08   7
  11  -9   5 9479.64 1218.37   3
 -11   9  -5 14645.0 1565.41   7
 -11   9  -6 205.109 272.142   7
 -11   9  -7 2592.09 675.672   7
  11  -8 -10 280.834 244.033   3
  11  -8 -10 605.662 321.527   4
  11  -8  -9 139.175 220.196   3
  11  -8  -9 67.9755 182.261   4
  11  -8  -8 634.001 368.848   3
  11  -8  -8 533.321 291.795   4
  11  -8  -7 284.513 306.479   3
  11  -8  -7 358.426 255.572   4
  11  -8  -6 1272.26 483.653   3
  11  -8  -6 497.769 293.438   4
  11  -8  -5 409.517 267.272   3
  11  -8  -4-198.332 262.766   3
  11  -8  -3 3868.12 825.940   3
  11  -8  -2 2078.62 595.529   3
  11  -8  -1 1619.30 583.437   3
  11  -8   0 388.503 371.959   3
  11  -8   1-267.586 258.041   3
  11  -8   2 738.165 367.593   3
  11  -8   3 2388.03 628.749   3
 -11   8  -3 1473.49 510.355   7
  11  -8   4 1593.20 514.823   3
 -11   8  -4 2470.72 600.166   7
  11  -8   5 788.157 390.590   3
 -11   8  -5 1541.77 546.754   7
 -11   8  -6 5452.70 940.826   7
  11  -8   6 3616.43 741.195   3
 -11   8  -7-104.953 246.683   7
 -11   8  -8 303.027 310.061   7
  11  -7 -11 2785.65 714.482   3
  11  -7 -11 2495.05 677.336   4
  11  -7 -10 45.6309 241.780   3
  11  -7 -10 627.575 354.625   4
  11  -7  -9 921.890 486.767   3
  11  -7  -9 1298.62 466.144   4
  11  -7  -8 896.308 445.849   3
  11  -7  -8 501.728 325.420   4
  11  -7  -7 105.298 223.283   3
  11  -7  -7-117.020 208.671   4
  11  -7  -6 44.9891 238.792   3
  11  -7  -6-91.1356 144.587   4
  11  -7  -5 2471.29 694.440   3
  11  -7  -4 324.780 308.953   3
  11  -7  -3 1895.15 573.015   3
  11  -7  -2 427.353 342.298   3
  11  -7  -1 852.391 400.643   3
  11  -7   0-187.749 259.481   3
  11  -7   1 3201.87 711.368   3
  11  -7   2 2988.87 688.392   3
  11  -7   3 3698.23 752.901   3
  11  -7   4-41.7906 143.608   3
 -11   7  -4 277.750 285.472   7
  11  -7   5 628.487 370.649   3
 -11   7  -5 1256.74 459.702   7
 -11   7  -6 174.192 175.839   7
  11  -7   6 259.704 258.121   3
 -11   7  -7 3160.63 748.368   7
 -11   7  -8-412.224 267.522   7
 -11   7  -9 1993.78 581.394   7
  11  -6 -12 348.938 234.812   3
  11  -6 -11 1842.02 576.053   3
  11  -6 -11 1612.03 545.733   4
  11  -6 -10 7892.48 1131.30   4
  11  -6 -10 11782.9 1406.31   3
  11  -6  -9 2048.69 606.369   3
  11  -6  -9 1449.71 484.760   4
  11  -6  -8 326.233 329.534   3
  11  -6  -8 320.648 245.244   4
  11  -6  -7 761.649 436.226   3
  11  -6  -7 554.278 272.553   4
  11  -6  -6 297.223 310.795   3
  11  -6  -6 382.642 217.994   4
  11  -6  -5 7538.36 1112.76   3
  11  -6  -4 1107.54 444.574   3
  11  -6  -3 234.301 207.378   3
  11  -6  -2 3211.61 708.647   3
  11  -6  -1 1258.99 462.345   3
  11  -6   0 1461.57 494.665   3
  11  -6   1 4546.73 854.595   3
  11  -6   2 889.293 404.965   3
  11  -6   3 2054.51 589.046   3
  11  -6   4 396.735 329.904   3
 -11   6  -4-43.9283 334.004   7
 -11   6  -5 1282.19 434.221   7
  11  -6   5 1160.41 416.675   3
  11  -6   6 667.747 328.543   3
 -11   6  -6 897.023 403.920   7
 -11   6  -7 1397.31 475.378   7
  11  -6   7 1878.58 511.820   3
 -11   6  -8-40.5806 178.576   7
 -11   6  -9 3902.32 796.694   7
 -11   6 -10 1173.81 453.454   7
  11  -5 -12-214.770 316.798   3
  11  -5 -12 18.5842 193.155   4
  11  -5 -11 9787.21 1264.78   4
  11  -5 -11 11072.7 1356.33   3
  11  -5 -10 3747.01 809.783   3
  11  -5 -10 4486.35 829.409   4
  11  -5  -9 805.180 422.536   3
  11  -5  -9 1678.03 464.734   4
  11  -5  -8 3612.61 784.515   3
  11  -5  -8 1556.20 490.163   4
  11  -5  -7 1398.17 472.550   3
  11  -5  -7 1022.78 389.357   4
  11  -5  -6 173.697 277.701   3
  11  -5  -6 881.367 336.720   4
  11  -5  -5 601.780 286.096   3
  11  -5  -4 184.717 284.123   3
  11  -5  -3-521.098 317.281   3
  11  -5  -2-510.193 335.899   3
  11  -5  -1 972.029 439.609   3
  11  -5   0 2828.56 710.892   3
  11  -5   1 10637.5 1277.95   3
  11  -5   2 2904.41 703.171   3
  11  -5   3 12895.5 1405.95   3
  11  -5   4 2431.31 611.779   3
  11  -5   5-215.020 207.398   3
 -11   5  -5 77.3102 245.021   7
  11  -5   6 255.147 208.461   3
 -11   5  -6-24.2858 206.164   7
 -11   5  -7 1652.36 492.628   7
  11  -5   7 1087.60 439.786   3
 -11   5  -8 3844.25 749.827   7
 -11   5  -9-614.111 311.156   7
  11  -5   9 244.296 227.017   6
  11  -5  10 1722.47 476.785   6
  11  -4 -12-256.073 227.689   4
  11  -4 -12-111.120 213.474   3
  11  -4 -11 8.65538 255.641   4
  11  -4 -11-499.082 289.723   3
  11  -4 -10 938.526 471.370   3
  11  -4 -10 425.871 309.155   4
  11  -4  -9 3984.80 802.285   3
  11  -4  -9 3268.38 698.894   4
  11  -4  -8 18289.4 1545.50   4
  11  -4  -8 19418.7 1781.40   3
  11  -4  -7 7132.62 952.094   4
  11  -4  -7 9614.13 1239.79   3
  11  -4  -6 234.489 287.287   3
  11  -4  -6-20.3102 195.710   4
  11  -4  -5-144.538 274.799   3
  11  -4  -4 4606.46 857.759   3
  11  -4  -3 1760.67 547.992   3
  11  -4  -2 131.424 194.030   3
  11  -4  -1 696.202 364.383   3
  11  -4   0 1567.75 511.899   3
  11  -4   1 157.786 153.885   3
  11  -4   2 4597.01 861.387   3
  11  -4   3-586.062 370.210   3
  11  -4   4 4382.54 812.934   3
  11  -4   5 14830.0 1486.04   3
 -11   4  -5 18946.4 1552.49   7
  11  -4   6 2016.46 557.515   3
 -11   4  -6 2065.87 538.176   7
 -11   4  -7 6704.64 939.685   7
  11  -4   7 6535.97 990.901   3
 -11   4  -8 3871.24 744.290   7
  11  -4   8 4068.67 676.497   6
  11  -4   9 897.612 343.599   6
  11  -4  10 688.762 270.651   6
  11  -3 -12-211.394 249.329   4
  11  -3 -12 1426.66 510.479   3
  11  -3 -11 413.710 302.999   4
  11  -3 -11 914.296 419.150   3
  11  -3 -10 102.834 231.004   4
  11  -3 -10-65.5519 193.047   3
  11  -3  -9 588.378 262.189   4
  11  -3  -9 1548.72 552.441   3
  11  -3  -8 1614.58 476.505   4
  11  -3  -8 2527.05 676.909   3
  11  -3  -7-164.848 245.684   4
  11  -3  -7 286.444 256.551   3
  11  -3  -6 2620.51 537.739   4
  11  -3  -6 1562.14 519.629   3
  11  -3  -5 12781.8 1426.04   3
  11  -3  -4 62.5413 270.700   3
  11  -3  -3 10572.3 1282.01   3
  11  -3  -2 396.843 311.885   3
  11  -3  -1 1626.43 529.665   3
  11  -3   0 33.5843 170.970   3
  11  -3   1 443.565 335.254   3
  11  -3   2 2903.37 695.503   3
  11  -3   3 746.472 389.484   3
  11  -3   4 9543.34 1190.39   3
  11  -3   5 9509.92 1210.69   3
 -11   3  -5 10281.4 1117.99   7
  11  -3   6 1591.31 506.321   3
 -11   3  -6 1892.28 486.388   7
 -11   3  -7 683.186 329.048   7
  11  -3   7 687.608 354.622   3
  11  -3   8 1416.33 426.911   6
  11  -3   9 593.569 315.766   6
  11  -3  10 442.332 261.745   6
  11  -2 -12 126.856 293.593   4
  11  -2 -11-20.8481 166.125   4
  11  -2 -11-140.369 211.567   3
  11  -2 -10 359.313 203.075   4
  11  -2 -10 473.608 327.154   3
  11  -2  -9 7077.94 978.380   4
  11  -2  -9 6862.57 1049.97   3
  11  -2  -8 7739.21 986.280   4
  11  -2  -8 9716.08 1267.28   3
  11  -2  -7 1305.68 432.585   4
  11  -2  -7 2184.06 634.582   3
  11  -2  -6 18040.0 1707.44   3
  11  -2  -5 5769.16 990.582   3
  11  -2  -4 305.513 292.322   3
  11  -2  -3 1803.92 557.876   3
  11  -2  -2-2.14506 198.610   3
  11  -2  -1 166.651 235.335   3
  11  -2   0-76.8688 202.698   3
  11  -2   1 1060.12 439.498   3
  11  -2   2 7924.38 1120.13   3
  11  -2   3 306.139 283.746   3
  11  -2   4 2431.97 633.067   3
  11  -2   5-188.850 305.637   3
  11  -2   6 7225.15 1061.69   3
  11  -2   7 13609.1 1424.46   3
  11  -2   8 4754.63 775.171   6
  11  -2   9 2771.88 595.900   6
  11  -1 -12 2852.12 686.197   4
  11  -1 -11 5477.99 923.367   4
  11  -1 -11 6681.28 1006.74   3
  11  -1 -10 897.954 382.379   4
  11  -1 -10 1823.05 553.273   3
  11  -1  -9 1064.11 386.897   4
  11  -1  -9 1256.06 474.026   3
  11  -1  -8 4540.39 758.407   4
  11  -1  -8 5402.28 950.933   3
  11  -1  -7 1646.45 449.548   4
  11  -1  -7 2580.51 695.714   3
  11  -1  -6 700.881 378.334   3
  11  -1  -5-6.64330 200.537   3
  11  -1  -4 377.653 284.236   3
  11  -1  -3 10686.3 1314.99   3
  11  -1  -2 5402.74 921.233   3
  11  -1  -1 756.918 370.191   3
  11  -1   0 934.659 483.425   3
  11  -1   1 1331.20 529.407   3
  11  -1   2 981.403 409.581   3
  11  -1   3-362.196 304.503   3
  11  -1   4 161.161 250.292   3
  11  -1   5 850.942 399.504   3
  11  -1   6 2990.18 715.699   3
  11  -1   7 5657.62 931.870   3
  11  -1   8 57.6870 158.551   6
  11  -1   8 415.746 281.751   3
  11  -1   9 12.2723 163.091   6
  11   0 -12 520.563 356.226   4
  11   0 -11 2809.53 639.505   4
  11   0 -11 4131.34 814.252   3
  11   0 -10 185.870 281.274   4
  11   0 -10 321.425 230.312   3
  11   0  -9 202.379 193.289   4
  11   0  -9 448.041 327.670   3
  11   0  -8 46.0510 149.352   4
  11   0  -8 6.64115 254.416   3
  11   0  -7 3352.71 614.745   4
  11   0  -7 4878.55 917.485   3
  11   0  -6 566.484 361.743   3
  11   0  -5 410.330 300.990   3
  11   0  -4 748.935 430.980   3
  11   0  -3 1234.81 540.355   3
  11   0  -2 58.2068 158.001   3
  11   0  -1 84.9854 228.240   3
  11   0   0-111.714 345.955   3
  11   0   1 1974.10 568.653   3
  11   0   2-606.263 368.297   3
  11   0   3 2.23845 151.813   3
  11   0   4 8181.12 1157.59   3
  11   0   5 2432.39 658.883   3
  11   0   6-78.5255 150.497   3
  11   0   7 4227.96 806.426   3
  11   0   8 1120.86 384.515   6
  11   0   8 700.284 378.491   3
  11   1 -11 785.311 363.499   4
  11   1 -11-287.061 220.265   3
  11   1 -10 1060.53 414.245   4
  11   1 -10 1487.81 499.327   3
  11   1  -9 5781.01 866.452   4
  11   1  -9 7137.34 1056.49   3
  11   1  -8 16.7751 134.592   4
  11   1  -8-55.6359 141.643   3
  11   1  -7 301.609 230.757   4
  11   1  -7 598.153 387.926   3
  11   1  -6 5353.23 937.540   3
  11   1  -5 3858.20 688.781   5
  11   1  -5 2899.82 710.605   3
  11   1  -4 5180.17 781.758   5
  11   1  -4 4127.50 862.679   3
  11   1  -3 10016.8 1080.53   5
  11   1  -3 8563.45 1204.09   3
  11   1  -2 3765.07 659.336   5
  11   1  -2 3562.28 801.604   3
  11   1  -1 3065.69 615.986   5
  11   1  -1 2517.93 691.132   3
  11   1   0 2306.80 544.839   5
  11   1   0 1240.26 506.479   3
  11   1   1 2518.28 563.037   5
  11   1   1 1435.34 524.929   3
  11   1   2 1901.93 585.412   3
  11   1   3 2192.33 615.372   3
  11   1   4 11268.1 1373.21   3
  11   1   5 4725.47 907.082   3
  11   1   6 1116.28 450.072   3
  11   1   7 305.018 278.201   3
  11   1   8 2947.57 622.443   6
  11   2 -10 173.138 216.775   4
  11   2 -10-319.467 268.331   3
  11   2  -9 1.75881 119.309   4
  11   2  -9-202.614 231.842   3
  11   2  -8 1386.25 423.510   4
  11   2  -8 1574.75 518.719   3
  11   2  -7 1830.06 524.144   5
  11   2  -7 2242.58 623.039   3
  11   2  -6 519.064 299.125   5
  11   2  -6 580.858 342.917   3
  11   2  -5 607.537 350.715   5
  11   2  -5 74.5901 257.781   3
  11   2  -4 543.095 288.721   5
  11   2  -4 14.0579 166.557   3
  11   2  -3 2281.78 520.387   5
  11   2  -3 1949.78 585.735   3
  11   2  -2 219.064 212.416   5
  11   2  -2 120.554 223.114   3
  11   2  -1 504.240 292.777   5
  11   2  -1 303.378 296.830   3
  11   2   0 2134.08 523.263   5
  11   2   0 2597.36 666.121   3
  11   2   1 90.5225 205.931   5
  11   2   1-95.7644 206.213   3
  11   2   2-164.179 242.519   5
  11   2   2 360.382 281.647   3
  11   2   3-84.9181 217.354   5
  11   2   3 605.160 319.973   3
  11   2   4 1925.88 506.518   5
  11   2   4 935.004 389.453   3
  11   2   5-465.590 325.086   3
  11   3  -9 347.680 216.074   5
  11   3  -9 331.957 246.078   4
  11   3  -9 745.304 385.543   3
  11   3  -8-232.645 222.413   5
  11   3  -8 129.815 167.082   4
  11   3  -8 144.154 190.124   3
  11   3  -7 2815.20 590.255   5
  11   3  -7 2069.46 598.995   3
  11   3  -6 5096.86 786.563   5
  11   3  -6 4961.33 913.597   3
  11   3  -5 8598.12 1019.54   5
  11   3  -5 8087.90 1167.88   3
  11   3  -4 1852.36 500.476   5
  11   3  -4 1729.28 562.607   3
  11   3  -3 3.39267 170.718   5
  11   3  -3-30.6427 172.048   3
  11   3  -2 3278.97 647.522   5
  11   3  -2 2078.65 613.839   3
  11   3  -1 3782.16 689.027   5
  11   3  -1 4493.41 889.577   3
  11   3   0 533.269 316.385   5
  11   3   0 1373.34 504.146   3
  11   3   1-23.7504 153.528   5
  11   3   1-49.4144 138.012   3
  11   3   2 3677.73 677.823   5
  11   3   2 3993.71 831.541   3
  11   3   3 7426.11 954.442   5
  11   3   3 4725.61 922.614   3
  11   3   4 138.908 230.164   5
  11   3   5 205.695 168.195   5
  11   4  -7 272.397 212.822   5
  11   4  -7-392.655 329.148   3
  11   4  -6 438.859 231.005   5
  11   4  -6 67.3122 201.588   3
  11   4  -5 141.346 185.383   5
  11   4  -5 2.35110 254.741   3
  11   4  -4 949.312 384.210   5
  11   4  -4 311.100 264.221   3
  11   4  -3 37.4957 148.889   5
  11   4  -3-529.036 319.590   3
  11   4  -2 4310.39 758.916   5
  11   4  -2 5009.22 929.710   3
  11   4  -1 3.60706 204.974   5
  11   4  -1-460.743 365.663   3
  11   4   0-27.1465 200.998   5
  11   4   0-166.013 270.765   3
  11   4   1 5635.16 869.371   5
  11   4   2 2969.39 654.234   5
  11   4   3 84.2486 197.575   5
  12  -9  -3-172.569 197.657   3
  12  -9  -2 3344.81 790.956   3
  12  -9  -1 9868.00 1345.91   3
  12  -9   0 833.908 433.824   3
  12  -9   1 1059.23 473.146   3
 -12   9  -1 676.383 435.127   7
  12  -9   2-190.071 240.573   3
 -12   9  -2 1183.13 450.641   7
  12  -9   3 87.2879 176.308   3
  12  -9   4-420.776 295.916   3
  12  -8  -6 188.757 197.162   3
  12  -8  -5 752.118 416.902   3
  12  -8  -4 3031.61 767.298   3
  12  -8  -3 477.199 384.825   3
  12  -8  -2 6944.63 1124.60   3
  12  -8  -1 6290.20 1066.21   3
  12  -8   0 7273.44 1166.86   3
  12  -8   1 9507.03 1284.71   3
  12  -8   2 839.612 406.526   3
 -12   8  -2 2099.22 583.930   7
  12  -8   3-467.297 331.916   3
 -12   8  -3 570.726 335.501   7
  12  -8   4 1280.25 486.812   3
 -12   8  -4 1315.32 492.255   7
 -12   8  -5 1405.09 552.245   7
  12  -8   5 1675.79 537.683   3
  12  -7  -7 747.778 425.695   3
  12  -7  -6 908.409 405.759   3
  12  -7  -5-625.087 352.284   3
  12  -7  -4-403.958 370.071   3
  12  -7  -3-202.157 308.623   3
  12  -7  -2 434.242 303.110   3
  12  -7  -1 2170.45 623.765   3
  12  -7   0 3808.66 851.033   3
  12  -7   1 11283.8 1396.06   3
  12  -7   2 410.971 323.350   3
  12  -7   3 236.380 247.692   3
 -12   7  -3-193.694 226.424   7
 -12   7  -4-2.12755 252.816   7
  12  -7   4 11.3975 185.929   3
  12  -7   5-239.058 271.724   3
 -12   7  -5 310.725 281.646   7
 -12   7  -6 175.709 194.331   7
  12  -6  -8 575.979 362.460   3
  12  -6  -7 347.128 312.217   3
  12  -6  -6-295.519 311.796   3
  12  -6  -5-771.155 434.930   3
  12  -6  -4 1773.99 591.402   3
  12  -6  -3 459.415 334.167   3
  12  -6  -2-70.0925 200.922   3
  12  -6  -1-243.426 294.407   3
  12  -6   0 921.355 414.592   3
  12  -6   1-187.208 250.926   3
  12  -6   2 3243.41 734.480   3
  12  -6   3 14291.1 1541.55   3
  12  -6   4 3411.43 748.728   3
 -12   6  -4 3335.00 708.795   7
  12  -6   5 255.730 319.159   3
 -12   6  -5 290.737 214.418   7
 -12   6  -6 8490.06 1148.16   7
  12  -6   6 6851.48 1051.28   3
 -12   6  -7 836.485 374.785   7
  12  -5  -9 324.529 322.993   3
  12  -5  -8 736.962 416.681   3
  12  -5  -7 2263.55 638.884   3
  12  -5  -6-138.742 225.807   3
  12  -5  -5 2251.45 649.399   3
  12  -5  -4 2687.68 733.199   3
  12  -5  -3-192.795 270.376   3
  12  -5  -2 233.623 216.732   3
  12  -5  -1 547.639 347.406   3
  12  -5   0 5633.65 994.390   3
  12  -5   1 647.001 356.114   3
  12  -5   2-305.885 321.670   3
  12  -5   3 2536.24 693.781   3
 -12   5  -4 675.991 366.837   7
  12  -5   4 1041.58 458.519   3
  12  -5   5 654.498 361.126   3
 -12   5  -5 706.739 370.679   7
  12  -5   6 2231.80 634.837   3
 -12   5  -6 2821.37 656.883   7
 -12   5  -7 70.4097 181.330   7
  12  -4  -9 2569.14 696.135   3
  12  -4  -8 2562.46 662.760   3
  12  -4  -7 176.856 298.023   3
  12  -4  -6-325.877 313.609   3
  12  -4  -5-26.7827 127.208   3
  12  -4  -4-415.071 330.755   3
  12  -4  -3 339.760 269.659   3
  12  -4  -2 213.460 244.907   3
  12  -4  -1-371.913 338.924   3
  12  -4   0-116.776 334.208   3
  12  -4   1 524.250 331.328   3
  12  -4   2 1086.30 453.265   3
  12  -4   3 351.969 294.936   3
  12  -4   4 418.956 292.740   3
  12  -4   5 3978.77 807.877   3
 -12   4  -5 5019.18 828.158   7
  12  -4   6 1086.00 492.772   3
 -12   4  -6 2007.62 531.107   7
  12  -3 -10 3092.38 715.383   4
  12  -3  -9 1131.16 491.355   3
  12  -3  -8 72.8772 226.373   3
  12  -3  -7 609.205 391.589   3
  12  -3  -6 1350.73 541.201   3
  12  -3  -5 324.804 300.946   3
  12  -3  -4 320.555 298.227   3
  12  -3  -3 4094.48 867.482   3
  12  -3  -2 3333.53 784.882   3
  12  -3  -1-25.9982 147.392   3
  12  -3   0 6102.94 1060.64   3
  12  -3   1 1642.01 532.728   3
  12  -3   2 3282.73 750.239   3
  12  -3   3-137.345 254.744   3
  12  -3   4 489.048 315.103   3
  12  -3   5 264.280 275.020   3
 -12   3  -5 340.933 229.157   7
  12  -3   6-444.551 301.056   3
  12  -2  -9 2744.34 690.583   3
  12  -2  -8-335.581 291.552   3
  12  -2  -7 630.469 392.631   3
  12  -2  -6 1720.81 580.059   3
  12  -2  -5 87.9991 264.596   3
  12  -2  -4 104.759 246.253   3
  12  -2  -3 839.270 427.917   3
  12  -2  -2 628.464 448.732   3
  12  -2  -1 5269.81 961.917   3
  12  -2   0 2757.71 705.323   3
  12  -2   1 1101.57 460.231   3
  12  -2   2 592.351 360.396   3
  12  -2   3 4686.38 926.551   3
  12  -2   4 4032.04 840.349   3
  12  -2   5 1486.73 496.304   3
  12  -2   6 792.140 372.019   3
  12  -1  -9 95.0983 244.847   3
  12  -1  -8 992.678 440.790   3
  12  -1  -7 816.949 490.272   3
  12  -1  -6 786.587 386.614   3
  12  -1  -5 3705.73 827.592   3
  12  -1  -4 333.517 316.366   3
  12  -1  -3 4.89311 378.399   3
  12  -1  -2 407.457 354.637   3
  12  -1  -1 4333.14 896.130   3
  12  -1   0 360.959 265.872   3
  12  -1   1 1044.42 508.683   3
  12  -1   2 15223.5 1620.39   3
  12  -1   3 3634.60 800.301   3
  12  -1   4 83.2064 184.010   3
  12  -1   5 2513.07 662.663   3
  12  -1   6 3838.49 827.979   3
  12   0  -8 199.423 265.934   3
  12   0  -7 509.017 317.314   3
  12   0  -6-292.178 241.537   3
  12   0  -5 436.545 373.647   3
  12   0  -4 5485.95 977.801   3
  12   0  -3 1149.34 481.691   3
  12   0  -2 505.937 336.066   3
  12   0  -1 56.6821 301.450   3
  12   0   0 607.816 396.404   3
  12   0   1 2.45811 247.500   3
  12   0   2 3367.43 790.214   3
  12   0   3 1025.06 462.714   3
  12   0   4 559.808 343.557   3
  12   0   5 1028.43 453.388   3
  12   1  -7 354.942 286.334   3
  12   1  -6 506.783 373.946   3
  12   1  -5 625.185 347.960   3
  12   1  -4 367.838 261.518   3
  12   1  -3 1158.30 477.875   3
  12   1  -2 266.619 297.633   3
  12   1  -1 1219.54 496.063   3
  12   1   0 433.923 288.680   3
  12   1   1 6617.45 1092.67   3
  12   1   2-1234.28 490.344   3
  12   1   3-53.6267 179.234   3
  12   2  -4-168.280 251.825   3
  12   2  -3-542.604 341.443   3
  12   2  -2 535.990 364.453   3
  12   2  -1 2784.57 740.485   3
  12   2   0 3584.71 798.548   3
  13  -4  -1 747.654 390.290   3
   0   0   0    0.00    0.00   0
TITL cnpa in P-1
REM P-1 (#2 in standard setting)
CELL 0.71073   7.140270   8.674463  11.572989  93.7213  93.7135 104.2302
ZERR    2.00   0.000370   0.000620   0.000694   0.0053   0.0045   0.0053
LATT  1
SFAC C H N O Cl
UNIT 24.00 20.00 8.00 12.00 2.00
TREF
HKLF 4
END
;
_shelx_hkl_checksum              10788
_shelx_res_file
;
TITL shelxt_a.res in P-1
    shelx.res
    created by SHELXL-2016/6 at 09:16:19 on 05-Mar-2017
CELL  0.71073   7.1403   8.6745  11.5730   93.721   93.714  104.230
ZERR     2.00   0.0004   0.0006   0.0007    0.005    0.004    0.005
LATT   1
SFAC  C    H    N    O    CL
UNIT  24   20   10   12   2
MERG   2
ACTA 50
SIZE 0.15 0.18 0.51
L.S.  10
TEMP  -153.00
WGHT    0.047900    0.057400
FVAR       8.83870
CL1   5    0.639928    1.045188    0.251901    11.00000    0.02833    0.01828 =
         0.01351    0.00795    0.00237    0.00545
N1    3    0.550133    0.746001    0.540720    11.00000    0.01192    0.01505 =
         0.01213    0.00615   -0.00010    0.00168
AFIX  43
H1    2    0.538045    0.687385    0.600379    11.00000   -1.20000
AFIX   0
C2    1    0.726018    0.840956    0.524992    11.00000    0.01192    0.01400 =
         0.01418    0.00548    0.00150    0.00237
N3    3    0.754770    0.934189    0.437157    11.00000    0.01487    0.01454 =
         0.01343    0.00519    0.00183    0.00355
N2    3    0.871594    0.841395    0.602286    11.00000    0.01240    0.02595 =
         0.02037    0.01319   -0.00204    0.00042
N4    3    0.224542    0.645809    0.491372    11.00000    0.01263    0.02236 =
         0.01591    0.00658   -0.00264   -0.00115
C4    1    0.598599    0.924218    0.364725    11.00000    0.01854    0.01248 =
         0.01018    0.00327    0.00192    0.00552
C5    1    0.415509    0.831298    0.372179    11.00000    0.01763    0.01629 =
         0.01074    0.00269   -0.00123    0.00395
AFIX  43
H5    2    0.311152    0.829800    0.316505    11.00000   -1.20000
AFIX   0
C6    1    0.392209    0.738625    0.467259    11.00000    0.01355    0.01332 =
         0.01145    0.00192   -0.00053    0.00268
O1    4    0.752601    0.562824    0.748639    11.00000    0.01041    0.01890 =
         0.01847    0.00909    0.00273    0.00455
O2    4    0.458180    0.602336    0.721801    11.00000    0.01284    0.02212 =
         0.01983    0.01300    0.00393    0.00850
O3    4    0.109582    0.367113    0.671387    11.00000    0.01746    0.02457 =
         0.01298    0.00108   -0.00372    0.00747
O4    4    0.061613    0.495959    0.836892    11.00000    0.01145    0.01759 =
         0.01589    0.00322    0.00028    0.00713
O5    4   -0.082653    0.148555    0.851692    11.00000    0.01403    0.02186 =
         0.02665    0.00708   -0.00610   -0.00009
O6    4   -0.032308    0.155885    1.038365    11.00000    0.01539    0.02215 =
         0.02374    0.00797    0.00759    0.00517
N5    3    0.023423    0.179791    0.941952    11.00000    0.01081    0.01185 =
         0.02129    0.00585    0.00135    0.00244
C7    1    0.494956    0.409200    0.847689    11.00000    0.01027    0.01129 =
         0.01051    0.00234    0.00032    0.00361
C8    1    0.293975    0.350466    0.850342    11.00000    0.01048    0.01102 =
         0.01144    0.00260   -0.00002    0.00343
C9    1    0.231204    0.245872    0.934082    11.00000    0.00959    0.01172 =
         0.01369    0.00336    0.00060    0.00238
C10   1    0.355196    0.196275    1.012410    11.00000    0.01217    0.01389 =
         0.01383    0.00525    0.00094    0.00365
AFIX  43
H10   2    0.305859    0.125158    1.068602    11.00000   -1.20000
AFIX   0
C11   1    0.552435    0.253259    1.006353    11.00000    0.01202    0.01619 =
         0.01366    0.00592    0.00020    0.00477
AFIX  43
H11   2    0.641024    0.220092    1.057965    11.00000   -1.20000
AFIX   0
C12   1    0.620661    0.358642    0.925045    11.00000    0.00988    0.01458 =
         0.01231    0.00433    0.00073    0.00414
AFIX  43
H12   2    0.756591    0.397529    0.921848    11.00000   -1.20000
AFIX   0
C13   1    0.576115    0.532604    0.766732    11.00000    0.01100    0.01282 =
         0.01098    0.00340    0.00101    0.00377
C14   1    0.146892    0.405986    0.774187    11.00000    0.00996    0.01332 =
         0.01388    0.00372   -0.00085    0.00256
H2A   2    0.852313    0.772608    0.659432    11.00000    0.03523
H2B   2    0.990737    0.906912    0.592541    11.00000    0.03363
H4A   2    0.123132    0.630719    0.441844    11.00000    0.03009
H4B   2    0.216645    0.593894    0.550089    11.00000    0.03626
H4    2   -0.044611    0.512201    0.796240    11.00000    0.04471
HKLF 4
REM  shelxt_a.res in P-1
REM R1 =  0.0459 for    6381 Fo > 4sig(Fo)  and  0.0746 for all    8897 data
REM    237 parameters refined using      0 restraints
END
WGHT      0.0491      0.0689
REM Highest difference peak  0.654,  deepest hole -0.472,  1-sigma level  0.086
Q1    1   0.5558  0.3778  0.8914  11.00000  0.05    0.65
Q2    1   0.5245  0.4794  0.8102  11.00000  0.05    0.59
Q3    1   0.4988  0.8948  0.3666  11.00000  0.05    0.59
Q4    1   0.2615  0.2976  0.8930  11.00000  0.05    0.58
Q5    1   0.5840  0.3141  0.9715  11.00000  0.05    0.58
Q6    1   0.4763  0.7331  0.5081  11.00000  0.05    0.54
Q7    1   0.3923  0.8021  0.4297  11.00000  0.05    0.53
Q8    1   0.2679  0.1915  0.9753  11.00000  0.05    0.53
Q9    1   0.7361  0.8801  0.4745  11.00000  0.05    0.52
Q10   1   0.6387  0.7765  0.5329  11.00000  0.05    0.50
Q11   1   0.3942  0.3753  0.8434  11.00000  0.05    0.48
Q12   1   0.4506  0.2600  1.0132  11.00000  0.05    0.48
Q13   1   0.6752  0.9164  0.4004  11.00000  0.05    0.46
Q14   1   0.3111  0.2469  0.9689  11.00000  0.05    0.45
Q15   1   0.7961  0.8403  0.5633  11.00000  0.05    0.45
Q16   1   0.2332  0.3784  0.8089  11.00000  0.05    0.45
Q17   1   0.3043  0.6619  0.4621  11.00000  0.05    0.44
Q18   1   0.4624  0.1989  1.0033  11.00000  0.05    0.44
Q19   1   0.1576  0.3821  0.7184  11.00000  0.05    0.43
Q20   1  -0.0530  0.1611  0.8881  11.00000  0.05    0.39
;
_shelx_res_checksum              44562
loop_
_space_group_symop_operation_xyz
'x, y, z'
'-x, -y, -z'
loop_
_atom_site_type_symbol
_atom_site_label
_atom_site_fract_x
_atom_site_fract_y
_atom_site_fract_z
_atom_site_U_iso_or_equiv
_atom_site_adp_type
_atom_site_calc_flag
_atom_site_occupancy
Cl Cl1 0.63993(4) 1.04519(3) 0.25190(2) 0.01979(6) Uani d 1
N N1 0.55013(12) 0.74600(11) 0.54072(7) 0.01316(14) Uani d 1
H H1 0.538045 0.687385 0.600379 0.016 Uiso calc 1
C C2 0.72602(13) 0.84096(12) 0.52499(8) 0.01331(15) Uani d 1
N N3 0.75477(12) 0.93419(11) 0.43716(7) 0.01410(14) Uani d 1
N N2 0.87159(13) 0.84139(13) 0.60229(8) 0.01999(18) Uani d 1
N N4 0.22454(13) 0.64581(13) 0.49137(8) 0.01789(17) Uani d 1
C C4 0.59860(14) 0.92422(12) 0.36472(8) 0.01331(15) Uani d 1
C C5 0.41551(15) 0.83130(13) 0.37218(8) 0.01498(16) Uani d 1
H H5 0.311152 0.829800 0.316505 0.018 Uiso calc 1
C C6 0.39221(14) 0.73863(12) 0.46726(8) 0.01292(15) Uani d 1
O O1 0.75260(10) 0.56282(10) 0.74864(6) 0.01537(13) Uani d 1
O O2 0.45818(10) 0.60234(10) 0.72180(7) 0.01692(14) Uani d 1
O O3 0.10958(11) 0.36711(11) 0.67139(6) 0.01820(15) Uani d 1
O O4 0.06161(10) 0.49596(9) 0.83689(6) 0.01432(13) Uani d 1
O O5 -0.08265(11) 0.14856(11) 0.85169(8) 0.02178(17) Uani d 1
O O6 -0.03231(11) 0.15588(11) 1.03837(7) 0.01980(15) Uani d 1
N N5 0.02342(12) 0.17979(11) 0.94195(8) 0.01452(14) Uani d 1
C C7 0.49496(12) 0.40920(11) 0.84769(8) 0.01049(14) Uani d 1
C C8 0.29398(13) 0.35047(11) 0.85034(8) 0.01082(14) Uani d 1
C C9 0.23120(13) 0.24587(12) 0.93408(8) 0.01163(14) Uani d 1
C C10 0.35520(13) 0.19628(12) 1.01241(8) 0.01305(15) Uani d 1
H H10 0.305859 0.125158 1.068602 0.016 Uiso calc 1
C C11 0.55244(13) 0.25326(13) 1.00635(8) 0.01357(16) Uani d 1
H H11 0.641024 0.220092 1.057965 0.016 Uiso calc 1
C C12 0.62066(13) 0.35864(12) 0.92504(8) 0.01193(15) Uani d 1
H H12 0.756591 0.397529 0.921848 0.014 Uiso calc 1
C C13 0.57611(13) 0.53260(12) 0.76673(8) 0.01135(14) Uani d 1
C C14 0.14689(13) 0.40599(12) 0.77419(8) 0.01242(15) Uani d 1
H H2A 0.852(3) 0.773(2) 0.6594(15) 0.035(5) Uiso d 1
H H2B 0.991(3) 0.907(2) 0.5925(14) 0.034(5) Uiso d 1
H H4A 0.123(2) 0.631(2) 0.4418(14) 0.030(4) Uiso d 1
H H4B 0.217(3) 0.594(2) 0.5501(15) 0.036(5) Uiso d 1
H H4 -0.045(3) 0.512(3) 0.7962(16) 0.045(5) Uiso d 1
loop_
_atom_site_aniso_label
_atom_site_aniso_U_11
_atom_site_aniso_U_22
_atom_site_aniso_U_33
_atom_site_aniso_U_12
_atom_site_aniso_U_13
_atom_site_aniso_U_23
Cl1 0.02833(13) 0.01828(12) 0.01351(10) 0.00545(9) 0.00237(8) 0.00795(8)
N1 0.0119(3) 0.0150(4) 0.0121(3) 0.0017(3) -0.0001(2) 0.0061(3)
C2 0.0119(3) 0.0140(4) 0.0142(4) 0.0024(3) 0.0015(3) 0.0055(3)
N3 0.0149(3) 0.0145(4) 0.0134(3) 0.0036(3) 0.0018(3) 0.0052(3)
N2 0.0124(3) 0.0259(5) 0.0204(4) 0.0004(3) -0.0020(3) 0.0132(4)
N4 0.0126(3) 0.0224(5) 0.0159(4) -0.0012(3) -0.0026(3) 0.0066(3)
C4 0.0185(4) 0.0125(4) 0.0102(3) 0.0055(3) 0.0019(3) 0.0033(3)
C5 0.0176(4) 0.0163(4) 0.0107(3) 0.0039(3) -0.0012(3) 0.0027(3)
C6 0.0136(4) 0.0133(4) 0.0114(3) 0.0027(3) -0.0005(3) 0.0019(3)
O1 0.0104(3) 0.0189(4) 0.0185(3) 0.0046(2) 0.0027(2) 0.0091(3)
O2 0.0128(3) 0.0221(4) 0.0198(3) 0.0085(3) 0.0039(2) 0.0130(3)
O3 0.0175(3) 0.0246(4) 0.0130(3) 0.0075(3) -0.0037(2) 0.0011(3)
O4 0.0114(3) 0.0176(3) 0.0159(3) 0.0071(2) 0.0003(2) 0.0032(2)
O5 0.0140(3) 0.0219(4) 0.0266(4) -0.0001(3) -0.0061(3) 0.0071(3)
O6 0.0154(3) 0.0221(4) 0.0237(4) 0.0052(3) 0.0076(3) 0.0080(3)
N5 0.0108(3) 0.0119(3) 0.0213(4) 0.0024(3) 0.0013(3) 0.0059(3)
C7 0.0103(3) 0.0113(4) 0.0105(3) 0.0036(3) 0.0003(2) 0.0023(3)
C8 0.0105(3) 0.0110(4) 0.0114(3) 0.0034(3) 0.0000(2) 0.0026(3)
C9 0.0096(3) 0.0117(4) 0.0137(3) 0.0024(3) 0.0006(3) 0.0034(3)
C10 0.0122(3) 0.0139(4) 0.0138(4) 0.0036(3) 0.0009(3) 0.0052(3)
C11 0.0120(3) 0.0162(4) 0.0137(4) 0.0048(3) 0.0002(3) 0.0059(3)
C12 0.0099(3) 0.0146(4) 0.0123(3) 0.0041(3) 0.0007(3) 0.0043(3)
C13 0.0110(3) 0.0128(4) 0.0110(3) 0.0038(3) 0.0010(2) 0.0034(3)
C14 0.0100(3) 0.0133(4) 0.0139(4) 0.0026(3) -0.0008(3) 0.0037(3)
loop_
_atom_type_symbol
_atom_type_description
_atom_type_scat_dispersion_real
_atom_type_scat_dispersion_imag
_atom_type_scat_source
C C 0.0033 0.0016 'International Tables Vol C Tables 4.2.6.8 and 6.1.1.4'
H H 0.0000 0.0000 'International Tables Vol C Tables 4.2.6.8 and 6.1.1.4'
N N 0.0061 0.0033 'International Tables Vol C Tables 4.2.6.8 and 6.1.1.4'
O O 0.0106 0.0060 'International Tables Vol C Tables 4.2.6.8 and 6.1.1.4'
Cl Cl 0.1484 0.1585 'International Tables Vol C Tables 4.2.6.8 and 6.1.1.4'
loop_
_geom_angle_atom_site_label_1
_geom_angle_atom_site_label_2
_geom_angle_atom_site_label_3
_geom_angle
C2 N1 C6 121.83(8)
N2 C2 N3 120.19(9)
N2 C2 N1 117.42(9)
N3 C2 N1 122.38(8)
C4 N3 C2 115.13(9)
N3 C4 C5 127.05(9)
N3 C4 Cl1 114.17(8)
C5 C4 Cl1 118.78(7)
C4 C5 C6 115.54(9)
N4 C6 N1 117.68(9)
N4 C6 C5 124.26(9)
N1 C6 C5 118.05(9)
O6 N5 O5 124.15(9)
O6 N5 C9 117.69(8)
O5 N5 C9 118.14(8)
C12 C7 C8 119.68(8)
C12 C7 C13 119.50(8)
C8 C7 C13 120.74(8)
C9 C8 C7 116.94(8)
C9 C8 C14 119.68(8)
C7 C8 C14 123.18(8)
C10 C9 C8 123.80(8)
C10 C9 N5 116.25(8)
C8 C9 N5 119.95(8)
C11 C10 C9 118.09(9)
C10 C11 C12 119.86(8)
C11 C12 C7 121.60(8)
O1 C13 O2 123.80(9)
O1 C13 C7 120.33(8)
O2 C13 C7 115.86(8)
O3 C14 O4 125.49(9)
O3 C14 C8 124.28(9)
O4 C14 C8 110.17(8)
loop_
_geom_bond_atom_site_label_1
_geom_bond_atom_site_label_2
_geom_bond_distance
Cl1 C4 1.7230(10)
N1 C2 1.3525(13)
N1 C6 1.3534(12)
C2 N2 1.3258(13)
C2 N3 1.3348(12)
N3 C4 1.3326(13)
N4 C6 1.3259(13)
C4 C5 1.3681(15)
C5 C6 1.3991(13)
O1 C13 1.2568(11)
O2 C13 1.2569(11)
O3 C14 1.2095(12)
O4 C14 1.3130(12)
O5 N5 1.2240(12)
O6 N5 1.2220(12)
N5 C9 1.4643(12)
C7 C12 1.3928(12)
C7 C8 1.4029(13)
C7 C13 1.5017(13)
C8 C9 1.3906(13)
C8 C14 1.5151(12)
C9 C10 1.3873(13)
C10 C11 1.3812(13)
C11 C12 1.3822(13)
loop_
_geom_hbond_atom_site_label_D
_geom_hbond_atom_site_label_H
_geom_hbond_atom_site_label_A
_geom_hbond_site_symmetry_A
_geom_hbond_distance_DH
_geom_hbond_distance_HA
_geom_hbond_distance_DA
_geom_hbond_angle_DHA
_geom_hbond_publ_flag
N1 H1 O2 1_555 0.88 1.70 2.5477(12) 162 yes
N2 H2A O1 1_555 0.911(17) 2.144(17) 3.0229(13) 161.7(16) yes
N2 H2B N3 2_776 0.92(2) 2.06(2) 2.9725(14) 175.0(17) yes
O4 H4 O1 1_455 0.91(2) 1.68(2) 2.5811(11) 167.5(19) yes
N4 H4A O3 2_566 0.873(15) 2.052(15) 2.9174(12) 171.3(16) yes
N4 H4B O2 1_555 0.836(17) 2.529(19) 3.1465(12) 131.5(17) yes
N4 H4B O3 1_555 0.836(17) 2.488(17) 3.2800(13) 158.5(17) yes
C5 H5 O5 2_566 0.95 2.50 3.4434(14) 170 yes
C11 H11 Cl1 1_546 0.95 2.79 3.5656(10) 140 yes
C11 H11 O6 1_655 0.95 2.55 3.2820(13) 134 yes
C12 H12 O4 1_655 0.95 2.43 3.3321(12) 158 yes

_cod_database_fobs_code 2020765
