#------------------------------------------------------------------------------
#$Date: 2018-01-19 07:29:42 +0200 (Fri, 19 Jan 2018) $
#$Revision: 205401 $
#$URL: file:///home/coder/svn-repositories/cod/cif/2/02/09/2020946.cif $
#------------------------------------------------------------------------------
#
# This file is available in the Crystallography Open Database (COD),
# http://www.crystallography.net/. The original data for this entry
# were provided by IUCr Journals, http://journals.iucr.org/.
#
# The file may be used within the scientific community so long as
# proper attribution is given to the journal article from which the
# data were obtained.
#
data_2020946
loop_
_publ_author_name
'Losev, Evgeniy'
'Boldyreva, Elena'
_publ_section_title
;
 The effect of amino acid backbone length on molecular packing:
 crystalline tartrates of glycine, \b-alanine, \g-aminobutyric acid (GABA)
 and <small>DL</small>-\a-aminobutyric acid (AABA)
;
_journal_issue                   2
_journal_name_full               'Acta Crystallographica Section C'
_journal_page_first
;
;
_journal_paper_doi               10.1107/S2053229617017909
_journal_volume                  74
_journal_year                    2018
_chemical_formula_moiety         'C4 H5.5 O6, C3 H7.5 N O2'
_chemical_formula_sum            'C7 H13 N O8'
_chemical_formula_weight         239.18
_chemical_name_common            'Beta-alanine-DL-tartaric acid (1:1) (III)'
_chemical_name_systematic        'Beta-alanine-DL-tartaric acid (1:1) (III)'
_space_group_crystal_system      triclinic
_space_group_IT_number           2
_space_group_name_Hall           '-P 1'
_space_group_name_H-M_alt        'P -1'
_symmetry_space_group_name_Hall  '-P 1'
_symmetry_space_group_name_H-M   'P -1'
_atom_sites_solution_hydrogens   mixed
_atom_sites_solution_primary     direct
_audit_creation_date             2017-11-16
_audit_creation_method
;
Olex2 1.2
(compiled 2017.08.10 svn.r3458 for OlexSys, GUI svn.r5381)
;
_cell_angle_alpha                108.610(6)
_cell_angle_beta                 97.243(5)
_cell_angle_gamma                92.752(5)
_cell_formula_units_Z            2
_cell_length_a                   4.9216(3)
_cell_length_b                   8.5949(6)
_cell_length_c                   12.1187(7)
_cell_measurement_reflns_used    2996
_cell_measurement_temperature    293
_cell_measurement_theta_max      27.8260
_cell_measurement_theta_min      1.7820
_cell_volume                     479.82(6)
_computing_cell_refinement
;
CrysAlisPro, Agilent Technologies,
Version 1.171.37.35 (release 13-08-2014 CrysAlis171 .NET)
(compiled Aug 13 2014,18:06:01)
;
_computing_data_collection
;
CrysAlisPro, Agilent Technologies,
Version 1.171.37.35 (release 13-08-2014 CrysAlis171 .NET)
(compiled Aug 13 2014,18:06:01)
;
_computing_data_reduction
;
CrysAlisPro, Agilent Technologies,
Version 1.171.37.35 (release 13-08-2014 CrysAlis171 .NET)
(compiled Aug 13 2014,18:06:01)
;
_computing_molecular_graphics    'Olex2 (Dolomanov et al., 2009)'
_computing_publication_material  'Olex2 (Dolomanov et al., 2009)'
_computing_structure_refinement  'ShelXL (Sheldrick, 2015)'
_computing_structure_solution    'ShelXS (Sheldrick, 2008)'
_diffrn_ambient_temperature      293
_diffrn_detector                 'CCD plate'
_diffrn_detector_area_resol_mean 10.3457
_diffrn_detector_type            Ruby
_diffrn_measured_fraction_theta_full 1.000
_diffrn_measured_fraction_theta_max 1.000
_diffrn_measurement_details
;
#__ type_ start__ end____ width___ exp.time_
  1 omega  -76.00  -35.00   1.0000   30.0000
omega____ theta____ kappa____ phi______ frames
    -       23.0467 -178.0000  150.0000 41

#__ type_ start__ end____ width___ exp.time_
  2 omega   38.00   89.00   1.0000   30.0000
omega____ theta____ kappa____ phi______ frames
    -       23.0467 -138.0000   67.0000 51

#__ type_ start__ end____ width___ exp.time_
  3 omega -105.00   26.00   1.0000   30.0000
omega____ theta____ kappa____ phi______ frames
    -      -23.5155  -37.0000 -180.0000 131

#__ type_ start__ end____ width___ exp.time_
  4 omega -120.00  -79.00   1.0000   30.0000
omega____ theta____ kappa____ phi______ frames
    -      -23.5155  -99.0000  -90.0000 41

#__ type_ start__ end____ width___ exp.time_
  5 omega -115.00  -79.00   1.0000   30.0000
omega____ theta____ kappa____ phi______ frames
    -      -23.5155  -57.0000   90.0000 36

#__ type_ start__ end____ width___ exp.time_
  6 omega  -42.00   80.00   1.0000   30.0000
omega____ theta____ kappa____ phi______ frames
    -      -23.5155   77.0000  120.0000 122

#__ type_ start__ end____ width___ exp.time_
  7 omega  -70.00   64.00   1.0000   30.0000
omega____ theta____ kappa____ phi______ frames
    -      -23.5155   57.0000  -90.0000 134

#__ type_ start__ end____ width___ exp.time_
  8 omega  -53.00   13.00   1.0000   30.0000
omega____ theta____ kappa____ phi______ frames
    -      -23.5155  -57.0000   90.0000 66

#__ type_ start__ end____ width___ exp.time_
  9 omega -126.00  -81.00   1.0000   30.0000
omega____ theta____ kappa____ phi______ frames
    -      -23.5155  -99.0000 -150.0000 45

#__ type_ start__ end____ width___ exp.time_
 10 omega  -88.00    1.00   1.0000   30.0000
omega____ theta____ kappa____ phi______ frames
    -      -23.5155  -77.0000   30.0000 89
;
_diffrn_measurement_device       'four-circle diffractometer'
_diffrn_measurement_device_type  'Xcalibur, Ruby, Gemini ultra'
_diffrn_measurement_method       '\w scans'
_diffrn_orient_matrix_UB_11      0.0306420000
_diffrn_orient_matrix_UB_12      0.0758266000
_diffrn_orient_matrix_UB_13      -0.0094447000
_diffrn_orient_matrix_UB_21      0.0237705000
_diffrn_orient_matrix_UB_22      0.0409611000
_diffrn_orient_matrix_UB_23      0.0617270000
_diffrn_orient_matrix_UB_31      0.1406742000
_diffrn_orient_matrix_UB_32      -0.0149227000
_diffrn_orient_matrix_UB_33      0.0013046000
_diffrn_radiation_monochromator  graphite
_diffrn_radiation_probe          x-ray
_diffrn_radiation_type           MoK\a
_diffrn_radiation_wavelength     0.71073
_diffrn_reflns_av_R_equivalents  0.0286
_diffrn_reflns_av_unetI/netI     0.0306
_diffrn_reflns_Laue_measured_fraction_full 1.000
_diffrn_reflns_Laue_measured_fraction_max 1.000
_diffrn_reflns_limit_h_max       6
_diffrn_reflns_limit_h_min       -6
_diffrn_reflns_limit_k_max       10
_diffrn_reflns_limit_k_min       -10
_diffrn_reflns_limit_l_max       15
_diffrn_reflns_limit_l_min       -15
_diffrn_reflns_number            6002
_diffrn_reflns_point_group_measured_fraction_full 1.000
_diffrn_reflns_point_group_measured_fraction_max 1.000
_diffrn_reflns_theta_full        25.242
_diffrn_reflns_theta_max         26.371
_diffrn_reflns_theta_min         1.793
_diffrn_source                   'Enhance (Mo) X-ray Source'
_exptl_absorpt_coefficient_mu    0.153
_exptl_absorpt_correction_T_max  1.00000
_exptl_absorpt_correction_T_min  0.96491
_exptl_absorpt_correction_type   multi-scan
_exptl_absorpt_process_details
;
CrysAlisPro, Agilent Technologies,
Version 1.171.37.35 (release 13-08-2014 CrysAlis171 .NET)
(compiled Aug 13 2014,18:06:01)
Empirical absorption correction using spherical harmonics,
 implemented in SCALE3 ABSPACK scaling algorithm.
;
_exptl_crystal_colour            colourless
_exptl_crystal_colour_primary    colourless
_exptl_crystal_density_diffrn    1.655
_exptl_crystal_description       block
_exptl_crystal_F_000             252
_exptl_crystal_recrystallization_method 'antisolvent crystallization'
_exptl_crystal_size_max          0.3
_exptl_crystal_size_mid          0.14
_exptl_crystal_size_min          0.12
_refine_diff_density_max         0.248
_refine_diff_density_min         -0.270
_refine_diff_density_rms         0.060
_refine_ls_extinction_method     none
_refine_ls_goodness_of_fit_ref   1.040
_refine_ls_hydrogen_treatment    mixed
_refine_ls_matrix_type           full
_refine_ls_number_parameters     154
_refine_ls_number_reflns         1962
_refine_ls_number_restraints     0
_refine_ls_restrained_S_all      1.040
_refine_ls_R_factor_all          0.0499
_refine_ls_R_factor_gt           0.0397
_refine_ls_shift/su_max          0.000
_refine_ls_shift/su_mean         0.000
_refine_ls_structure_factor_coef Fsqd
_refine_ls_weighting_details
'w=1/[\s^2^(Fo^2^)+(0.0465P)^2^+0.2431P] where P=(Fo^2^+2Fc^2^)/3'
_refine_ls_weighting_scheme      calc
_refine_ls_wR_factor_gt          0.0968
_refine_ls_wR_factor_ref         0.1066
_reflns_Friedel_coverage         0.000
_reflns_number_gt                1626
_reflns_number_total             1962
_reflns_threshold_expression     'I > 2\s(I)'
_cod_data_source_file            sk3677sup7.cif
_cod_data_source_block           beta-ala_DL-tart_(III)
_cod_database_code               2020946
_shelx_shelxl_version_number     2017/1
_shelx_space_group_comment
;
The symmetry employed for this shelxl refinement is uniquely defined
by the following loop, which should always be used as a source of
symmetry information in preference to the above space-group names.
They are only intended as comments.
;
_reflns_odcompleteness_completeness 100.00
_reflns_odcompleteness_iscentric 1
_reflns_odcompleteness_theta     26.32
_olex2_refinement_description
;
1. Fixed Uiso
 At 1.2 times of:
  All C(H) groups, All C(H,H) groups, All O(H) groups
 At 1.5 times of:
  All N(H,H,H) groups
2. Others
 Fixed Sof: H6(0.5) H8(0.5)
3.a Ternary CH refined with riding coordinates:
 C3(H3A), C2(H2)
3.b Secondary CH2 refined with riding coordinates:
 C7(H7A,H7B), C6(H6A,H6B)
3.c Idealised Me refined as rotating group:
 N1(H1A,H1B,H1C)
3.d Idealised tetrahedral OH refined as rotating group:
 O6(H6), O4(H4), O1(H1), O8(H8)
;
_shelx_res_file
;
TITL test_BT in P-1 #2
    test_bt.res
    created by SHELXL-2017/1 at 14:55:29 on 16-Nov-2017
REM reset to P-1 #2
CELL 0.71073 4.921645 8.594858 12.118742 108.6098 97.2431 92.7516
ZERR 2 0.000291 0.000637 0.000744 0.0061 0.005 0.0054
LATT 1
SFAC C H N O
UNIT 14 26 2 16
EQIV $1 1-X,2-Y,-Z
EQIV $2 -X,1-Y,-Z
EQIV $3 1+X,+Y,+Z
EQIV $4 2-X,2-Y,1-Z
EQIV $5 +X,-1+Y,+Z
EQIV $6 1-X,1-Y,-Z
EQIV $7 -1+X,-1+Y,+Z

L.S. 10
PLAN  10
TEMP 20
HTAB O3 O4_$1
HTAB O4 O3_$3
HTAB O1 O7_$4
HTAB N1 O5_$2
HTAB N1 O2_$5
HTAB N1 O4_$6
HTAB N1 O5_$6
HTAB N1 O2_$7
BOND $H
BOND
CONF
fmap 2
acta
SHEL 40 0.8
REM <olex2.extras>
REM <HklSrc "%.\\test_BT.hkl">
REM </olex2.extras>

WGHT    0.046500    0.243100
FVAR       6.61811
O3    4    0.269296    0.993551    0.131922    11.00000    0.01989    0.02850 =
         0.02797    0.00994   -0.00195    0.00367
O6    4    0.193207    0.594620    0.065797    11.00000    0.02484    0.03101 =
         0.02717    0.00820   -0.00248   -0.01235
AFIX 147
H6    2    0.065773    0.536572    0.017916    10.50000   -1.20000
AFIX   0
O4    4    0.745994    0.846493    0.029919    11.00000    0.01840    0.03182 =
         0.02760    0.00921    0.00344   -0.00722
AFIX 147
H4    2    0.900883    0.878024    0.066977    11.00000   -1.20000
AFIX   0
O1    4    0.883065    0.976851    0.317133    11.00000    0.02429    0.02659 =
         0.02930    0.00497   -0.01035   -0.00292
AFIX 147
H1    2    0.997819    1.049386    0.361499    11.00000   -1.20000
AFIX   0
O5    4    0.322096    0.635806   -0.093392    11.00000    0.02598    0.04558 =
         0.02133    0.00627   -0.00252   -0.00827

O8    4    0.435326    0.854974    0.440495    11.00000    0.04323    0.02176 =
         0.03010    0.00374   -0.00438    0.00299
AFIX 147
H8    2    0.495319    0.947855    0.484084    10.50000   -1.20000
AFIX   0

O2    4    0.697667    1.187914    0.276134    11.00000    0.03607    0.02170 =
         0.05509    0.01018   -0.01301   -0.00536
C3    1    0.585100    0.779564    0.096004    11.00000    0.01543    0.01879 =
         0.02143    0.00783   -0.00082   -0.00209
AFIX  13
H3A   2    0.701029    0.719102    0.136734    11.00000   -1.20000
AFIX   0
C2    1    0.465821    0.915871    0.187158    11.00000    0.01730    0.01929 =
         0.02014    0.00672   -0.00107   -0.00138
AFIX  13
H2    2    0.373977    0.866087    0.236632    11.00000   -1.20000
AFIX   0

N1    3    0.208090    0.363070    0.230883    11.00000    0.02364    0.02330 =
         0.03053    0.00169   -0.00370   -0.00194
AFIX 137
H1A   2    0.315364    0.365051    0.177371    11.00000   -1.50000
H1B   2    0.033601    0.338620    0.196453    11.00000   -1.50000
H1C   2    0.257290    0.287111    0.263157    11.00000   -1.50000
AFIX   0
O7    4    0.767537    0.777507    0.549073    11.00000    0.05057    0.03153 =
         0.04684    0.00680   -0.02698   -0.00985
C5    1    0.586570    0.750185    0.463366    11.00000    0.02513    0.02382 =
         0.02560    0.00684   -0.00133   -0.00530

C1    1    0.693707    1.043625    0.265585    11.00000    0.01903    0.02333 =
         0.01854    0.00468    0.00028   -0.00103
C4    1    0.350105    0.660620    0.012816    11.00000    0.01599    0.01830 =
         0.02369    0.00508   -0.00033    0.00089
C7    1    0.238105    0.527064    0.323632    11.00000    0.02176    0.02319 =
         0.02622   -0.00042   -0.00072    0.00160
AFIX  23
H7A   2    0.136254    0.522105    0.386124    11.00000   -1.20000
H7B   2    0.162635    0.607582    0.290617    11.00000   -1.20000
AFIX   0
C6    1    0.536807    0.579204    0.373176    11.00000    0.02251    0.02550 =
         0.03149    0.00272   -0.00158    0.00063
AFIX  23
H6A   2    0.638757    0.575824    0.309097    11.00000   -1.20000
H6B   2    0.607576    0.500783    0.409382    11.00000   -1.20000
AFIX   0

H3    2    0.317623    1.025078    0.086495    11.00000    0.09400
HKLF 4




REM  test_BT in P-1 #2
REM R1 =  0.0397 for    1626 Fo > 4sig(Fo)  and  0.0499 for all    1962 data
REM    154 parameters refined using      0 restraints

END

WGHT      0.0465      0.2431

REM Highest difference peak  0.248,  deepest hole -0.270,  1-sigma level  0.060
Q1    1   0.5820  0.9765  0.2222  11.00000  0.05    0.25
Q2    1   0.4814  0.7119  0.0567  11.00000  0.05    0.23
Q3    1   0.6288  0.8767 -0.0189  11.00000  0.05    0.19
Q4    1   0.5304  0.8469  0.1420  11.00000  0.05    0.19
Q5    1   0.6334  0.8399 -0.0348  11.00000  0.05    0.19
Q6    1   0.0940  0.9482  0.1146  11.00000  0.05    0.19
Q7    1   0.8779  0.8470  0.2808  11.00000  0.05    0.16
Q8    1   0.8086  0.6151  0.0572  11.00000  0.05    0.15
Q9    1   0.0656  0.5853  0.3460  11.00000  0.05    0.15
Q10   1   0.7465  0.6381  0.5551  11.00000  0.05    0.15
;
_shelx_res_checksum              47592
_shelx_hkl_file
;
   0   0  -1 13801.9 182.382   7
   0   0  -1 13566.8 175.287   8
   0   0  -2 5467.33 145.570   6
   0   0  -2 5213.96 160.418   7
   0   0   2 5490.05 146.596   6
   0   0  -3 8582.19 148.143   9
   0   0   3 9125.12 154.795   9
   0   0   3 8544.10 229.237   6
   0   0  -3 8294.89 248.740   7
   0   0  -4 4487.73 212.669   7
   0   0  -4 4466.89 123.610   9
   0   0   4 4683.14 193.547   6
   0   0  -5 21436.5 527.325   7
   0   0   5 22211.8 470.077   6
   0   0   5 20706.9 474.756   3
   0   0  -5 20983.6 298.381   9
   0   0  -6 8045.44 351.683   7
   0   0   6 7595.20 316.592   3
   0   0   6 7685.21 306.993   6
   0   0   7 2741.29 198.790   6
   0   0   7 2455.62 195.057   3
   0   0  -7 2728.56 223.241   7
   0   0   8 3565.46 243.382   6
   0   0   8 3075.68 237.464   3
   0   0  -8 3134.91 258.104   7
   0   0   9 5434.90 338.579   3
   0   0   9 5898.74 330.541   6
   0   0  -9 5649.01 368.650   7
   0   0  10 290.718 73.7728   6
   0   0 -10 339.102 107.309   7
   0   0  10 237.737 73.4134   3
   0   0  11 2950.27 261.895   6
   0   0 -11 2587.09 284.415   7
   0   0  11 2673.73 267.767   3
   0   0  12 162.264 68.2604   6
   0   0 -12 101.426 70.6177   7
   0   0  12 181.457 76.7320   3
   0   0  13 111.830 73.7415   3
   0   0 -13 250.130 104.859   7
   0   0  14 668.313 158.361   3
   0   0 -14 825.871 186.497   7
   0   0  15-55.1234 53.8820   3
   0  -1  15 482.249 123.761   3
   0  -1  14 768.428 164.214   6
   0   1 -14 656.905 167.196   7
   0  -1  14 641.273 151.197   3
   0   1 -13 4019.49 390.400   7
   0  -1  13 4654.90 383.975   3
   0  -1  13 3675.28 329.907   6
   0  -1  12 1793.61 226.563   3
   0  -1  12 1883.69 228.986   6
   0   1 -12 2041.00 261.821   7
   0  -1  11 786.613 139.252   6
   0   1 -11 601.201 137.122   7
   0  -1  11 547.586 122.310   3
   0   1 -10 2272.50 246.191   7
   0  -1  10 2821.20 253.158   6
   0  -1  10 2143.13 224.247   3
   0   1  -9 186.875 42.4999   9
   0  -1   9 118.078 49.1753   6
   0   1  -9 140.075 71.5958   7
   0   1  -8 1274.35 166.113   7
   0  -1   8 1113.16 142.400   6
   0   1  -8 1190.19 99.6740   9
   0  -1   7 1675.96 163.322   6
   0   1  -7 1661.17 113.052   9
   0   1  -7 1755.20 165.742   8
   0   1  -7 1647.80 170.717   7
   0   1  -6 456.189 56.9658   9
   0  -1   6 451.079 77.4035   6
   0   1  -6 428.246 79.4361   8
   0  -1   5 1503.32 128.253   6
   0   1  -5 1756.39 135.902   8
   0   1  -5 1659.36 99.7735   9
   0  -1   4 229.809 47.7565   6
   0   1  -4 213.335 45.2965   8
   0  -1   3 140698. 991.878   6
   0   1  -3 146648. 936.760   8
   0   1  -2 21370.4 306.559   3
   0  -1   2 20389.1 322.959   6
   0   1  -2 20976.9 294.097   8
   0  -1   2 21402.9 296.481   8
   0  -1   1 591.322 45.4765   6
   0  -1   1 536.842 40.5866   7
   0  -1   1 611.104 45.8644  10
   0   1  -1 512.476 41.7472   3
   0   1   0 14314.3 208.060   3
   0  -1   0 14858.7 212.278  10
   0  -1   0 14316.3 197.710   7
   0  -1   0 14383.3 210.688   5
   0  -1  -1 7399.06 122.522   6
   0  -1  -1 7274.01 184.232   5
   0  -1  -1 7032.75 173.061   7
   0   1   1 7237.29 171.230   3
   0   1   1 7708.24 155.991  10
   0   1   1 7124.93 119.707   6
   0  -1  -1 7365.87 154.284  10
   0   1   2 3076.88 111.618  10
   0  -1  -2 3242.72 105.443   6
   0   1   2 2976.37 99.7058   6
   0  -1  -2 3127.09 109.571  10
   0  -1  -2 2937.48 137.726   7
   0   1   2 2949.91 131.642   3
   0  -1  -3 16053.5 278.977  10
   0   1   3 16057.9 353.831   3
   0   1   3 15814.0 282.149   6
   0  -1  -3 15805.0 371.125   7
   0   1   4 8460.26 172.749   9
   0  -1  -4 7824.13 219.622  10
   0   1   4 7587.97 275.738   3
   0  -1  -4 7649.97 290.423   7
   0   1   4 7818.82 231.732   6
   0   1   5 1711.07 81.6736   9
   0  -1  -5 1344.00 100.251  10
   0   1   5 1381.78 129.644   3
   0   1   5 1513.26 115.213   6
   0  -1  -5 1672.39 152.569   7
   0   1   6 15626.6 474.515   3
   0  -1  -6 15625.1 368.304  10
   0   1   6 15350.4 407.726   6
   0  -1  -6 16354.6 517.210   7
   0   1   7 61584.8 889.944   6
   0  -1  -7 60788.6 1085.01   7
   0  -1  -7 61851.0 776.824  10
   0   1   7 58328.8 1003.79   3
   0   1   8 39.3197 24.6063   6
   0   1   8 53.8789 41.4627   3
   0  -1  -8 70.4643 29.0004  10
   0  -1  -8 62.5589 55.3367   7
   0   1   9 324.690 74.3903   6
   0  -1  -9 393.370 101.789   7
   0   1   9 259.904 85.9110   3
   0   1  10 55.7540 40.8540   6
   0  -1 -10 46.1314 51.1261   7
   0   1  10-32.2332 34.3176   3
   0  -1 -11 285.324 102.811   7
   0   1  11 374.979 108.662   3
   0   1  12 160.316 73.6635   3
   0  -1 -12 150.598 81.8955   7
   0  -1 -13 1094.54 211.628   7
   0   1  13 1321.92 216.684   3
   0  -1 -13 1628.36 260.250   5
   0   1  14-65.0920 59.0938   3
   0  -1 -14 78.0724 67.7007   5
   0  -2  15 1149.03 210.328   3
   0  -2  15 1496.57 235.954   6
   0  -2  14 687.056 152.763   3
   0   2 -14 665.089 165.386   7
   0  -2  14 807.653 169.988   6
   0   2 -13 2054.03 277.086   7
   0  -2  13 1796.33 241.180   3
   0  -2  13 2124.33 258.493   6
   0   2 -12 309.810 115.731   7
   0  -2  12 248.253 78.3978   6
   0   2 -11 8319.52 501.937   7
   0  -2  11 8727.17 483.436   6
   0   2 -10 4200.40 332.521   7
   0   2 -10 3897.48 300.385   8
   0  -2  10 3996.47 312.930   6
   0   2 -10 4004.44 218.577   9
   0   2  -9 68.6908 33.6062   9
   0   2  -9-4.09907 28.8050   8
   0  -2   9-34.7955 35.4685   6
   0   2  -8 6433.98 261.536   9
   0  -2   8 5955.34 336.654   6
   0   2  -8 6275.09 329.060   8
   0  -2   7 2015.06 183.720   6
   0   2  -7 1812.02 164.285   8
   0   2  -7 1920.71 137.909   9
   0  -2   6 9237.39 363.191   6
   0   2  -6 9416.12 338.956   8
   0   2  -5 8015.18 285.439   8
   0  -2   5 8651.53 324.648   6
   0  -2   4 2394.02 158.917   6
   0   2  -4 2303.39 140.708   8
   0   2  -3 5776.42 208.490   3
   0  -2   3 5772.73 223.129   6
   0   2  -3 5819.23 197.458   8
   0   2  -2 181394. 1086.92   3
   0  -2   2 177162. 1041.06   7
   0   2  -2 182226. 687.356   4
   0  -2   1 459.482 55.0980  10
   0  -2   1 475.212 52.1236   6
   0  -2   1 528.606 54.9770   7
   0   2  -1 537.222 56.4318   3
   0   2   0 1260.07 88.9445   3
   0  -2   0 1274.16 88.1233  10
   0  -2   0 1218.54 83.3023   7
   0  -2  -1 12330.5 273.797  10
   0  -2  -1 12069.6 285.412   7
   0   2   1 12272.3 292.609   3
   0  -2  -1 12907.4 206.471   6
   0  -2  -1 11811.2 302.106   5
   0   2   2 5741.30 219.532   3
   0  -2  -2 6145.67 198.224  10
   0  -2  -2 5805.51 221.459   7
   0  -2  -2 6065.92 157.497   6
   0  -2  -2 5643.89 232.209   5
   0   2   3 27804.8 526.122   3
   0  -2  -3 28614.6 552.425   7
   0   2   3 27618.6 378.822   6
   0  -2  -3 27903.0 446.739  10
   0  -2  -3 28534.0 571.597   5
   0   2   4 67082.0 666.469   6
   0  -2  -4 65291.5 718.241  10
   0   2   4 67450.1 885.135   3
   0  -2  -4 64507.9 917.295   7
   0  -2  -4 63302.1 922.380   5
   0  -2  -5 51.9424 35.9723   7
   0   2   5 15.8121 17.3786   6
   0  -2  -5 26.1908 38.1763   5
   0   2   5-9.43629 22.8665   3
   0  -2  -5 9.77764 15.8501  10
   0  -2  -6 8304.82 388.658   7
   0  -2  -6 7471.17 270.350  10
   0  -2  -6 6900.46 357.273   5
   0   2   6 7359.77 274.746   6
   0   2   6 7342.99 344.289   3
   0   2   7 43.8139 29.1069   6
   0   2   7 17.1896 32.6283   3
   0  -2  -7 3.59579 29.1171   5
   0  -2  -7-29.0883 46.1500   7
   0  -2  -7-19.9470 19.7385  10
   0  -2  -8 2645.83 180.004  10
   0  -2  -8 2840.89 262.947   7
   0   2   8 2841.74 201.399   6
   0   2   8 2640.19 238.331   3
   0  -2  -8 2672.50 253.671   5
   0   2   9 4112.93 258.527   6
   0  -2  -9 3843.18 328.267   7
   0  -2  -9 3877.75 323.329   5
   0   2   9 3541.31 289.574   3
   0  -2 -10 2998.58 307.335   7
   0  -2 -10 3183.19 309.544   5
   0   2  10 3069.11 285.965   3
   0  -2 -11 2556.54 299.271   7
   0   2  11 2296.90 260.741   3
   0  -2 -11 2443.84 286.100   5
   0  -2 -12 787.829 175.199   5
   0  -2 -12 1406.83 234.015   7
   0   2  12 1134.35 195.360   3
   0  -2 -13 55.1036 67.8313   7
   0  -2 -13-27.3793 50.4472   5
   0  -3  16 78.6753 64.4245   6
   0  -3  15 3649.50 384.433   6
   0  -3  15 3006.75 342.531   3
   0   3 -15 2746.47 353.473   7
   0   3 -14 420.432 125.976   7
   0  -3  14 617.902 159.207   6
   0  -3  13 4957.60 417.488   6
   0   3 -13 5065.18 434.816   7
   0   3 -12 1627.42 235.441   7
   0   3 -12 1485.24 209.388   8
   0  -3  12 1028.39 182.670   6
   0  -3  11 168.953 81.6676   6
   0   3 -11 17.9414 40.1481   8
   0   3 -11 105.977 59.8624   7
   0   3 -10 1334.00 172.758   8
   0   3 -10 1479.96 147.423   9
   0  -3  10 1536.57 199.229   6
   0   3  -9 2790.26 197.865   9
   0   3  -9 2869.22 237.072   8
   0  -3   9 3034.45 263.763   6
   0  -3   8 918.688 143.104   6
   0   3  -8 1025.86 118.941   9
   0   3  -8 818.095 118.760   8
   0  -3   7 29946.5 733.017   6
   0   3  -7 31599.0 338.137   1
   0   3  -7 29186.5 662.151   8
   0   3  -6 934.741 110.182   8
   0  -3   6 1014.45 128.152   6
   0   3  -5 6149.66 273.126   3
   0  -3   5 5984.72 288.535   6
   0   3  -5 6334.96 264.897   8
   0   3  -4 10895.2 321.124   8
   0   3  -4 10990.4 345.641   3
   0  -3   4 11050.9 364.887   6
   0   3  -3 16281.2 403.056   3
   0  -3   3 17114.3 190.385   1
   0   3  -3 16917.1 248.507   4
   0  -3   3 16691.8 411.469   6
   0  -3   3 16064.6 384.530   7
   0  -3   2 175.856 42.8013   7
   0  -3   2 175.403 49.2400  10
   0   3  -2 128.278 39.3328   3
   0  -3   2 160.554 40.8066   6
   0  -3   1 4750.71 195.699   7
   0  -3   1 4731.94 187.386   6
   0  -3   1 5055.38 216.940  10
   0   3  -1 4641.75 201.827   3
   0   3   0 991.868 97.6770   3
   0  -3   0 1000.37 92.6796   7
   0  -3   0 1201.39 103.551  10
   0  -3  -1 76942.0 833.704  10
   0  -3  -1 76487.2 915.600   5
   0  -3  -1 77158.2 854.181   7
   0   3   1 78584.9 882.864   3
   0   3   2 43402.8 700.547   3
   0  -3  -2 44225.2 742.281   5
   0  -3  -2 43963.8 640.146  10
   0  -3  -2 43787.2 700.179   7
   0  -3  -3 189.318 53.0799   5
   0  -3  -3 338.337 69.2302   7
   0  -3  -3 223.367 48.8114  10
   0   3   3 262.759 59.8186   3
   0  -3  -4 1561.29 129.623  10
   0   3   4 1634.69 154.642   3
   0  -3  -4 1554.69 163.590   5
   0  -3  -4 1494.17 154.958   7
   0  -3  -5 1837.75 188.823   5
   0   3   5 2053.31 131.114   6
   0  -3  -5 2045.34 151.361  10
   0   3   5 1831.70 176.291   3
   0  -3  -5 1822.15 180.770   7
   0   3   6 2534.39 160.059   6
   0  -3  -6 2531.27 230.206   7
   0  -3  -6 2211.47 220.974   5
   0   3   6 2259.24 208.048   3
   0  -3  -6 2550.80 174.055  10
   0  -3  -7 3794.48 299.704   7
   0  -3  -7 4251.35 232.661  10
   0  -3  -7 3764.32 304.896   5
   0   3   7 3803.44 280.763   3
   0   3   7 3808.41 210.526   6
   0  -3  -8 8415.91 474.626   7
   0  -3  -8 8042.99 470.124   5
   0   3   8 8532.15 446.091   3
   0   3   9 90.0772 58.7596   3
   0  -3  -9-39.2023 55.2483   7
   0  -3  -9-7.23786 47.4884   5
   0  -3 -10 825.436 175.013   5
   0   3  10 623.738 135.298   3
   0  -3 -10 670.581 145.918   7
   0  -3 -11 555.113 145.712   7
   0  -3 -11 653.302 164.334   5
   0   3  11 625.743 142.434   3
   0   3  12 165.631 82.0067   3
   0  -3 -12 84.9847 71.5009   5
   0  -3 -12 313.582 118.867   7
   0   3  13-74.3774 65.2758   3
   0  -4  15 2081.44 300.388   6
   0   4 -15 1808.83 292.073   7
   0   4 -14 197.248 126.142   7
   0  -4  14 74.5312 81.8825   6
   0   4 -13 157.791 76.7668   8
   0  -4  13 8.66655 40.9573   6
   0   4 -13 181.170 98.5695   7
   0   4 -12 515.136 124.608   8
   0  -4  12 603.347 149.203   6
   0   4 -11 2753.87 228.071   9
   0  -4  11 2900.09 297.957   6
   0   4 -11 2838.60 268.987   8
   0   4 -10 432.764 98.6497   8
   0   4 -10 341.928 83.7264   9
   0  -4  10 434.244 111.636   6
   0   4  -9 1804.28 189.072   8
   0  -4   9 1932.20 218.412   6
   0  -4   8 255.156 82.8759   6
   0   4  -8 226.286 63.4562   8
   0  -4   7 680.799 118.104   6
   0   4  -7 630.532 100.247   8
   0   4  -6 30440.5 650.694   8
   0  -4   6 30999.4 741.057   6
   0   4  -6 29782.4 684.326   3
   0   4  -5 11463.4 378.286   8
   0   4  -5 11977.0 417.593   3
   0  -4   5 11895.5 434.023   6
   0  -4   4 14.8956 22.9948   7
   0  -4   4 90.3936 46.3705   6
   0   4  -4 14.8689 13.3611   4
   0   4  -4 51.0347 33.3640   3
   0  -4   4 23.9152 8.70837   1
   0  -4   3 6262.60 289.470  10
   0  -4   3 6073.85 264.932   7
   0   4  -3 6129.66 278.714   3
   0   4  -3 6309.73 202.958   4
   0  -4   3 6480.03 280.627   6
   0  -4   2 2468.08 162.007   6
   0   4  -2 2270.72 166.517   3
   0  -4   2 2664.41 185.100  10
   0  -4   2 2326.18 158.692   7
   0  -4   1 17859.1 410.174   6
   0   4  -1 17447.6 456.803   3
   0  -4   1 18793.4 480.961  10
   0  -4   1 18288.3 445.393   7
   0  -4   0 930.306 108.975  10
   0   4   0 983.987 111.534   3
   0  -4   0 1094.88 112.406   7
   0   4   1 27026.9 598.973   3
   0  -4  -1 29267.3 596.788  10
   0  -4  -1 28790.5 641.804   5
   0  -4  -1 28278.0 586.909   7
   0  -4  -2 5783.86 304.672   5
   0  -4  -2 5655.40 267.327  10
   0  -4  -2 5056.79 265.990   7
   0   4   2 5277.37 278.904   3
   0  -4  -3 13438.6 494.215   5
   0  -4  -3 12455.8 442.416   7
   0   4   3 12480.5 445.751   3
   0  -4  -3 13074.7 412.486  10
   0  -4  -4 13191.2 421.646  10
   0   4   4 13215.4 482.529   3
   0  -4  -4 13042.5 513.350   5
   0  -4  -4 13224.0 486.351   7
   0  -4  -5 18829.1 517.854  10
   0  -4  -5 17537.0 600.277   7
   0   4   5 17470.0 587.166   3
   0  -4  -5 18463.7 645.618   5
   0   4   6 274.138 78.5461   3
   0  -4  -6 216.922 74.4253   7
   0  -4  -6 286.436 87.8211   5
   0  -4  -6 208.466 55.7791  10
   0   4   7 7331.95 420.851   3
   0  -4  -7 7172.07 429.838   7
   0  -4  -7 7656.22 467.081   5
   0   4   8 614.822 129.965   3
   0  -4  -8 653.403 143.599   5
   0  -4  -8 706.459 147.629   7
   0  -4  -9 141.155 81.5593   7
   0  -4  -9-4.46626 33.0170   5
   0   4   9 76.3431 64.7708   3
   0   4  10-139.180 73.8019   3
   0  -4 -10-26.4643 40.3514   7
   0  -4 -11 57.2836 57.1948   7
   0  -4 -11-3.61124 35.5933   5
   0   4  11 55.2817 53.3630   3
   0   4  12 132.746 78.1425   3
   0  -5  15 70.8253 64.9275   6
   0   5 -15 331.480 131.783   8
   0   5 -15 221.745 100.139   7
   0   5 -14 91.3171 88.1731   7
   0  -5  14-45.6103 66.2317   6
   0   5 -14-46.2989 52.9399   8
   0   5 -13-31.1617 42.5699   8
   0  -5  13 18.8429 50.0917   6
   0   5 -12 1486.72 186.787   9
   0   5 -12 1607.70 215.435   8
   0  -5  12 1619.28 243.004   6
   0  -5  11 171.411 91.0872   6
   0   5 -11 89.5860 56.7994   8
   0   5 -11 246.041 85.5962   9
   0  -5  10 193.563 81.7527   6
   0   5 -10 77.3903 57.4771   8
   0  -5   9 4519.13 345.523   6
   0   5  -9 3953.41 285.488   8
   0  -5   8 15992.2 621.429   6
   0   5  -8 16353.0 555.561   8
   0  -5   7 2989.19 255.629   6
   0   5  -7 2931.96 227.733   8
   0   5  -7 2893.02 239.065   3
   0  -5   6 4663.34 305.860   6
   0   5  -6 4271.44 261.609   8
   0   5  -6 4452.83 287.822   3
   0   5  -5 1099.12 128.857   8
   0  -5   5 1089.69 140.207   6
   0   5  -5 1230.58 84.4975   4
   0   5  -5 1084.52 140.796   3
   0  -5   4 10061.1 391.486   7
   0  -5   4 10783.4 413.450   6
   0   5  -4 10984.2 424.130   3
   0   5  -4 10741.4 292.199   4
   0  -5   3 3440.57 240.100  10
   0   5  -3 3261.54 226.860   3
   0  -5   3 2959.79 205.655   7
   0  -5   3 3207.91 217.362   6
   0  -5   2 2265.65 170.198   6
   0  -5   2 2205.53 176.473   7
   0   5  -2 2084.07 179.175   3
   0  -5   2 2481.29 202.113  10
   0  -5   1 5164.05 268.399   7
   0   5  -1 5430.94 293.403   3
   0  -5   1 5401.22 248.744   6
   0  -5   1 5415.87 293.075  10
   0  -5   0 42508.8 662.245   6
   0  -5   0 41544.1 775.468   7
   0   5   0 42710.0 821.659   3
   0  -5   0 40320.3 795.747  10
   0  -5  -1 15751.2 498.126  10
   0  -5  -1 15915.4 497.605   7
   0   5   1 15137.2 505.018   3
   0  -5  -2 904.230 133.074   5
   0  -5  -2 922.353 123.661  10
   0   5   2 1202.81 150.431   3
   0  -5  -2 1083.52 136.667   7
   0   5   3 76.7476 56.3893   3
   0  -5  -3 85.1818 52.9505   5
   0  -5  -3 125.743 63.2224   7
   0  -5  -3 61.9347 42.1967  10
   0  -5  -4 353.127 78.5947  10
   0   5   4 304.969 82.4806   3
   0  -5  -4 325.284 92.4347   5
   0  -5  -4 328.118 91.4765   7
   0   5   5 22603.4 721.201   3
   0  -5  -5 26456.7 672.117  10
   0  -5  -5 24635.7 810.766   5
   0  -5  -5 23158.7 739.653   7
   0   5   6 3595.12 302.478   3
   0  -5  -6 4232.36 331.691   7
   0  -5  -6 3927.88 339.380   5
   0  -5  -7 510.737 131.082   7
   0  -5  -7 663.350 153.275   5
   0   5   7 720.085 146.467   3
   0  -5  -8 3829.34 351.352   7
   0  -5  -8 3293.42 343.637   5
   0   5   8 3430.99 321.944   3
   0  -5  -9 1319.15 221.707   7
   0   5   9 1647.20 236.807   3
   0  -5  -9 1835.22 258.793   5
   0  -5 -10 594.438 154.259   7
   0   5  10 561.841 146.467   3
   0  -5 -10 620.670 165.703   5
   0  -5 -11 425.378 136.034   7
   0   5  11 159.236 82.8841   3
   0   6 -15 290.257 107.379   8
   0   6 -14 307.205 109.474   8
   0  -6  14 169.765 103.294   6
   0   6 -13 328.038 106.128   8
   0  -6  13 336.204 125.416   6
   0   6 -12 1818.97 219.105   9
   0   6 -12 1802.47 228.776   8
   0  -6  12 1972.53 266.018   6
   0  -6  11 5647.35 437.325   6
   0   6 -11 5469.24 382.197   8
   0  -6  10 79.7233 62.5036   6
   0   6 -10 22.7755 43.5561   8
   0  -6   9 8447.70 490.817   6
   0   6  -9 8237.37 431.921   8
   0   6  -8 2572.48 247.195   3
   0   6  -8 2547.72 231.655   8
   0  -6   8 2575.65 262.227   6
   0  -6   7 10657.6 507.828   6
   0   6  -7 10741.8 456.110   8
   0   6  -7 10361.4 483.750   3
   0  -6   6 7.35449 30.9651   6
   0   6  -6 6.91077 29.1430   3
   0   6  -6 45.3697 37.5304   8
   0   6  -5 9403.65 285.529   4
   0  -6   5 8705.79 420.018   6
   0   6  -5 8270.64 416.881   3
   0  -6   5 8400.12 395.837   7
   0  -6   4 52.2568 38.1459   7
   0  -6   4 79.7295 42.5083   6
   0   6  -4 80.9012 35.9580   4
   0   6  -4 3.58767 30.5945   3
   0  -6   3 3151.86 228.010   6
   0  -6   3 3048.35 224.792   7
   0  -6   3 3392.59 261.854  10
   0   6  -3 2910.70 236.614   3
   0  -6   2 5028.36 290.355   7
   0   6  -2 4798.10 299.799   3
   0  -6   2 5207.40 278.635   6
   0  -6   2 5334.29 323.901  10
   0  -6   1 18088.8 556.289   7
   0  -6   1 18617.4 601.510  10
   0   6  -1 17585.6 576.466   3
   0  -6   1 18841.2 502.802   6
   0  -6   0 4563.37 241.011   6
   0   6   0 4278.49 291.692   3
   0  -6   0 4359.64 289.599  10
   0  -6   0 4283.57 279.454   7
   0  -6  -1 1057.54 144.060  10
   0   6   1 808.050 128.868   3
   0  -6  -1 1222.90 118.479   6
   0  -6  -1 1117.83 150.633   7
   0   6   2 173.436 70.1825   3
   0  -6  -2 347.328 87.6779   7
   0  -6  -2 185.134 62.8541  10
   0  -6  -3 4534.90 341.570   5
   0  -6  -3 4832.05 307.715  10
   0  -6  -3 5028.62 331.994   7
   0   6   3 4812.06 336.941   3
   0  -6  -4 3370.45 284.078   7
   0  -6  -4 3598.93 320.811   5
   0  -6  -4 3384.53 260.048  10
   0   6   4 3251.58 285.879   3
   0   6   5 4976.59 365.680   3
   0  -6  -5 5467.21 409.654   5
   0  -6  -5 5728.34 342.358  10
   0  -6  -5 4576.58 347.965   7
   0  -6  -6 1336.79 211.568   5
   0  -6  -6 1265.65 194.638   7
   0   6   6 1312.90 196.522   3
   0  -6  -7 4290.00 393.861   5
   0   6   7 3990.76 354.031   3
   0  -6  -7 4468.41 387.699   7
   0   6   8 331.198 107.589   3
   0  -6  -8 285.215 109.021   7
   0  -6  -8 613.276 158.074   5
   0  -6  -9 325.822 145.719   5
   0  -6  -9 362.807 134.335   7
   0   6   9 362.031 122.763   3
   0  -6 -10-91.5221 70.3040   7
   0   7 -14 170.435 83.1222   8
   0  -7  14 148.930 94.8462   6
   0   7 -13 631.654 138.721   9
   0   7 -13 552.675 142.390   8
   0  -7  13 708.066 176.174   6
   0  -7  12 1095.23 204.330   6
   0   7 -12 589.112 139.073   8
   0   7 -11 5481.31 392.872   8
   0  -7  11 6116.23 473.086   6
   0  -7  10 22626.8 874.732   6
   0   7 -10 21871.7 758.808   8
   0   7  -9 553.867 116.469   8
   0  -7   9 576.810 134.775   6
   0   7  -9 300.211 101.286   3
   0   7  -8 75.3547 52.1965   8
   0   7  -8 79.6267 54.4501   3
   0  -7   8 97.6325 71.2245   6
   0  -7   7 60.7532 57.1792   6
   0   7  -7 10.4021 27.3547   8
   0  -7   6 490.409 111.819   6
   0   7  -6 623.031 128.035   3
   0   7  -6 459.121 101.339   8
   0  -7   5 3985.55 293.174   7
   0   7  -5 3776.54 308.761   3
   0  -7   5 4323.42 312.614   6
   0   7  -5 4526.73 230.858   4
   0  -7   4 3403.85 266.934   6
   0  -7   4 3286.36 261.390   7
   0   7  -4 3640.56 226.478   4
   0   7  -4 3230.47 274.612   3
   0  -7   3 195.300 64.9162   7
   0  -7   3 137.381 54.8301   6
   0   7  -3 375.513 98.3744   3
   0  -7   3 310.181 88.1846  10
   0   7  -3 199.698 60.3796   4
   0  -7   2 3246.83 255.659   7
   0  -7   2 3614.53 251.864   6
   0  -7   2 3509.96 287.706  10
   0   7  -2 3076.08 264.483   3
   0  -7   1 11.7443 23.3091   6
   0  -7   1 57.8734 57.7665  10
   0  -7   1 21.9779 44.2811   7
   0   7  -1-16.0344 34.7198   3
   0   7   0 160.743 67.9977   3
   0  -7   0 334.244 91.9288  10
   0  -7   0 239.339 78.2458   7
   0   7   1 1067.77 165.780   3
   0  -7  -1 1084.71 160.608   7
   0  -7  -1 1095.01 163.705  10
   0  -7  -2 172.102 74.6166  10
   0   7   2 183.016 73.7293   3
   0  -7  -2 225.545 76.9242   7
   0  -7  -3 1919.47 212.381  10
   0   7   3 1694.25 218.881   3
   0  -7  -3 1497.77 201.602   7
   0  -7  -4 392.683 100.396  10
   0   7   4 374.214 107.411   3
   0  -7  -4 537.196 125.674   7
   0  -7  -5 872.661 163.504   7
   0  -7  -5 999.938 192.223   5
   0   7   5 874.279 170.033   3
   0  -7  -6 800.258 175.441   5
   0  -7  -6 744.501 156.393   7
   0   7   6 471.206 131.300   3
   0   7   7 1922.33 263.241   3
   0  -7  -7 1929.29 261.636   7
   0  -7  -7 1743.09 269.684   5
   0   7   8-12.7867 32.4328   3
   0  -7  -8 125.013 76.9454   7
   0   8 -13 5726.69 454.933   9
   0  -8  13 4516.38 449.444   6
   0  -8  12 591.017 175.188   6
   0   8 -12 519.957 131.858   8
   0  -8  11 44.7243 64.6001   6
   0   8 -11 131.153 64.6606   8
   0   8 -10 1626.43 217.989   8
   0  -8  10 1423.32 233.383   6
   0   8  -9 2282.31 270.178   3
   0   8  -9 2122.44 243.035   8
   0  -8   9 2012.22 265.153   6
   0   8  -8 90.3798 57.9355   8
   0   8  -8 62.0979 37.7156   3
   0  -8   8 50.4888 61.7236   6
   0   8  -7 1189.15 191.766   3
   0  -8   7 1131.25 183.930   6
   0   8  -7 817.673 145.049   8
   0   8  -6-21.8843 38.1667   3
   0  -8   6 8.74024 39.6778   6
   0  -8   6-76.6742 57.3410   7
   0  -8   5 4998.75 349.728   7
   0  -8   5 4937.95 352.106   6
   0   8  -5 4861.21 375.511   3
   0  -8   4 250.422 81.0991   7
   0  -8   4 379.284 97.5602   6
   0   8  -4 560.065 135.914   3
   0   8  -4 554.302 104.087   4
   0   8  -3 11105.0 553.765   3
   0   8  -3 12516.1 496.494   4
   0  -8   3 12108.8 582.875  10
   0  -8   3 12452.5 514.383   6
   0  -8   3 10816.3 502.131   7
   0  -8   2 4173.95 315.043   7
   0  -8   2 4503.74 295.372   6
   0   8  -2 4450.37 349.388   3
   0  -8   2 4728.03 363.204  10
   0  -8   1 346.483 98.0413   7
   0   8  -1 280.206 92.1391   3
   0  -8   1 165.319 74.0701  10
   0  -8   0 1592.14 204.475   7
   0  -8   0 1682.39 217.319  10
   0   8   0 1599.91 213.554   3
   0   8   1 108.150 53.4159   3
   0  -8  -1 132.680 75.0829  10
   0  -8  -1 205.019 84.2049   7
   0  -8  -2 133.109 60.7420   7
   0  -8  -2 196.630 77.9001  10
   0   8   2 198.117 87.4718   3
   0  -8  -3 70.3557 71.8021  10
   0   8   3 180.783 80.0063   3
   0  -8  -3 76.5325 56.6222   7
   0  -8  -4 365.005 108.102   7
   0   8   4 335.825 109.341   3
   0   8   5 309.988 108.593   3
   0  -8  -5 147.464 78.8358   7
   0   8   6-73.0800 61.4068   3
   0  -8  -6 47.2678 58.9592   7
   0  -9  12-215.603 103.273   6
   0  -9  11-49.0201 61.7044   6
   0   9 -11-73.0293 60.1607   8
   0   9 -10 649.521 150.272   8
   0  -9  10 656.616 165.276   6
   0   9 -10 525.791 142.772   3
   0   9  -9 595.106 150.713   3
   0   9  -9 383.635 119.473   8
   0  -9   9 473.530 137.611   6
   0   9  -8 110.577 64.4818   8
   0  -9   8 9.17440 37.9345   6
   0   9  -8 10.8552 66.3427   3
   0   9  -7 1824.75 249.628   3
   0   9  -7 1612.46 219.460   8
   0  -9   7 1892.42 246.146   6
   0  -9   6 9055.17 517.416   6
   0  -9   6 8573.36 496.859   7
   0   9  -6 9180.17 555.944   3
   0  -9   5 386.453 104.610   6
   0  -9   5 253.286 103.055   7
   0   9  -5 231.593 107.580   3
   0  -9   4 2258.98 242.325   6
   0   9  -4 2303.77 276.200   3
   0  -9   4 2209.88 249.879   7
   0   9  -3 736.133 156.461   3
   0   9  -3 831.179 140.871   4
   0  -9   3 474.923 117.902   7
   0   9  -2 5439.49 376.284   4
   0  -9   2 5500.29 384.776   7
   0   9  -2 5058.56 402.078   3
   0  -9   2 5226.73 414.998  10
   0   9  -1 88.6532 59.8481   3
   0  -9   1-51.4343 47.9976   7
   0  -9   1-2.77810 78.5706  10
   0  -9   0 266.971 94.2791  10
   0   9   0 320.952 107.421   3
   0  -9   0 300.431 95.6085   7
   0   9   1-31.8079 49.4495   3
   0  -9  -1-7.62639 32.0997  10
   0  -9  -1 29.4455 33.6039   7
   0   9   2 806.134 171.275   3
   0  -9  -2 514.916 135.423  10
   0  -9  -2 701.192 152.806   7
   0  -9  -3 91.1335 65.4106   7
   0   9   3 342.292 116.761   3
   0   9   4 125.003 70.9304   3
   0 -10  11 503.898 152.132   6
   0  10 -10 99.2891 66.0543   3
   0 -10  10 48.9679 69.2237   6
   0  10  -9 742.828 159.662   8
   0  10  -9 736.761 179.402   3
   0 -10   9 845.806 186.057   6
   0  10  -8 111.169 67.8669   8
   0 -10   8-123.207 73.3486   6
   0  10  -8 88.0702 72.2057   3
   0  10  -7 419.753 131.775   3
   0 -10   7 593.533 143.311   6
   0  10  -7 419.153 121.990   8
   0 -10   6 85.5426 68.2239   7
   0  10  -6 147.293 79.5709   3
   0  10  -5 936.448 191.482   3
   0 -10   5 938.156 178.538   7
   0 -10   4 7250.04 481.207   7
   0  10  -4 6835.34 504.781   3
   0  10  -3 620.019 161.033   3
   0 -10   3 537.506 134.764   7
   0  10  -2 1533.96 240.726   3
   0 -10   2 1401.03 211.750   7
   0 -10   1 44.7493 50.4725   7
   0  10  -1 163.566 78.5141   4
   0  10  -1 52.0553 67.6150   3
   0 -10   0 332.116 122.432  10
   0  10   0 427.138 123.517   4
   0  10   0 397.902 133.498   3
   0  10   1 1786.73 258.673   4
   0  10   1 1220.40 221.632   3
   0 -10  -1 1369.15 225.054  10
   0  11  -7 338.940 117.084   8
   1 -11   1 1899.38 279.255   7
   1 -11   2 536.316 146.899   7
   1 -11   3 61.6184 60.1623   7
   1 -11   4 54.8903 59.5413   7
   1 -11   5 435.802 136.349   7
   1 -11   6 259.804 112.154   7
  -1  11  -6 328.726 125.539   8
  -1  11  -7 115.208 84.0987   8
   1 -11   7 7.66244 47.0991   7
   1 -10  -2 1904.39 279.980   7
   1 -10  -1 893.860 197.287   7
  -1  10   0 1238.10 218.700   3
   1 -10   0 1574.13 249.645   7
   1 -10   1 1910.49 267.080   7
  -1  10  -1 1612.89 243.294   3
   1 -10   2 40.2090 50.6161   7
  -1  10  -2 55.4735 71.3193   3
  -1  10  -3 385.320 123.220   3
   1 -10   3 136.370 74.6411   7
  -1  10  -4-26.5100 45.3939   3
   1 -10   4 94.3929 64.5592   7
  -1  10  -5 841.713 168.515   3
   1 -10   5 1130.34 204.477   7
   1 -10   6 27.5936 48.0755   7
  -1  10  -6 38.0070 50.7786   8
  -1  10  -6 6.53862 31.6380   3
   1 -10   7 271.810 106.857   7
  -1  10  -7 178.344 73.3365   8
  -1  10  -7 480.583 147.966   3
   1 -10   8 2807.61 321.058   6
  -1  10  -8 2277.15 291.181   8
  -1  10  -8 2910.94 336.323   3
   1 -10   9 241.895 104.288   6
  -1  10  -9 119.177 77.4156   8
  -1  10  -9 397.128 126.040   3
  -1  10 -10-31.1412 53.5457   8
  -1  10 -10-33.8234 45.5393   3
   1 -10  10-37.3543 48.3905   6
  -1  10 -11 513.458 153.239   8
   1  -9  -5 409.938 126.998   7
   1  -9  -4 2171.68 294.357   7
  -1   9   4 2167.25 295.698   3
   1  -9  -3 432.169 130.759   7
  -1   9   3 387.464 123.540   3
  -1   9   2 202.433 88.2211   3
   1  -9  -2 134.281 64.6678   7
   1  -9  -1 211.878 92.1059   7
  -1   9   1 291.249 106.477   3
   1  -9   0 14.9798 45.6448   7
  -1   9   0 32.4946 38.8787   3
  -1   9  -1 2834.47 304.029   3
   1  -9   1 2893.71 305.819   7
   1  -9   2 1333.80 208.520   7
  -1   9  -2 1274.44 205.461   3
   1  -9   3 112.021 63.9937   7
  -1   9  -3 168.820 97.2556   3
   1  -9   4 1195.88 194.346   7
  -1   9  -4 1088.45 187.472   3
   1  -9   5 1316.88 206.660   7
  -1   9  -5 1645.41 230.765   3
  -1   9  -6 289.583 101.611   3
   1  -9   6 141.515 79.0672   7
   1  -9   6 176.288 70.5668   6
  -1   9  -6 239.556 91.6847   8
   1  -9   7-6.51731 62.4765   7
  -1   9  -7 47.1833 47.4126   3
   1  -9   7 66.0905 36.1527   6
  -1   9  -7 179.857 80.7215   8
   1  -9   8 3440.68 345.585   6
  -1   9  -8 3915.80 365.611   3
  -1   9  -8 3892.07 362.457   8
  -1   9  -9 2040.32 268.621   3
   1  -9   9 2290.20 289.654   6
  -1   9  -9 1979.86 262.617   8
   1  -9  10 1081.44 210.643   6
  -1   9 -10 1019.35 191.261   3
  -1   9 -10 901.317 185.296   8
   1  -9  11 2396.18 329.972   6
  -1   9 -11 1911.63 273.856   8
   1  -9  12 2248.71 325.870   6
  -1   9 -12 1752.56 259.033   8
  -1   8   6 2734.25 329.079   3
   1  -8  -6 3492.40 373.315   7
  -1   8   5 936.466 182.447   3
   1  -8  -5 954.215 191.352   7
  -1   8   4 111.619 57.6289   3
   1  -8  -4 349.232 118.491   7
  -1   8   3 1228.50 207.362   3
   1  -8  -3 1144.83 198.759   7
  -1   8   2-3.68524 28.0061   3
   1  -8  -2-212.339 89.1181   7
   1  -8  -1 8863.51 515.283   7
  -1   8   1 7860.26 485.634   3
   1  -8   0 54.6900 61.4673   7
  -1   8   0 63.7298 70.9706   3
  -1   8  -1 1867.64 228.771   3
   1  -8   1 1833.21 229.830   7
   1  -8   2 5774.35 394.265   7
  -1   8  -2 5743.50 393.429   3
  -1   8  -3 20027.7 731.192   3
   1  -8   3 20225.9 732.240   7
   1  -8   4 360.080 92.5333   6
   1  -8   4 353.527 103.699   7
  -1   8  -4 332.854 101.372   3
   1  -8   5 655.627 127.321   6
   1  -8   5 519.517 128.350   7
  -1   8  -5 603.917 132.711   3
  -1   8  -6 12007.0 580.425   8
   1  -8   6 12186.6 563.911   6
  -1   8  -6 11628.5 571.742   3
   1  -8   6 11960.1 586.540   7
  -1   8  -7 197.585 86.7455   3
  -1   8  -7 337.839 111.712   8
   1  -8   7 200.886 82.4305   6
  -1   8  -8 131.702 80.4574   3
  -1   8  -8 61.2600 45.9054   8
   1  -8   8 71.4314 58.9717   6
  -1   8  -9 81.2949 54.3618   3
   1  -8   9 167.828 82.9758   6
  -1   8  -9 152.387 77.9175   8
   1  -8  10 1522.16 244.576   6
  -1   8 -10 1723.12 245.733   8
   1  -8  11 792.435 180.833   6
  -1   8 -11 659.860 164.304   8
   1  -8  12-70.0750 68.7855   6
  -1   8 -12-1.59110 37.8707   8
  -1   8 -13 142.922 90.3492   8
  -1   7   8 1935.62 278.759   3
   1  -7  -8 1782.46 269.230   7
   1  -7  -7 3714.09 375.442   7
  -1   7   7 3807.25 376.933   3
  -1   7   6 2161.04 276.399   3
   1  -7  -6 2413.51 292.051   7
   1  -7  -5 843.024 167.680   7
  -1   7   5 575.051 141.804   3
   1  -7  -4 261.526 92.5956   7
  -1   7   4 183.871 91.7869   3
   1  -7  -3 255.403 95.9803   7
  -1   7   3 206.125 74.2952   3
   1  -7  -2 1481.20 199.625   7
  -1   7   2 1664.97 215.925   3
   1  -7  -1 16133.9 644.763   7
  -1   7   1 16716.4 650.250   3
   1  -7   0 1308.77 182.319   7
  -1   7   0 1376.46 185.279   3
   1  -7   1 2820.71 260.462   7
  -1   7  -1 2659.22 249.981   3
   1  -7   2 62.0699 33.1974   6
  -1   7  -2 54.9233 55.6385   3
   1  -7   2 11.9828 34.8939   7
   1  -7   3 77.6424 55.4356   7
  -1   7  -3-49.9658 41.9265   3
   1  -7   3-27.3855 30.3564   6
   1  -7   4 2755.12 231.049   6
   1  -7   4 2514.21 246.119   7
  -1   7  -4 2527.05 237.990   3
  -1   7  -5 96.3020 57.9708   3
   1  -7   5 81.9045 52.3578   6
   1  -7   5 37.3582 42.3043   7
  -1   7  -6 8752.04 463.539   3
   1  -7   6 9610.35 478.461   6
   1  -7   6 9484.21 491.992   7
  -1   7  -6 9313.37 480.739   8
   1  -7   7 73.6257 46.2244   6
  -1   7  -7 59.0336 47.9102   8
  -1   7  -7 162.282 60.4091   3
   1  -7   8 1457.33 205.773   6
  -1   7  -8 953.813 161.482   8
  -1   7  -8 1252.94 183.200   3
   1  -7   9 43.5747 66.8882   6
  -1   7  -9 11.8728 41.9674   3
  -1   7  -9 93.2454 61.7417   8
  -1   7 -10 11201.6 591.946   8
   1  -7  10 11199.2 630.666   6
   1  -7  11 90.5195 69.6784   6
  -1   7 -11 86.1929 64.1456   8
   1  -7  12 806.411 177.510   6
  -1   7 -12 463.448 123.904   8
   1  -7  13 11.0341 54.2085   6
  -1   7 -13 82.4757 65.6867   8
  -1   7 -14 118.635 79.5206   8
  -1   6   9 2565.30 314.571   3
   1  -6  -9 2735.07 343.801   5
   1  -6  -9 2910.64 349.724   7
   1  -6  -8 1142.99 213.428   5
   1  -6  -8 1349.84 230.137   7
  -1   6   8 1416.35 222.592   3
  -1   6   7 2484.23 287.958   3
   1  -6  -7 2217.25 277.383   7
   1  -6  -7 2771.79 315.969   5
   1  -6  -6 28.0433 36.7013   7
  -1   6   6 115.634 67.7725   3
   1  -6  -6 18.8491 50.2079   5
   1  -6  -5 162.844 81.5817   7
  -1   6   5 160.077 74.1449   3
   1  -6  -4 4478.57 344.640   7
   1  -6  -4 4722.27 281.103  10
  -1   6   4 4487.42 341.639   3
   1  -6  -3 449.524 109.035   7
  -1   6   3 591.821 122.156   3
   1  -6  -3 692.024 111.130  10
  -1   6   2 4982.81 337.341   3
   1  -6  -2 4632.19 326.639   7
   1  -6  -1 4623.83 320.560   7
  -1   6   1 5259.55 336.622   3
  -1   6   0 570.627 110.869   3
   1  -6   0 699.302 120.236   7
   1  -6   0 656.277 75.5035   6
   1  -6   1 19637.7 464.061   6
   1  -6   1 19441.5 626.033   7
  -1   6  -1 18652.8 601.173   3
  -1   6  -2 303.728 77.2444   3
   1  -6   2 250.188 56.8599   6
   1  -6   2 189.601 72.5720   7
   1  -6   3 1528.30 153.675   6
  -1   6  -3 1563.11 170.784   3
   1  -6   3 1418.58 167.045   7
   1  -6   4 646.743 107.797   6
  -1   6  -4 593.521 107.774   3
   1  -6   4 552.712 112.463   7
  -1   6  -5 5343.64 326.119   3
   1  -6   5 5966.44 341.918   6
   1  -6   5 5459.85 343.723   7
  -1   6  -5 5794.86 347.286   8
  -1   6  -6 17545.4 618.511   8
  -1   6  -6 17272.5 598.372   3
   1  -6   6 17419.4 619.468   6
   1  -6   6 17740.7 639.529   7
   1  -6   7 2776.14 261.834   6
  -1   6  -7 2765.53 254.687   8
  -1   6  -7 2988.15 253.608   3
  -1   6  -8 2095.26 219.241   3
   1  -6   8 1950.19 233.003   6
  -1   6  -8 2297.04 241.558   8
   1  -6   9 1255.57 200.322   6
  -1   6  -9 879.187 155.471   8
  -1   6 -10 657.141 137.879   8
   1  -6  10 660.768 153.918   6
  -1   6 -11 224.028 87.7875   8
   1  -6  11 258.297 99.3365   6
   1  -6  12 115.934 75.3742   6
  -1   6 -12 53.7573 51.5830   8
   1  -6  13 2383.01 318.249   6
  -1   6 -13 2227.70 284.093   8
  -1   6 -14 1506.00 242.509   8
   1  -6  14 2086.82 306.265   6
  -1   5  10 3605.88 369.723   3
   1  -5 -10 4377.95 421.082   7
   1  -5 -10 4202.68 415.688   5
  -1   5   9 2345.07 287.429   3
   1  -5  -9 2229.55 286.271   7
   1  -5  -9 2565.06 308.714   5
   1  -5  -8 880.170 175.634   5
   1  -5  -8 1075.98 190.952   7
  -1   5   8 926.546 170.453   3
   1  -5  -7 647.735 143.655   7
   1  -5  -7 713.267 151.332   5
  -1   5   7 716.038 150.682   3
  -1   5   6 204.448 79.7560   3
   1  -5  -6 235.062 89.6207   7
   1  -5  -6 279.262 90.4128   5
  -1   5   5 542.282 117.414   3
   1  -5  -5 862.642 153.438   5
   1  -5  -5 759.793 139.113   7
   1  -5  -4 3127.39 270.799   7
   1  -5  -4 3144.81 276.824   5
   1  -5  -4 3516.60 216.846  10
  -1   5   4 3394.97 276.062   3
   1  -5  -3 17.0970 26.1971   7
   1  -5  -3 62.4932 31.6936  10
  -1   5   3 17.6411 36.5501   3
   1  -5  -2 7711.47 392.843   7
  -1   5   2 8273.31 392.959   3
  -1   5   1 6608.30 341.310   3
   1  -5  -1 6650.36 178.712   6
   1  -5  -1 6096.71 337.093   7
   1  -5   0 919.676 80.5643   6
   1  -5   0 858.953 125.768   7
  -1   5   0 926.194 125.430   3
  -1   5  -1 642.961 99.0753   3
   1  -5   1 674.739 107.880   7
   1  -5   1 744.358 84.0760   6
   1  -5   2 1021.58 110.013   6
  -1   5  -2 915.964 119.136   3
   1  -5   2 1149.93 139.959   7
   1  -5   3 12200.2 450.298   7
  -1   5  -3 11633.9 418.161   3
   1  -5   3 11755.8 399.911   6
   1  -5   4 6575.28 320.224   6
  -1   5  -4 6422.15 318.111   3
   1  -5   4 6382.11 338.821   7
   1  -5   5 4817.11 293.748   6
   1  -5   5 5141.76 311.093   7
  -1   5  -5 4890.91 297.687   8
  -1   5  -5 4995.04 287.852   3
   1  -5   6 1229.04 158.810   6
  -1   5  -6 1263.44 149.426   3
  -1   5  -6 1407.26 166.929   8
  -1   5  -7 52.9430 42.5314   8
  -1   5  -7 19.8338 24.3662   3
   1  -5   7 72.9570 45.5872   6
   1  -5   8 12303.8 565.795   6
  -1   5  -8 12744.3 543.504   8
   1  -5   9 8.93077 38.1158   6
  -1   5  -9 95.6023 58.2009   8
  -1   5 -10 1641.98 212.652   8
   1  -5  10 1487.86 224.588   6
   1  -5  11 8044.08 524.375   6
  -1   5 -11 7639.49 477.903   8
   1  -5  12 2403.41 298.423   6
  -1   5 -12 2214.18 273.469   8
  -1   5 -13 7228.27 508.931   8
   1  -5  13 7356.08 545.455   6
   1  -5  14-37.5224 59.4865   6
  -1   5 -14 124.716 77.8961   8
  -1   5 -15-63.6051 68.1649   8
  -1   4  12 241.787 105.330   3
  -1   4  11 285.156 110.672   3
   1  -4 -11 580.793 167.004   7
   1  -4 -11 290.452 119.792   5
   1  -4 -10 627.309 152.194   5
  -1   4  10 456.891 126.039   3
   1  -4 -10 515.964 140.710   7
   1  -4  -9 588.784 149.862   7
  -1   4   9 529.926 129.829   3
   1  -4  -9 478.874 130.612   5
   1  -4  -8 4553.17 370.028   5
  -1   4   8 4287.65 348.794   3
   1  -4  -8 4720.66 379.712   7
   1  -4  -7 446.781 114.319   7
   1  -4  -7 470.055 118.418   5
  -1   4   7 379.994 99.0118   3
   1  -4  -6 1259.19 178.722   7
   1  -4  -6 1567.10 200.447   5
  -1   4   6 1462.29 184.732   3
   1  -4  -5 5996.39 363.676   5
   1  -4  -5 6713.51 249.894  10
  -1   4   5 5640.24 344.860   3
   1  -4  -5 5995.94 365.033   7
   1  -4  -4 31.3521 19.8498  10
   1  -4  -4 58.0703 49.8947   7
   1  -4  -4 39.9987 32.8862   5
  -1   4   4 111.329 54.7309   3
  -1   4   3 36627.1 794.288   3
   1  -4  -3 38021.0 830.684   5
   1  -4  -3 37095.1 611.751  10
   1  -4  -3 36512.7 805.269   7
  -1   4   2 13060.6 449.177   3
   1  -4  -2 13261.5 460.303   7
   1  -4  -1 7978.18 168.310   6
  -1   4   1 7159.28 318.099   3
   1  -4  -1 7172.60 331.401   7
   1  -4   0 3707.75 149.260   6
  -1   4   0 3744.86 222.710   3
   1  -4   0 3663.50 229.220   7
   1  -4   1 7287.39 241.153   6
  -1   4  -1 7276.38 295.540   3
   1  -4   1 7216.31 314.477   7
   1  -4   2 13005.2 361.891   6
   1  -4   2 12711.8 414.507   7
  -1   4  -2 12585.3 383.145   3
   1  -4   3 8964.89 330.794   6
  -1   4  -3 8691.31 321.021   3
   1  -4   3 8880.23 351.656   7
   1  -4   4 3773.88 233.878   6
   1  -4   4 3866.79 243.076   7
  -1   4  -4 3855.36 221.367   3
  -1   4  -4 3758.31 239.247   8
  -1   4  -4 3971.41 141.657   1
  -1   4  -5 2076.67 167.734   3
  -1   4  -5 2317.46 97.0855   1
   1  -4   5 2427.34 202.781   6
  -1   4  -5 2222.78 190.024   8
  -1   4  -6 13150.1 219.621   1
  -1   4  -6 12309.9 421.121   3
  -1   4  -6 12032.3 463.532   8
   1  -4   6 12783.7 496.269   6
  -1   4  -7 1615.15 175.944   8
   1  -4   7 1604.74 191.418   6
  -1   4  -8 5222.56 336.178   8
   1  -4   8 5207.92 355.463   6
   1  -4   9 781.941 143.802   6
  -1   4  -9 641.492 126.141   8
  -1   4 -10 362.186 105.412   8
   1  -4  10 561.930 135.386   6
  -1   4 -11 2762.99 287.959   8
   1  -4  11 2973.86 309.134   6
  -1   4 -12 15.6324 37.2348   8
   1  -4  12 6.39489 43.0726   6
   1  -4  13 313.329 108.205   6
  -1   4 -13 136.241 75.5917   8
  -1   4 -14 40.8256 52.9040   8
   1  -4  14 33.6480 63.0843   6
  -1   4 -14-28.1848 56.5856   7
  -1   3  12 766.430 174.662   3
   1  -3 -12 825.073 183.847   5
   1  -3 -12 700.737 177.058   7
   1  -3 -11 11.0861 49.2317   7
   1  -3 -11 106.956 64.8490   5
  -1   3  11 76.8868 45.6112   3
   1  -3 -10 720.834 155.326   5
  -1   3  10 704.133 146.705   3
   1  -3 -10 657.881 161.028   7
  -1   3   9 4103.62 341.335   3
   1  -3  -9 4873.43 377.230   5
   1  -3  -9 4396.57 371.501   7
   1  -3  -8 572.062 131.271   7
  -1   3   8 449.782 109.255   3
   1  -3  -8 413.448 114.451   5
   1  -3  -7-1.58875 35.6667   7
  -1   3   7 105.941 62.1297   3
   1  -3  -7 13.8247 31.8603   5
   1  -3  -6 746.408 68.1171  10
   1  -3  -6 848.530 135.237   5
  -1   3   6 882.813 140.789   3
   1  -3  -6 935.760 149.035   7
  -1   3   5 14248.4 187.190   6
   1  -3  -5 15091.4 528.944   5
  -1   3   5 14725.8 512.295   3
   1  -3  -5 14759.9 532.624   7
   1  -3  -5 16334.0 316.534  10
  -1   3   4 9788.48 395.297   3
   1  -3  -4 9252.46 396.662   7
   1  -3  -4 10568.6 259.319  10
   1  -3  -4 9848.67 398.692   5
   1  -3  -3 5876.60 290.534   5
  -1   3   3 5736.59 283.366   3
   1  -3  -3 5996.19 298.122   7
   1  -3  -3 5934.62 203.263  10
  -1   3   2 2580.68 177.659   3
   1  -3  -2 2692.53 192.229   7
   1  -3  -1 8477.37 137.770   6
  -1   3   1 8402.65 301.565   3
   1  -3  -1 8697.87 321.861   7
  -1   3   0 6537.19 249.615   3
   1  -3   0 7116.81 182.778   6
   1  -3   0 6523.28 268.134   7
  -1   3  -1 18965.3 375.230   1
  -1   3  -1 18156.0 399.447   3
   1  -3   1 19406.4 457.658   7
   1  -3   1 19099.6 369.736   6
   1  -3   2 141818. 1244.39   7
  -1   3  -2 142053. 1094.72   3
  -1   3  -2 146969. 944.279   1
  -1   3  -3 2348.37 108.149   1
  -1   3  -3 2401.41 146.954   3
   1  -3   3 2305.35 167.145   7
   1  -3   3 2679.81 176.952   6
  -1   3  -3 2406.28 169.612   8
   1  -3   4 8386.91 335.405   6
  -1   3  -4 7757.87 318.868   8
   1  -3   4 8170.73 330.343   7
  -1   3  -4 8284.94 285.302   3
  -1   3  -5 1822.43 140.215   3
   1  -3   5 1964.85 177.162   6
  -1   3  -5 2062.86 176.356   8
  -1   3  -6 2565.69 210.491   8
   1  -3   6 3091.11 235.719   6
   1  -3   7 3341.58 262.252   6
  -1   3  -7 3228.99 244.577   8
  -1   3  -8 3854.42 284.811   8
   1  -3   8 3669.37 289.143   6
   1  -3   9 5457.46 375.334   6
  -1   3  -9 5717.90 364.704   8
   1  -3  10 390.470 110.656   6
  -1   3 -10 381.180 103.971   8
   1  -3  11 9092.32 528.830   6
  -1   3 -11 8499.59 499.580   8
   1  -3  12 25.3941 46.7132   6
  -1   3 -12 13.3268 36.8031   8
   1  -3  13 29.9204 62.1302   6
  -1   3 -13-117.849 75.0307   8
  -1   3 -13-153.022 61.3992   7
   1  -3  14 34.1402 45.3685   6
  -1   3 -14 81.1665 70.8326   7
   1  -3  15 5525.59 479.057   6
  -1   2  13 321.794 106.037   3
   1  -2 -13 514.617 144.158   5
   1  -2 -13 761.779 186.945   7
   1  -2 -12 242.904 100.983   7
  -1   2  12 215.743 96.0224   3
   1  -2 -12 6.54618 37.3709   5
   1  -2 -11 1239.39 204.820   5
   1  -2 -11 1342.61 221.868   7
  -1   2  11 1146.18 198.787   3
   1  -2 -10 2082.37 244.942   5
   1  -2 -10 2075.58 260.358   7
  -1   2  10 2265.23 255.805   3
  -1   2   9 9549.25 500.486   3
   1  -2  -9 9440.89 520.254   7
   1  -2  -9 9047.77 497.228   5
  -1   2   8 1361.20 179.993   3
   1  -2  -8 1365.74 187.035   7
   1  -2  -8 1500.72 186.446   5
  -1   2   7 3312.92 261.707   3
   1  -2  -7 3063.20 251.910   5
   1  -2  -7 3224.37 269.447   7
  -1   2   7 3182.59 169.133   6
  -1   2   6 1888.46 115.656   6
   1  -2  -6 1798.59 183.094   5
  -1   2   6 1776.69 181.135   3
   1  -2  -6 1852.56 75.0454  10
   1  -2  -6 1856.98 191.864   7
  -1   2   5 51187.5 500.691   6
  -1   2   5 50056.8 889.094   3
   1  -2  -5 48537.3 381.350  10
   1  -2  -5 49796.7 867.020   5
   1  -2  -5 50562.8 922.125   7
  -1   2   4 10182.6 369.939   3
  -1   2   4 10338.8 185.695  10
   1  -2  -4 10328.7 383.888   7
   1  -2  -4 10094.8 361.463   5
  -1   2   4 10077.4 174.161   6
  -1   2   3 16394.8 431.729   3
  -1   2   3 17874.0 263.552  10
   1  -2  -3 17857.9 443.543   5
   1  -2  -3 16868.2 454.038   7
   1  -2  -2 152237. 1209.63   5
   1  -2  -2 154288. 1263.11   7
  -1   2   2 153976. 1209.91   3
  -1   2   1 69722.8 736.911   3
   1  -2  -1 70878.5 788.553   7
  -1   2   1 66311.1 735.120   1
   1  -2  -1 72216.2 382.515   6
   1  -2   0 55211.4 666.625   7
  -1   2   0 55459.4 483.329   6
  -1   2   0 54596.8 594.985   3
  -1   2   0 51004.2 594.540   1
   1  -2   0 55327.3 463.804   6
  -1   2  -1 29290.0 397.896   1
   1  -2   1 28193.0 474.962   7
  -1   2  -1 28635.4 400.774   3
   1  -2   1 28155.8 414.561   6
  -1   2  -2 75701.9 811.043   8
  -1   2  -2 74361.1 648.517   3
   1  -2   2 74015.7 774.236   6
   1  -2   2 76558.1 800.580   7
  -1   2  -3 47968.1 554.005   3
  -1   2  -3 50435.5 415.454   4
   1  -2   3 48569.0 711.425   6
  -1   2  -3 48016.7 698.394   8
   1  -2   3 48009.7 684.890   7
   1  -2   4 49115.8 775.726   6
  -1   2  -4 48944.7 764.152   8
  -1   2  -4 52306.1 423.817   4
   1  -2   5 482.660 86.2561   6
  -1   2  -5 457.387 84.5687   8
   1  -2   6 79.9541 21.2016   4
   1  -2   6 111.619 54.1784   6
  -1   2  -6 160.700 61.2402   8
  -1   2  -7 1227.11 150.729   8
   1  -2   7 1100.22 144.863   6
   1  -2   7 1073.07 83.6289   4
   1  -2   8 19897.3 650.834   6
  -1   2  -8 20164.4 647.169   8
   1  -2   8 21851.2 411.392   4
   1  -2   9 13.3776 35.8673   6
  -1   2  -9 41.4893 38.7363   8
   1  -2  10 303.232 94.7688   6
  -1   2 -10 425.386 112.246   8
   1  -2  11 1395.12 202.115   6
  -1   2 -11 1140.56 187.495   8
  -1   2 -11 1251.55 204.361   7
   1  -2  12 4120.21 329.905   3
   1  -2  12 3913.86 350.275   6
  -1   2 -12 4003.37 375.461   7
   1  -2  13 1451.54 227.620   6
  -1   2 -13 1367.02 232.966   7
  -1   2 -14 162.741 88.8410   7
   1  -2  14 357.698 115.567   6
   1  -2  15 717.586 171.303   6
   1  -1 -14 1537.46 252.623   5
  -1   1  14 1492.43 251.021   3
   1  -1 -13-21.1707 55.4252   7
  -1   1  13-54.1118 54.5172   3
   1  -1 -13 104.020 65.9499   5
   1  -1 -12 1465.07 237.483   7
   1  -1 -12 1144.70 191.483   5
  -1   1  12 1188.57 200.585   3
   1  -1 -11 1169.46 183.697   5
   1  -1 -11 1551.83 228.342   7
  -1   1  11 1201.04 192.344   3
   1  -1 -10 433.836 108.520   5
  -1   1  10 581.178 123.058   3
   1  -1 -10 518.368 129.572   7
   1  -1  -9 1185.42 178.883   7
  -1   1   9 1049.66 127.545   6
  -1   1   9 954.639 153.516   3
   1  -1  -9 1041.75 154.352   5
  -1   1   8 1317.74 169.576   3
  -1   1   8 1508.41 142.097   6
   1  -1  -8 1079.86 149.293   5
   1  -1  -8 1388.59 179.135   7
  -1   1   7 18760.3 596.218   3
   1  -1  -7 17507.6 546.554   5
   1  -1  -7 18359.6 606.831   7
   1  -1  -6 560.254 101.251   7
  -1   1   6 547.142 71.8151   6
  -1   1   6 697.504 106.921   3
   1  -1  -6 492.535 87.9740   5
  -1   1   5 14500.6 447.485   3
   1  -1  -5 13778.1 409.200   5
   1  -1  -5 13451.5 443.727   7
  -1   1   5 14312.1 318.565   6
  -1   1   4 8931.22 320.529   3
  -1   1   4 8496.48 213.272   6
   1  -1  -4 8487.65 320.673   7
   1  -1  -4 8547.18 291.091   5
   1  -1  -3 13241.5 360.810   7
  -1   1   3 14092.5 233.523   6
  -1   1   3 13438.8 346.799   1
   1  -1  -3 13349.8 327.696   5
   1  -1  -3 13244.3 288.359   2
  -1   1   3 13204.3 355.228   3
   1  -1  -2 64529.4 633.676   2
   1  -1  -2 63860.7 642.195   5
  -1   1   2 63457.9 684.503   3
   1  -1  -2 63426.6 702.767   7
  -1   1   1 121476. 618.280   6
  -1   1   1 116656. 788.156   3
   1  -1  -1 117719. 842.833   7
   1  -1  -1 114340. 844.600   2
   1  -1   0 275.577 36.3090   6
   1  -1   0 245.582 32.5644   3
  -1   1   0 237.348 39.7831   1
  -1   1   0 332.715 38.9690   6
   1  -1   0 271.182 41.6636   7
  -1   1   0 234.152 30.2072   3
   1  -1   1 9018.39 154.838   3
   1  -1   1 8694.96 216.066   7
  -1   1  -1 8556.55 224.449   8
  -1   1  -1 8717.50 151.963   3
   1  -1   1 8627.20 221.497   6
   1  -1   1 8796.15 233.227   2
   1  -1   2 4933.86 175.131   2
   1  -1   2 5013.35 193.291   6
  -1   1  -2 5041.49 123.374   3
   1  -1   2 5017.66 122.391   3
  -1   1  -2 4908.85 190.533   8
   1  -1   3 11.9743 12.7346   4
   1  -1   3 27.2459 25.7053   6
  -1   1  -3 47.5268 27.9236   8
   1  -1   3 24.1014 18.7297   2
  -1   1  -4 1029.57 109.759   8
   1  -1   4 986.180 106.588   6
   1  -1   4 1080.58 79.5561   4
   1  -1   5 46036.4 774.967   6
  -1   1  -5 47108.7 793.649   8
   1  -1   5 45297.9 558.137   4
  -1   1  -6 25477.9 639.410   8
   1  -1   6 24181.5 617.456   6
   1  -1   6 25466.4 456.691   4
  -1   1  -7 9273.26 213.085   9
   1  -1   7 8293.67 381.413   6
   1  -1   7 8072.80 284.559   4
  -1   1  -7 8336.97 397.164   8
   1  -1   8 331.838 60.9537   4
  -1   1  -8 366.273 95.1957   8
   1  -1   8 407.209 95.5320   6
   1  -1   9 4715.54 323.984   6
  -1   1  -9 4968.17 352.937   8
   1  -1   9 5266.96 262.425   4
  -1   1  -9 4988.62 350.922   7
   1  -1   9 4954.17 301.402   3
   1  -1  10 30.7757 36.9342   3
   1  -1  10-20.4758 34.6842   6
  -1   1 -10-18.6673 38.7175   7
   1  -1  11 2252.31 230.668   3
   1  -1  11 1823.18 224.185   6
  -1   1 -11 2093.37 257.180   7
  -1   1 -12 782.780 168.257   7
   1  -1  12 691.396 147.186   6
   1  -1  12 684.894 132.894   3
   1  -1  13 4918.16 406.888   6
  -1   1 -13 5325.55 454.131   7
  -1   1 -14 97.5433 76.2342   7
   1  -1  14 224.262 94.4523   6
   1   0 -15 17.7449 46.9267   5
   1   0 -14 25.5842 42.0388   5
  -1   0  14 20.2620 57.6509   3
   1   0 -14 98.5505 75.6304   7
   1   0 -13 1126.79 191.582   5
  -1   0  13 981.961 189.795   3
   1   0 -13 1161.75 217.299   7
  -1   0  12 1918.91 246.566   3
   1   0 -12 2054.98 269.777   7
  -1   0  11 19427.9 652.232   6
  -1   0  11 17192.9 704.230   3
   1   0 -11 17454.4 737.187   7
  -1   0  10 1849.72 223.268   3
  -1   0  10 1977.62 196.405   6
   1   0 -10 1789.04 227.228   7
   1   0  -9 76.2721 45.0529   7
  -1   0   9 20.2288 32.4761   3
  -1   0   9 96.8902 44.3670   6
   1   0  -8 4150.82 294.579   7
  -1   0   8 4292.68 251.796   6
  -1   0   8 4031.07 288.134   3
  -1   0   7 57.1869 28.3047   6
  -1   0   7 106.002 45.4974   3
   1   0  -7 91.8323 52.5307   7
   1   0  -7 89.9989 21.3357   2
  -1   0   6 5636.02 297.941   3
  -1   0   6 5897.48 250.186   6
   1   0  -6 6005.96 176.161   2
   1   0  -6 5556.88 292.888   7
   1   0  -6 5753.80 132.020  10
   1   0  -5 2777.33 125.301   2
  -1   0   5 3017.81 165.303   6
   1   0  -5 3089.93 82.8225  10
   1   0  -5 2858.68 191.055   7
  -1   0   4 34809.8 542.048   1
   1   0  -4 34370.3 440.449   2
  -1   0   4 34660.1 505.341   6
   1   0  -4 35088.8 591.865   7
  -1   0   3 45100.4 521.572   6
   1   0  -3 47129.5 304.289  10
  -1   0   3 43851.0 291.799  10
   1   0  -3 44737.8 472.224   5
  -1   0   3 45303.3 559.106   1
   1   0  -3 43592.8 503.066   2
   1   0  -3 44639.4 580.878   7
  -1   0   2 6566.21 194.921   1
   1   0  -2 6922.95 198.884   2
   1   0  -2 6699.45 145.166   5
  -1   0   2 6759.84 136.039  10
  -1   0   2 7141.25 150.970   5
   1   0  -2 6584.56 188.262   7
  -1   0   1 2051.81 90.4469  10
   1   0  -1 1927.35 82.0523   7
  -1   0   1 2005.01 84.5614   7
   1   0   0 94711.3 701.800   6
   1   0   0 100140. 505.888   7
  -1   0   0 98913.9 512.166   7
  -1   0   0 96989.6 563.771   8
   1   0   0 100885. 571.458   8
  -1   0  -1 255.056 37.1505   8
  -1   0  -1 299.810 33.3005   7
   1   0   1 291.330 42.7979   2
   1   0   1 258.453 44.5646   6
   1   0   1 262.525 39.9274   4
  -1   0  -2 21011.2 386.943   8
   1   0   2 21222.3 399.097   6
   1   0   2 21600.4 222.307   3
   1   0   2 21463.7 346.350   2
   1   0   2 20614.3 350.580   4
  -1   0  -3 859.496 93.4928   8
   1   0   3 828.680 61.0525   3
   1   0   3 771.229 84.3362   6
   1   0   3 825.049 68.6600   2
   1   0   3 852.120 77.8254   4
   1   0   4 47681.4 560.642   3
   1   0   4 48755.7 729.110   6
  -1   0  -4 47975.0 755.218   8
   1   0   4 46969.8 627.482   4
   1   0   4 48803.2 515.611   2
   1   0   5 888.674 90.3066   3
  -1   0  -5 1188.10 136.571   8
   1   0   5 991.253 71.1717   2
   1   0   5 1062.46 102.476   4
   1   0   5 929.609 110.607   6
  -1   0  -6 1558.80 158.855   7
   1   0   6 1719.40 87.9047   2
   1   0   6 1557.73 151.582   6
   1   0   6 1561.60 132.414   3
   1   0   6 1688.70 139.753   4
   1   0   7 5980.69 284.678   3
   1   0   7 5943.89 319.449   6
  -1   0  -7 5801.32 332.674   7
   1   0   7 6211.27 285.673   4
   1   0   8 763.239 124.206   6
   1   0   8 685.293 105.799   3
   1   0   8 649.364 98.6940   4
  -1   0  -8 660.424 121.897   7
   1   0   9 1201.97 152.852   3
  -1   0  -9 1251.48 178.972   7
   1   0   9 1309.52 169.601   6
   1   0   9 1234.19 144.940   4
   1   0  10 4471.77 328.633   6
   1   0  10 4393.65 307.363   3
  -1   0 -10 4428.14 355.332   7
   1   0  10 4879.83 301.799   4
   1   0  11 2628.97 253.527   3
  -1   0 -11 1973.63 251.815   7
   1   0  11 2528.26 260.332   6
  -1   0 -12 3841.11 368.102   7
   1   0  12 3963.21 342.682   6
   1   0  12 4214.58 338.975   3
   1   0  13 3435.65 333.111   6
  -1   0 -13 3114.60 351.536   7
  -1   0 -14 270.675 119.106   7
  -1  -1  15 8.49352 45.5624   3
  -1  -1  14 1568.24 248.591   3
   1   1 -14 1868.49 280.876   7
  -1  -1  13 23.1298 39.4125   6
  -1  -1  13-15.2157 54.9255   3
   1   1 -13 106.213 79.8349   7
  -1  -1  12 5233.49 404.305   3
  -1  -1  12 5550.49 382.535   6
   1   1 -12 5085.48 415.887   7
  -1  -1  11 1721.36 223.195   3
  -1  -1  11 2288.65 238.420   6
   1   1 -11 2421.26 270.024   7
  -1  -1  10 2968.63 249.875   6
   1   1 -10 2510.86 258.892   7
   1   1  -9 36.0578 41.0252   7
  -1  -1   9 62.0245 45.2445   6
   1   1  -9 71.0461 34.6400   9
  -1  -1   8 1856.78 175.597   6
   1   1  -8 1714.50 184.570   7
   1   1  -8 1802.74 150.790   9
   1   1  -8 2003.74 106.091   2
   1   1  -7 2181.28 159.695   9
  -1  -1   7 2505.11 190.436   6
   1   1  -7 2577.85 128.668   2
   1   1  -7 2467.86 203.369   7
   1   1  -6 10114.3 326.829   9
  -1  -1   6 10719.2 367.314   6
   1   1  -6 10526.8 388.321   7
   1   1  -5 44211.6 652.569   9
  -1  -1   5 45280.0 701.507   6
  -1  -1   5 45466.8 595.233   1
   1   1  -5 45717.5 729.231   7
   1   1  -4 198520. 1309.11   9
  -1  -1   4 200378. 1002.72  10
   1   1  -4 196597. 1320.69   7
  -1  -1   4 203403. 1143.76   1
   1   1  -3 239284. 1355.21   9
   1   1  -3 231431. 1212.98   7
  -1  -1   2 15.1475 18.6620  10
   1   1  -2 4.86983 14.5093   9
   1   1  -2 14.1292 15.8384   7
   1   1  -1 378.503 49.3018   9
   1   1  -1 344.862 39.4471   3
  -1  -1   1 417.496 52.9859  10
   1   1   0 3495.22 108.160   3
   1   1   0 3525.80 132.879   9
  -1  -1   0 3373.86 151.621  10
   1   1   0 3826.80 122.056   8
  -1  -1   0 3630.19 107.391   3
   1   1   0 3190.69 143.513   4
  -1  -1  -1 17575.1 367.655  10
   1   1   1 17295.4 236.571   3
  -1  -1  -1 18147.7 246.314   3
  -1  -1  -1 18854.4 273.908   9
   1   1   1 17436.1 264.164   9
   1   1   1 17335.2 352.615   6
  -1  -1  -1 17351.5 242.474   7
   1   1   1 16945.8 349.711   4
   1   1   2 24634.6 452.613   6
  -1  -1  -2 25433.7 478.116  10
   1   1   2 26001.7 277.279   9
   1   1   2 24996.9 454.538   4
  -1  -1  -2 25497.0 386.354   7
   1   1   2 24944.4 334.217   3
   1   1   3 656.438 64.2700   3
   1   1   3 617.595 78.6573   6
  -1  -1  -3 579.944 80.9512  10
  -1  -1  -3 616.417 73.7443   7
   1   1   3 605.685 79.4581   4
  -1  -1  -4 37931.0 663.274  10
   1   1   4 38154.0 554.455   3
   1   1   4 38265.2 651.869   6
  -1  -1  -4 38365.5 648.782   7
   1   1   4 37969.1 654.701   4
   1   1   5 1824.99 154.320   6
  -1  -1  -5 1796.37 157.200   7
  -1  -1  -5 1714.52 152.669  10
   1   1   5 2036.37 111.356   2
   1   1   5 1789.38 136.784   3
   1   1   6 7599.45 307.546   3
  -1  -1  -6 7107.66 323.256  10
   1   1   6 8484.57 213.292   2
   1   1   6 7681.59 339.480   6
  -1  -1  -6 7281.39 347.189   7
  -1  -1  -7 886.764 128.756   7
   1   1   7 1013.15 124.211   3
   1   1   7 838.096 118.855   6
  -1  -1  -7 860.216 118.690  10
  -1  -1  -8 7879.43 374.636  10
   1   1   8 7711.96 382.863   6
   1   1   8 7890.32 372.089   3
  -1  -1  -8 8195.88 428.027   7
  -1  -1  -9 2774.54 231.063  10
   1   1   9 3223.00 263.049   6
   1   1   9 2830.87 237.065   3
  -1  -1  -9 2841.05 270.455   7
   1   1  10 3901.34 307.151   6
  -1  -1 -10 3675.27 275.237  10
   1   1  10 3546.19 280.804   3
  -1  -1 -10 3646.05 327.819   7
   1   1  10 3908.40 298.120   4
   1   1  11 560.008 121.239   4
   1   1  11 424.184 103.374   3
   1   1  11 433.732 107.965   6
  -1  -1 -11 632.546 147.910   7
  -1  -1 -12-58.2853 59.5210   7
  -1  -1 -13 1185.58 217.099   7
  -1  -2  15-39.3347 51.2812   3
   1   2 -15 25.7547 48.5443   7
   1   2 -14 492.493 154.011   7
  -1  -2  14 310.041 112.764   3
  -1  -2  14 306.816 106.928   6
  -1  -2  13 162.215 84.2561   3
  -1  -2  13 166.934 79.2017   6
   1   2 -13 116.052 86.7553   7
  -1  -2  12 7.86900 31.7713   6
   1   2 -12-13.8490 55.3267   7
  -1  -2  11 54.0496 56.1903   6
   1   2 -11 77.2192 41.4806   9
   1   2 -11 24.6281 44.9704   7
   1   2 -10 344.856 105.749   7
  -1  -2  10 253.279 81.2689   6
   1   2 -10 439.234 86.4916   9
   1   2  -9 97.2984 42.5119   9
  -1  -2   9 66.3417 46.4511   6
   1   2  -9 26.5060 58.9353   7
   1   2  -8 23.9889 32.0710   7
   1   2  -8 150.142 48.7219   9
  -1  -2   8 151.385 61.5732   6
   1   2  -7 4627.94 231.809   8
   1   2  -7 4749.45 248.346   9
  -1  -2   7 4244.34 264.045   6
   1   2  -7 4527.77 273.584   7
   1   2  -6 9121.75 331.636   9
  -1  -2   6 8985.05 362.089   6
   1   2  -6 9278.29 291.537   8
  -1  -2   5 4177.07 187.072  10
  -1  -2   5 3755.41 219.811   6
   1   2  -5 4192.25 214.456   9
  -1  -2   5 3911.40 154.340   1
   1   2  -5 3983.59 164.609   8
  -1  -2   4 10644.6 347.670   6
  -1  -2   4 9945.03 230.108   1
   1   2  -4 10675.6 327.647   9
  -1  -2   4 9879.22 284.764  10
   1   2  -4 10174.2 224.689   8
  -1  -2   3 14439.3 342.958  10
   1   2  -3 14486.1 364.976   9
   1   2  -3 14668.3 219.918   8
   1   2  -2 320.129 50.7852   3
   1   2  -2 370.299 51.3762   4
   1   2  -2 293.090 51.6019   9
  -1  -2   2 249.159 48.3638  10
   1   2  -2 288.017 34.6491   7
   1   2  -2 333.427 32.8033   5
  -1  -2   1 23011.4 442.227  10
  -1  -2   1 22222.0 307.346   5
   1   2  -1 22199.2 383.939   3
   1   2  -1 22290.7 414.606   9
   1   2  -1 23263.6 311.054   5
   1   2  -1 22085.5 406.616   4
   1   2  -1 22551.8 242.276   7
  -1  -2   1 22063.9 234.598   7
   1   2   0 53.3585 22.9363   3
   1   2   0 88.5067 34.8438   4
  -1  -2   0 11.8525 19.2566  10
   1   2   0 87.8934 27.9637   9
  -1  -2   0 90.0868 18.7679   7
  -1  -2   0 82.7806 25.3652   5
   1   2   0 70.0953 17.7489   7
   1   2   1 87971.8 747.108   3
   1   2   1 81955.8 696.179   9
  -1  -2  -1 87074.3 831.070   5
  -1  -2  -1 86250.2 924.508  10
  -1  -2  -1 92011.0 670.984   7
   1   2   1 84798.8 909.693   4
   1   2   2 192669. 1326.89   6
   1   2   2 191849. 1179.62   3
  -1  -2  -2 182213. 1156.78   7
   1   2   3 47199.6 774.088   4
   1   2   3 47391.8 645.790   3
  -1  -2  -3 47129.8 675.698   7
   1   2   3 46291.8 433.418   9
   1   2   3 45559.9 690.905   6
  -1  -2  -3 45995.8 749.183  10
  -1  -2  -4 1880.61 158.375  10
   1   2   4 1712.34 134.874   3
   1   2   4 1836.87 147.737   6
   1   2   4 1859.68 69.6323   9
  -1  -2  -4 1884.47 152.039   7
   1   2   5 525.408 85.7185   6
  -1  -2  -5 512.668 90.1822  10
   1   2   5 568.399 85.7871   3
  -1  -2  -5 563.924 93.3253   7
   1   2   6 191.370 58.7106   6
  -1  -2  -6 258.622 65.9867  10
   1   2   6 241.288 65.5199   3
  -1  -2  -6 171.774 58.7103   7
   1   2   7 1572.09 164.117   3
   1   2   7 1408.50 157.054   6
  -1  -2  -7 1360.43 169.338   7
  -1  -2  -7 1411.73 155.735  10
  -1  -2  -8 1076.87 143.526  10
   1   2   8 1006.94 146.178   3
   1   2   8 1352.83 160.505   6
  -1  -2  -8 1117.39 166.653   7
   1   2   9 4374.08 310.133   3
  -1  -2  -9 4916.49 316.823  10
   1   2   9 4478.57 309.518   6
  -1  -2  -9 4512.29 353.989   7
   1   2  10 150.594 67.8827   6
  -1  -2 -10 169.592 75.2780   7
   1   2  10 146.627 59.6774   3
  -1  -2 -11-8.93256 40.7114   7
   1   2  11-74.3095 51.9747   3
   1   2  11-17.7179 34.5199   4
   1   2  12 178.075 72.6779   4
  -1  -2 -12 200.650 94.7250   7
  -1  -2 -12 195.900 93.7104   5
  -1  -2 -13 265.265 119.516   7
   1   3 -15 499.232 155.085   7
  -1  -3  15 395.612 131.508   6
  -1  -3  14-11.1951 40.7807   6
   1   3 -14 27.9085 52.3328   7
  -1  -3  13 765.589 159.251   6
   1   3 -13 890.457 181.158   7
  -1  -3  12 677.616 150.194   6
   1   3 -12 803.599 126.960   9
   1   3 -12 842.572 173.659   7
  -1  -3  11 6790.76 430.216   6
   1   3 -11 7255.04 372.012   9
   1   3 -11 6932.12 444.217   7
   1   3 -10 4.88699 29.9781   9
  -1  -3  10-28.1410 38.8712   6
   1   3 -10 25.4018 27.5470   8
   1   3 -10-2.44209 46.1514   7
   1   3  -9 18704.0 562.526   9
  -1  -3   9 18280.1 641.373   6
   1   3  -9 18827.9 642.079   7
   1   3  -9 19404.6 556.227   8
   1   3  -8 758.808 103.934   8
   1   3  -8 730.510 109.059   9
  -1  -3   8 976.962 143.242   6
   1   3  -7 308.036 74.0010   9
  -1  -3   7 313.338 78.0641   6
   1   3  -7 351.596 66.0388   8
   1   3  -6 3828.51 187.081   8
  -1  -3   6 3649.67 249.497   6
  -1  -3   6 4217.63 150.266   1
   1   3  -6 3849.72 233.188   9
  -1  -3   5 17909.6 519.317   6
  -1  -3   5 17772.7 291.298   1
   1   3  -5 18192.3 488.103   9
  -1  -3   5 16607.4 444.298  10
   1   3  -5 17491.3 361.921   8
  -1  -3   4 14453.0 444.856   6
  -1  -3   4 15611.3 418.411  10
   1   3  -4 14573.2 419.943   3
   1   3  -4 14138.8 300.103   8
   1   3  -4 15417.6 438.712   9
  -1  -3   3 25157.7 535.568  10
   1   3  -3 24986.6 525.867   3
   1   3  -3 24970.6 443.834   4
  -1  -3   2 34695.0 626.305  10
   1   3  -2 34846.8 595.076   3
  -1  -3   2 35477.2 441.881   7
   1   3  -2 35168.3 557.320   4
  -1  -3   1 661.058 88.0395  10
   1   3  -1 653.467 79.5732   3
   1   3  -1 813.736 91.4253   4
  -1  -3   1 748.010 61.7591   7
  -1  -3   0 69061.0 914.979  10
  -1  -3   0 70313.4 794.276   5
   1   3   0 70786.7 884.807   4
   1   3   0 69458.7 792.732   3
  -1  -3   0 70051.5 633.549   7
  -1  -3  -1 18282.2 481.068  10
   1   3   1 18029.1 414.785   3
  -1  -3  -1 17606.5 443.854   5
   1   3   1 17880.9 475.323   4
  -1  -3  -1 18285.7 365.887   7
   1   3   2 171.304 45.4969   3
  -1  -3  -2 161.680 37.9207   7
   1   3   2 192.972 56.3915   4
  -1  -3  -2 116.085 39.9346  10
  -1  -3  -2 247.115 58.1743   5
   1   3   3 617.296 87.3620   3
  -1  -3  -3 595.287 93.1202  10
  -1  -3  -3 686.076 89.9444   7
  -1  -3  -3 608.463 99.3803   5
   1   3   4 1957.77 163.355   3
   1   3   4 1705.36 148.813   6
  -1  -3  -4 1718.05 175.953   5
  -1  -3  -4 2024.23 176.230  10
  -1  -3  -4 2081.82 173.271   7
  -1  -3  -5 4204.66 263.755  10
   1   3   5 3894.99 245.418   3
   1   3   5 3983.93 238.760   6
  -1  -3  -5 3875.51 283.262   5
  -1  -3  -5 3810.70 254.873   7
  -1  -3  -6 29942.5 767.867   7
  -1  -3  -6 29070.2 717.844  10
   1   3   6 29059.6 705.806   3
  -1  -3  -6 29302.4 818.063   5
   1   3   6 31669.6 702.016   6
  -1  -3  -7 781.712 137.927   7
  -1  -3  -7 676.245 134.127   5
   1   3   7 595.594 102.469   6
   1   3   7 615.193 112.734   3
  -1  -3  -7 512.248 99.5062  10
   1   3   8 29514.4 803.128   3
   1   3   8 30346.8 758.709   6
  -1  -3  -8 28732.0 914.216   5
  -1  -3  -8 30683.2 790.717  10
  -1  -3  -8 26949.6 844.411   7
  -1  -3  -9 1340.63 209.652   5
   1   3   9 1495.19 193.275   3
  -1  -3  -9 1507.97 216.104   7
  -1  -3 -10 1755.52 254.966   5
   1   3  10 1983.25 232.293   3
  -1  -3 -10 1988.59 260.224   7
   1   3  11 16.4188 83.5837   4
  -1  -3 -11-7.75771 34.2640   5
  -1  -3 -11 143.050 84.0412   7
  -1  -3 -12 143.696 81.8306   7
   1   3  12 55.6537 50.8324   4
  -1  -4  16-73.2432 65.2604   6
   1   4 -15 336.495 128.781   7
  -1  -4  15 467.176 149.552   6
  -1  -4  14 1451.97 241.351   6
   1   4 -14 1456.78 245.446   7
  -1  -4  13 601.445 147.394   6
   1   4 -13 546.485 146.300   7
  -1  -4  12 490.572 131.118   6
   1   4 -12 389.179 118.807   7
   1   4 -12 494.821 108.275   8
   1   4 -12 793.719 135.923   9
  -1  -4  11 5586.58 404.771   6
   1   4 -11 5527.34 341.008   8
   1   4 -11 5432.10 344.111   9
   1   4 -11 5185.56 384.993   7
   1   4 -10 1943.28 200.826   9
  -1  -4  10 2479.34 260.655   6
   1   4 -10 2195.56 201.394   8
  -1  -4   9 4647.67 341.932   6
   1   4  -9 4874.81 306.865   9
   1   4  -9 4917.45 278.035   8
   1   4  -8 5003.76 261.379   8
  -1  -4   8 5040.99 336.684   6
   1   4  -8 4918.98 301.484   9
  -1  -4   7 9513.50 442.722   6
   1   4  -7 9279.87 330.910   8
   1   4  -7 10052.7 421.270   9
  -1  -4   6 2851.49 111.150   1
  -1  -4   6 2558.52 222.543   6
   1   4  -6 2760.88 216.430   9
   1   4  -6 2734.41 169.373   8
  -1  -4   6 2616.92 203.314  10
  -1  -4   5 1779.44 177.054   6
   1   4  -5 1823.14 171.765   3
   1   4  -5 1671.35 124.807   8
  -1  -4   5 1609.96 156.575  10
   1   4  -4 220.171 46.2845   4
  -1  -4   4 225.073 61.0594  10
  -1  -4   4 198.218 63.2300   6
   1   4  -4 160.486 55.2429   3
  -1  -4   3 3708.80 231.990  10
   1   4  -3 3707.82 226.535   3
   1   4  -3 3806.01 195.955   4
  -1  -4   3 3543.98 176.113   7
  -1  -4   2 48339.3 843.577  10
   1   4  -2 48622.3 792.240   3
   1   4  -2 48972.5 735.854   4
  -1  -4   2 46908.3 613.806   7
   1   4  -1 1016.59 115.302   3
   1   4  -1 981.858 112.021   4
  -1  -4   1 925.585 86.3696   7
  -1  -4   1 1120.10 130.815  10
  -1  -4   0 3245.08 222.620  10
   1   4   0 2963.15 193.754   3
  -1  -4   0 3271.72 204.995   5
  -1  -4   0 2745.76 155.885   7
   1   4   0 3420.54 220.799   4
  -1  -4  -1 1231.37 141.088  10
   1   4   1 1328.90 134.769   3
  -1  -4  -1 1369.73 142.671   5
  -1  -4  -1 1312.39 115.190   7
   1   4   1 1414.24 155.752   4
  -1  -4  -2 15.1404 24.8276   7
  -1  -4  -2 3.69438 24.4910   5
   1   4   2 4.79115 21.5993   3
  -1  -4  -2-37.4223 29.1416  10
  -1  -4  -3 719.270 121.132   5
   1   4   3 624.330 101.023   3
  -1  -4  -3 688.235 99.5018   7
  -1  -4  -3 713.922 113.185  10
  -1  -4  -4 35.6301 39.2947   7
  -1  -4  -4 13.2776 28.2893  10
  -1  -4  -4 8.43408 35.7657   5
   1   4   4-32.4170 31.0745   3
  -1  -4  -5 12465.9 490.046  10
  -1  -4  -5 11601.9 531.638   5
  -1  -4  -5 12210.7 483.800   7
   1   4   5 11718.8 462.585   3
  -1  -4  -6 1351.44 165.604  10
   1   4   6 1404.31 174.648   3
  -1  -4  -6 1490.62 200.661   5
  -1  -4  -6 1520.38 182.749   7
  -1  -4  -7 193.802 79.5794   7
  -1  -4  -7 182.823 68.2362  10
  -1  -4  -7 17.9103 38.7867   5
   1   4   7 115.279 58.8215   3
  -1  -4  -8 300.416 100.026   7
   1   4   8 427.268 108.788   3
  -1  -4  -8 558.777 143.258   5
  -1  -4  -9 346.850 108.388   7
   1   4   9 221.336 89.7355   3
  -1  -4  -9 393.718 120.612   5
  -1  -4 -10 166.684 112.274   5
  -1  -4 -10 58.0292 58.7002   7
   1   4  10-79.9369 58.0362   4
  -1  -4 -11 401.266 120.527   7
   1   4  11 311.894 109.884   4
  -1  -5  15 331.994 133.628   6
   1   5 -15 268.489 123.442   7
  -1  -5  14 678.187 166.281   6
   1   5 -14 425.912 142.097   7
  -1  -5  13 4694.59 417.442   6
   1   5 -13 5204.89 371.378   9
   1   5 -13 4933.36 421.436   7
  -1  -5  12 1408.71 229.240   6
   1   5 -12 1277.87 176.421   8
   1   5 -12 1519.65 196.364   9
  -1  -5  11 5555.92 423.082   6
   1   5 -11 4620.64 337.688   9
   1   5 -11 5213.98 332.241   8
  -1  -5  10 6183.64 434.586   6
   1   5 -10 7058.44 404.647   9
   1   5 -10 7671.21 376.856   8
   1   5  -9 104.549 62.5468   9
  -1  -5   9 105.154 68.9067   6
   1   5  -9 33.3281 40.3390   8
  -1  -5   8 6069.01 390.108   6
   1   5  -8 6381.04 372.586   9
   1   5  -8 6258.82 304.188   8
  -1  -5   7 1843.46 208.004   6
   1   5  -7 1921.00 161.356   8
  -1  -5   6 5959.87 353.509   6
  -1  -5   6 5667.42 327.094  10
   1   5  -6 5422.48 259.256   8
   1   5  -6 5564.29 329.103   3
   1   5  -5 4745.19 218.898   4
  -1  -5   5 4617.65 300.820   6
   1   5  -5 4779.74 236.404   8
  -1  -5   5 4901.83 300.461  10
   1   5  -5 4625.02 292.747   3
  -1  -5   4 70.4083 45.1694   6
   1   5  -4 161.163 57.5472   3
   1   5  -4 173.613 46.9846   4
  -1  -5   4 149.911 55.8128  10
  -1  -5   3 24659.1 666.272  10
  -1  -5   3 23845.9 649.048   6
   1   5  -3 23908.9 637.983   3
   1   5  -3 24115.9 551.694   4
  -1  -5   3 25250.0 526.807   7
  -1  -5   2 1534.26 127.426   7
  -1  -5   2 1585.10 170.967  10
   1   5  -2 1420.80 150.983   3
   1   5  -2 1464.74 144.113   4
   1   5  -1 430.372 85.7495   4
   1   5  -1 345.353 75.7352   3
  -1  -5   1 567.066 104.684  10
  -1  -5   1 519.789 76.9500   7
   1   5   0 123.535 50.9086   3
  -1  -5   0 91.9383 35.2074   7
   1   5   0 49.1649 41.8628   4
  -1  -5   0 77.3891 50.5918  10
  -1  -5  -1 7386.74 376.499  10
   1   5   1 6957.78 340.496   3
  -1  -5  -1 7478.13 368.151   5
  -1  -5  -1 6906.77 298.204   7
   1   5   1 6945.73 365.803   4
  -1  -5  -2 26676.8 729.608  10
   1   5   2 26974.9 682.169   3
  -1  -5  -2 27461.7 734.344   5
   1   5   2 28070.7 766.011   4
  -1  -5  -2 27574.8 630.971   7
  -1  -5  -3 4863.85 318.731  10
   1   5   3 4816.26 301.668   3
  -1  -5  -3 4644.14 324.975   5
  -1  -5  -3 5139.80 292.561   7
  -1  -5  -4 11934.7 550.546   5
   1   5   4 11147.9 476.208   3
  -1  -5  -4 12342.7 515.400  10
  -1  -5  -4 12223.4 483.633   7
   1   5   5 2567.78 236.860   3
  -1  -5  -5 2818.17 252.147  10
  -1  -5  -5 2640.24 271.631   5
  -1  -5  -5 2818.34 246.512   7
  -1  -5  -6 331.552 91.5684   7
  -1  -5  -6 264.899 82.2151  10
  -1  -5  -6 415.104 117.812   5
   1   5   6 394.225 101.386   3
  -1  -5  -7 7.07413 48.3704   7
   1   5   7 13.0980 33.7795   3
  -1  -5  -7 38.7656 33.7541   5
  -1  -5  -8 9.24855 32.0793   7
  -1  -5  -8 23.5607 44.9093   5
   1   5   8 35.6392 40.8360   3
   1   5   9 1856.70 235.697   3
  -1  -5  -9 2132.34 273.850   7
  -1  -5  -9 2361.31 313.785   5
   1   5   9 2026.08 278.133   4
  -1  -5 -10 129.772 72.0063   7
   1   5  10 417.756 141.162   4
   1   6 -15 665.651 168.235   7
  -1  -6  14 207.894 107.455   6
   1   6 -14 180.833 96.3083   7
  -1  -6  13 265.386 122.213   6
   1   6 -13 228.736 83.0434   9
  -1  -6  12 833.636 177.316   6
   1   6 -12 589.122 132.984   9
  -1  -6  11 5154.84 423.992   6
   1   6 -11 5560.80 394.074   9
  -1  -6  10 2712.15 297.828   6
   1   6 -10 3011.13 282.376   9
   1   6 -10 2779.15 235.176   8
   1   6  -9 1109.45 175.219   9
  -1  -6   9 1136.92 188.899   6
   1   6  -9 1186.10 150.642   8
  -1  -6   8 133.766 67.6485   6
   1   6  -8 49.0005 35.6366   8
  -1  -6   7 5760.09 384.989   6
   1   6  -7 5804.81 301.072   8
   1   6  -7 5630.92 367.849   3
  -1  -6   6 76.6657 64.2569   6
   1   6  -6 48.8726 32.7393   8
  -1  -6   6 37.3025 26.9595  10
   1   6  -6 40.8883 37.7422   3
  -1  -6   5 12296.9 521.378  10
  -1  -6   5 12132.9 519.635   6
   1   6  -5 12430.8 519.988   3
   1   6  -5 12857.8 403.348   4
  -1  -6   4 8457.30 422.191   6
  -1  -6   4 8255.55 350.545   7
   1   6  -4 8448.93 421.617   3
  -1  -6   4 8376.51 429.622  10
   1   6  -4 8820.59 355.467   4
   1   6  -3 67.9327 34.5477   4
  -1  -6   3 52.2014 36.7506   7
   1   6  -3 36.1201 39.5462   3
  -1  -6   3 47.6409 42.6836   6
  -1  -6   3 36.5862 36.3794  10
   1   6  -2 10.5247 30.6953   4
  -1  -6   2 4.88956 34.5137  10
  -1  -6   2 20.0217 27.8124   7
   1   6  -2 7.97372 28.3310   3
   1   6  -1 160.342 60.9169   3
   1   6  -1 277.714 76.1070   4
  -1  -6   1 174.960 51.7566   7
  -1  -6   1 183.650 75.1665  10
   1   6   0 607.890 110.854   3
  -1  -6   0 610.682 97.8926   7
   1   6   0 548.973 109.215   4
  -1  -6   0 473.035 108.925  10
   1   6   1 6449.22 363.177   3
  -1  -6  -1 6695.24 390.942  10
   1   6   1 7033.94 403.534   4
  -1  -6  -1 7201.92 341.521   7
  -1  -6  -2 3699.71 296.010  10
   1   6   2 3451.62 271.727   3
   1   6   2 4043.43 316.915   4
  -1  -6  -2 3613.86 293.529   5
  -1  -6  -2 3803.58 259.685   7
   1   6   3 54.3505 42.1038   3
  -1  -6  -3 157.057 59.2249   7
  -1  -6  -3 98.8885 55.7717  10
  -1  -6  -3 245.084 89.5689   5
   1   6   3 146.877 72.6450   4
   1   6   4 1045.30 161.640   3
  -1  -6  -4 1326.18 184.658  10
  -1  -6  -4 1013.99 171.367   5
  -1  -6  -4 1430.07 178.342   7
  -1  -6  -5 1467.41 187.984   7
  -1  -6  -5 1276.34 184.440  10
   1   6   5 1257.64 186.288   3
  -1  -6  -5 1383.53 210.949   5
   1   6   6-49.5195 46.8789   3
  -1  -6  -6 49.3839 35.8709   7
  -1  -6  -6 50.6694 42.5462  10
  -1  -6  -6-9.26682 37.2979   5
   1   6   7 87.5344 57.4392   3
  -1  -6  -7 99.6311 70.3428   5
  -1  -6  -7 251.579 96.3891   7
   1   6   7 145.730 81.1058   4
  -1  -6  -8 2126.29 299.881   5
   1   6   8 2577.26 287.005   3
   1   6   8 2458.96 315.529   4
   1   7 -14 1432.45 224.338   9
  -1  -7  14 1268.18 241.975   6
   1   7 -13 1497.40 225.506   9
  -1  -7  13 1437.71 240.287   6
   1   7 -12 478.272 124.258   9
  -1  -7  12 463.193 136.597   6
  -1  -7  11 106.410 74.2254   6
   1   7 -11 138.855 78.2068   9
  -1  -7  10 173.294 88.1488   6
   1   7 -10 224.919 90.4019   9
  -1  -7   9 301.782 105.723   6
   1   7  -9 355.974 87.6938   8
   1   7  -8 738.838 151.231   3
  -1  -7   8 719.525 159.724   6
   1   7  -8 803.643 126.118   8
  -1  -7   7 2780.10 284.874   6
   1   7  -7 2845.57 228.314   8
   1   7  -7 2776.69 275.312   3
   1   7  -6 445.246 80.2174   4
   1   7  -6 468.867 118.840   3
  -1  -7   6 402.704 111.980  10
  -1  -7   6 418.417 108.711   6
   1   7  -6 312.484 78.2512   8
  -1  -7   5 4989.69 351.725   6
  -1  -7   5 4465.02 341.371  10
   1   7  -5 3697.08 308.181   3
   1   7  -5 4622.92 268.644   4
  -1  -7   4 4763.27 353.485  10
  -1  -7   4 4741.05 337.196   6
   1   7  -4 5145.65 300.461   4
   1   7  -4 5285.29 362.427   3
  -1  -7   4 5344.74 304.778   7
  -1  -7   3 2749.60 249.067   6
  -1  -7   3 2594.92 262.072  10
   1   7  -3 2795.93 260.032   3
   1   7  -3 3264.30 248.285   4
  -1  -7   3 2557.87 207.685   7
   1   7  -2 758.701 126.857   4
   1   7  -2 521.372 115.809   3
  -1  -7   2 547.382 121.351  10
  -1  -7   2 512.641 107.324   6
  -1  -7   2 778.574 114.616   7
  -1  -7   1 283.734 78.1856   7
   1   7  -1 154.952 66.2506   3
   1   7  -1 218.777 68.2947   4
  -1  -7   1 187.298 75.3253  10
   1   7   0 2888.47 261.486   3
  -1  -7   0 3253.24 293.707  10
   1   7   0 3798.55 305.749   4
  -1  -7   0 3901.80 267.045   7
  -1  -7  -1 2900.45 278.123  10
   1   7   1 2571.09 253.695   3
   1   7   1 3019.72 285.028   4
  -1  -7  -1 2813.38 236.522   7
   1   7   2 11185.7 538.601   3
  -1  -7  -2 11287.4 550.626  10
  -1  -7  -2 12555.9 516.045   7
   1   7   2 12031.8 591.476   4
   1   7   3 1331.07 191.625   3
  -1  -7  -3 1507.96 209.470  10
  -1  -7  -3 1482.77 215.996   5
  -1  -7  -3 1428.09 180.963   7
   1   7   3 1621.72 229.152   4
   1   7   4 122.446 68.5554   3
   1   7   4 144.063 82.8739   4
  -1  -7  -4 81.1080 71.2078  10
  -1  -7  -4 152.118 75.7394   5
   1   7   5 358.617 119.823   4
  -1  -7  -5 285.370 93.5270  10
  -1  -7  -5 261.966 102.971   5
   1   7   5 181.231 76.8452   3
   1   7   6 703.092 166.192   4
   1   7   6 670.732 155.404   3
  -1  -7  -6 885.610 195.381   5
   1   7   7 5748.40 444.295   3
  -1  -7  -7 6440.46 527.204   5
   1   8 -14 304.312 120.621   9
  -1  -8  13 3287.23 388.551   6
   1   8 -13 3051.99 338.058   9
  -1  -8  12 13.2943 68.6726   6
   1   8 -12-36.3380 44.1743   9
   1   8 -11-62.9627 55.7182   9
  -1  -8  11-68.1492 64.0974   6
  -1  -8  10 8.12686 73.6132   6
   1   8 -10 101.512 67.7021   9
  -1  -8   9 283.255 115.817   6
   1   8  -9 149.747 80.8821   3
   1   8  -8 1106.53 193.344   3
  -1  -8   8 1128.74 199.500   6
  -1  -8   7 3456.83 330.205   6
   1   8  -7 3801.64 345.590   3
   1   8  -7 3951.87 292.057   8
   1   8  -6 8577.44 509.376   3
  -1  -8   6 8134.25 490.299   6
  -1  -8   6 8374.12 506.057  10
   1   8  -5 75.8418 45.0557   4
  -1  -8   5 161.128 61.5845   7
   1   8  -5 56.4291 53.3140   3
  -1  -8   5 79.1090 59.4816  10
  -1  -8   5-19.7474 37.3422   6
  -1  -8   4 1311.99 190.703   6
   1   8  -4 1242.69 192.586   3
  -1  -8   4 1568.85 219.630  10
   1   8  -4 1281.88 163.720   4
  -1  -8   4 1271.95 164.960   7
  -1  -8   3 3652.26 306.213   6
   1   8  -3 3492.14 315.758   3
  -1  -8   3 3246.68 313.360  10
   1   8  -3 3532.27 282.014   4
  -1  -8   3 3390.66 259.790   7
  -1  -8   2 6140.68 385.677   6
   1   8  -2 5298.75 384.741   3
  -1  -8   2 5553.64 409.622  10
   1   8  -2 5995.02 382.929   4
  -1  -8   2 5613.77 332.385   7
   1   8  -1 41.1730 34.4507   4
   1   8  -1 73.4176 68.7894   3
  -1  -8   1 34.5925 41.8013  10
  -1  -8   1 10.5583 38.4379   6
   1   8   0 139.124 70.0370   4
   1   8   0 198.195 80.8987   3
  -1  -8   0 386.471 110.184  10
   1   8   1 598.244 139.407   4
   1   8   1 662.431 142.131   3
  -1  -8  -1 693.323 151.763  10
   1   8   2 46.0015 45.8312   4
   1   8   2 13.7396 40.8296   3
  -1  -8  -2-5.77284 55.2376  10
   1   8   3 216.396 90.0682   4
   1   8   3 191.430 83.0346   3
  -1  -8  -3 71.6511 55.6063  10
   1   8   4 582.106 147.539   3
   1   8   4 654.990 169.201   4
  -1  -8  -4 598.958 144.181  10
   1   8   5 51.9943 59.2735   4
  -1  -8  -5-36.1382 46.9327   5
   1   8   5 60.8798 57.3362   3
   1   8   6 1140.21 211.202   3
  -1  -9  12 405.952 145.469   6
   1   9 -12 634.166 168.619   9
  -1  -9  11 34.0807 57.8092   6
   1   9 -11 115.986 83.8807   9
  -1  -9  10 410.565 137.825   6
   1   9  -9 6388.22 488.500   3
  -1  -9   9 6202.28 493.657   6
   1   9  -8 1383.79 226.853   3
  -1  -9   8 1284.31 219.985   6
   1   9  -7 1894.75 258.367   3
  -1  -9   7 1279.24 212.910   6
   1   9  -6 1854.10 256.940   3
  -1  -9   6 1540.25 229.471   6
  -1  -9   6 1632.83 242.825  10
  -1  -9   5 3633.23 336.157   6
   1   9  -5 3472.86 345.402   3
  -1  -9   5 3559.80 355.927  10
   1   9  -4 3415.50 338.400   3
  -1  -9   4 3438.04 319.294   6
  -1  -9   4 2702.64 309.788  10
   1   9  -3-70.4087 49.1716   4
  -1  -9   3 19.6090 31.5327   6
   1   9  -3 8.16441 35.4343   3
  -1  -9   3 87.8991 65.4952  10
   1   9  -2 5.81249 31.8504   4
   1   9  -2 46.5468 40.1984   3
  -1  -9   2 134.065 80.8508  10
   1   9  -1 1001.74 176.236   4
   1   9  -1 1030.28 186.567   3
  -1  -9   1 850.902 175.559  10
   1   9   0 876.754 168.573   4
   1   9   0 1066.04 190.291   3
  -1  -9   0 1065.77 202.677  10
   1   9   1 832.826 174.607   4
   1   9   1 900.338 176.027   3
  -1  -9  -1 744.828 163.678  10
   1   9   2-14.7140 40.0188   3
   1   9   2-64.8166 54.3603   4
  -1  -9  -2 36.0036 44.3664  10
   1   9   3 188.100 93.3732   4
   1   9   3 28.5373 44.4995   3
  -1  -9  -3 139.851 74.0779  10
   1   9   4 44.1301 53.8013   3
  -1 -10  10 1494.40 259.569   6
   1  10  -9 1117.97 223.382   3
  -1 -10   9 860.807 190.915   6
   1  10  -8-6.56504 43.4237   3
  -1 -10   8 236.161 111.739   6
   1  10  -7 91.1003 64.6804   3
  -1 -10   7-58.1793 76.4029   6
   1  10  -6 239.235 101.532   3
  -1 -10   6 153.984 79.8122   6
  -1 -10   5 1505.70 247.863  10
   1  10  -5 1975.43 274.900   3
   1  10  -4 2860.16 334.259   3
  -1 -10   4 3013.44 346.726  10
   1  10  -3 2597.33 316.443   3
  -1 -10   3 2740.35 332.737  10
   1  10  -2 3506.82 341.807   4
   1  10  -2 3635.74 372.522   3
  -1 -10   2 3812.63 391.055  10
   1  10  -1 266.264 72.3325   4
   1  10  -1 437.757 130.014   3
  -1 -10   1 228.183 100.838  10
   1  10   0 55.2226 51.3586   4
   1  10   0 76.9398 65.5636   3
  -1 -10   0 6.54938 35.6987  10
   1  10   1 41.2460 52.6959   4
  -1 -10  -1 134.815 77.3188  10
  -2  10   0 20.4327 40.0976   3
   2 -10   0 104.888 75.8522   7
  -2  10  -1 56.0759 52.2656   3
   2 -10   1 152.772 94.1692   7
   2 -10   2 933.430 184.443   7
  -2  10  -2 775.100 167.216   3
   2 -10   3-56.2141 53.1536   7
  -2  10  -3-74.4029 60.6128   3
   2 -10   4 216.929 93.7972   7
  -2  10  -4 193.732 86.5600   3
   2 -10   5 384.031 129.556   7
  -2  10  -5 592.017 144.979   3
  -2  10  -6 1467.41 240.841   3
  -2  10  -6 1530.53 251.564   8
   2 -10   6 1806.18 275.900   7
   2 -10   7 72.4966 65.0320   7
  -2  10  -7 114.159 63.4818   3
  -2  10  -7 146.568 115.673   8
  -2  10  -8 62.1219 63.8371   8
  -2  10  -8-159.008 82.9710   3
  -2  10  -9 30.7538 44.0267   3
  -2   9   3 3383.76 365.608   3
   2  -9  -3 3507.45 382.282   7
  -2   9   2-105.568 69.9962   3
   2  -9  -2-19.6779 48.7566   7
  -2   9   1-40.0969 67.0735   3
   2  -9  -1 13.5863 50.4290   7
  -2   9   0 1158.06 198.870   3
   2  -9   0 1664.01 249.113   7
   2  -9   1 2512.59 307.807   7
  -2   9  -1 2237.25 274.331   3
  -2   9  -2 304.051 103.842   3
   2  -9   2 285.343 129.556   7
   2  -9   3 570.066 148.310   7
  -2   9  -3 501.665 128.939   3
   2  -9   4 1240.35 211.404   7
  -2   9  -4 1271.32 203.730   3
  -2   9  -5 2178.77 280.731   8
  -2   9  -5 1983.87 254.609   3
   2  -9   5 2362.55 294.198   7
   2  -9   6 75.1567 76.9934   7
  -2   9  -6 91.2673 62.1772   3
  -2   9  -6 17.0320 54.4205   8
   2  -9   7 96.8258 71.9856   7
  -2   9  -7 98.9096 62.8444   3
   2  -9   7 46.5519 50.4454   6
  -2   9  -7-38.8346 57.5925   8
  -2   9  -8 2019.60 281.772   8
   2  -9   8 1643.17 241.430   6
  -2   9  -8 2182.28 272.996   3
   2  -9   9-9.87200 52.8847   6
  -2   9  -9 142.712 81.4604   3
  -2   9  -9 198.507 97.8714   8
   2  -9  10 105.181 84.4056   6
  -2   9 -10 357.419 112.888   3
  -2   9 -10 442.820 139.557   8
   2  -9  11 595.425 167.886   6
  -2   8   5 2692.90 322.698   3
   2  -8  -5 3164.25 358.830   7
  -2   8   4 187.463 86.8115   3
   2  -8  -4-30.2868 55.1524   7
  -2   8   3-23.7046 42.5950   3
   2  -8  -3 42.5826 39.8924   7
  -2   8   2 2359.57 274.469   3
   2  -8  -2 2098.62 272.638   7
  -2   8   1 4435.76 369.782   3
   2  -8  -1 4562.00 394.613   7
  -2   8   0 354.294 105.207   3
   2  -8   0 317.354 120.529   7
  -2   8  -1 1040.84 178.078   3
   2  -8   1 1401.02 213.713   7
  -2   8  -2 394.308 103.995   3
   2  -8   2 511.043 129.723   7
   2  -8   3 812.065 155.718   7
  -2   8  -3 621.705 134.800   3
   2  -8   4 1118.90 192.032   7
  -2   8  -4 1095.95 175.754   3
   2  -8   5 1181.39 194.578   7
   2  -8   5 1521.58 195.489   6
  -2   8  -5 1409.39 196.759   3
  -2   8  -5 1202.28 195.970   8
   2  -8   6 465.352 125.472   7
   2  -8   6 691.931 137.553   6
  -2   8  -6 513.348 123.591   3
  -2   8  -6 319.966 118.881   8
   2  -8   7 1999.96 248.077   6
  -2   8  -7 1762.53 227.213   3
  -2   8  -7 1952.28 256.061   8
   2  -8   7 1543.35 235.342   7
  -2   8  -8 239.428 86.3332   3
  -2   8  -8 186.556 86.7128   8
   2  -8   8 102.999 64.6057   6
   2  -8   9-6.96522 43.0872   6
  -2   8  -9 57.6546 51.4441   3
  -2   8  -9 57.2868 37.7460   8
   2  -8  10 51.7320 58.5049   6
  -2   8 -10-116.886 75.8715   8
  -2   8 -11 366.113 128.177   8
   2  -8  11 83.1713 48.1199   6
  -2   8 -12 372.440 131.944   8
   2  -8  12 702.890 183.026   6
   2  -7  -7 45.0949 61.0284   7
  -2   7   7 13.8922 45.0122   3
   2  -7  -6 86.3815 51.6637   7
  -2   7   6 130.377 79.5235   3
   2  -7  -5 282.255 99.7988   7
  -2   7   5 60.7897 53.1954   3
  -2   7   4 2417.48 279.056   3
   2  -7  -4 2178.74 270.578   7
   2  -7  -3 116.690 64.8178   7
  -2   7   3-19.1458 41.6080   3
  -2   7   2-9.64774 48.2792   3
   2  -7  -2 75.3374 46.3130   7
  -2   7   1 14916.1 628.182   3
   2  -7  -1 15662.6 675.088   7
  -2   7   0 7335.98 427.863   3
   2  -7   0 7720.07 468.759   7
  -2   7  -1 1223.84 170.893   3
   2  -7   1 1426.96 200.417   7
  -2   7  -2 17.8137 36.6268   3
   2  -7   2 34.3720 50.5521   7
   2  -7   3 10159.0 424.774   6
  -2   7  -3 8417.78 436.764   3
   2  -7   3 9603.29 506.087   7
   2  -7   4 1355.19 166.812   6
  -2   7  -4 1384.59 179.023   3
   2  -7   4 1302.64 192.314   7
   2  -7   5 869.258 155.776   7
  -2   7  -5 916.855 150.416   3
  -2   7  -5 727.729 146.580   8
   2  -7   5 863.067 145.806   6
  -2   7  -6 5238.84 389.202   8
   2  -7   6 5179.66 366.850   6
  -2   7  -6 5313.00 358.361   3
   2  -7   6 4753.41 374.439   7
   2  -7   7 1241.98 190.497   6
  -2   7  -7 1468.25 189.011   3
  -2   7  -7 1503.73 214.926   8
  -2   7  -8 4826.09 349.066   3
   2  -7   8 4862.59 389.121   6
  -2   7  -8 4663.26 388.434   8
  -2   7  -9 289.092 102.685   8
  -2   7  -9 81.7115 50.8779   3
   2  -7   9 163.823 80.6946   6
   2  -7  10 925.316 191.150   6
  -2   7 -10 648.696 158.541   8
   2  -7  11 2511.64 317.357   6
  -2   7 -11 2157.44 283.768   8
   2  -7  12 85.1693 66.8292   6
  -2   7 -12 166.162 88.5629   8
   2  -6  -9 333.439 119.878   7
  -2   6   9 81.3880 66.0672   3
   2  -6  -8 325.990 135.052   7
  -2   6   8 292.038 113.242   3
   2  -6  -7 427.134 135.038   7
  -2   6   7 539.930 154.088   3
   2  -6  -6 378.158 127.930   7
  -2   6   6 332.958 104.629   3
   2  -6  -5 166.871 77.8116   7
  -2   6   5 42.3899 35.1177   3
  -2   6   4 2142.81 244.789   3
   2  -6  -4 2082.36 253.086   7
  -2   6   3 3168.36 283.980   3
   2  -6  -3 3513.90 316.604   7
   2  -6  -2 75.1176 57.9372   7
  -2   6   2-13.4498 36.3539   3
  -2   6   1-48.7128 39.5097   3
   2  -6  -1-2.15944 35.9771   7
   2  -6   0 2368.80 241.278   7
  -2   6   0 2429.68 224.593   3
  -2   6  -1 8497.94 409.979   3
   2  -6   1 9589.39 321.137   6
   2  -6   1 8384.82 446.731   7
  -2   6  -2 1207.79 151.970   3
   2  -6   2 1405.30 138.191   6
   2  -6   2 1185.65 168.063   7
  -2   6  -3 12980.6 488.452   3
   2  -6   3 13472.8 554.726   7
   2  -6   3 13863.9 474.594   6
   2  -6   4 412.516 103.063   7
  -2   6  -4 425.076 93.8497   3
   2  -6   4 413.323 92.0945   6
  -2   6  -4 513.830 119.458   8
   2  -6   5 3007.27 254.848   6
  -2   6  -5 2722.88 230.672   3
   2  -6   5 2733.69 261.429   7
  -2   6  -5 2790.67 262.737   8
   2  -6   6 835.107 147.466   7
  -2   6  -6 770.653 127.576   3
  -2   6  -6 523.693 118.179   8
   2  -6   6 692.018 132.269   6
   2  -6   7 2309.05 248.255   6
  -2   6  -7 1938.34 201.637   3
  -2   6  -7 1989.81 236.564   8
  -2   6  -8 1091.88 152.696   3
   2  -6   8 1120.81 183.547   6
  -2   6  -8 1301.76 197.833   8
   2  -6   9 133.066 87.2400   6
  -2   6  -9 12.7102 38.4494   8
  -2   6 -10 76.8466 64.3870   8
   2  -6  10-59.7613 56.5426   6
   2  -6  11 83.0985 59.3081   6
  -2   6 -11 58.6454 64.6155   8
  -2   6 -12 94.3652 72.9064   8
   2  -6  12 54.6059 54.8495   6
   2  -6  13 49.1263 60.0043   6
  -2   6 -13-132.406 79.6867   8
   2  -5 -10 1707.28 263.195   5
   2  -5 -10 1942.99 290.851   7
  -2   5  10 1659.42 259.908   3
   2  -5  -9 12.6764 40.1328   7
   2  -5  -9 11.1242 35.5269   5
  -2   5   9-1.57805 74.9858   3
   2  -5  -8 515.715 143.791   7
  -2   5   8 565.648 144.917   3
   2  -5  -7 149.901 85.8825   7
  -2   5   7 170.530 83.6353   3
  -2   5   6 6526.44 431.932   3
   2  -5  -6 7224.06 468.257   7
  -2   5   5 3046.49 282.022   3
   2  -5  -5 3328.36 303.170   7
   2  -5  -4 106.122 59.9030   7
  -2   5   4 88.2934 44.0920   3
  -2   5   3 10854.1 489.942   3
   2  -5  -3 11247.3 518.734   7
   2  -5  -2 754.353 137.037   7
  -2   5   2 715.062 119.580   3
  -2   5   1 1528.39 169.141   3
   2  -5  -1 1510.57 181.500   7
   2  -5   0 35834.0 857.747   7
   2  -5   0 37415.3 543.715   6
  -2   5   0 34764.1 771.605   3
   2  -5   1 6794.58 261.462   6
   2  -5   1 6172.57 353.237   7
  -2   5  -1 6501.40 323.629   3
   2  -5   2 13007.6 406.752   6
  -2   5  -2 12363.3 434.283   3
   2  -5   2 12749.2 499.622   7
   2  -5   3 2370.38 188.367   6
  -2   5  -3 2411.62 170.308   1
  -2   5  -3 2251.76 182.641   3
   2  -5   3 2300.41 215.119   7
   2  -5   4 2105.18 191.453   6
  -2   5  -4 2107.79 179.517   3
  -2   5  -4 2127.43 212.542   8
  -2   5  -4 2357.64 162.065   1
   2  -5   4 2172.64 213.900   7
  -2   5  -5 7276.73 269.993   1
   2  -5   5 6647.94 366.365   6
  -2   5  -5 6719.74 383.133   8
  -2   5  -5 6284.19 319.131   3
   2  -5   5 6383.82 377.286   7
  -2   5  -6 613.275 101.337   3
  -2   5  -6 760.800 85.6131   1
   2  -5   6 793.532 135.487   6
  -2   5  -6 671.060 129.067   8
   2  -5   7 1618.27 204.012   6
  -2   5  -7 1626.69 204.657   8
  -2   5  -7 1564.69 164.629   3
  -2   5  -8 224.858 81.7798   8
   2  -5   8 464.606 121.755   6
   2  -5   9 3485.43 322.949   6
  -2   5  -9 4014.54 346.511   8
   2  -5  10 7572.81 498.061   6
  -2   5 -10 7309.90 483.953   8
   2  -5  11 5602.71 450.658   6
  -2   5 -11 5728.88 446.015   8
   2  -5  12 1536.87 248.572   6
  -2   5 -12 1403.68 229.072   8
   2  -5  13 449.864 146.881   6
  -2   5 -13 434.076 134.721   8
   2  -4 -12 1643.64 266.599   5
   2  -4 -11 37.2501 50.3008   7
  -2   4  11 6.79560 45.2027   3
   2  -4 -11 103.651 71.8287   5
   2  -4 -10 964.179 197.261   7
  -2   4  10 886.383 180.406   3
   2  -4 -10 608.305 146.256   5
   2  -4  -9 74.3997 62.2999   7
  -2   4   9 127.088 77.1379   3
   2  -4  -9 44.5868 62.4571   5
   2  -4  -8 385.655 116.868   7
  -2   4   8 365.511 107.474   3
   2  -4  -8 282.292 95.4133   5
  -2   4   7 356.081 101.081   3
   2  -4  -7 390.654 113.135   7
   2  -4  -7 436.942 116.039   5
  -2   4   6 81.8915 58.4328   3
   2  -4  -6 43.1648 52.0973   7
  -2   4   5 2303.25 226.476   3
   2  -4  -5 2515.88 248.781   7
   2  -4  -4 81.6358 51.2820   7
  -2   4   4 152.870 54.5995   3
  -2   4   3 6556.46 346.784   3
   2  -4  -3 6503.65 366.101   7
  -2   4   2 4180.71 263.376   3
   2  -4  -2 4384.21 286.995   7
  -2   4   1 18562.5 537.722   1
   2  -4  -1 19846.6 324.356   6
  -2   4   1 18488.3 526.258   3
   2  -4  -1 18731.8 577.642   7
   2  -4   0 4864.16 194.237   6
   2  -4   0 5066.31 293.637   7
  -2   4   0 5011.95 262.186   3
  -2   4  -1 37650.7 685.450   3
   2  -4   1 37687.9 616.493   6
   2  -4   1 39059.3 806.953   7
  -2   4  -2 47.8981 30.9260   3
   2  -4   2 17.9850 36.9647   7
  -2   4  -2 53.3953 30.6768   1
   2  -4   2 24.5765 27.6911   6
  -2   4  -3 13386.3 375.648   1
  -2   4  -3 13093.6 388.576   3
   2  -4   3 13362.4 434.501   6
  -2   4  -3 12934.9 473.859   8
   2  -4   3 13529.9 480.689   7
  -2   4  -4 11239.6 336.508   1
   2  -4   4 10701.3 417.681   6
  -2   4  -4 11282.7 374.264   3
  -2   4  -4 11446.7 462.630   8
   2  -4   4 11324.6 451.643   7
  -2   4  -5 4210.44 291.827   8
   2  -4   5 3834.01 269.113   6
  -2   4  -5 4028.50 198.643   1
  -2   4  -5 4172.17 228.794   3
   2  -4   6 4193.48 297.333   6
  -2   4  -6 4199.63 306.211   8
  -2   4  -6 4536.95 245.726   3
   2  -4   7 28076.5 810.856   6
  -2   4  -7 28634.7 823.618   8
  -2   4  -8 34.9648 49.1637   8
   2  -4   8 201.483 77.5122   6
   2  -4   9 383.283 117.502   6
  -2   4  -9 181.851 76.7518   8
   2  -4  10 2764.10 297.215   6
  -2   4 -10 3132.46 313.031   8
   2  -4  11 6.97626 36.0431   6
  -2   4 -11 15.9603 52.0455   8
   2  -4  12 37.9911 50.8711   6
  -2   4 -12 86.6905 63.8367   8
  -2   4 -13 81.8649 77.3698   8
   2  -4  13 57.5758 58.1514   6
   2  -3 -13 383.428 128.915   5
   2  -3 -12 897.308 196.393   7
  -2   3  12 857.102 189.310   3
   2  -3 -12 764.092 173.180   5
   2  -3 -11-117.131 79.2431   7
  -2   3  11-10.9986 31.4158   3
   2  -3 -11-24.7131 48.5229   5
   2  -3 -10 281.298 104.847   7
  -2   3  10 179.282 87.6673   3
   2  -3 -10 137.402 69.3878   5
   2  -3  -9 102.436 72.1419   7
  -2   3   9 103.608 66.0057   3
   2  -3  -9 58.9816 51.4181   5
  -2   3   8 3164.27 296.741   3
   2  -3  -8 3494.91 295.420   5
   2  -3  -8 2911.74 293.636   7
  -2   3   7 4373.33 330.315   3
   2  -3  -7 4221.22 311.702   5
   2  -3  -7 4561.49 349.431   7
  -2   3   6 9170.01 448.961   3
   2  -3  -6 8869.86 427.702   5
   2  -3  -6 8711.00 457.649   7
   2  -3  -5 28.8567 35.8226   7
  -2   3   5 43.1592 39.0624   3
  -2   3   4 2423.20 207.655   3
   2  -3  -4 1966.81 193.368   7
   2  -3  -3 432.970 89.8872   7
  -2   3   3 351.030 31.6423   6
  -2   3   3 442.403 92.0553   1
  -2   3   3 379.273 79.5390   3
  -2   3   2 1159.62 126.948   3
   2  -3  -2 986.884 126.683   7
  -2   3   1 2868.82 184.674   3
   2  -3  -1 2984.04 134.641   6
   2  -3  -1 2996.43 210.637   7
   2  -3   0 956.883 89.0581   6
  -2   3   0 1025.58 104.790   3
   2  -3   0 1245.51 131.743   7
  -2   3   0 1066.11 114.897   1
  -2   3  -1 2889.92 179.435   1
  -2   3  -1 2937.75 166.023   3
   2  -3   1 2917.54 200.941   7
   2  -3   1 3003.80 171.971   6
  -2   3  -2 1733.33 135.786   1
   2  -3   2 1872.10 149.170   6
  -2   3  -2 1714.50 121.212   3
  -2   3  -2 1827.79 160.837   8
   2  -3   2 1867.51 160.227   7
   2  -3   3 12995.3 418.574   6
  -2   3  -3 13458.9 336.348   3
  -2   3  -3 14144.7 462.130   8
   2  -3   3 13321.1 443.645   7
   2  -3   4 48530.3 871.052   6
  -2   3  -4 49638.1 668.106   3
  -2   3  -4 48304.4 903.940   8
   2  -3   4 48654.9 872.705   7
  -2   3  -5 124.678 37.1609   3
   2  -3   5 70.2115 39.3967   6
  -2   3  -5 88.4075 48.5658   8
  -2   3  -6 324.015 88.4601   8
   2  -3   6 239.591 78.9309   6
  -2   3  -7 11809.4 514.526   8
   2  -3   7 11125.9 499.861   6
   2  -3   8 1040.75 166.003   6
  -2   3  -8 733.416 137.644   8
   2  -3   9 702.677 138.872   6
  -2   3  -9 437.774 112.915   8
   2  -3  10 2922.57 299.388   6
  -2   3 -10 2883.97 299.380   8
   2  -3  11 1618.14 236.001   6
  -2   3 -11 1456.80 225.996   8
   2  -3  12 906.196 182.500   6
  -2   3 -12 534.129 140.139   8
   2  -3  13 33.4602 75.6191   6
  -2   3 -13 142.429 87.4268   8
  -2   3 -13 17.1797 38.5055   7
  -2   3 -14 2104.49 310.785   7
   2  -2 -13 768.547 191.811   7
   2  -2 -13 1010.16 196.303   5
  -2   2  13 1403.08 242.680   3
   2  -2 -12 27.4326 56.1897   7
   2  -2 -12 24.6978 45.3044   5
   2  -2 -11 468.422 138.427   7
  -2   2  11 661.492 150.114   3
   2  -2 -11 719.546 150.572   5
  -2   2  10 3535.73 331.439   3
   2  -2 -10 3294.93 298.771   5
   2  -2 -10 2997.72 315.617   7
  -2   2   9 5803.33 407.934   3
   2  -2  -9 6104.58 384.664   5
   2  -2  -9 6517.51 440.831   7
   2  -2  -8 111.304 73.4842   7
  -2   2   8 60.8103 40.2579   3
   2  -2  -8 5.34303 28.7886   5
   2  -2  -7 392.650 104.344   7
  -2   2   7 262.520 80.9900   3
   2  -2  -7 224.281 71.1331   5
   2  -2  -6 7.62018 31.6106   7
  -2   2   6 26.5867 19.0247   6
  -2   2   6 8.84342 29.5596   3
   2  -2  -6 18.2439 21.2268   5
  -2   2   5 11423.1 447.709   3
  -2   2   5 12336.7 271.978   6
   2  -2  -5 11488.0 413.536   5
   2  -2  -5 11801.2 462.939   7
   2  -2  -4 206.685 62.1478   7
  -2   2   4 238.798 64.9598   3
  -2   2   4 242.549 30.3980  10
  -2   2   4 210.111 35.2205   6
  -2   2   4 160.641 56.5414   1
   2  -2  -3 53.4494 35.6163   7
   2  -2  -3 69.6189 34.6698   2
  -2   2   3 48.4043 33.7754   3
  -2   2   2 4464.82 220.120   3
   2  -2  -2 4149.16 233.168   2
   2  -2  -2 4250.13 229.748   7
  -2   2   1 43260.2 707.448   1
  -2   2   1 42103.9 613.526   3
   2  -2  -1 43024.0 550.935   6
   2  -2  -1 42810.9 743.090   2
   2  -2  -1 42760.0 701.489   7
   2  -2   0 3255.87 166.989   6
  -2   2   0 3144.21 153.223   3
  -2   2   0 3249.73 185.999   1
   2  -2   0 3130.83 185.457   7
   2  -2   1 16404.5 419.253   7
   2  -2   1 16903.6 467.546   2
   2  -2   1 16443.5 405.756   6
  -2   2  -1 16160.8 423.207   8
  -2   2  -1 15987.1 311.992   3
  -2   2  -2 486.851 50.3284   3
   2  -2   2 448.265 72.4638   7
   2  -2   2 475.589 77.1560   6
  -2   2  -2 496.671 80.5551   8
   2  -2   2 438.070 76.0995   2
   2  -2   3 3497.49 211.731   2
  -2   2  -3 3525.62 137.569   3
   2  -2   3 3537.49 217.217   6
  -2   2  -3 3343.66 215.147   8
   2  -2   3 3537.99 209.284   7
  -2   2  -4 23171.7 595.225   8
   2  -2   4 23047.6 594.249   6
   2  -2   5 244.668 68.2324   6
  -2   2  -5 301.189 77.1258   8
   2  -2   6 151.436 57.7788   6
  -2   2  -6 119.601 52.7400   8
  -2   2  -7 1.17930 35.8778   8
   2  -2   7-10.8142 42.4186   6
   2  -2   8 18937.1 461.280   4
   2  -2   8 17809.0 659.705   6
  -2   2  -8 18080.7 670.456   8
   2  -2   9 1058.92 171.448   6
  -2   2  -9 1043.14 173.860   8
   2  -2  10 38.7721 32.1543   6
  -2   2 -10 5.32826 53.8292   8
   2  -2  11 6753.45 467.244   6
  -2   2 -11 6497.15 476.061   8
   2  -2  12 3868.44 370.062   6
  -2   2 -12 3995.09 385.541   7
   2  -2  13 248.785 105.461   6
  -2   2 -13 329.835 127.919   7
   2  -2  14 1925.52 282.339   6
   2  -1 -13 165.545 93.7423   7
  -2   1  13 78.6681 74.0384   3
   2  -1 -13 169.857 72.4688   5
  -2   1  12 8042.26 542.313   3
   2  -1 -12 8077.82 493.398   5
   2  -1 -12 8178.56 556.191   7
   2  -1 -11-82.1790 67.4836   7
   2  -1 -11 70.1951 64.1121   5
  -2   1  11 88.5062 62.0686   3
   2  -1 -10 125.594 71.1463   7
  -2   1  10 18.7793 39.1418   3
   2  -1 -10 124.161 62.6362   5
  -2   1   9 5512.85 384.887   3
   2  -1  -9 6056.64 356.019   5
   2  -1  -9 5513.94 386.367   7
  -2   1   8 11838.7 531.107   3
  -2   1   8 12321.2 394.830   6
   2  -1  -8 10718.4 443.756   5
   2  -1  -8 11714.6 531.790   7
  -2   1   7 9140.63 438.465   3
  -2   1   7 10004.1 334.212   6
   2  -1  -7 9203.35 327.037   2
   2  -1  -7 9117.30 379.920   5
   2  -1  -7 9096.65 437.992   7
  -2   1   6 10793.6 446.271   3
  -2   1   6 10770.1 329.715   6
   2  -1  -6 10773.2 357.645   2
   2  -1  -6 10182.5 369.201   5
   2  -1  -6 10396.6 436.981   7
  -2   1   5 10832.7 412.620   3
  -2   1   5 11117.4 317.546   6
   2  -1  -5 10216.2 354.223   2
  -2   1   5 10668.6 401.594   1
   2  -1  -5 10823.4 356.433   5
   2  -1  -5 10324.9 403.872   7
  -2   1   4 4679.35 251.424   3
  -2   1   4 4387.89 126.722  10
   2  -1  -4 4268.56 226.958   2
   2  -1  -4 4571.17 249.999   7
  -2   1   4 4976.68 259.907   1
  -2   1   3 4315.49 219.156   3
   2  -1  -3 4334.86 222.133   7
   2  -1  -3 4559.27 235.895   2
  -2   1   2 12330.2 332.177   3
   2  -1  -2 12398.1 384.585   2
   2  -1  -2 12164.9 341.599   7
   2  -1  -1 40.5001 29.0185   7
  -2   1   1-1.40683 15.0647   3
  -2   1   0 14267.8 258.156   3
   2  -1   0 13942.3 361.101   6
  -2   1   0 14041.3 335.330   8
   2  -1   0 13722.2 335.095   7
   2  -1   1 586.538 85.8228   2
   2  -1   1 576.325 42.5659   3
  -2   1  -1 541.885 39.3879   3
  -2   1  -1 503.182 70.1592   8
   2  -1   1 446.635 69.9838   6
   2  -1   1 510.989 64.4070   7
   2  -1   2 19.6703 22.5604   2
   2  -1   2-3.62350 20.7763   7
   2  -1   2-22.6591 31.4852   6
  -2   1  -2-2.48153 27.8646   8
   2  -1   3 9955.64 369.068   6
   2  -1   3 10321.5 144.076   3
   2  -1   3 10110.6 347.946   2
  -2   1  -3 10243.3 357.528   8
   2  -1   4 55898.4 931.140   6
   2  -1   4 56504.1 822.561   2
   2  -1   4 57320.6 459.541   3
  -2   1  -4 54467.0 901.476   8
   2  -1   5 5404.39 178.659   3
   2  -1   5 5012.15 241.325   2
  -2   1  -5 5392.94 302.727   8
   2  -1   5 4693.82 286.518   6
   2  -1   5 4971.22 233.095   4
   2  -1   6 6274.73 229.651   3
   2  -1   6 6418.16 270.898   2
  -2   1  -6 6056.58 345.197   8
   2  -1   6 5786.26 336.978   6
   2  -1   6 5735.08 262.614   4
   2  -1   7 1361.50 174.079   6
   2  -1   7 1431.93 123.546   3
  -2   1  -7 1314.21 174.178   8
   2  -1   7 1336.14 133.723   4
   2  -1   8 6255.70 280.760   3
   2  -1   8 5677.33 368.422   6
  -2   1  -8 5690.78 380.855   8
   2  -1   8 5846.88 294.618   4
   2  -1   9 455.325 86.0172   4
  -2   1  -9 460.635 113.161   8
   2  -1   9 387.604 111.253   6
   2  -1  10 7947.62 483.595   6
  -2   1 -10 6902.79 453.362   7
   2  -1  11 24.4860 40.4968   6
  -2   1 -11-11.0512 38.6626   7
  -2   1 -12-13.0143 42.4695   7
   2  -1  12 141.905 93.6902   6
  -2   1 -13 264.282 112.369   7
   2  -1  13 215.524 91.9260   6
   2  -1  14 100.053 69.1357   6
   2   0 -14-55.0578 60.8381   7
  -2   0  14-20.7543 48.0949   3
  -2   0  13-76.6109 65.7778   3
   2   0 -13 98.6648 63.2221   5
   2   0 -13 6.37044 47.2681   7
   2   0 -12 132.364 82.9892   7
  -2   0  12-15.9770 41.7341   3
   2   0 -12 106.114 63.3833   5
  -2   0  11 2070.59 256.305   3
   2   0 -11 2163.76 265.420   7
   2   0 -11 2347.37 235.749   5
  -2   0  10 2014.26 240.314   3
  -2   0  10 2077.86 197.202   6
   2   0 -10 1740.10 190.599   5
   2   0 -10 2117.28 249.015   7
   2   0  -9-5.07586 42.1550   7
   2   0  -9 29.9235 27.0606   5
  -2   0   9 104.133 47.1517   6
  -2   0   9 27.1434 41.1239   3
  -2   0   8 7355.70 406.857   3
  -2   0   8 7651.67 341.823   6
   2   0  -8 7506.89 338.622   5
   2   0  -8 7506.01 289.669   2
   2   0  -8 7118.57 393.826   7
  -2   0   7 21146.9 646.317   3
  -2   0   7 20981.9 541.795   6
   2   0  -7 21168.1 492.637   2
   2   0  -7 21129.9 521.841   5
   2   0  -7 20826.9 624.875   7
  -2   0   6 1321.30 152.615   3
  -2   0   6 1321.61 128.202   6
   2   0  -6 1218.56 120.700   2
   2   0  -6 1129.32 111.242   5
  -2   0   6 1331.97 141.843   1
   2   0  -6 1220.57 141.771   7
  -2   0   5 41694.8 410.521  10
  -2   0   5 40949.3 686.166   6
   2   0  -5 39393.0 688.561   2
   2   0  -5 40643.8 579.857   5
   2   0  -5 41347.4 747.605   7
  -2   0   5 39658.4 726.992   1
   2   0  -4 406.856 70.3775   7
   2   0  -4 521.989 81.9603   2
  -2   0   4 475.897 52.6235  10
  -2   0   4 475.294 79.1931   1
  -2   0   3 546.959 81.5106   1
  -2   0   3 479.418 57.3982  10
   2   0  -3 662.589 90.6371   2
   2   0  -3 555.564 73.0239   7
  -2   0   2 8933.53 266.627  10
   2   0  -2 8486.14 242.020   7
   2   0  -2 8414.67 317.167   2
  -2   0   1 9146.71 224.870   3
  -2   0   1 9061.96 214.353   8
  -2   0   1 9059.59 291.159  10
   2   0  -1 9131.87 225.581   7
   2   0   0 88187.8 667.805   7
  -2   0   0 90102.1 772.130   8
  -2   0  -1 69416.7 765.149   8
   2   0   1 74934.9 919.114   6
   2   0   1 73912.3 936.007   2
   2   0   2 4758.81 246.087   6
  -2   0  -2 4550.38 219.575   8
   2   0   2 4586.92 230.344   2
   2   0   3 14808.7 459.571   6
  -2   0  -3 15278.8 439.836   8
   2   0   3 14469.4 410.815   2
   2   0   3 15251.4 418.684   4
   2   0   4 21255.7 575.418   6
   2   0   4 21422.9 282.154   3
  -2   0  -4 21677.8 570.616   8
   2   0   4 21231.1 495.888   2
   2   0   4 20511.5 508.147   4
   2   0   5 16.9356 26.2755   4
   2   0   5 34.2993 23.9847   2
   2   0   5 39.2854 32.2822   6
  -2   0  -5 21.9819 34.1395   8
   2   0   5 43.1600 18.8178   3
   2   0   6 3644.94 174.683   3
   2   0   6 3736.07 204.904   2
  -2   0  -6 3657.91 275.270   8
   2   0   6 3479.28 263.969   6
   2   0   6 3723.15 235.545   4
   2   0   7 2637.86 166.885   3
   2   0   7 2513.09 236.512   6
  -2   0  -7 2258.57 213.041   7
   2   0   7 2502.71 164.230   2
   2   0   7 2411.60 199.259   4
   2   0   8 442.244 93.6739   4
   2   0   8 477.549 109.636   6
  -2   0  -8 526.591 112.475   7
   2   0   9 464.416 94.8521   4
   2   0   9 599.905 132.241   6
  -2   0  -9 787.770 145.988   7
   2   0  10 11853.7 590.373   6
  -2   0 -10 13143.4 618.121   7
  -2   0 -11 1645.93 224.425  10
   2   0  11 1457.55 221.656   6
  -2   0 -11 1523.45 229.551   7
  -2   0 -12 49.7130 67.5538   7
   2   0  12-231.058 92.9273   6
  -2   0 -13 96.0013 70.0370   7
   2   0  13-30.4887 48.6688   6
   2   1 -14 1674.43 266.445   7
  -2  -1  14 2152.51 297.054   3
   2   1 -13 1678.07 254.122   7
  -2  -1  13 1634.84 249.246   3
   2   1 -12 1166.25 205.762   7
  -2  -1  12 1152.09 170.228   6
  -2  -1  12 885.604 181.147   3
   2   1 -12 1002.81 158.346   5
   2   1 -11 366.407 108.774   7
   2   1 -11 321.304 84.4003   5
  -2  -1  11 288.961 79.6592   6
  -2  -1  11 412.523 118.844   3
  -2  -1  10 1784.58 195.282   6
   2   1 -10 1846.30 178.895   5
   2   1 -10 1516.31 202.476   7
  -2  -1   9 7012.46 370.103   6
   2   1  -9 7439.99 296.455   2
   2   1  -9 7389.55 331.905   5
   2   1  -9 7130.50 406.373   7
   2   1  -8-42.4035 46.1222   7
   2   1  -8 16.7084 22.1450   2
   2   1  -8 12.0649 24.5989   5
  -2  -1   8 20.0329 31.2280   6
  -2  -1   7 13333.4 464.982   6
   2   1  -7 12574.9 455.138   9
   2   1  -7 13272.6 366.262   5
  -2  -1   7 13087.4 430.619   1
   2   1  -7 13014.9 402.857   2
   2   1  -7 12977.0 470.988   7
  -2  -1   6 11144.2 271.000  10
  -2  -1   6 10821.9 399.813   6
   2   1  -6 11035.1 288.022   5
   2   1  -6 10327.8 397.719   9
   2   1  -6 10566.3 364.185   2
   2   1  -6 10695.7 392.486   7
  -2  -1   6 10724.9 369.843   1
  -2  -1   5 7740.56 301.009   1
  -2  -1   5 8300.52 249.811  10
   2   1  -5 8572.22 350.044   9
   2   1  -5 8819.45 211.627   5
   2   1  -5 8290.95 308.223   7
   2   1  -5 8256.61 321.405   2
  -2  -1   4 224.254 43.6969  10
   2   1  -4 164.957 42.6394   7
  -2  -1   4 201.027 48.9643   1
   2   1  -4 176.300 53.9351   9
  -2  -1   4 205.853 24.0933   8
   2   1  -4 193.301 54.8154   2
  -2  -1   3 16806.6 386.709  10
   2   1  -3 17224.0 456.359   9
   2   1  -3 16855.3 337.252   7
   2   1  -3 17631.8 467.857   2
  -2  -1   2 12733.9 353.541  10
   2   1  -2 13171.3 384.832   9
  -2  -1   2 14621.5 249.120   7
   2   1  -2 13464.2 236.666   7
  -2  -1   1 85058.0 959.375  10
   2   1  -1 84605.0 934.944   9
   2   1  -1 91794.2 601.606   8
  -2  -1   1 84365.1 582.024   8
  -2  -1   1 89609.8 472.031   7
  -2  -1   0 4017.96 124.212   3
  -2  -1   0 3537.29 207.686  10
  -2  -1   0 3603.22 151.794   8
   2   1   0 3602.59 184.890   9
   2   1   0 3796.72 215.885   2
  -2  -1   0 3810.29 93.9186   7
  -2  -1  -1 69412.9 452.382   3
  -2  -1  -1 68111.3 949.442  10
   2   1   1 68014.5 924.343   6
  -2  -1  -1 65152.8 759.995   8
   2   1   1 66445.6 906.384   2
  -2  -1  -1 67258.5 506.207   7
   2   1   1 65534.7 452.032   3
   2   1   1 63780.5 867.670   4
   2   1   2 1741.33 74.0369   3
  -2  -1  -2 1653.97 157.426  10
  -2  -1  -2 1919.91 79.8025   3
  -2  -1  -2 1782.64 142.678   8
   2   1   2 1535.83 145.582   6
   2   1   2 1772.86 149.906   2
   2   1   2 1683.09 146.903   4
   2   1   3 2604.21 201.483   6
  -2  -1  -3 2836.13 215.231  10
   2   1   3 2799.33 107.990   3
  -2  -1  -3 2825.58 160.569   7
   2   1   3 2645.34 181.427   2
   2   1   3 2459.28 184.358   4
   2   1   4 11675.0 262.556   3
  -2  -1  -4 11462.5 454.280  10
   2   1   4 11059.4 425.990   6
   2   1   4 11656.8 377.529   2
  -2  -1  -4 11553.1 366.216   7
   2   1   4 11851.4 421.561   4
   2   1   5 333.148 79.0106   4
   2   1   5 305.223 61.0648   2
  -2  -1  -5 213.768 66.3426  10
   2   1   5 251.469 72.6044   6
   2   1   5 369.584 56.2115   3
  -2  -1  -5 418.502 81.6984   7
   2   1   6 9315.20 303.924   3
  -2  -1  -6 8534.31 422.786  10
   2   1   6 8309.82 408.580   6
   2   1   6 9691.74 335.884   2
  -2  -1  -6 8603.60 385.290   7
   2   1   6 8236.66 385.028   4
   2   1   7 11932.7 380.272   3
  -2  -1  -7 10667.6 492.125  10
   2   1   7 10659.0 485.804   6
  -2  -1  -7 10933.0 470.812   7
   2   1   7 11375.7 473.078   4
  -2  -1  -8 34808.9 918.619  10
   2   1   8 35856.0 938.912   6
  -2  -1  -8 38015.1 932.236   7
   2   1   8 35750.5 879.469   4
   2   1   9 1434.26 198.678   6
  -2  -1  -9 1456.31 198.515  10
  -2  -1  -9 1299.77 186.896   7
   2   1   9 1508.07 189.784   4
  -2  -1 -10-15.4531 37.1903   7
   2   1  10 72.0431 47.9435   4
   2   1  10 71.6087 53.1450   6
  -2  -1 -10 18.6733 40.1499  10
  -2  -1 -11 546.587 139.005   7
   2   1  11 424.592 120.052   6
  -2  -1 -12 594.457 150.794   7
   2   1  12 465.183 139.087   6
  -2  -1 -13-17.5058 50.8037   7
   2   2 -15 409.478 139.986   7
   2   2 -14 304.796 113.395   7
  -2  -2  14 412.160 121.450   3
   2   2 -13 151.093 82.7733   7
  -2  -2  13-14.6378 39.2243   3
  -2  -2  13 162.745 75.2527   6
   2   2 -12 98.8553 61.4252   7
  -2  -2  12 66.2047 58.8623   6
  -2  -2  11 2475.99 255.172   6
   2   2 -11 2862.30 253.582   9
   2   2 -11 2666.56 275.180   7
  -2  -2  10 8782.48 455.909   6
   2   2 -10 8531.91 426.161   9
   2   2 -10 8250.55 456.550   7
  -2  -2   9 10763.9 488.103   6
   2   2  -9 11159.5 467.134   9
   2   2  -9 10498.3 480.767   7
  -2  -2   8 7974.72 398.249   6
   2   2  -8 8121.90 386.547   9
  -2  -2   8 8500.92 340.318   1
   2   2  -8 8074.33 390.577   7
  -2  -2   7 11738.0 465.293   6
  -2  -2   7 11939.8 349.454  10
   2   2  -7 11862.0 452.483   9
   2   2  -7 12113.7 436.046   7
  -2  -2   7 11728.5 383.447   1
  -2  -2   6 32782.0 603.215   1
  -2  -2   6 32887.2 752.919   6
   2   2  -6 34491.4 748.877   9
  -2  -2   6 33721.0 586.487  10
   2   2  -6 33369.3 656.256   7
  -2  -2   5 8389.46 296.795  10
  -2  -2   5 7909.66 289.877   1
   2   2  -5 8450.55 357.669   9
   2   2  -5 8100.88 144.565   5
   2   2  -5 8399.83 293.564   7
  -2  -2   4 7693.66 290.941  10
   2   2  -4 7823.78 331.522   9
   2   2  -4 7615.40 244.720   7
   2   2  -3 95.4990 25.0411   7
  -2  -2   3 127.448 44.0732  10
   2   2  -3 110.394 39.8668   9
  -2  -2   2 7860.12 313.743  10
   2   2  -2 8267.86 315.740   9
   2   2  -2 7767.49 134.278   8
  -2  -2   2 7819.13 136.057   5
   2   2  -1 4346.62 182.639   3
  -2  -2   1 4229.28 235.831  10
  -2  -2   1 4167.14 143.171   5
   2   2  -1 4209.92 215.498   9
   2   2   0 5523.07 237.004   9
   2   2   0 5244.09 189.731   3
  -2  -2   0 5125.31 268.347  10
   2   2   0 5406.06 266.271   4
  -2  -2  -1 23434.5 598.633  10
   2   2   1 23437.6 385.529   3
  -2  -2  -1 23599.9 293.319   7
   2   2   1 22743.8 461.729   9
   2   2   1 23902.7 580.870   4
  -2  -2  -2 1512.32 157.569  10
   2   2   2 1345.37 94.0925   3
   2   2   2 1376.86 105.937   9
  -2  -2  -2 1460.12 96.9158   7
   2   2   2 1451.59 149.851   4
  -2  -2  -3 207.124 44.6745   7
   2   2   3 219.755 43.3083   3
   2   2   3 203.442 62.9325   4
   2   2   3 95.7639 48.5686   6
  -2  -2  -3 263.476 72.5074  10
  -2  -2  -4 2141.37 204.279  10
   2   2   4 1922.82 186.628   6
  -2  -2  -4 2266.96 164.787   7
   2   2   4 2273.35 141.545   3
   2   2   4 2315.82 203.256   4
   2   2   5 8786.80 408.457   6
   2   2   5 9125.51 309.657   3
  -2  -2  -5 8274.70 412.232  10
  -2  -2  -5 9053.22 367.760   7
   2   2   5 9082.78 356.582   2
   2   2   5 8791.05 414.472   4
   2   2   6 17382.7 464.112   3
  -2  -2  -6 15136.1 578.610  10
   2   2   6 15019.1 558.584   6
   2   2   6 17623.2 481.709   2
  -2  -2  -6 16951.5 549.177   7
   2   2   6 16513.7 587.105   4
  -2  -2  -7 2400.77 240.964  10
   2   2   7 2401.77 236.140   6
  -2  -2  -7 2780.72 242.833   7
   2   2   7 2382.34 236.330   4
  -2  -2  -8 115.594 57.7887   7
   2   2   8 86.2573 57.1104   4
  -2  -2  -8 9.92736 30.2919  10
   2   2   8 70.7696 49.9810   6
  -2  -2  -9 748.309 144.997   7
   2   2   9 800.423 152.918   4
   2   2   9 815.036 151.484   6
  -2  -2  -9 845.301 159.307  10
  -2  -2 -10 238.392 89.9786   7
   2   2  10 83.4967 56.5488   4
  -2  -2 -10 77.5875 51.6346  10
   2   2  10 276.094 86.0397   6
  -2  -2 -11 253.722 94.5672   7
   2   2  11 374.042 108.844   4
   2   3 -15 29.5873 66.3855   7
  -2  -3  15 80.9404 69.7134   6
   2   3 -14-79.6970 70.1680   7
  -2  -3  14 27.1075 49.4623   6
   2   3 -13 943.164 180.960   7
  -2  -3  13 1337.18 210.291   6
   2   3 -13 1295.54 187.892   9
   2   3 -12 1203.62 194.961   7
  -2  -3  12 1306.70 204.094   6
   2   3 -12 1194.42 176.190   9
  -2  -3  11 7167.56 449.116   6
   2   3 -11 7014.49 408.508   9
   2   3 -11 6860.74 434.156   7
   2   3 -10 679.606 130.515   7
  -2  -3  10 723.706 140.986   6
   2   3 -10 733.198 129.853   9
  -2  -3   9 7111.03 415.868   6
   2   3  -9 6806.65 381.908   9
   2   3  -9 6900.71 383.029   7
  -2  -3   8 7801.40 416.724   6
   2   3  -8 7662.27 388.488   9
   2   3  -8 7984.85 379.778   7
  -2  -3   8 8716.59 319.805   1
   2   3  -7 110.530 52.5572   9
  -2  -3   7 89.5085 51.5771   6
  -2  -3   7 73.0502 31.3022   1
  -2  -3   7 29.1361 27.1179  10
   2   3  -7 73.6406 48.1202   7
  -2  -3   6 2668.25 232.014   6
  -2  -3   6 2665.69 167.022   1
   2   3  -6 3029.68 231.461   9
  -2  -3   6 2725.61 191.892  10
   2   3  -6 2488.19 178.451   7
   2   3  -5 33725.3 744.848   9
   2   3  -5 35000.9 300.704   8
  -2  -3   5 33293.2 677.833  10
   2   3  -5 34124.4 582.542   7
  -2  -3   4 4398.16 252.422  10
   2   3  -4 4683.14 269.127   9
   2   3  -4 4164.06 178.042   7
  -2  -3   3 80727.2 1090.12  10
   2   3  -3 84080.3 1099.42   9
   2   3  -3 82870.0 1006.73   3
   2   3  -3 84343.6 612.856   7
   2   3  -3 84089.1 589.403   7
   2   3  -2 4181.19 236.345   4
  -2  -3   2 4581.82 263.837  10
   2   3  -2 4183.94 238.476   9
   2   3  -2 4262.39 218.101   3
  -2  -3   1 8468.31 366.749  10
   2   3  -1 8340.94 323.615   9
   2   3  -1 8160.05 295.257   3
  -2  -3   1 8364.73 248.544   5
   2   3  -1 8137.21 347.314   4
  -2  -3   0 12373.1 457.574  10
   2   3   0 12317.8 349.713   3
   2   3   0 11972.0 374.254   9
  -2  -3   0 12511.5 353.615   5
  -2  -3   0 11982.8 168.477   7
   2   3   0 12960.2 447.490   4
   2   3   1 95.5466 44.0594   4
  -2  -3  -1 178.376 30.7756   7
   2   3   1 190.568 46.6209   3
  -2  -3  -1 210.301 68.2040  10
   2   3   1 184.891 46.5436   9
  -2  -3  -1 176.901 46.8062   5
   2   3   2 270.281 69.7714   4
  -2  -3  -2 236.324 45.2256   7
   2   3   2 172.610 43.2469   3
   2   3   2 195.068 44.4149   9
  -2  -3  -2 193.907 67.2424  10
  -2  -3  -2 161.249 48.6124   5
   2   3   3 2444.52 161.897   3
   2   3   3 2352.74 140.191   9
  -2  -3  -3 2178.51 208.204  10
  -2  -3  -3 2497.48 160.338   7
   2   3   3 2285.62 211.993   4
  -2  -3  -4 3670.18 277.234  10
   2   3   4 3704.94 212.405   3
  -2  -3  -4 3948.72 227.852   7
   2   3   4 3650.34 277.445   4
  -2  -3  -5 3967.39 300.080  10
   2   3   5 3761.32 277.443   6
   2   3   5 3907.62 232.181   3
  -2  -3  -5 4159.07 258.499   7
   2   3   5 3652.12 291.574   4
   2   3   6 7502.05 339.614   3
   2   3   6 7434.25 404.432   6
  -2  -3  -6 7210.33 417.703  10
  -2  -3  -6 7771.05 384.469   7
   2   3   6 7467.16 427.372   4
   2   3   7 55.2479 50.2198   4
  -2  -3  -7 104.781 59.6918   7
  -2  -3  -7 71.6642 54.5728  10
   2   3   7 106.796 62.1772   6
   2   3   8 98.5527 61.1665   4
  -2  -3  -8 124.572 61.5915   7
  -2  -3  -8 85.7498 59.1704  10
   2   3   8 50.9196 37.7949   6
  -2  -3  -9 3123.87 299.088  10
   2   3   9 3459.66 310.664   6
  -2  -3  -9 3515.71 354.134   5
  -2  -3  -9 3546.90 322.023   7
   2   3   9 3186.47 315.916   4
   2   3  10 194.673 94.2632   4
  -2  -3 -10-24.3788 56.0516   5
   2   3  11-34.5340 36.4260   4
   2   4 -15 540.347 159.295   7
  -2  -4  15 397.964 123.074   6
   2   4 -14 249.949 110.979   7
  -2  -4  14 263.599 96.6908   6
   2   4 -13 68.5613 65.8862   7
  -2  -4  13-62.6336 62.1514   6
   2   4 -13 75.1661 65.0592   9
   2   4 -12 1143.17 190.604   7
  -2  -4  12 1194.63 203.077   6
   2   4 -12 1126.16 175.931   9
   2   4 -11 84.4122 55.6332   7
  -2  -4  11 43.8190 46.0847   6
   2   4 -11 49.4752 24.5380   9
   2   4 -10 330.041 94.6699   9
  -2  -4  10 690.198 141.781   6
   2   4 -10 352.508 96.0339   7
  -2  -4   9 1364.67 192.576   6
   2   4  -9 1040.06 159.353   9
   2   4  -9 1085.94 152.909   7
  -2  -4   8 37.7095 46.6572   6
  -2  -4   8 22.5560 28.4305   1
   2   4  -8-0.47088 21.2003   9
  -2  -4   8-4.26174 34.5652  10
   2   4  -8 31.8509 36.5339   7
  -2  -4   7 5364.26 231.424   1
  -2  -4   7 5053.86 344.138   6
  -2  -4   7 5211.66 297.117  10
   2   4  -7 5455.95 335.030   9
   2   4  -7 5359.35 195.891   8
   2   4  -6 23721.6 368.289   8
   2   4  -6 20912.9 638.256   9
  -2  -4   6 22115.2 699.577   6
  -2  -4   6 21315.7 600.783  10
   2   4  -5 1662.66 177.797   9
  -2  -4   5 1740.67 174.951  10
   2   4  -5 1939.03 100.866   8
  -2  -4   4 4857.28 289.225  10
   2   4  -4 5256.84 304.354   9
   2   4  -4 4941.46 280.942   3
   2   4  -3 3689.63 232.341   4
  -2  -4   3 3594.35 257.727  10
   2   4  -3 3935.84 255.956   9
   2   4  -3 3796.84 236.732   3
  -2  -4   2 5726.08 324.268  10
   2   4  -2 4977.46 278.974   9
   2   4  -2 5215.43 271.335   3
   2   4  -2 5388.37 291.647   4
   2   4  -1 35.3494 37.2005   4
  -2  -4   1 14.0169 11.6946   7
   2   4  -1-36.2216 28.9611   3
  -2  -4   1-8.89321 34.5570  10
   2   4  -1-6.86578 22.8843   9
  -2  -4   1 33.7415 31.8057   5
  -2  -4   0 7758.33 390.432  10
   2   4   0 8113.05 324.058   3
   2   4   0 8111.47 335.679   9
  -2  -4   0 8505.65 329.014   5
  -2  -4   0 8596.23 210.764   7
   2   4   0 8515.48 394.060   4
   2   4   1 6439.83 289.093   3
  -2  -4  -1 6447.69 364.543  10
   2   4   1 6750.40 296.869   9
  -2  -4  -1 6767.22 318.613   5
  -2  -4  -1 6939.81 223.600   7
   2   4   1 6984.38 368.521   4
  -2  -4  -2 12931.7 530.652  10
   2   4   2 13870.9 405.710   9
  -2  -4  -2 11918.0 461.037   5
   2   4   2 12913.5 416.213   3
   2   4   2 12949.3 519.196   4
  -2  -4  -2 13897.7 359.181   7
  -2  -4  -3 1358.22 178.780  10
   2   4   3 1102.85 124.984   3
   2   4   3 1367.31 122.473   9
  -2  -4  -3 1127.82 152.564   5
  -2  -4  -3 1376.15 127.903   7
   2   4   3 1402.21 180.276   4
   2   4   4 29929.8 679.047   3
  -2  -4  -4 27739.7 815.615  10
  -2  -4  -4 26633.2 776.342   5
  -2  -4  -4 29824.8 660.856   7
   2   4   4 28127.6 829.678   4
   2   4   5 442.586 90.3607   3
   2   4   5 415.717 108.023   4
  -2  -4  -5 510.364 99.0698   7
  -2  -4  -5 481.159 118.518  10
  -2  -4  -5 447.486 113.689   5
   2   4   6 466.306 112.951   4
  -2  -4  -6 445.660 112.477  10
  -2  -4  -6 293.677 94.4872   5
   2   4   7 692.379 149.129   4
  -2  -4  -7 571.322 129.451  10
  -2  -4  -7 733.897 155.048   5
   2   4   8-37.5513 42.0878   4
  -2  -4  -8 134.001 77.4566  10
  -2  -4  -8 96.4619 65.3778   5
  -2  -4  -9 2482.78 314.551   5
   2   4   9 2264.06 285.528   4
   2   4  10 430.527 128.567   4
   2   5 -15 466.591 144.010   7
  -2  -5  15 366.190 133.325   6
   2   5 -14-49.8054 60.1476   7
  -2  -5  14-108.632 79.6827   6
   2   5 -14-100.021 61.8084   9
   2   5 -13 520.557 141.796   7
  -2  -5  13 517.742 145.994   6
   2   5 -13 412.316 116.183   9
  -2  -5  12 31.2941 44.2863   6
   2   5 -12 2.55084 47.6759   9
   2   5 -12 8.02253 31.2946   7
  -2  -5  11 86.3346 54.1825   6
   2   5 -11 161.314 84.3042   9
   2   5 -11 4.17222 28.6827   7
  -2  -5  10 125.599 72.9880   6
   2   5 -10 40.9532 41.0743   9
   2   5 -10 77.3736 61.5576   7
  -2  -5   9 57.1330 54.7624   6
   2   5  -9 32.3912 48.3195   9
  -2  -5   8 691.561 124.494  10
   2   5  -8 770.472 137.091   9
  -2  -5   8 680.416 144.559   6
  -2  -5   7 11022.0 535.853   6
  -2  -5   7 10789.2 471.481  10
  -2  -5   7 11824.6 344.106   1
   2   5  -7 11758.8 520.425   9
  -2  -5   6 444.837 114.157   6
  -2  -5   6 385.048 91.0879  10
   2   5  -6 561.528 114.099   9
  -2  -5   5 3619.33 273.876  10
   2   5  -5 3469.76 270.728   9
   2   5  -5 3706.81 269.135   3
   2   5  -5 3385.86 167.307   8
   2   5  -4 33.4283 25.6586   4
  -2  -5   4 4.25748 22.9138  10
   2   5  -4 37.0573 37.9713   3
   2   5  -4 91.2894 49.0488   9
   2   5  -3 2327.50 206.320   3
  -2  -5   3 2425.20 230.126  10
   2   5  -3 2290.16 210.015   9
   2   5  -3 2006.45 186.063   4
  -2  -5   2 15613.0 581.875  10
   2   5  -2 15191.2 528.599   9
   2   5  -2 15282.2 514.170   3
   2   5  -2 15206.5 528.498   4
  -2  -5   2 17027.4 339.153   7
  -2  -5   1 1014.45 152.505  10
   2   5  -1 884.445 125.215   3
   2   5  -1 860.579 120.928   9
  -2  -5   1 865.374 78.8079   7
   2   5  -1 924.438 139.515   4
   2   5   0 387.385 92.6529   4
   2   5   0 433.601 87.0984   3
  -2  -5   0 478.359 108.031  10
   2   5   0 349.587 79.3403   9
  -2  -5   0 470.096 90.9663   5
  -2  -5  -1 4596.88 332.240  10
   2   5   1 5052.87 280.632   9
   2   5   1 4670.87 277.486   3
  -2  -5  -1 4596.55 291.201   5
   2   5   1 4856.37 335.886   4
   2   5   2 425.405 104.109   4
   2   5   2 396.779 87.3913   3
  -2  -5  -2 247.702 82.0032  10
   2   5   2 444.237 82.6218   9
  -2  -5  -2 386.567 96.1173   5
   2   5   3 817.057 150.396   4
   2   5   3 620.652 108.113   3
  -2  -5  -3 671.522 135.160  10
  -2  -5  -3 597.227 123.458   5
   2   5   4 1099.20 175.275   4
   2   5   4 853.709 129.434   3
  -2  -5  -4 961.439 160.669  10
  -2  -5  -4 876.962 159.204   5
   2   5   5 108.772 61.2058   4
   2   5   5 70.1269 42.0132   3
  -2  -5  -5 127.286 69.3796  10
  -2  -5  -5 64.7498 44.9644   5
   2   5   6 64.3789 53.9265   4
  -2  -5  -6 22.7039 45.6452  10
  -2  -5  -6 20.6982 43.2052   5
   2   5   7 463.882 125.131   4
  -2  -5  -7 440.059 116.829  10
  -2  -5  -7 393.465 131.291   5
  -2  -5  -8 3587.17 378.650   5
   2   5   8 4359.46 406.792   4
   2   5   9 5296.18 462.081   4
   2   6 -15 98.2131 66.0827   7
  -2  -6  14 112.717 104.079   6
   2   6 -14 90.4808 61.5037   9
   2   6 -14 70.3133 59.9229   7
  -2  -6  13 175.916 112.960   6
   2   6 -13 138.044 73.3852   9
   2   6 -13 104.545 66.8876   7
  -2  -6  12 70.6449 62.5416   6
   2   6 -12 10.8164 31.2908   9
   2   6 -12 56.1307 53.8261   7
  -2  -6  11 60.0809 55.5343   6
   2   6 -11 94.6096 57.8109   9
   2   6 -11 24.1874 38.6888   7
  -2  -6  10 1276.62 212.039   6
   2   6 -10 1292.64 198.953   9
  -2  -6   9 686.877 150.411   6
  -2  -6   9 562.159 127.159  10
   2   6  -9 654.497 139.628   9
  -2  -6   8 1179.08 173.501  10
  -2  -6   8 1314.21 204.434   6
   2   6  -8 1502.00 206.974   9
  -2  -6   7 3056.99 297.804   6
  -2  -6   7 3319.41 286.451  10
   2   6  -7 3469.50 301.761   9
   2   6  -6 227.885 84.8234   3
  -2  -6   6 284.484 94.8369   6
  -2  -6   6 267.357 78.9247  10
   2   6  -6 354.188 100.858   9
  -2  -6   5 3457.45 305.687   6
  -2  -6   5 4067.51 316.778  10
   2   6  -5 3621.46 294.376   9
   2   6  -5 3430.06 281.212   3
  -2  -6   4 4350.29 327.647  10
   2   6  -4 4976.40 340.003   9
   2   6  -4 4789.37 329.085   3
   2   6  -4 4600.53 296.034   4
  -2  -6   3 6299.48 396.761  10
   2   6  -3 6462.14 382.141   9
   2   6  -3 5865.71 355.702   3
   2   6  -3 6059.13 348.572   4
  -2  -6   2 10203.7 511.102  10
   2   6  -2 10555.5 472.353   3
   2   6  -2 10705.0 479.816   9
   2   6  -2 10611.7 478.363   4
  -2  -6   1 14738.0 618.850  10
   2   6  -1 14422.7 546.524   3
   2   6  -1 14877.8 553.767   9
   2   6  -1 14546.4 579.901   4
  -2  -6   0 16324.5 662.353  10
   2   6   0 15586.9 565.072   3
   2   6   0 17321.7 580.534   9
   2   6   0 16813.2 643.210   4
   2   6   1 2134.99 211.455   3
   2   6   1 2723.16 223.811   9
  -2  -6  -1 2503.10 263.694  10
  -2  -6  -1 2668.52 240.728   5
   2   6   1 2780.23 270.360   4
  -2  -6  -2 2730.80 282.404  10
   2   6   2 2373.07 224.749   3
  -2  -6  -2 2885.15 265.596   5
   2   6   2 2778.65 282.432   4
   2   6   3 36.6681 50.0914   4
   2   6   3 18.8981 31.1477   3
  -2  -6  -3 105.291 65.5050  10
  -2  -6  -3 99.0821 55.3146   5
   2   6   4 261.292 93.4131   4
   2   6   4 262.125 82.7135   3
  -2  -6  -4 212.871 91.3215  10
  -2  -6  -4 293.301 92.4252   5
  -2  -6  -5 2510.89 292.755  10
  -2  -6  -5 2750.69 304.866   5
   2   6   5 2750.08 308.948   4
  -2  -6  -6 5114.74 414.306  10
  -2  -6  -6 5021.15 429.053   5
   2   6   6 5908.31 469.136   4
   2   6   7 98.5053 71.2306   4
  -2  -6  -7 74.9933 61.6286   5
   2   7 -14 161.452 59.5385   9
  -2  -7  13 539.844 158.653   6
   2   7 -13 534.456 139.324   9
  -2  -7  12 103.765 75.3286   6
   2   7 -12 129.634 87.4374   9
  -2  -7  11 1607.40 253.240   6
   2   7 -11 1421.08 220.443   9
  -2  -7  10 396.103 132.422   6
   2   7 -10 249.024 99.7140   9
  -2  -7   9 3158.12 332.740   6
  -2  -7   9 3551.66 326.776  10
   2   7  -9 3797.19 346.030   9
  -2  -7   8 96.0409 76.5383   6
  -2  -7   8 251.150 87.5773  10
   2   7  -8 169.829 73.9522   9
  -2  -7   7 1737.92 238.887   6
  -2  -7   7 2135.54 249.400  10
   2   7  -7 1794.64 230.169   9
   2   7  -7 1939.97 238.872   3
   2   7  -6 412.990 110.846   3
  -2  -7   6 572.261 132.397  10
   2   7  -6 694.646 149.103   9
  -2  -7   6 504.978 131.669   6
   2   7  -5 256.143 83.9820   3
   2   7  -5 247.369 73.5519   4
  -2  -7   5 172.967 82.3903   6
  -2  -7   5 239.620 85.1254  10
   2   7  -5 265.908 91.3500   9
  -2  -7   4 1835.99 230.535   6
   2   7  -4 1727.18 218.064   9
   2   7  -4 1731.52 215.515   3
  -2  -7   4 1651.07 218.627  10
   2   7  -4 1798.32 198.922   4
   2   7  -3 58.8971 43.6670   4
   2   7  -3 57.8993 52.1853   3
  -2  -7   3 30.1101 49.5849  10
   2   7  -3 31.2169 37.3354   9
   2   7  -2 495.276 117.349   4
   2   7  -2 470.512 116.778   3
  -2  -7   2 492.838 125.729  10
   2   7  -2 501.025 114.028   9
   2   7  -1 12272.6 549.211   3
   2   7  -1 12415.8 552.908   9
  -2  -7   1 14224.3 651.731  10
   2   7  -1 12869.3 584.413   4
  -2  -7   0 2280.03 266.131  10
   2   7   0 2232.08 235.766   3
   2   7   0 2275.11 232.191   9
   2   7   0 2333.48 254.928   4
   2   7   1 1248.96 192.410   4
   2   7   1 1069.83 163.798   3
  -2  -7  -1 1125.51 193.266  10
   2   7   2-60.2055 46.6407   3
  -2  -7  -2 48.1626 33.3957  10
  -2  -7  -2 59.6473 34.4335   5
   2   7   3 892.522 179.425   4
   2   7   3 804.528 147.103   3
  -2  -7  -3 773.886 159.488  10
  -2  -7  -3 924.720 170.784   5
   2   7   4 420.459 126.727   4
  -2  -7  -4 161.423 79.0616   5
  -2  -7  -4 279.241 106.275  10
  -2  -7  -5 3994.34 378.210  10
  -2  -7  -5 4184.21 395.766   5
   2   7   5 4151.65 407.280   4
  -2  -7  -6 4849.40 442.081   5
   2   8 -13 391.225 141.279   9
  -2  -8  12-56.0540 70.4434   6
   2   8 -12-8.45992 31.2496   9
  -2  -8  11 2436.21 329.907   6
   2   8 -11 2553.01 311.153   9
  -2  -8  10 73.4857 100.577   6
   2   8 -10 371.230 126.264   9
  -2  -8   9 1370.98 237.666   6
   2   8  -9 1283.48 215.671   9
  -2  -8   8 1316.53 214.468  10
   2   8  -8 1126.51 198.508   9
  -2  -8   8 1249.12 219.626   6
   2   8  -8 1091.10 193.303   3
   2   8  -7 923.374 178.789   3
  -2  -8   7 816.332 167.655  10
   2   8  -7 1054.79 191.311   9
  -2  -8   7 826.019 179.689   6
   2   8  -6 743.852 156.608   3
  -2  -8   6 720.881 160.076  10
   2   8  -6 758.420 167.100   9
  -2  -8   6 868.612 173.419   6
  -2  -8   5 3852.27 355.924   6
  -2  -8   5 3902.60 363.674  10
   2   8  -5 4609.37 382.536   9
   2   8  -5 4328.71 365.071   3
   2   8  -5 4215.82 313.509   4
   2   8  -4 1124.68 186.772   3
  -2  -8   4 1267.08 201.944   6
  -2  -8   4 1177.97 199.684  10
   2   8  -4 1186.56 196.342   9
   2   8  -4 1261.17 179.762   4
  -2  -8   3 5858.45 428.929   6
  -2  -8   3 5633.57 439.595  10
   2   8  -3 5482.05 406.867   9
   2   8  -3 5583.35 409.818   3
   2   8  -3 5381.52 382.461   4
  -2  -8   2 11100.1 615.182  10
   2   8  -2 11259.2 573.886   3
   2   8  -2 10895.0 563.010   9
   2   8  -2 11328.6 570.707   4
   2   8  -1 69.9021 54.3269   4
   2   8  -1 57.8540 47.4121   3
  -2  -8   1 25.8664 38.7095  10
   2   8  -1 20.6230 42.3654   9
   2   8   0 300.425 98.4855   4
   2   8   0 315.373 104.562   3
  -2  -8   0 301.861 106.862  10
   2   8   0 247.252 82.1487   9
   2   8   1 3.19644 29.0396   3
  -2  -8  -1-55.3336 56.2095  10
  -2  -8  -2 2556.42 309.448  10
   2   8   2 2169.42 258.572   3
   2   8   2 2313.21 291.408   4
   2   8   3 810.690 178.912   4
   2   8   3 830.552 159.332   3
  -2  -8  -3 426.498 131.356  10
  -2  -8  -4 3733.82 381.807  10
  -2  -8  -4 4509.38 417.549   5
  -2  -8  -5 223.490 110.445   5
  -2  -9  10 66.7636 64.0050   6
   2   9 -10 104.235 99.4187   9
  -2  -9   9 2396.75 319.101   6
   2   9  -9 2133.00 287.627   9
   2   9  -8 124.979 88.5358   3
  -2  -9   8 48.8114 54.4549   6
  -2  -9   8-25.6390 49.5816  10
   2   9  -8 99.8925 65.2352   9
   2   9  -7 26.3903 53.1700   3
  -2  -9   7-17.7551 42.4962   6
  -2  -9   7-23.4343 55.6734  10
   2   9  -7 21.2011 41.1937   9
  -2  -9   6 22.3188 42.0620   6
  -2  -9   6 135.837 82.5538  10
   2   9  -6 150.783 81.7042   3
  -2  -9   5 1895.24 263.295   6
  -2  -9   5 2089.28 279.198  10
   2   9  -5 2183.93 280.680   9
   2   9  -5 2230.15 281.008   3
   2   9  -4 561.131 128.504   4
   2   9  -4 430.166 125.244   3
  -2  -9   4 498.506 139.165  10
   2   9  -4 466.948 137.247   9
  -2  -9   4 401.299 127.330   6
   2   9  -3 128.366 66.5741   4
   2   9  -3 51.2663 78.4265   3
  -2  -9   3 68.5716 41.1034  10
   2   9  -3 78.4946 59.3011   9
  -2  -9   3 71.2661 59.3538   6
   2   9  -2 400.232 121.363   4
   2   9  -2 266.723 98.1814   3
  -2  -9   2 499.694 131.900   6
  -2  -9   2 417.280 134.280  10
   2   9  -2 449.642 132.920   9
   2   9  -1 178.377 84.4613   4
   2   9  -1 206.465 84.4980   3
  -2  -9   1 258.591 103.575  10
   2   9  -1 126.538 65.1999   9
   2   9   0 388.266 123.991   4
   2   9   0 530.977 142.895   3
  -2  -9   0 285.252 116.759  10
   2   9   1 63.8671 59.8195   4
   2   9   1-57.2363 53.0274   3
  -2  -9  -1 31.0273 84.2208  10
   2   9   2-104.249 67.3619   3
  -2  -9  -2 24.0969 64.8432  10
  -2 -10   9 504.587 152.213   6
  -2 -10   8 1226.12 242.183   6
  -2 -10   7 1752.82 273.093   6
   2  10  -7 1460.47 252.450   3
   2  10  -7 1665.41 267.625   9
   2  10  -6-46.4051 49.6675   3
  -2 -10   6 65.8219 66.8087   6
  -2 -10   6-45.2452 54.8492  10
   2  10  -6 95.8983 58.8506   9
  -2 -10   5 698.035 164.214   6
   2  10  -5 533.106 145.662   3
  -2 -10   5 786.596 193.571  10
   2  10  -5 868.622 190.073   9
   2  10  -4 76.1604 76.6398   3
  -2 -10   4 227.118 105.319  10
   2  10  -4 119.793 74.9094   9
   2  10  -3 20.0588 39.5888   4
   2  10  -3 137.655 77.7858   3
   2  10  -3 95.7124 69.1580   9
   2  10  -2 189.922 98.3897   4
   2  10  -2 222.811 99.5958   3
   2  10  -2 303.171 108.089   9
   2  10  -1 754.186 175.104   4
   2  10  -1 816.609 188.985   3
  -3  10  -2 890.487 187.163   3
  -3  10  -3-16.1810 42.1841   3
  -3  10  -4 24.8452 52.2924   3
  -3  10  -5-72.0111 55.2538   3
  -3   9   2 14.9874 49.9908   3
  -3   9   1 3.98747 35.9248   3
   3  -9  -1 147.665 104.432   7
  -3   9   0 15.3176 44.5225   3
   3  -9   0 55.4462 79.7218   7
  -3   9  -1 372.424 111.282   3
   3  -9   1 456.475 145.752   7
  -3   9  -2 8.06600 35.6219   3
   3  -9   2-20.4193 51.4643   7
   3  -9   3 1197.08 223.054   7
  -3   9  -3 1237.65 198.283   3
   3  -9   4-4.68851 61.5643   7
  -3   9  -4-8.59242 39.4290   3
  -3   9  -4 31.3557 45.5131   8
   3  -9   5 176.522 91.8109   7
  -3   9  -5 100.108 68.6401   3
  -3   9  -5 130.728 84.3820   8
   3  -9   6-150.028 83.9981   7
  -3   9  -6 125.513 82.5827   8
   3  -9   7 57.9052 54.8700   7
  -3   9  -7-66.7267 62.5019   8
   3  -9   9 327.627 121.492   6
  -3   8   4 1392.93 229.988   3
   3  -8  -4 1268.88 233.368   7
  -3   8   3 343.388 115.667   3
   3  -8  -3 87.5457 81.9394   7
  -3   8   2 80.7269 63.6579   3
   3  -8  -2-51.1642 85.8089   7
  -3   8   1 1883.63 247.670   3
   3  -8  -1 2164.12 285.645   7
  -3   8   0 74.9196 54.4747   3
   3  -8   0 84.3868 38.4819   7
  -3   8  -1 2345.52 264.289   3
   3  -8   1 2777.06 316.824   7
  -3   8  -2 77.4807 50.2570   3
   3  -8   2 38.8281 57.0938   7
   3  -8   3 924.002 185.881   7
  -3   8  -3 1092.10 177.087   3
   3  -8   4 153.483 84.2681   7
  -3   8  -4 180.108 73.9587   3
  -3   8  -4 98.6991 69.9350   8
  -3   8  -5 2467.39 260.243   3
  -3   8  -5 2192.51 282.307   8
   3  -8   5 2021.41 268.873   7
   3  -8   6 19.5508 47.8302   7
  -3   8  -6-60.8965 59.1838   8
   3  -8   6-53.1159 46.9824   6
  -3   8  -7 132.666 78.9516   8
   3  -8   7 118.338 66.2741   6
   3  -8   8 92.9119 65.6671   6
  -3   8  -8 136.043 85.0565   8
   3  -8   9 447.845 127.739   6
  -3   8  -9 298.716 120.474   8
   3  -8  10 100.956 67.3455   6
   3  -7  -6 1320.11 239.401   7
  -3   7   6 1253.63 219.881   3
   3  -7  -5 1320.36 236.949   7
  -3   7   5 995.747 191.531   3
   3  -7  -4 213.351 109.109   7
  -3   7   4 175.899 79.7597   3
   3  -7  -3 687.443 164.030   7
  -3   7   3 796.327 162.370   3
  -3   7   2 3697.24 332.071   3
   3  -7  -2 3749.31 361.499   7
  -3   7   1 1696.29 217.894   3
   3  -7  -1 1600.38 233.228   7
  -3   7   0 79.6744 50.2171   3
   3  -7   0-21.3881 44.6034   7
  -3   7  -1 148.499 62.9246   3
   3  -7   1 106.205 76.7657   7
  -3   7  -2 9985.07 486.262   3
   3  -7   2 10126.0 555.921   7
  -3   7  -3 8800.60 449.452   3
   3  -7   3 8890.31 520.379   7
   3  -7   4 760.235 158.598   7
  -3   7  -4 638.757 122.543   3
   3  -7   4 574.827 114.313   6
  -3   7  -4 711.553 151.518   8
   3  -7   5 3058.67 275.842   6
  -3   7  -5 3433.54 281.396   3
  -3   7  -5 3366.05 328.750   8
   3  -7   5 3500.42 335.946   7
   3  -7   6 39.0346 48.7344   7
   3  -7   6 2.05917 29.4758   6
   3  -7   7 209.969 82.0925   6
  -3   7  -7 223.188 91.8792   8
   3  -7   8 322.260 116.342   6
  -3   7  -8 251.415 108.219   8
   3  -7   9 432.705 125.714   6
  -3   7  -9-11.7483 47.9935   8
   3  -7  10 475.749 133.257   6
  -3   7 -10 446.743 140.877   8
   3  -7  11 1195.15 224.889   6
   3  -6  -8-27.1319 54.1745   7
  -3   6   8 47.8985 56.4747   3
   3  -6  -7 904.760 195.624   7
  -3   6   7 1159.43 206.151   3
   3  -6  -6 56.2636 69.1677   7
  -3   6   6 49.8747 55.7873   3
  -3   6   5 2052.94 257.666   3
   3  -6  -5 2017.88 267.202   7
  -3   6   4 1924.08 240.914   3
   3  -6  -4 1858.73 248.898   7
  -3   6   3 3395.60 302.178   3
   3  -6  -3 3777.10 346.283   7
   3  -6  -2 34.1509 65.8757   7
  -3   6   2 25.2912 34.3715   3
  -3   6   1 596.687 121.282   3
   3  -6  -1 713.520 144.883   7
  -3   6   0 9444.52 454.338   3
   3  -6   0 10062.8 531.235   7
  -3   6  -1 11770.7 492.910   3
  -3   6  -1 11225.1 491.800   1
   3  -6   1 10981.9 546.824   7
  -3   6  -2 3522.08 263.594   3
   3  -6   2 3952.11 254.143   6
  -3   6  -2 3302.46 257.790   1
   3  -6   2 3539.73 309.230   7
  -3   6  -3 1811.16 225.238   8
   3  -6   3 1660.22 179.092   6
  -3   6  -3 1925.62 193.194   3
  -3   6  -3 1959.37 191.871   1
   3  -6   3 1659.33 213.601   7
   3  -6   4 1499.81 180.558   6
  -3   6  -4 1470.95 165.960   3
  -3   6  -4 1627.81 210.627   8
  -3   6  -4 1573.47 165.989   1
   3  -6   4 1210.48 188.627   7
   3  -6   5 7845.49 433.061   6
  -3   6  -5 7896.53 390.399   3
  -3   6  -5 8229.72 489.381   8
   3  -6   5 7761.55 472.255   7
   3  -6   6 2000.61 231.739   6
  -3   6  -6 2492.58 279.270   8
   3  -6   6 2755.47 290.889   7
  -3   6  -7 73.2023 69.5368   8
   3  -6   7 79.9457 52.8112   6
   3  -6   8 838.290 168.928   6
  -3   6  -8 612.800 149.503   8
   3  -6   9 3657.39 356.861   6
  -3   6  -9 4148.57 388.251   8
   3  -6  10 768.166 176.356   6
  -3   6 -10 1032.57 201.958   8
   3  -6  11 1649.15 257.775   6
  -3   6 -11 1417.50 250.903   8
   3  -5  -9 44.0980 62.8504   7
  -3   5   9 90.4058 60.2307   3
   3  -5  -8 132.892 82.2237   7
  -3   5   8 54.1881 56.3462   3
   3  -5  -7 707.272 168.652   7
  -3   5   7 647.098 153.558   3
   3  -5  -6 331.193 107.985   7
  -3   5   6 729.776 148.617   3
   3  -5  -5 167.644 90.4740   7
  -3   5   5 284.964 92.8062   3
   3  -5  -4 538.284 131.980   7
  -3   5   4 490.438 118.319   3
   3  -5  -3 36.0376 40.4231   7
  -3   5   3 97.9479 57.9000   3
   3  -5  -2 784.468 145.195   7
  -3   5   2 835.314 145.540   1
  -3   5   2 873.936 138.492   3
  -3   5   1 5597.57 331.792   3
  -3   5   1 5777.17 358.530   1
   3  -5  -1 5236.38 363.260   7
   3  -5   0 13456.1 393.494   6
  -3   5   0 12810.8 512.648   1
  -3   5   0 12634.3 480.112   3
   3  -5   0 12326.1 544.973   7
   3  -5   1 7714.88 330.504   6
  -3   5  -1 7515.88 355.336   3
  -3   5  -1 7744.78 385.223   1
   3  -5   1 6990.92 406.540   7
  -3   5  -2 80.7850 38.7523   3
   3  -5   2-53.2035 34.7366   6
   3  -5   2 13.9685 28.8681   7
  -3   5  -2 34.6778 31.2924   1
  -3   5  -2 40.5582 49.2290   8
   3  -5   3 202.186 77.5111   7
  -3   5  -3 207.270 59.3307   3
  -3   5  -3 203.271 63.5454   1
   3  -5   3 189.915 56.7278   6
  -3   5  -3 118.702 56.7686   8
   3  -5   4 143.093 64.4932   7
  -3   5  -4 252.057 65.5650   3
   3  -5   4 194.651 71.6968   6
  -3   5  -4 216.413 86.4776   8
  -3   5  -4 297.002 76.4847   1
  -3   5  -5 1136.68 131.512   1
   3  -5   5 757.754 139.744   7
   3  -5   5 716.830 131.261   6
  -3   5  -5 1174.23 136.915   3
  -3   5  -5 768.181 150.443   8
  -3   5  -6 647.735 139.705   8
   3  -5   6 471.771 109.483   6
   3  -5   7 2217.37 251.873   6
  -3   5  -7 2302.45 267.132   8
   3  -5   8 43.7681 47.9170   6
  -3   5  -8 49.9941 63.5845   8
   3  -5   9 2178.84 273.512   6
  -3   5  -9 2658.07 300.254   8
   3  -5  10 428.325 133.957   6
  -3   5 -10 555.956 147.569   8
   3  -5  11 199.425 92.0890   6
  -3   5 -11 378.929 124.423   8
   3  -5  12 18.0328 49.1049   6
  -3   5 -12 108.012 79.7282   8
  -3   4  10 3975.90 392.756   3
   3  -4 -10 3558.13 381.601   7
   3  -4  -9 22.0582 38.8534   7
  -3   4   9-14.1046 41.3300   3
   3  -4  -8 237.332 96.5689   7
  -3   4   8 219.188 88.3110   3
   3  -4  -7 928.573 174.303   7
  -3   4   7 1103.61 181.774   3
  -3   4   6 2513.60 262.057   3
   3  -4  -6 1991.31 245.095   7
   3  -4  -5 686.821 141.247   7
  -3   4   5 745.196 138.178   3
  -3   4   4 2100.14 216.131   3
   3  -4  -4 2334.22 246.247   7
  -3   4   3 8484.41 411.027   3
  -3   4   3 9141.51 460.428   1
   3  -4  -3 8634.71 454.095   7
   3  -4  -2 4.52889 40.7184   7
  -3   4   2-6.37449 31.5399   1
  -3   4   2 12.6574 37.0959   3
  -3   4   1 7839.52 355.858   3
  -3   4   1 7468.03 392.614   1
   3  -4  -1 7450.69 403.025   7
   3  -4   0 61.3868 48.6534   7
  -3   4   0 70.9561 26.6725   1
   3  -4   0 68.8573 37.2053   6
  -3   4   0 54.1594 29.8995   3
  -3   4  -1 1365.16 155.218   1
  -3   4  -1 1225.65 127.909   3
   3  -4   1 1173.07 130.613   6
   3  -4   1 1377.74 168.485   7
  -3   4  -2 332.167 76.3561   1
  -3   4  -2 408.716 72.3706   3
   3  -4   2 406.009 91.6869   7
   3  -4   2 402.387 82.1680   6
  -3   4  -2 349.789 85.6148   8
   3  -4   3 556.205 108.771   7
  -3   4  -3 712.830 93.1608   3
   3  -4   3 584.822 104.178   6
  -3   4  -3 706.381 126.404   8
  -3   4  -3 703.233 110.587   1
  -3   4  -4 33.7971 21.9075   1
   3  -4   4-29.0308 42.9205   7
  -3   4  -4 42.6607 31.0677   3
   3  -4   4 11.0191 33.5434   6
  -3   4  -4 61.5819 49.7747   8
   3  -4   5 596.048 120.136   6
  -3   4  -5 881.535 148.791   8
   3  -4   6 13908.4 588.454   6
  -3   4  -6 14580.8 617.328   8
   3  -4   7 10865.4 549.215   6
  -3   4  -7 10345.7 539.247   8
   3  -4   8 1947.78 243.127   6
  -3   4  -8 1736.13 230.689   8
   3  -4   9 667.929 151.882   6
  -3   4  -9 443.304 128.219   8
   3  -4  10 595.374 153.764   6
  -3   4 -10 316.406 108.083   8
   3  -4  11 25.8961 37.4136   6
  -3   4 -11 8.41594 43.4654   8
  -3   4 -12-32.6213 55.6375   8
   3  -4  12 198.658 99.3726   6
   3  -3 -11 84.7831 71.1151   7
  -3   3  11 44.2757 54.0900   3
   3  -3 -10-26.7568 51.1712   7
  -3   3  10-75.1184 63.4776   3
   3  -3  -9 4.80655 42.5819   7
  -3   3   9 97.3124 69.7408   3
   3  -3  -8 39.7331 54.7472   7
  -3   3   8 132.194 96.0810   3
   3  -3  -7 126.380 66.1573   7
  -3   3   7-11.2334 25.2083   3
   3  -3  -6-12.7783 46.4368   7
  -3   3   6 44.7429 31.7432   3
  -3   3   5 1691.87 191.402   3
  -3   3   5 1625.62 199.620   1
   3  -3  -5 1658.58 201.936   7
  -3   3   4 3355.07 253.874   3
  -3   3   4 3451.70 275.231   1
   3  -3  -4 3664.26 281.005   7
  -3   3   3 686.531 116.505   1
   3  -3  -3 598.366 111.580   7
  -3   3   3 603.267 102.928   3
   3  -3  -2 457.463 96.7890   7
  -3   3   2 491.059 100.508   1
  -3   3   2 527.987 89.5224   3
  -3   3   1 9253.39 402.129   1
  -3   3   1 9652.71 354.537   3
   3  -3  -1 9589.03 412.476   7
  -3   3   0 735.960 113.466   1
  -3   3   0 752.987 94.6102   3
   3  -3   0 875.797 108.669   6
   3  -3   0 825.661 120.946   7
  -3   3  -1 20787.2 577.078   1
   3  -3   1 20292.3 546.162   6
  -3   3  -1 21109.2 452.647   3
  -3   3  -1 20068.1 581.372   8
   3  -3   1 20261.1 579.398   7
  -3   3  -2 8822.65 269.613   3
   3  -3   2 8130.58 365.495   6
  -3   3  -2 8240.42 366.218   1
  -3   3  -2 8299.09 385.515   8
   3  -3   2 8608.60 380.145   7
   3  -3   3 8077.08 384.999   6
  -3   3  -3 9110.26 269.832   3
  -3   3  -3 9138.93 419.215   8
   3  -3   3 9021.07 400.537   7
   3  -3   4 1777.49 191.747   6
  -3   3  -4 1717.38 191.692   8
   3  -3   4 1647.18 180.065   7
   3  -3   5 333.122 93.1231   6
  -3   3  -5 304.995 90.4016   8
   3  -3   6 101.532 61.8177   6
  -3   3  -6 24.1310 30.9866   8
  -3   3  -7 2517.84 258.110   8
   3  -3   7 2098.81 239.621   6
   3  -3   8 1776.48 234.462   6
  -3   3  -8 1356.95 203.779   8
   3  -3   9 391.044 116.624   6
  -3   3  -9 411.853 122.709   8
   3  -3  10-19.0200 39.9307   6
  -3   3 -10 2.29790 29.5142   8
   3  -3  11 213.432 92.7988   6
  -3   3 -11 245.657 114.434   8
   3  -3  12 75.8486 62.2966   6
  -3   3 -12 111.407 86.7899   8
  -3   3 -13 393.062 134.144   7
   3  -2 -12 369.671 132.391   7
  -3   2  12 676.841 166.961   3
   3  -2 -11 165.001 72.6058   7
  -3   2  11 80.0057 65.5748   3
  -3   2  10 5889.62 450.361   3
   3  -2 -10 6368.91 406.831   5
   3  -2 -10 5761.64 448.166   7
   3  -2  -9 348.557 115.581   7
  -3   2   9 399.774 124.123   3
   3  -2  -8-27.6365 38.9107   7
  -3   2   8 15.2100 34.2460   3
   3  -2  -7 640.700 129.258   7
  -3   2   7 668.203 131.802   3
   3  -2  -6 794.909 135.460   7
   3  -2  -6 726.803 122.029   2
  -3   2   6 812.978 134.207   1
  -3   2   6 904.171 139.794   3
   3  -2  -5 244.983 77.7577   7
  -3   2   5 287.055 74.8377   3
  -3   2   5 337.558 90.7021   1
   3  -2  -5 208.841 63.1086   2
   3  -2  -4-0.98343 32.6559   7
  -3   2   4 5.57100 28.5396   1
  -3   2   4 37.5982 23.8698   3
   3  -2  -4 42.9842 41.7057   2
  -3   2   3 3351.27 246.704   1
  -3   2   3 2997.11 209.442   3
   3  -2  -3 3059.92 245.245   2
   3  -2  -3 2976.71 224.102   7
  -3   2   2 1307.24 151.283   1
  -3   2   2 1481.99 135.042   3
   3  -2  -2 1574.25 175.214   2
   3  -2  -2 1488.39 151.942   7
  -3   2   1 9976.50 319.101   3
  -3   2   1 9840.28 401.671   1
   3  -2  -1 9837.18 429.964   2
   3  -2  -1 9441.75 370.955   7
  -3   2   0 15215.2 354.529   3
   3  -2   0 14002.2 444.801   6
  -3   2   0 14956.1 489.677   1
   3  -2   0 13987.3 515.817   2
  -3   2   0 14343.1 441.648   8
   3  -2   0 13937.9 442.025   7
   3  -2   1 7706.94 346.271   6
  -3   2  -1 8026.29 226.956   3
   3  -2   1 8156.70 390.913   2
  -3   2  -1 8104.83 341.680   8
   3  -2   1 7785.10 323.537   7
   3  -2   2 16418.2 525.463   6
  -3   2  -2 17212.8 281.922   3
   3  -2   2 17164.3 568.129   2
  -3   2  -2 16250.9 512.472   8
   3  -2   2 15731.5 479.734   7
   3  -2   3 34314.7 803.021   6
   3  -2   3 34209.6 810.683   2
  -3   2  -3 35573.0 341.377   3
  -3   2  -3 34851.4 785.091   8
   3  -2   3 35157.9 732.912   7
   3  -2   4 2664.72 235.258   6
   3  -2   4 2705.41 227.426   2
  -3   2  -4 2738.51 231.082   8
   3  -2   5 8137.27 432.210   6
   3  -2   5 7905.89 391.382   2
  -3   2  -5 8456.72 424.803   8
   3  -2   6 1971.56 225.178   6
  -3   2  -6 1603.14 197.452   8
   3  -2   7 3172.98 296.093   6
  -3   2  -7 3297.63 296.446   8
   3  -2   8 24925.9 857.004   6
  -3   2  -8 24681.4 854.963   8
   3  -2   9 735.895 158.173   6
  -3   2  -9 576.223 136.810   8
   3  -2  10 4891.70 415.822   6
  -3   2 -10 6060.91 467.465   8
   3  -2  11-19.3435 37.3542   6
  -3   2 -11 61.8619 58.1815   8
   3  -2  12 164.931 83.2135   6
  -3   2 -12-59.5168 57.5677   7
  -3   2 -13-15.8079 45.7963   7
   3  -1 -13 673.519 185.964   7
  -3   1  13 450.097 145.793   3
   3  -1 -12 52.2097 58.4541   7
  -3   1  12 18.9365 45.2752   3
   3  -1 -11-91.7033 67.5662   7
  -3   1  11 168.691 90.9282   3
   3  -1 -10-31.8489 42.6524   7
  -3   1  10 54.6373 58.8146   3
   3  -1  -9 306.763 102.914   7
  -3   1   9 252.174 95.9986   3
   3  -1  -9 213.795 69.7023   5
  -3   1   8 3295.76 294.550   3
   3  -1  -8 3494.66 252.463   2
   3  -1  -8 3385.49 296.070   7
   3  -1  -7-29.9221 39.2390   7
  -3   1   7 11.6139 22.2724   6
  -3   1   7-1.94767 39.2386   1
  -3   1   7 6.00226 36.0943   3
   3  -1  -7 5.91922 32.5621   2
   3  -1  -6 44.8563 39.7920   2
   3  -1  -6 16.4732 38.8809   7
  -3   1   6 43.5933 31.0709   6
  -3   1   6 59.2881 43.2013   3
  -3   1   6 5.13096 36.7060   1
  -3   1   5 1260.03 151.493   3
  -3   1   5 1414.67 100.473  10
   3  -1  -5 1251.13 155.209   2
   3  -1  -5 1351.02 157.253   7
  -3   1   5 1303.08 157.588   1
  -3   1   4 8664.64 397.909   1
  -3   1   4 8241.15 355.624   3
  -3   1   4 9078.38 288.074  10
   3  -1  -4 8042.90 388.912   2
   3  -1  -4 8894.59 368.874   7
   3  -1  -3 515.441 86.0872   7
   3  -1  -3 578.240 107.935   2
  -3   1   3 598.262 89.5841   3
  -3   1   3 566.781 79.7960  10
  -3   1   3 535.601 95.6629   1
  -3   1   2 19374.2 453.964   3
  -3   1   2 18846.6 554.100   1
   3  -1  -2 18592.3 581.103   2
   3  -1  -2 18597.0 478.216   7
   3  -1  -1 558.909 105.655   2
   3  -1  -1 500.781 77.4396   7
  -3   1   1 538.352 67.7556   3
  -3   1   1 567.012 77.1118   8
   3  -1   0 30.4606 33.3369   2
   3  -1   0 92.1687 37.7749   7
   3  -1   0 171.993 56.4480   6
  -3   1   0 71.8153 26.4857   8
  -3   1   0 111.082 27.7145   3
  -3   1  -1 1507.45 65.7748   3
   3  -1   1 1621.38 162.896   6
   3  -1   1 1739.78 180.066   2
  -3   1  -1 1485.77 140.149   8
   3  -1   1 1664.31 136.415   7
   3  -1   2 465.188 94.2451   2
   3  -1   2 430.894 89.0027   6
  -3   1  -2 413.970 80.4654   8
   3  -1   3 4647.54 302.968   6
   3  -1   3 4062.79 274.701   2
  -3   1  -3 4495.00 274.577   8
   3  -1   4 119.558 58.9008   2
   3  -1   4 75.7034 46.7243   6
  -3   1  -4 46.1358 42.8226   8
   3  -1   5 23873.7 747.081   6
   3  -1   5 26086.3 687.024   2
  -3   1  -5 24019.5 709.032   8
   3  -1   6 20896.5 721.226   6
   3  -1   6 20801.6 617.373   2
  -3   1  -6 19885.1 687.293   8
   3  -1   7 6270.82 415.267   6
   3  -1   7 6842.17 347.998   2
  -3   1  -7 6775.36 425.481   8
   3  -1   8 2716.92 285.338   6
  -3   1  -8 3094.53 305.859   8
   3  -1   9 11014.7 594.958   6
  -3   1  -9 11101.4 608.286   8
   3  -1  10 1073.01 196.966   6
  -3   1 -10 1064.91 186.267   7
   3  -1  11-77.0727 64.4898   6
  -3   1 -11 95.6869 67.4692   7
  -3   1 -12 240.163 98.3380   7
  -3   1 -12 132.231 74.7225  10
   3  -1  12 34.5222 48.5107   6
   3   0 -13 60.6204 57.2300   7
  -3   0  13 186.988 94.2612   3
  -3   0  12 5826.35 467.690   3
   3   0 -12 5580.05 451.627   7
   3   0 -11 1369.70 211.132   7
  -3   0  11 1537.06 230.413   3
   3   0 -10 138.619 67.1258   7
  -3   0  10 186.351 90.1027   3
   3   0  -9 244.364 88.5213   7
   3   0  -9 317.776 80.7123   2
  -3   0   9 337.116 99.7994   3
  -3   0   9 421.346 94.5948   6
  -3   0   8 24441.2 778.951   3
  -3   0   8 27152.4 705.216   6
   3   0  -8 26906.9 702.381   2
  -3   0   8 25472.7 747.814   1
   3   0  -8 25414.4 762.900   7
  -3   0   7 7169.41 396.450   3
  -3   0   7 7975.86 372.108   6
   3   0  -7 7348.31 370.041   2
  -3   0   7 7160.25 380.569   1
   3   0  -7 6555.03 362.518   7
  -3   0   6 2626.13 226.667   3
  -3   0   6 2498.75 136.947  10
   3   0  -6 2405.73 212.408   2
   3   0  -6 2438.96 204.991   7
  -3   0   6 2473.12 214.928   1
   3   0  -5 312.051 73.9970   7
   3   0  -5 280.836 79.0767   2
  -3   0   5 304.264 76.5502   3
  -3   0   5 387.530 62.6528  10
  -3   0   5 380.292 86.3973   1
   3   0  -4-3.90669 18.8165   7
   3   0  -4-16.8779 34.9586   2
  -3   0   4 38.7798 26.2345  10
  -3   0   4-4.77862 27.1051   1
  -3   0   4-55.1435 35.2333   3
  -3   0   3 1951.81 153.900   3
  -3   0   3 1950.78 178.311   1
  -3   0   3 1976.58 156.796  10
  -3   0   3 2049.50 114.485   8
   3   0  -3 1717.28 179.096   2
   3   0  -3 1663.64 132.193   7
  -3   0   2 196.952 53.8500  10
   3   0  -2 203.829 46.9755   7
   3   0  -2 319.563 84.2142   2
  -3   0   2 239.766 48.9328   3
  -3   0   2 209.500 41.6365   8
   3   0  -1 72.1212 32.7871   7
   3   0  -1 19.4022 25.5743   2
  -3   0   1 58.4781 35.3279  10
  -3   0   1 39.8180 17.4630   3
  -3   0   1 62.6825 27.1240   8
   3   0   0 19.8233 17.1629   7
   3   0   0 72.2663 50.4354   2
  -3   0   0 6.22682 25.9794  10
  -3   0   0 10.4087 6.41641   3
  -3   0   0 21.9406 20.0149   8
   3   0   1 24839.8 655.094   6
  -3   0  -1 26386.9 556.622   8
   3   0   1 27315.2 702.181   2
   3   0   2 261.100 75.0273   2
   3   0   2 154.935 61.9830   6
  -3   0  -2 252.925 60.9900   8
   3   0   3 4539.80 301.958   6
   3   0   3 4902.73 298.905   2
  -3   0  -3 4746.66 278.868   8
   3   0   4 1819.70 199.311   6
   3   0   4 1979.60 190.717   2
  -3   0  -4 1905.45 187.953   8
   3   0   5 8490.02 446.697   6
   3   0   5 8551.10 395.907   2
  -3   0  -5 7925.80 415.563   8
   3   0   6 8111.69 397.832   4
   3   0   6 8065.02 455.645   6
   3   0   6 7793.09 374.226   2
  -3   0  -6 7708.27 436.848   8
   3   0   7 4667.36 360.837   6
  -3   0  -7 4691.12 359.990   8
  -3   0  -7 5002.83 328.853   7
   3   0   7 4167.19 295.288   4
   3   0   8 147.729 54.9105   4
   3   0   8 272.050 93.0887   6
  -3   0  -8 212.919 81.4961   7
  -3   0  -9-2.48499 56.0760  10
   3   0   9-27.8424 39.6157   6
  -3   0  -9 119.423 75.8238   7
  -3   0 -10 1536.90 234.934  10
   3   0  10 1731.13 251.413   6
  -3   0 -10 1720.78 234.538   7
  -3   0 -11 947.837 190.084  10
   3   0  11 863.287 187.978   6
  -3   0 -12 2020.27 283.816  10
   3   0  12 2040.84 288.649   6
   3   1 -14 130.078 83.3720   7
   3   1 -13 217.595 78.3232   7
  -3  -1  13 116.437 61.5049   3
   3   1 -12 23.3534 40.4716   7
  -3  -1  12 10.6390 38.4225   3
  -3  -1  11 3712.46 352.791   3
  -3  -1  11 4373.92 335.407   6
   3   1 -11 3980.17 350.014   7
  -3  -1  10 15981.4 699.032   3
  -3  -1  10 17281.5 642.541   6
   3   1 -10 15277.2 648.429   7
  -3  -1   9 3193.07 295.687   3
  -3  -1   9 3811.49 289.521   6
   3   1  -9 3721.23 267.649   2
  -3  -1   9 3404.20 271.932   1
   3   1  -9 3239.89 278.077   7
   3   1  -8 810.006 134.596   7
  -3  -1   8 983.650 147.063   6
   3   1  -8 733.932 120.749   2
  -3  -1   8 1081.42 150.570   1
  -3  -1   7 786.116 122.486   1
   3   1  -7 700.000 118.603   2
  -3  -1   7 771.336 124.192   6
   3   1  -7 912.385 128.718   7
   3   1  -6 397.338 82.5279   7
   3   1  -6 417.395 93.6752   2
  -3  -1   6 411.403 69.7919  10
  -3  -1   6 409.675 85.4221   1
  -3  -1   5 30699.4 710.467   1
  -3  -1   5 32145.9 611.111  10
   3   1  -5 31453.2 768.123   2
   3   1  -5 31049.6 617.669   7
  -3  -1   4 14152.9 427.888  10
  -3  -1   4 13325.2 465.841   1
   3   1  -4 13279.8 504.762   2
   3   1  -4 14674.6 378.251   7
  -3  -1   3 1049.22 122.469  10
  -3  -1   3 997.149 51.7854   8
  -3  -1   3 932.133 50.8746   5
   3   1  -3 981.574 135.781   2
   3   1  -3 917.657 83.0748   7
   3   1  -2 208.743 35.4645   7
  -3  -1   2 215.901 61.3682  10
  -3  -1   2 212.148 32.6230   8
   3   1  -2 224.257 65.6439   2
  -3  -1   1 7983.95 369.500  10
  -3  -1   1 8709.52 248.328   8
   3   1  -1 8194.14 395.131   2
   3   1  -1 8647.72 191.902   7
  -3  -1   0 1991.11 191.356  10
  -3  -1   0 2268.12 146.112   8
   3   1   0 2413.88 215.184   2
  -3  -1  -1 11408.3 465.705  10
  -3  -1  -1 11508.3 369.448   8
   3   1   1 11190.2 456.868   2
  -3  -1  -2 952.319 143.017  10
   3   1   2 1018.16 145.600   6
  -3  -1  -2 1115.64 127.621   8
   3   1   2 1304.89 158.609   2
   3   1   3 10.2038 26.6067   4
   3   1   3-20.8733 40.5201   2
  -3  -1  -3 20.8234 39.9611  10
   3   1   3 12.9618 31.4526   6
   3   1   4 333.530 88.6370   4
   3   1   4 461.939 98.3787   2
  -3  -1  -4 437.868 105.003  10
   3   1   4 395.563 96.5264   6
  -3  -1  -4 512.717 83.7694   7
   3   1   5 43.6785 35.8820   4
   3   1   5 129.894 68.4003   2
  -3  -1  -5 2.76357 33.8586  10
   3   1   5 60.7493 50.1858   6
  -3  -1  -5 26.3341 19.5803   7
  -3  -1  -6 4648.77 362.566  10
   3   1   6 5035.84 364.355   6
   3   1   6 5275.25 311.944   2
  -3  -1  -6 5039.01 301.479   7
   3   1   6 4935.31 335.144   4
  -3  -1  -7 624.226 118.602   7
   3   1   7 546.722 119.453   4
  -3  -1  -7 499.362 128.732  10
   3   1   7 451.511 118.697   6
   3   1   8 137.728 65.4199   4
  -3  -1  -8 75.0620 62.3541  10
   3   1   8 36.5530 41.7715   6
   3   1   9 374.093 107.326   4
  -3  -1  -9 165.929 79.6433  10
   3   1   9 279.967 108.512   6
  -3  -1 -10-36.9982 69.3945  10
   3   1  10 139.014 75.1494   6
  -3  -1 -11 6.96749 28.9853  10
   3   1  11-3.76939 45.4826   6
   3   2 -14 11.3106 35.7493   7
  -3  -2  14 27.5320 49.7407   3
   3   2 -13 17.2020 33.3782   7
  -3  -2  13 98.3394 67.3906   3
   3   2 -12 719.427 197.987   7
  -3  -2  12 493.281 131.036   6
   3   2 -11 290.948 91.1552   7
  -3  -2  11 203.539 78.4994   6
  -3  -2  10 4156.42 332.447   6
  -3  -2  10 5341.38 334.839   1
   3   2 -10 4237.55 327.284   7
   3   2  -9 129.870 69.2288   7
  -3  -2   9 174.846 66.6624   6
   3   2  -9 297.279 80.8187   2
   3   2  -9 237.269 82.2616   9
  -3  -2   9 148.948 60.2799   1
   3   2  -8 777.582 123.369   7
  -3  -2   8 591.916 105.377   1
  -3  -2   8 746.267 137.080   6
   3   2  -8 744.121 136.591   9
   3   2  -8 790.416 132.949   2
   3   2  -7 417.780 85.6196   7
  -3  -2   7 468.195 106.462   6
  -3  -2   7 554.743 85.4970  10
   3   2  -7 535.240 106.421   2
   3   2  -7 415.470 100.196   9
  -3  -2   7 393.077 84.9656   1
  -3  -2   6 1151.17 140.062   1
  -3  -2   6 1246.82 133.066  10
   3   2  -6 1213.13 163.398   9
   3   2  -6 1321.79 131.207   7
   3   2  -6 1238.00 163.585   2
  -3  -2   5 16696.4 495.355  10
  -3  -2   5 16265.6 512.520   1
   3   2  -5 17005.4 583.484   9
   3   2  -5 17985.4 423.356   7
   3   2  -5 16891.7 587.808   2
  -3  -2   4 25072.0 621.822  10
   3   2  -4 25072.5 690.405   9
   3   2  -4 26939.9 433.494   7
   3   2  -4 25108.0 708.303   2
  -3  -2   3 20234.5 574.979  10
   3   2  -3 20502.9 603.887   9
   3   2  -3 20838.8 290.459   7
  -3  -2   2 5095.38 299.565  10
   3   2  -2 5117.15 294.082   9
  -3  -2   2 5519.63 145.597   5
  -3  -2   1 1514.68 168.323  10
   3   2  -1 1344.28 147.746   9
   3   2  -1 1435.07 171.632   2
   3   2   0 270.530 77.9862   2
  -3  -2   0 292.164 77.1675  10
  -3  -2  -1 123.992 61.5305  10
   3   2   1 106.152 50.1103   2
  -3  -2  -2 18221.1 642.549  10
   3   2   2 17882.8 600.640   2
   3   2   2 18055.6 603.173   4
  -3  -2  -3 1128.56 166.896  10
   3   2   3 1497.27 175.950   2
   3   2   3 1319.42 171.021   4
  -3  -2  -4 12724.6 573.641  10
   3   2   4 12290.1 545.073   6
   3   2   4 13006.2 513.825   2
   3   2   4 12796.8 542.650   4
  -3  -2  -5 2203.47 250.671  10
   3   2   5 2641.49 260.295   6
   3   2   5 2485.79 224.610   2
   3   2   5 2351.10 242.128   4
   3   2   6 62.0902 53.1080   4
  -3  -2  -6 112.590 79.3262  10
   3   2   6 27.0077 43.1441   6
   3   2   7 6.90852 31.8748   4
  -3  -2  -7 102.701 66.0737  10
   3   2   7 85.1178 58.0235   6
   3   2   8 230.146 90.2796   4
   3   2   8 335.543 112.022   6
  -3  -2  -8 166.955 87.0855  10
   3   2   9 347.278 108.003   4
  -3  -2  -9 390.907 120.384  10
   3   2   9 414.239 118.651   6
   3   2  10 208.294 87.8934   4
  -3  -2 -10 192.542 76.5776  10
   3   2  10 280.478 116.141   6
   3   3 -15 423.575 134.458   7
   3   3 -14 379.901 126.387   7
  -3  -3  14 521.631 148.409   6
   3   3 -13 194.897 88.0025   7
  -3  -3  13 68.2612 55.4342   6
   3   3 -12 792.291 158.889   7
  -3  -3  12 486.644 134.408   6
   3   3 -12 462.897 119.945   9
  -3  -3  11 1376.26 213.333   6
   3   3 -11 1549.11 212.971   9
   3   3 -11 1323.90 190.985   7
  -3  -3  10 3579.99 324.415   6
   3   3 -10 4071.01 336.351   9
  -3  -3  10 4554.53 294.991   1
   3   3 -10 3717.19 299.344   7
   3   3 -10 3866.94 295.965   2
   3   3  -9 500.977 105.590   7
  -3  -3   9 690.799 113.398   1
  -3  -3   9 727.979 145.068   6
   3   3  -9 505.826 112.220   2
   3   3  -9 487.501 114.665   9
  -3  -3   8 910.036 125.696   1
  -3  -3   8 1010.19 127.923  10
  -3  -3   8 718.988 142.708   6
   3   3  -8 847.935 146.688   9
   3   3  -8 931.588 129.315   7
   3   3  -7 63.2532 34.6561   7
  -3  -3   7 82.3538 46.3598  10
  -3  -3   7 1.39583 26.0027   1
   3   3  -7 28.5890 36.2677   9
   3   3  -6 70.8881 33.3128   7
  -3  -3   6 46.4911 33.9369  10
   3   3  -6 21.6510 36.1357   9
  -3  -3   6 52.8852 44.5085   1
   3   3  -5 88.8813 25.4736   7
   3   3  -5 8.45210 31.8332   9
  -3  -3   5 54.3704 38.1986  10
  -3  -3   4 527.837 104.446  10
   3   3  -4 704.205 123.942   9
  -3  -3   3 194.639 66.5862  10
   3   3  -3 281.475 75.5813   9
  -3  -3   2 7094.80 377.801  10
   3   3  -2 7089.93 356.301   9
  -3  -3   2 7476.38 199.593   5
  -3  -3   1 4211.85 296.837  10
   3   3  -1 3913.63 257.213   9
  -3  -3   1 4346.73 192.051   5
   3   3   0 621.372 116.003   4
   3   3   0 761.331 114.772   9
   3   3   0 727.199 87.2374   3
  -3  -3   0 859.868 99.6350   5
  -3  -3   0 627.935 122.338  10
  -3  -3  -1 2392.31 235.576  10
   3   3   1 2665.61 200.468   9
   3   3   1 2768.89 163.096   3
   3   3   1 2576.78 241.881   4
  -3  -3  -2 4339.62 328.345  10
   3   3   2 4905.43 257.910   9
   3   3   2 4633.35 327.780   4
  -3  -3  -3 13609.6 594.451  10
   3   3   3 14498.5 595.524   4
   3   3   4 410.050 112.342   4
   3   3   4 423.877 97.8894   2
  -3  -3  -4 412.555 111.857  10
   3   3   5 703.918 144.912   4
  -3  -3  -5 776.987 151.459  10
   3   3   5 961.663 146.408   2
   3   3   6 118.109 59.1279   4
  -3  -3  -6 211.095 93.3216  10
   3   3   7 155.851 85.7160   4
  -3  -3  -7 300.339 106.407  10
  -3  -3  -8 4293.90 387.867  10
   3   3   8 4180.65 379.659   4
  -3  -3  -9 4042.30 390.608  10
   3   3   9 4163.70 389.494   4
   3   3  10 7883.19 548.729   4
  -3  -4  14 176.540 87.4363   6
   3   4 -14 155.968 77.5096   9
   3   4 -13-45.9271 58.7652   7
  -3  -4  13 16.4535 51.5925   6
   3   4 -13-27.9107 41.0259   9
   3   4 -12 83.6269 58.1518   7
  -3  -4  12 65.8722 75.7385   6
   3   4 -12 145.724 80.6248   9
   3   4 -11 223.528 80.5126   7
  -3  -4  11 309.413 105.525   6
   3   4 -11 249.851 90.7829   9
  -3  -4  10 3021.86 314.844   6
   3   4 -10 2986.23 300.163   9
   3   4 -10 2931.39 262.739   7
  -3  -4   9 4640.75 375.010   6
  -3  -4   9 5456.72 327.621  10
   3   4  -9 5014.04 377.858   9
   3   4  -9 5540.59 331.263   7
  -3  -4   8 31.1369 30.5105   1
  -3  -4   8 38.4997 51.3445   6
  -3  -4   8 112.348 58.2554  10
   3   4  -8 66.1578 36.9075   9
  -3  -4   7 11416.8 560.747   6
  -3  -4   7 12222.8 492.661  10
  -3  -4   7 12472.2 448.145   1
   3   4  -7 11695.1 545.875   9
  -3  -4   6 427.644 95.1480  10
   3   4  -6 422.499 102.485   9
  -3  -4   5 316.629 86.4072  10
   3   4  -5 438.579 105.202   9
  -3  -4   4 2021.98 213.558  10
   3   4  -4 2214.11 219.674   9
  -3  -4   3 19471.8 662.058  10
   3   4  -3 19536.7 637.326   9
  -3  -4   2 2440.66 239.375  10
   3   4  -2 2433.10 222.371   9
   3   4  -2 2668.70 201.840   3
   3   4  -1 2142.22 217.050   4
  -3  -4   1 2521.06 246.536  10
   3   4  -1 2423.21 215.140   9
   3   4  -1 2459.94 189.623   3
  -3  -4   1 2566.16 166.159   5
   3   4   0 452.360 106.601   4
  -3  -4   0 576.627 124.400  10
   3   4   0 616.542 95.1811   3
   3   4   0 550.513 102.000   9
  -3  -4   0 677.800 98.6859   5
  -3  -4  -1 7233.92 437.436  10
   3   4   1 8352.34 332.881   3
   3   4   1 7636.50 354.041   9
  -3  -4  -1 7771.54 358.801   5
   3   4   1 7547.61 433.314   4
  -3  -4  -2 6319.63 416.154  10
   3   4   2 6477.24 310.015   9
  -3  -4  -2 6431.29 349.901   5
   3   4   2 6069.64 398.791   4
  -3  -4  -3 4118.87 348.672  10
  -3  -4  -3 4882.55 328.458   5
   3   4   3 3973.39 332.096   4
   3   4   4-2.54386 40.9011   4
  -3  -4  -4-21.4864 42.6325  10
  -3  -4  -4 17.7296 32.4800   5
   3   4   5 1191.70 198.170   4
  -3  -4  -5 1409.78 215.119  10
  -3  -4  -5 1280.04 191.548   5
  -3  -4  -6 5005.49 411.897  10
  -3  -4  -6 5425.05 414.851   5
   3   4   6 5237.72 421.317   4
   3   4   7 17.3199 39.8902   4
  -3  -4  -7-8.06280 38.3761  10
  -3  -4  -7 125.559 72.8168   5
   3   4   8 72.6960 64.4649   4
  -3  -4  -8 37.6508 52.8107  10
  -3  -4  -8 8.74149 36.3151   5
   3   4   9 382.836 146.548   4
  -3  -4  -9 327.042 114.755  10
  -3  -5  14-122.704 79.8166   6
   3   5 -14 48.8487 56.8376   9
  -3  -5  13 262.582 117.288   6
   3   5 -13 314.414 117.986   9
  -3  -5  12 222.730 113.102   6
   3   5 -12 70.5008 58.5887   9
   3   5 -11 663.273 153.593   9
  -3  -5  11 611.113 158.664   6
  -3  -5  10 1206.09 206.519   6
   3   5 -10 1502.15 221.175   9
  -3  -5   9 43.2457 57.4858   6
  -3  -5   9 73.2188 53.5727  10
   3   5  -9 8.11322 34.0792   9
  -3  -5   8 2908.67 307.535   6
  -3  -5   8 2872.57 264.024  10
   3   5  -8 2791.92 285.597   9
  -3  -5   7 1555.42 223.169   6
  -3  -5   7 1094.69 165.522  10
   3   5  -7 1250.68 184.869   9
  -3  -5   6 1957.60 217.550  10
   3   5  -6 1947.20 230.826   9
  -3  -5   5 83.4955 59.1796  10
   3   5  -5 57.9716 48.2056   9
  -3  -5   4 68.5551 40.4440  10
   3   5  -4 23.9686 34.3843   9
  -3  -5   3 32028.9 908.641  10
   3   5  -3 31313.4 845.523   9
   3   5  -3 30893.6 765.741   3
   3   5  -2 13459.5 562.817   4
  -3  -5   2 14085.1 617.558  10
   3   5  -2 14899.9 568.724   9
   3   5  -2 15238.1 527.854   3
   3   5  -1 283.893 83.3326   4
   3   5  -1 306.287 74.8379   3
  -3  -5   1 291.135 96.2548  10
   3   5  -1 236.539 74.1188   9
  -3  -5   0 12889.4 604.783  10
   3   5   0 13874.2 525.262   9
   3   5   0 14385.4 504.914   3
   3   5   0 13478.0 596.355   4
   3   5   1 420.678 115.097   4
  -3  -5  -1 189.470 75.4599  10
   3   5   1 287.979 76.0427   9
  -3  -5  -1 426.965 91.3307   5
  -3  -5  -2 7.94562 28.5910  10
  -3  -5  -2 49.4001 41.0245   5
   3   5   3 536.101 130.264   4
  -3  -5  -3 636.727 147.434  10
  -3  -5  -3 844.536 151.080   5
  -3  -5  -4 1756.20 246.444  10
  -3  -5  -4 1970.73 239.274   5
   3   5   4 2224.52 278.343   4
   3   5   5 60.7428 75.9967   4
  -3  -5  -5 3.43338 53.7200  10
  -3  -5  -5 43.7936 43.9604   5
  -3  -5  -6 1553.94 240.682  10
  -3  -5  -6 2105.01 275.265   5
   3   5   6 2092.93 284.657   4
   3   5   7 395.664 125.579   4
  -3  -5  -7 285.981 107.682  10
  -3  -5  -7 322.439 117.464   5
   3   6 -14 952.570 196.925   9
  -3  -6  13 827.213 190.137   6
   3   6 -13 728.759 173.945   9
  -3  -6  12 1241.30 237.779   6
   3   6 -12 1236.65 217.101   9
  -3  -6  11 225.426 119.039   6
   3   6 -11 369.469 117.762   9
  -3  -6  10 2399.99 303.497   6
  -3  -6  10 2174.90 248.357  10
   3   6 -10 2440.61 290.736   9
  -3  -6   9-67.6477 58.6253   6
  -3  -6   9-8.65223 30.4200  10
   3   6  -9-11.2518 42.3602   9
  -3  -6   8 31.8971 48.8132   6
  -3  -6   8 13.7117 34.7694  10
   3   6  -8 61.6330 39.7419   9
  -3  -6   7 541.066 142.738   6
  -3  -6   7 428.033 109.802  10
   3   6  -7 571.159 130.486   9
  -3  -6   6 84.8568 58.9376  10
   3   6  -6 102.263 66.7675   9
  -3  -6   5 18975.2 735.191  10
   3   6  -5 19766.2 740.320   9
  -3  -6   4 4160.09 348.941  10
   3   6  -4 4256.84 334.701   9
   3   6  -4 3899.37 303.177   3
   3   6  -3 2648.68 260.264   4
  -3  -6   3 2866.44 293.964  10
   3   6  -3 2845.38 271.008   9
   3   6  -3 2505.70 238.276   3
   3   6  -2 4.03152 30.7451   4
   3   6  -2 101.421 58.4782   3
  -3  -6   2-0.32809 33.7980  10
   3   6  -2 113.729 58.1077   9
  -3  -6   1 1160.81 196.820  10
   3   6  -1 1364.16 175.411   3
   3   6  -1 1080.11 157.384   9
   3   6  -1 1525.26 211.123   4
   3   6   0 892.302 162.764   4
   3   6   0 642.073 117.180   3
  -3  -6   0 579.151 140.142  10
   3   6   0 597.036 120.693   9
   3   6   1-15.3296 41.5570   4
  -3  -6  -1 45.4358 57.2525  10
   3   6   2 282.764 100.414   4
  -3  -6  -2 303.995 99.0723  10
  -3  -6  -3 2585.06 307.719  10
  -3  -6  -3 2635.71 273.251   5
   3   6   3 2225.68 283.304   4
   3   6   4 1341.26 224.049   4
  -3  -6  -4 1573.10 246.666  10
  -3  -6  -4 1221.79 199.090   5
   3   6   5 895.551 194.547   4
  -3  -6  -5 599.093 158.304  10
  -3  -6  -5 751.873 159.995   5
  -3  -6  -6 1295.76 233.074  10
  -3  -6  -6 1170.95 211.898   5
  -3  -7  12-122.130 86.1048   6
   3   7 -12-0.43378 57.1029   9
  -3  -7  11 247.812 108.430   6
   3   7 -11 132.426 78.0792   9
  -3  -7  10 226.104 109.938   6
  -3  -7  10 294.199 102.595  10
   3   7 -10 173.408 85.4108   9
  -3  -7   9 219.076 106.695   6
  -3  -7   9 214.109 101.161  10
   3   7  -9 333.651 130.678   9
  -3  -7   8-82.3031 71.2803   6
  -3  -7   8-63.0761 57.7425  10
  -3  -7   7 299.539 113.794   6
  -3  -7   7 182.076 94.4864  10
   3   7  -7 249.569 92.0811   9
  -3  -7   6 690.718 166.086   6
  -3  -7   6 550.267 139.571  10
   3   7  -6 799.030 162.971   9
  -3  -7   5 10308.4 580.040  10
   3   7  -5 10113.3 556.706   9
   3   7  -5 10304.0 536.661   3
   3   7  -4 59.8818 40.1525   3
  -3  -7   4 48.5442 50.0001  10
   3   7  -4 74.4093 58.4071   9
   3   7  -3 5485.81 394.780   4
  -3  -7   3 6354.61 463.215  10
   3   7  -3 6002.06 413.299   9
   3   7  -3 6028.88 400.512   3
   3   7  -2 246.797 97.3232   4
   3   7  -2 39.4931 35.6010   3
  -3  -7   2 128.330 80.6834  10
   3   7  -2 38.8177 36.2865   9
   3   7  -1 378.141 115.876   4
   3   7  -1 531.921 122.446   3
  -3  -7   1 472.394 130.724  10
   3   7  -1 492.778 122.185   9
  -3  -7   0 1746.18 252.455  10
   3   7   0 2256.62 276.367   4
   3   7   1 158.444 86.8527   4
  -3  -7  -1 34.0935 40.4925  10
  -3  -7  -2 6410.41 501.021  10
   3   7   2 6072.01 477.435   4
   3   7   3 1283.67 226.418   4
  -3  -7  -3 1025.17 202.710  10
  -3  -7  -4 339.568 109.328  10
  -3  -8  10 184.752 105.880   6
  -3  -8  10 293.089 108.874  10
   3   8 -10 242.754 92.9298   9
  -3  -8   9 435.407 139.420   6
  -3  -8   9 649.421 155.232  10
   3   8  -9 733.102 163.292   9
  -3  -8   8 149.515 69.3823   6
  -3  -8   8 112.837 75.9405  10
   3   8  -8 105.405 68.1314   9
  -3  -8   7 245.793 102.023   6
  -3  -8   7 491.557 138.255  10
   3   8  -7 302.386 108.845   9
  -3  -8   6 1675.90 253.101  10
   3   8  -6 1397.24 216.968   3
  -3  -8   6 1423.03 244.120   6
   3   8  -6 1611.28 244.786   9
  -3  -8   5 225.918 104.383   6
   3   8  -5 205.127 96.1411   3
  -3  -8   5 179.306 103.487  10
   3   8  -5 287.967 107.305   9
   3   8  -4 150.296 77.6723   4
   3   8  -4 105.896 63.5048   3
  -3  -8   4 283.502 109.814  10
   3   8  -4 173.106 80.0987   9
   3   8  -3 270.242 110.293   4
   3   8  -3 143.193 83.0892   3
  -3  -8   3 306.075 116.232  10
   3   8  -3 367.773 107.013   9
   3   8  -2 609.276 145.648   4
   3   8  -2 405.593 111.354   3
  -3  -8   2 632.163 162.125  10
   3   8  -2 583.319 134.175   9
   3   8  -1 117.140 69.0351   4
  -3  -8   1 114.923 78.4364  10
   3   8   0 661.060 157.186   4
  -3  -8   0 293.142 113.214  10
   3   8   1 1738.50 263.447   4
  -3  -8  -1 1379.56 243.918  10
  -3  -8  -2 3606.31 393.697  10
  -3  -9  10 296.030 115.751  10
  -3  -9   9 255.810 111.196  10
  -3  -9   8 156.678 134.298   6
  -3  -9   8 254.010 109.473  10
   3   9  -8-58.8660 56.6353   9
  -3  -9   7 117.311 84.4431   6
  -3  -9   7-62.1176 69.0302  10
   3   9  -6 440.116 133.974   3
  -3  -9   6 723.813 179.232   6
  -3  -9   6 768.462 182.903  10
   3   9  -6 540.953 144.523   9
   3   9  -5 312.993 114.821   3
  -3  -9   5 131.381 81.8343   6
  -3  -9   5 439.578 146.302  10
   3   9  -5 319.977 114.260   9
   3   9  -4 199.418 82.7175   4
  -3  -9   4 193.027 105.832   6
   3   9  -4 274.673 108.602   3
  -3  -9   4 227.022 133.363  10
   3   9  -4 185.393 88.4800   9
   3   9  -3 43.6364 47.5665   4
   3   9  -3 88.4433 62.7078   3
  -3  -9   3-83.2067 69.4952  10
   3   9  -3 5.79715 30.1768   9
   3   9  -2 464.545 133.439   4
   3   9  -1 54.8764 52.4939   4
  -4   8   3 100.291 64.9939   3
  -4   8   2 3009.82 325.335   3
  -4   8   1 696.551 151.806   3
   4  -8  -1 831.567 195.548   7
  -4   8   0 342.373 106.235   3
   4  -8   0 307.891 120.776   7
   4  -8   1 1140.64 217.018   7
   4  -8   2 43.3513 53.3488   7
  -4   8  -2 149.366 70.2949   8
   4  -8   3 669.690 169.699   7
  -4   8  -3 516.273 146.699   8
   4  -8   4-89.6508 71.4077   7
  -4   8  -4-20.1500 44.1186   8
   4  -8   5 1659.72 261.657   7
  -4   8  -5 1883.82 277.321   8
   4  -8   6 18.0816 46.3019   7
  -4   8  -6 39.5984 56.9688   8
   4  -8   8 488.335 142.687   6
  -4   7   5 141.432 80.7412   3
   4  -7  -4 1375.37 232.034   7
  -4   7   4 1534.16 232.216   3
  -4   7   3 234.804 99.4521   3
   4  -7  -3 192.966 99.2168   7
  -4   7   2 2715.79 293.335   3
   4  -7  -2 2836.67 332.943   7
  -4   7   1 1338.18 198.529   3
   4  -7  -1 1808.97 262.239   7
  -4   7   0-61.0184 43.4022   3
   4  -7   0 45.5997 69.5346   7
   4  -7   1 84.5239 63.3106   7
  -4   7  -1 63.6784 51.3098   1
  -4   7  -2 2058.95 266.096   8
  -4   7  -2 2056.19 239.233   1
   4  -7   2 2061.82 268.919   7
   4  -7   3 244.404 105.089   7
  -4   7  -3 261.669 97.3052   8
   4  -7   4 414.775 124.932   7
  -4   7  -4 927.589 178.434   8
   4  -7   5-58.8828 58.9121   7
  -4   7  -5 91.9211 63.9849   8
   4  -7   6-18.0274 49.2127   7
   4  -7   6 149.475 66.1740   6
  -4   7  -6 208.321 98.2900   8
   4  -7   7-34.5341 42.6234   6
  -4   7  -7 2.64451 48.0955   8
   4  -7   8 1397.21 229.787   6
  -4   7  -8 2033.21 297.519   8
   4  -7   9 100.961 70.5245   6
  -4   6   7 14.4862 29.1576   3
   4  -6  -6 1460.86 245.145   7
  -4   6   6 1384.97 227.517   3
   4  -6  -5 406.436 135.998   7
  -4   6   5 419.008 121.675   3
   4  -6  -4 1477.62 238.260   7
  -4   6   4 1251.34 197.032   3
   4  -6  -3 61.9267 43.3115   7
  -4   6   3 16.3295 47.7741   3
  -4   6   2 5024.67 366.509   3
   4  -6  -2 5766.16 443.610   7
  -4   6   1 692.509 129.792   3
   4  -6  -1 1123.67 195.467   7
  -4   6   1 1039.87 179.772   1
  -4   6   0 4164.01 308.970   3
  -4   6   0 3451.93 314.786   1
   4  -6   0 3610.49 341.550   7
  -4   6  -1 3392.59 322.027   8
  -4   6  -1 3445.25 306.120   1
   4  -6   1 3603.87 334.852   7
  -4   6  -2 1695.32 232.327   8
  -4   6  -2 1654.96 208.201   1
   4  -6   2 1905.38 245.388   7
  -4   6  -3-23.7911 37.8850   1
   4  -6   3 40.2358 44.4894   7
  -4   6  -3 68.3871 54.5647   8
   4  -6   4-13.5178 41.6743   7
  -4   6  -4 40.3785 51.3720   1
   4  -6   4-26.6248 36.2329   6
  -4   6  -4-67.1780 61.8307   8
   4  -6   5 484.910 126.007   7
   4  -6   5 270.970 89.2520   6
  -4   6  -5 265.488 86.0193   8
   4  -6   6-81.6772 59.4306   6
  -4   6  -6 107.053 59.9496   8
   4  -6   7-2.21216 39.3750   6
  -4   6  -7 31.3971 81.7755   8
   4  -6   8 450.421 122.775   6
  -4   6  -8 602.190 156.159   8
   4  -6   9 158.205 96.5011   6
  -4   6  -9 134.995 83.9528   8
   4  -5  -8 527.495 156.376   7
  -4   5   8 566.373 147.550   3
   4  -5  -7 92.9208 85.5007   7
  -4   5   7 311.573 107.146   3
   4  -5  -6 240.078 97.0753   7
  -4   5   6 168.649 71.6091   3
   4  -5  -5 1169.66 207.708   7
  -4   5   5 914.369 169.702   3
   4  -5  -4 892.145 173.332   7
  -4   5   4 830.336 156.032   3
   4  -5  -3-10.7397 53.7530   7
  -4   5   3 37.0948 29.7696   1
  -4   5   3 15.1818 33.1972   3
   4  -5  -2-2.56822 42.3331   7
  -4   5   2-37.4286 44.2739   1
  -4   5   1 3545.80 271.175   3
  -4   5   1 3193.45 294.057   1
   4  -5  -1 2883.05 289.495   7
  -4   5   0 38.0133 32.0166   3
  -4   5   0 55.6888 62.9017   1
   4  -5   0 28.4190 55.4389   7
  -4   5  -1 2501.59 248.146   1
  -4   5  -1 2447.26 256.630   8
   4  -5   1 2536.62 262.736   7
   4  -5   2 28.8033 31.5654   7
  -4   5  -2 6.33518 36.6683   1
   4  -5   2 34.4699 54.5481   6
  -4   5  -2 10.8712 42.5182   8
   4  -5   3 19.2588 44.0370   7
   4  -5   3 0.25557 45.0676   6
  -4   5  -3-20.1918 53.3895   8
  -4   5  -3-9.09024 30.8210   1
  -4   5  -4 1882.74 207.171   1
   4  -5   4 1655.31 209.165   6
  -4   5  -4 1751.80 230.474   8
   4  -5   4 1708.92 224.379   7
  -4   5  -5 9513.31 459.523   1
   4  -5   5 8765.54 501.013   6
  -4   5  -5 9609.45 553.918   8
   4  -5   5 9407.34 527.446   7
   4  -5   6 624.844 140.424   6
  -4   5  -6 643.843 146.640   8
   4  -5   7 399.295 119.434   6
  -4   5  -7 459.215 131.309   8
   4  -5   8 2591.38 310.186   6
  -4   5  -8 2370.13 298.017   8
   4  -5   9 84.7537 67.0709   6
  -4   5  -9 53.0778 46.8799   8
   4  -5  10 118.119 95.7235   6
  -4   5 -10 116.650 75.4479   8
   4  -4  -9 786.794 186.361   7
  -4   4   9 856.435 189.639   3
   4  -4  -8 763.879 167.919   7
  -4   4   8 885.743 181.191   3
   4  -4  -7 124.012 76.0957   7
  -4   4   7 196.147 84.6080   3
   4  -4  -6 145.760 76.4164   7
  -4   4   6 218.888 93.6696   3
   4  -4  -5 371.333 118.436   7
  -4   4   5 534.855 132.245   1
  -4   4   5 554.785 125.637   3
  -4   4   4 8745.10 460.081   3
  -4   4   4 9107.28 521.553   1
   4  -4  -4 7789.56 474.667   7
   4  -4  -3 537.020 126.450   7
  -4   4   3 552.202 114.839   3
  -4   4   3 515.737 124.058   1
  -4   4   2 3272.33 253.294   3
   4  -4  -2 3258.56 289.241   7
  -4   4   2 2655.17 266.757   1
   4  -4  -1 224.584 87.4200   7
  -4   4   1 175.426 67.1975   1
  -4   4   1 180.435 58.3720   3
   4  -4   0 80.1533 55.6343   7
  -4   4   0 8.43572 34.0434   1
   4  -4   0 52.6247 36.2315   6
  -4   4   0 110.211 67.8861   8
  -4   4  -1 1368.63 181.697   1
   4  -4   1 1462.20 171.389   6
  -4   4  -1 1483.02 189.088   8
   4  -4   1 1374.70 183.379   7
  -4   4  -2 8763.12 443.692   1
   4  -4   2 8787.74 441.869   6
  -4   4  -2 9215.60 475.164   8
   4  -4   2 9117.21 464.747   7
  -4   4  -3 6279.18 374.366   1
   4  -4   3 6043.12 381.130   6
  -4   4  -3 6339.86 406.727   8
   4  -4   3 6408.22 397.159   7
   4  -4   4 89.2307 64.0951   7
  -4   4  -4 148.123 59.0662   1
   4  -4   4 142.704 73.1369   6
  -4   4  -4 128.137 69.3596   8
   4  -4   5 2500.53 267.427   6
  -4   4  -5 2565.90 276.905   8
   4  -4   6 2849.27 298.802   6
  -4   4  -6 3473.41 330.192   8
   4  -4   7 3336.09 335.074   6
  -4   4  -7 3454.92 341.281   8
   4  -4   8 5198.10 435.482   6
  -4   4  -8 5528.57 448.929   8
   4  -4   9 953.227 201.268   6
  -4   4  -9 980.676 198.249   8
   4  -4  10 1552.82 252.276   6
  -4   4 -10 1246.12 237.704   8
   4  -3 -10 87.4117 66.7108   7
  -4   3  10 31.9681 48.2590   3
   4  -3  -9 140.282 82.5498   7
  -4   3   9 117.298 47.0812   3
   4  -3  -8 111.381 75.4673   7
  -4   3   8 163.650 76.9976   3
   4  -3  -7 946.657 174.925   7
  -4   3   7 899.031 164.615   3
  -4   3   6 2370.35 250.459   3
  -4   3   6 2915.33 301.178   1
   4  -3  -6 2421.38 265.628   7
   4  -3  -5 487.130 111.033   7
  -4   3   5 500.519 111.130   3
  -4   3   5 544.098 126.502   1
  -4   3   4 4623.05 313.859   3
  -4   3   4 4573.38 353.740   1
   4  -3  -4 4755.94 343.673   7
  -4   3   3 2847.95 270.708   1
  -4   3   3 2938.36 235.265   3
   4  -3  -3 2769.30 274.214   2
   4  -3  -3 2893.10 259.476   7
   4  -3  -2 34.2346 44.1742   7
   4  -3  -2 70.1073 53.0957   2
  -4   3   2 127.723 64.2019   1
  -4   3   2 136.634 49.8917   3
   4  -3  -1 435.497 99.9412   7
  -4   3   1 529.008 104.708   8
   4  -3  -1 432.575 109.964   2
  -4   3   1 430.625 79.8953   3
  -4   3   1 404.205 101.156   1
   4  -3   0 102.155 52.1767   7
  -4   3   0 34.5381 43.5129   1
  -4   3   0 63.3987 40.6171   8
   4  -3   0 159.687 68.8799   2
   4  -3   1 195.469 71.1848   7
  -4   3  -1 178.750 76.0730   1
   4  -3   1 138.270 60.8158   6
  -4   3  -1 314.262 90.1943   8
   4  -3   1 231.701 86.1789   2
   4  -3   2 1534.12 188.594   6
   4  -3   2 1405.33 196.946   2
  -4   3  -2 1504.71 186.903   1
  -4   3  -2 1718.45 197.783   8
   4  -3   2 1403.76 173.697   7
   4  -3   3 23941.6 767.958   6
  -4   3  -3 24761.0 770.622   8
   4  -3   3 26008.7 747.725   7
   4  -3   4 150.735 66.6473   6
  -4   3  -4 123.314 74.1693   8
   4  -3   5 885.247 163.770   6
  -4   3  -5 694.669 142.558   8
   4  -3   6 174.819 82.4066   6
  -4   3  -6 233.942 92.0050   8
   4  -3   7 3925.07 361.830   6
  -4   3  -7 4437.33 379.291   8
   4  -3   8 1483.35 233.084   6
  -4   3  -8 1641.00 237.110   8
   4  -3   9 833.225 185.116   6
  -4   3  -9 1418.36 236.052   8
   4  -3  10 111.667 91.8765   6
  -4   3 -10 115.329 80.1438   8
   4  -2 -11 1401.49 238.676   7
  -4   2  11 1467.23 244.730   3
  -4   2  10 1937.91 267.968   3
   4  -2 -10 2326.46 295.246   7
  -4   2   9 6184.09 454.559   3
   4  -2  -9 6103.35 449.724   7
  -4   2   8 3514.30 324.998   3
  -4   2   8 4083.00 359.306   1
   4  -2  -8 4103.11 353.054   7
   4  -2  -7-19.9311 38.8076   7
  -4   2   7 88.7213 73.9134   1
   4  -2  -7-21.8180 36.6595   2
  -4   2   6 2307.92 236.124   3
   4  -2  -6 2326.01 248.672   2
  -4   2   6 2545.49 273.701   1
   4  -2  -6 2313.37 240.938   7
  -4   2   5 1286.05 167.109   3
   4  -2  -5 1044.96 168.572   2
   4  -2  -5 1188.92 167.210   7
  -4   2   5 1282.74 189.820   1
  -4   2   4 4688.74 342.425   1
  -4   2   4 4884.24 303.969   3
   4  -2  -4 4407.89 337.708   2
   4  -2  -4 4291.94 303.876   7
  -4   2   3 2934.68 265.148   1
  -4   2   3 3093.86 223.529   3
   4  -2  -3 3181.67 288.561   2
   4  -2  -3 3096.31 247.370   7
  -4   2   2 1762.10 201.994   1
  -4   2   2 1887.16 161.411   3
   4  -2  -2 2290.91 248.138   2
  -4   2   2 2088.04 181.804   8
   4  -2  -2 2368.23 209.406   7
   4  -2  -1 80.2763 53.8813   2
   4  -2  -1 59.8447 48.2571   7
  -4   2   1 47.7483 46.6726   1
  -4   2   1 44.0665 31.1715   8
  -4   2   0 4575.86 318.681   1
   4  -2   0 4640.19 346.225   2
  -4   2   0 4683.39 288.058   8
   4  -2   0 4704.80 280.809   7
   4  -2   1 1097.83 155.502   6
   4  -2   1 1309.19 185.158   2
  -4   2  -1 1156.12 148.752   8
   4  -2   1 1052.67 134.005   7
   4  -2   2 31.6490 34.8303   7
   4  -2   2 39.3862 57.6878   6
  -4   2  -2 22.4527 29.9597   8
   4  -2   2 117.875 65.0737   2
   4  -2   3 1390.02 186.497   6
   4  -2   3 1366.40 189.118   2
  -4   2  -3 1448.42 178.766   8
   4  -2   4 173.904 77.3293   6
  -4   2  -4 292.122 85.7581   8
   4  -2   4 215.429 84.5710   2
   4  -2   5 1483.66 210.413   6
   4  -2   5 1646.69 207.004   2
  -4   2  -5 1243.14 185.699   8
   4  -2   6 363.903 105.808   2
   4  -2   6 243.520 93.9707   6
  -4   2  -6 408.426 104.022   8
   4  -2   7 628.984 150.512   6
  -4   2  -7 382.671 120.825   8
   4  -2   8-16.4166 35.7323   6
  -4   2  -8 67.8120 55.7780   8
   4  -2   9 234.627 98.3956   6
  -4   2  -9 32.3881 48.8120   8
   4  -2  10 171.444 90.0297   6
  -4   2 -10 220.305 101.576   8
  -4   1  12 1898.17 288.475   3
   4  -1 -12 2068.02 297.525   7
   4  -1 -11 195.144 88.0367   7
  -4   1  11 214.294 100.219   3
   4  -1 -10 43.5533 51.0697   7
  -4   1  10 61.0566 60.3875   3
  -4   1   9 1702.06 234.969   3
  -4   1   9 1685.02 229.824   1
   4  -1  -9 1711.99 227.148   7
   4  -1  -8 250.897 83.5500   7
  -4   1   8 242.431 86.8548   3
  -4   1   8 477.677 123.145   1
   4  -1  -8 235.412 81.0851   2
   4  -1  -7 939.708 158.931   2
   4  -1  -7 815.633 145.934   7
  -4   1   7 634.292 126.401   3
  -4   1   7 746.383 152.634   1
  -4   1   6 3230.38 271.431   3
   4  -1  -6 3537.90 304.363   2
   4  -1  -6 3007.48 256.805   7
  -4   1   6 3250.02 292.134   1
  -4   1   5 1351.59 181.514   1
  -4   1   5 1257.96 159.318   3
   4  -1  -5 1152.08 174.590   2
   4  -1  -5 1119.24 150.172   7
  -4   1   4 1978.71 216.155   1
  -4   1   4 2368.61 202.757   3
  -4   1   4 2347.83 187.702  10
   4  -1  -4 2186.93 237.851   2
   4  -1  -4 2250.39 200.237   7
   4  -1  -3 89.9100 64.7537   2
   4  -1  -3 25.2561 23.0326   7
  -4   1   3 66.2866 26.7109  10
  -4   1   3 98.0617 60.2377   1
  -4   1   3 51.9908 40.6644   3
  -4   1   2 20189.2 484.713   3
  -4   1   2 20238.2 615.436  10
  -4   1   2 18666.4 641.924   1
   4  -1  -2 17624.0 680.432   2
  -4   1   2 20625.7 509.977   8
   4  -1  -2 19557.4 542.104   7
   4  -1  -1 752.935 142.093   2
  -4   1   1 813.094 129.125  10
  -4   1   1 857.159 113.234   8
   4  -1  -1 842.911 109.618   7
   4  -1   0 3297.04 292.789   2
  -4   1   0 3839.46 241.720   8
   4  -1   0 3619.39 220.933   7
   4  -1   1 6726.93 414.105   2
  -4   1  -1 7343.41 347.889   8
   4  -1   1 7206.16 317.377   7
   4  -1   2 782.712 144.461   2
  -4   1  -2 1089.30 146.037   8
   4  -1   2 932.538 153.473   6
   4  -1   3 8962.61 483.991   6
   4  -1   3 8455.62 463.220   2
  -4   1  -3 9102.36 435.063   8
   4  -1   4 5318.85 382.573   6
   4  -1   4 4864.31 351.422   2
  -4   1  -4 5791.63 365.817   8
   4  -1   5 10071.7 549.540   6
   4  -1   5 10478.0 516.974   2
  -4   1  -5 10500.0 520.054   8
   4  -1   6 437.892 117.222   6
  -4   1  -6 538.637 125.633   8
   4  -1   6 408.711 103.320   2
   4  -1   7 2019.68 264.376   6
  -4   1  -7 2357.22 272.540   8
   4  -1   8 84.4010 60.4683   6
  -4   1  -8-8.30270 36.3933   8
   4  -1   9 67.3311 61.5177   6
  -4   1  -9 274.918 116.126   8
  -4   1 -10 1629.68 265.155  10
   4  -1  10 1447.32 249.921   6
   4   0 -13 164.606 88.7189   7
   4   0 -12 788.117 176.980   7
  -4   0  12 935.033 192.026   3
   4   0 -11 82.8771 58.8109   7
  -4   0  11 136.167 75.0366   3
   4   0 -10 242.184 90.1456   7
  -4   0  10 234.312 90.0063   1
  -4   0  10 0.36274 69.1820   3
   4   0  -9 312.449 93.3604   2
   4   0  -9 473.594 116.833   7
  -4   0   9 349.713 112.175   3
  -4   0   9 435.262 111.899   1
   4   0  -8 56.0620 42.5487   7
   4   0  -8 43.2717 40.8867   2
  -4   0   8 225.306 82.1213   6
  -4   0   8 54.7234 48.0105   3
  -4   0   8 106.360 59.0010   1
   4   0  -7 37.1324 41.5378   7
   4   0  -7-21.7698 41.0708   2
  -4   0   7-2.48156 45.3784   1
  -4   0   7-92.2277 54.6624   3
   4   0  -6 216.604 67.7499   7
   4   0  -6 179.562 73.9559   2
  -4   0   6 246.265 79.2741   1
  -4   0   6 175.017 68.4951   3
  -4   0   5 1854.73 187.655   3
  -4   0   5 1798.38 206.046   1
  -4   0   5 2119.25 177.125  10
   4   0  -5 1800.67 217.688   2
   4   0  -5 2319.19 194.084   7
  -4   0   4 829.669 137.686   1
  -4   0   4 1090.15 133.672   3
   4   0  -4 778.542 143.895   2
  -4   0   4 671.577 106.587  10
   4   0  -4 844.354 111.808   7
   4   0  -3 137.056 45.9596   7
   4   0  -3 182.942 71.3617   2
  -4   0   3 219.643 69.2776  10
  -4   0   3 99.7042 58.0232   1
  -4   0   3 227.040 59.1809   3
   4   0  -2 499.788 75.8375   7
   4   0  -2 517.011 123.434   2
  -4   0   2 497.483 100.526  10
  -4   0   1 4526.61 308.105  10
  -4   0   1 5010.45 240.076   8
   4   0  -1 4678.76 344.216   2
  -4   0   0 3571.73 285.761  10
  -4   0   0 4057.64 232.818   8
   4   0   0 3813.01 312.782   2
  -4   0  -1 9475.09 480.574  10
   4   0   1 9374.24 490.762   2
  -4   0  -1 10341.6 402.507   8
   4   0   2-0.27424 36.8712   2
  -4   0  -2 24.7326 51.3534  10
  -4   0  -2 13.2551 40.6200   8
  -4   0  -3 3575.34 319.366  10
   4   0   3 3830.92 324.293   6
   4   0   3 3403.06 296.067   2
  -4   0  -3 3764.65 277.370   8
   4   0   4 389.666 103.985   2
  -4   0  -4 475.969 125.953  10
   4   0   4 426.519 121.936   6
  -4   0  -4 396.099 97.7806   8
  -4   0  -5 11480.8 610.573  10
   4   0   5 11126.3 584.912   6
   4   0   5 11644.4 548.193   2
  -4   0  -5 11576.2 546.583   8
   4   0   6 116.336 57.8741   2
  -4   0  -6 267.330 104.162  10
   4   0   6 149.450 70.1604   6
  -4   0  -6 220.544 81.6354   8
  -4   0  -7 126.960 77.8827  10
   4   0   7 43.9594 48.3154   6
  -4   0  -8-27.1627 49.8976  10
   4   0   8 62.9581 68.4493   6
  -4   0  -9 2496.16 319.834  10
   4   0   9 2241.79 300.224   6
  -4   0 -10 2646.11 339.180  10
   4   1 -13-14.7530 36.7195   7
  -4  -1  12 2526.83 318.685   3
   4   1 -12 2140.25 274.810   7
   4   1 -11 616.717 142.608   7
  -4  -1  11 689.836 167.210   3
   4   1 -10 1007.16 172.647   7
  -4  -1  10 873.189 170.291   3
  -4  -1  10 966.190 170.254   1
   4   1  -9 33.1053 37.0540   7
   4   1  -9 81.0670 53.6327   2
  -4  -1   9 8.68190 40.2235   6
  -4  -1   9 53.8752 54.3636   3
  -4  -1   9 94.8016 71.6997   1
   4   1  -8 70.3019 63.1700   7
  -4  -1   8 208.940 76.0313   1
   4   1  -8 5.17317 45.1028   2
  -4  -1   8 113.506 67.8177   6
  -4  -1   8 208.536 84.6989   3
   4   1  -7 42.2340 35.6480   7
   4   1  -7 16.0075 46.6707   2
  -4  -1   7 73.8956 49.8030   1
  -4  -1   7-57.1438 45.7347   3
  -4  -1   6 4948.39 325.351   3
  -4  -1   6 4207.99 312.248   1
   4   1  -6 4574.80 351.027   2
  -4  -1   5 265.086 75.0529   3
   4   1  -5 152.089 76.0846   2
  -4  -1   5 220.879 64.7760  10
  -4  -1   5 145.955 60.0858   1
  -4  -1   4 1745.14 168.313   3
  -4  -1   4 1935.30 188.942  10
  -4  -1   4 1634.78 193.163   1
   4   1  -4 1514.57 203.643   2
  -4  -1   3-43.1246 27.1124   3
   4   1  -3-11.2061 30.4028   2
  -4  -1   3 24.8259 29.1304  10
  -4  -1   2 6579.03 376.792  10
   4   1  -2 7036.75 428.583   2
  -4  -1   1 5521.03 353.573  10
   4   1  -1 5113.15 370.952   2
  -4  -1   0 6197.69 387.945  10
   4   1   0 6483.57 410.626   2
  -4  -1  -1 3233.55 290.609  10
  -4  -1  -1 3480.54 233.086   8
   4   1   1 3300.46 294.273   2
   4   1   2 175.512 70.4757   2
  -4  -1  -2 167.772 76.1555  10
  -4  -1  -3 7344.65 464.597  10
   4   1   3 7211.43 437.553   2
   4   1   4 182.163 79.2727   2
  -4  -1  -4 359.572 120.678  10
   4   1   5 999.607 164.359   2
  -4  -1  -5 1060.16 190.013  10
   4   1   5 1068.08 190.354   6
  -4  -1  -6 102.759 84.1247  10
   4   1   6 22.9785 53.1002   6
  -4  -1  -7 2417.75 302.835  10
   4   1   7 2647.51 314.058   6
  -4  -1  -8 16245.6 803.824  10
   4   1   8 16189.4 790.203   6
  -4  -1  -9 188.199 98.7366  10
   4   1   9 238.528 105.590   6
  -4  -2  13 1423.46 249.237   3
  -4  -2  12 605.445 153.536   3
  -4  -2  11 594.835 153.754   3
  -4  -2  11 555.246 138.946   6
  -4  -2  11 726.242 145.824   1
   4   2 -10 737.722 146.250   2
  -4  -2  10 620.877 144.387   6
  -4  -2  10 506.673 115.577   1
  -4  -2   9 2099.50 253.869   6
   4   2  -9 1845.60 229.398   2
  -4  -2   9 1932.43 223.063   1
  -4  -2   8 51.5362 49.3075   6
   4   2  -8-50.8059 54.8583   2
  -4  -2   8 5.64960 43.5529   1
  -4  -2   7 2026.98 217.933   1
   4   2  -7 1733.94 223.261   2
  -4  -2   6 2102.52 217.832   1
  -4  -2   6 2138.54 205.090  10
   4   2  -6 1909.91 234.517   2
  -4  -2   5 12222.5 491.121  10
  -4  -2   5 11037.0 499.776   1
   4   2  -5 10803.6 546.338   2
  -4  -2   4 900.610 141.402  10
   4   2  -4 981.517 167.566   2
   4   2  -3 14.9551 46.7200   2
  -4  -2   3 1.66679 28.6008  10
  -4  -2   2 2945.72 261.515  10
   4   2  -2 3247.80 297.618   2
   4   2  -1 993.265 172.078   2
  -4  -2   1 845.952 148.202  10
   4   2   0 275.320 93.5712   2
  -4  -2   0 109.070 57.7980  10
  -4  -2  -1 1589.15 212.137  10
   4   2   1 1484.09 203.762   2
   4   2   2 850.244 154.249   2
  -4  -2  -2 930.785 166.167  10
   4   2   3 164.930 60.8866   2
  -4  -2  -3 325.034 117.147  10
   4   2   4 220.176 80.5580   2
  -4  -2  -4 119.625 76.8837  10
   4   2   5 445.781 108.968   2
  -4  -2  -5 327.690 105.705  10
   4   2   6 867.429 167.891   4
  -4  -2  -6 953.976 191.381  10
   4   2   7 1196.75 200.745   4
  -4  -2  -7 1211.60 218.456  10
   4   2   8 812.252 166.199   4
  -4  -2  -8 686.552 176.739  10
  -4  -3  12 417.669 128.459   6
  -4  -3  11 155.403 79.1580   6
   4   3 -10 409.860 112.742   2
  -4  -3  10 447.827 127.617   6
  -4  -3   9 126.082 78.0320   6
   4   3  -9-98.4892 64.0100   2
  -4  -3   9 37.5988 37.0199   1
  -4  -3   8 18659.8 653.397   1
   4   3  -8 19486.9 782.315   9
   4   3  -8 17598.8 722.431   2
  -4  -3   7 498.243 112.589   1
  -4  -3   7 385.359 91.9417  10
   4   3  -7 440.692 121.937   2
   4   3  -7 558.657 129.537   9
  -4  -3   6 4206.70 304.771  10
  -4  -3   6 4150.58 310.492   1
   4   3  -6 4291.73 349.664   9
   4   3  -6 4568.63 365.937   2
  -4  -3   5 88.5002 49.1048  10
   4   3  -5 52.3334 57.8053   2
   4   3  -5 11.9217 37.6242   9
  -4  -3   4 4119.08 313.983  10
   4   3  -4 3903.49 320.622   9
   4   3  -4 4331.13 355.938   2
  -4  -3   3 9321.12 483.055  10
   4   3  -3 9767.43 491.353   9
   4   3  -3 9895.11 536.430   2
  -4  -3   2 12480.4 571.109  10
   4   3  -2 12679.8 606.182   2
  -4  -3   1 1686.10 216.072  10
   4   3  -1 1481.78 207.494   2
  -4  -3   0 8282.00 486.885  10
   4   3   0 8260.36 490.754   2
  -4  -3  -1 579.022 131.417  10
   4   3   1 508.507 130.252   2
  -4  -3  -2 515.236 131.383  10
   4   3   2 743.590 147.752   2
   4   3   3 26.9439 42.1901   2
  -4  -3  -3 41.4864 49.3205  10
   4   3   4 901.348 171.865   4
   4   3   4 921.341 168.620   2
  -4  -3  -4 969.040 185.824  10
   4   3   5 789.062 160.579   4
  -4  -3  -5 746.770 171.481  10
   4   3   6 1067.86 198.186   4
  -4  -3  -6 766.754 173.219  10
   4   3   7 812.141 175.409   4
  -4  -3  -7 989.098 207.413  10
   4   3   8 1037.42 203.326   4
  -4  -4  13 266.997 109.039   6
  -4  -4  12 233.485 112.613   6
   4   4 -12 305.811 114.260   9
  -4  -4  11 219.015 102.197   6
   4   4 -11 85.3689 83.6985   9
  -4  -4  10 31.4608 49.6941   6
   4   4 -10 15.0498 48.6947   2
   4   4 -10-17.9833 45.1981   9
  -4  -4   9 259.082 108.977   6
   4   4  -9 369.182 113.723   2
   4   4  -9 321.598 113.182   9
  -4  -4   8 153.125 64.4042  10
   4   4  -8 327.978 116.089   2
   4   4  -8 182.447 94.6754   9
  -4  -4   8 199.152 68.6577   1
  -4  -4   7 2214.31 234.190  10
  -4  -4   7 2096.91 220.382   1
   4   4  -7 2261.70 263.951   9
  -4  -4   6 27.4517 35.3052  10
   4   4  -6 42.9940 46.2231   9
  -4  -4   5 576.253 128.509  10
   4   4  -5 547.248 132.831   9
  -4  -4   4 1539.94 204.311  10
   4   4  -4 1205.94 182.835   9
  -4  -4   3 2358.86 257.902  10
   4   4  -3 2747.49 268.212   9
  -4  -4   2 4008.61 341.552  10
   4   4  -2 3739.64 306.576   9
  -4  -4   1 5199.92 398.995  10
   4   4  -1 5525.89 362.788   9
  -4  -4   0 133.006 72.3810  10
   4   4   0 163.644 72.0712   9
  -4  -4  -1 726.851 160.123  10
   4   4   1 833.461 163.275   2
   4   4   2 4.42926 25.8802   4
  -4  -4  -2-0.37156 33.5444  10
   4   4   2 25.7461 46.7248   2
   4   4   3 2239.80 276.356   4
  -4  -4  -3 2177.70 288.747  10
   4   4   3 2119.02 261.323   2
   4   4   4 788.521 177.099   4
  -4  -4  -4 845.152 180.379  10
   4   4   4 993.083 180.349   2
   4   4   5 973.775 192.804   4
  -4  -4  -5 1233.04 221.700  10
   4   4   6 684.042 162.724   4
  -4  -4  -6 550.336 153.599  10
  -4  -5  12 295.510 120.105   6
   4   5 -12 29.8415 50.0443   9
  -4  -5  11 1497.04 253.665   6
   4   5 -11 1531.36 235.532   2
   4   5 -11 1565.72 251.849   9
  -4  -5  10 1665.46 263.877   6
   4   5 -10 1549.91 239.054   9
  -4  -5   9 50.9039 66.1318   6
   4   5  -9-16.5307 42.4963   9
  -4  -5   8 1633.88 250.848   6
  -4  -5   8 1670.83 214.818  10
   4   5  -8 1903.06 257.468   9
  -4  -5   7 3600.35 321.873  10
   4   5  -7 3603.26 347.321   9
  -4  -5   6 1394.58 202.760  10
   4   5  -6 1076.05 188.115   9
  -4  -5   5 139.548 72.4999  10
   4   5  -5 132.112 74.3911   9
  -4  -5   4 421.752 117.231  10
   4   5  -4 297.706 95.1794   9
  -4  -5   3 161.802 79.8236  10
   4   5  -3 90.0782 50.9725   9
  -4  -5   2 2208.64 271.100  10
   4   5  -2 2175.85 243.537   9
  -4  -5   1 3260.80 334.551  10
   4   5  -1 3391.47 295.742   9
  -4  -5   0 165.373 80.9294  10
   4   5   1 1309.28 212.782   4
  -4  -5  -1 1332.08 223.955  10
  -4  -5  -2 2046.13 282.316  10
   4   5   2 1936.98 263.199   4
  -4  -5  -3 4325.48 413.926  10
   4   5   3 4403.70 394.589   2
   4   5   3 4615.98 416.391   4
   4   5   4 711.432 171.806   4
  -4  -5  -4 679.002 162.856  10
  -4  -5  -5 748.269 181.933  10
  -4  -6  11-24.1403 70.2850   6
   4   6 -11-11.1153 38.4321   9
  -4  -6  10 15.4863 48.1730   6
   4   6 -10 95.9396 66.2934   9
  -4  -6   9 234.248 105.697   6
  -4  -6   9 210.056 93.9329  10
   4   6  -9 344.587 120.120   9
  -4  -6   8 1965.20 287.089   6
  -4  -6   8 2235.43 266.892  10
   4   6  -8 2617.78 316.012   9
  -4  -6   7 3865.63 356.392  10
   4   6  -7 3863.60 372.620   9
  -4  -6   6 523.225 133.849  10
   4   6  -6 569.869 143.308   9
  -4  -6   5 1783.92 247.536  10
   4   6  -5 1847.83 244.580   9
  -4  -6   4 1790.11 251.010  10
   4   6  -4 1681.55 233.585   9
  -4  -6   3 401.474 126.987  10
   4   6  -3 327.664 101.686   9
  -4  -6   2 131.929 75.8378  10
   4   6  -2 306.439 99.2222   9
  -4  -6   1 1906.78 271.269  10
   4   6  -1 1906.16 232.031   9
   4   6   0 4974.40 419.995   4
  -4  -6   0 5298.83 459.162  10
   4   6   1-105.621 68.1400   4
  -4  -6  -1 83.9409 67.8719  10
   4   6   2 1004.58 198.923   4
  -4  -6  -2 892.372 193.574  10
  -4  -6  -3 255.329 109.517  10
  -4  -7   9 1183.22 237.727   6
  -4  -7   9 1358.66 219.210  10
   4   7  -9 1300.48 233.800   9
  -4  -7   8 1929.16 266.998  10
  -4  -7   8 1434.84 258.033   6
   4   7  -8 1641.88 258.554   9
  -4  -7   7-15.5066 41.1215   6
   4   7  -7-8.25066 48.5375   9
  -4  -7   6 56.4585 54.6253  10
   4   7  -6 21.4952 49.6265   9
  -4  -7   5 419.513 126.028  10
   4   7  -5 298.470 105.954   9
  -4  -7   4-56.1268 55.6314  10
   4   7  -4-49.6507 52.1753   9
  -4  -7   3 147.159 121.055  10
   4   7  -3 86.4457 67.0381   9
  -4  -7   2 225.884 102.276  10
   4   7  -2 390.057 113.897   9
   4   7  -1 13330.6 705.754   4
  -4  -7   1 11599.5 702.075  10
   4   7   0 1316.45 232.659   4
  -4  -7   0 907.949 205.201  10
  -4  -8   9 1120.04 216.356  10
  -4  -8   8 856.649 195.085  10
  -4  -8   7 1621.49 264.355  10
   4   8  -7 1484.11 245.923   9
  -4  -8   6 225.641 102.791  10
   4   8  -6 77.1309 67.3391   9
  -4  -8   5-8.30319 48.9430  10
   4   8  -5 71.6759 65.1901   9
   4   8  -4 7.30026 48.6628   9
   4   8  -3 3618.75 358.927   9
   5  -7  -1 234.464 90.3972   7
  -5   7   1 177.483 88.2463   8
   5  -7   0 439.823 141.281   7
  -5   7   0 487.650 134.987   1
  -5   7   0 513.917 147.477   8
   5  -7   1 163.129 90.7083   7
  -5   7  -1 443.427 135.084   8
  -5   7  -1 266.708 95.9599   1
   5  -7   2-13.8419 39.5579   7
  -5   7  -2 171.553 86.2415   8
   5  -7   3 370.683 138.077   7
  -5   7  -3 398.697 128.523   8
   5  -7   4 1489.54 247.515   7
  -5   7  -4 1600.22 258.690   8
   5  -7   5 808.533 188.281   7
   5  -6  -4 662.291 174.318   7
   5  -6  -3 609.493 159.976   7
  -5   6   3 582.561 155.844   1
   5  -6  -2 74.3385 64.7658   7
  -5   6   2-31.0708 51.1256   1
   5  -6  -1-12.3818 46.0516   7
  -5   6   1 126.447 75.3673   8
  -5   6   1 7.00724 38.4454   1
   5  -6   0 39.4434 56.5481   7
  -5   6   0-86.7926 60.5721   8
  -5   6   0-27.6022 51.5311   1
  -5   6  -1 1280.57 207.871   1
   5  -6   1 1354.98 221.216   7
  -5   6  -1 1496.27 229.501   8
  -5   6  -2 152.327 85.1821   1
   5  -6   2 352.154 129.422   7
  -5   6  -2 147.937 74.7817   8
   5  -6   3 735.507 164.982   7
  -5   6  -3 609.678 141.542   1
  -5   6  -3 875.149 183.543   8
   5  -6   4 463.076 138.086   7
  -5   6  -4 434.854 128.817   8
   5  -6   5 1097.44 200.292   6
  -5   6  -5 1206.87 226.356   8
   5  -6   6 676.521 161.687   6
  -5   6  -6 647.344 168.667   8
   5  -6   7 1887.66 276.955   6
  -5   5   6 3843.13 368.512   3
   5  -5  -6 2793.90 340.840   7
   5  -5  -5 534.934 144.244   7
  -5   5   5 874.521 185.570   1
   5  -5  -4 372.508 121.020   7
  -5   5   4 212.013 96.5199   1
  -5   5   3 3035.93 333.867   1
   5  -5  -3 2899.66 321.545   7
   5  -5  -2 1090.35 195.914   7
  -5   5   2 1121.63 205.538   1
  -5   5   1 543.790 141.721   1
   5  -5  -1 456.860 126.902   7
  -5   5   1 503.171 119.804   8
   5  -5   0 1226.30 199.563   7
  -5   5   0 1126.77 199.021   1
  -5   5   0 1132.78 187.018   8
   5  -5   1 736.547 151.881   7
  -5   5  -1 767.084 162.236   1
  -5   5  -1 799.616 161.581   8
   5  -5   2 55.5760 60.6485   7
  -5   5  -2-0.65621 36.7205   1
  -5   5  -2 31.7133 50.5148   8
   5  -5   3 1406.98 213.236   7
   5  -5   3 1293.89 193.858   6
  -5   5  -3 1436.53 223.555   8
  -5   5  -3 1087.09 182.471   1
   5  -5   4 41.1465 44.0016   7
  -5   5  -4 25.3610 46.2923   1
   5  -5   4 8.07471 35.3151   6
  -5   5  -4 35.9506 49.5365   8
   5  -5   5 303.253 106.498   6
  -5   5  -5 426.891 128.422   8
   5  -5   6 512.766 143.263   6
  -5   5  -6 404.742 129.082   8
   5  -5   7 194.566 94.7270   6
  -5   5  -7 86.0209 52.1021   8
   5  -4  -8 799.226 182.672   7
  -5   4   8 804.919 178.009   3
   5  -4  -7 131.286 88.4484   7
  -5   4   7-35.5097 46.0775   3
   5  -4  -6 93.9599 66.9346   7
  -5   4   6 100.223 70.8506   1
   5  -4  -5 810.396 161.786   7
  -5   4   5 814.222 177.998   1
   5  -4  -4 494.611 122.072   7
  -5   4   4 618.068 157.427   1
  -5   4   3 43.7200 56.0339   1
   5  -4  -3-47.7430 52.5854   7
   5  -4  -2 253.523 104.289   7
  -5   4   2 190.801 88.6983   1
   5  -4  -1 205.153 93.8202   7
  -5   4   1 178.134 80.0901   1
   5  -4   0 1079.06 170.928   7
  -5   4   0 822.892 151.506   8
  -5   4   0 707.647 152.629   1
  -5   4  -1 58.9705 57.5080   1
   5  -4   1-25.5786 40.0078   7
  -5   4  -1 44.8402 44.5537   8
  -5   4  -2 2728.03 285.190   1
   5  -4   2 2771.84 282.564   6
  -5   4  -2 2873.03 290.727   8
   5  -4   2 3055.36 293.646   7
   5  -4   3 96.9005 57.9641   7
   5  -4   3 43.4926 52.2948   6
  -5   4  -3 50.0359 49.8519   8
  -5   4  -3-31.5840 45.3004   1
   5  -4   4-6.39147 32.5157   6
  -5   4  -4 68.5031 53.0446   8
  -5   4  -4 37.8800 46.0283   1
  -5   4  -5 33.3848 34.9062   1
  -5   4  -5 30.3999 41.8072   8
   5  -4   6-151.989 81.5243   6
  -5   4  -6-18.9239 49.2003   8
   5  -4   7-50.0663 55.7857   6
  -5   4  -7 261.810 107.320   8
  -5   4  -8 1097.25 216.178   8
   5  -3  -9 155.140 82.6121   7
  -5   3   9 321.352 111.147   3
  -5   3   8 2591.37 298.909   3
  -5   3   8 2756.43 335.044   1
   5  -3  -8 2350.43 295.591   7
   5  -3  -7 1427.97 223.468   7
  -5   3   7 1589.28 251.100   1
  -5   3   7 1455.35 215.828   3
   5  -3  -6 260.418 88.5385   7
  -5   3   6 146.362 85.2499   1
  -5   3   5 2198.29 277.608   1
   5  -3  -5 2043.48 247.910   7
   5  -3  -4 3127.22 299.930   7
  -5   3   4 3257.79 332.612   1
  -5   3   3 1216.12 195.029   1
   5  -3  -3 1466.20 232.974   2
   5  -3  -3 1267.41 188.829   7
  -5   3   2 1803.00 237.857   1
   5  -3  -2 1515.24 231.579   2
   5  -3  -2 1813.45 217.055   7
  -5   3   1 148.521 70.4064   1
   5  -3  -1-10.3367 31.8491   7
   5  -3  -1 125.759 71.7439   2
  -5   3   0 2290.62 261.083   1
   5  -3   0 2182.44 275.714   2
  -5   3  -1 17.3478 38.9737   1
  -5   3  -1 145.668 66.7674   8
   5  -3   2 1904.08 240.221   6
  -5   3  -2 2364.00 266.883   1
   5  -3   2 2863.15 318.830   2
  -5   3  -2 2644.34 266.579   8
  -5   3  -3 111.687 61.1281   1
   5  -3   3 148.069 80.8300   6
  -5   3  -3 309.413 97.4973   8
   5  -3   4 56.5488 56.3046   6
  -5   3  -4 23.3343 35.0423   8
  -5   3  -5 1629.87 232.584   8
   5  -3   5 1309.79 220.659   6
   5  -3   6 565.819 152.235   6
  -5   3  -6 390.228 117.200   8
   5  -3   7 129.197 80.0876   6
  -5   3  -7 67.7109 60.3359   8
  -5   3  -8 1027.46 209.810   8
  -5   2  10 279.419 94.1912   3
   5  -2  -9 20.4243 68.1684   7
  -5   2   9 22.7568 45.8855   1
  -5   2   9 80.6363 62.0547   3
   5  -2  -8 91.2363 66.7598   2
  -5   2   8 46.4447 71.6261   1
  -5   2   8 176.557 78.3759   3
  -5   2   7 35.4826 40.3797   3
  -5   2   7-64.5475 62.3244   1
   5  -2  -7-79.6564 84.7091   2
  -5   2   6 270.477 98.5742   1
   5  -2  -6 295.078 115.656   2
  -5   2   5 23.2388 42.0114   1
   5  -2  -5-9.58710 39.4222   2
  -5   2   4 270.970 97.1847   1
   5  -2  -4 356.344 111.714   2
  -5   2   3 33.5347 44.6430   1
   5  -2  -3 26.7684 36.4597   2
  -5   2   2-69.9983 46.4626  10
  -5   2   2-79.3665 60.2490   1
   5  -2  -2 43.5834 64.7891   2
  -5   2   1 3426.04 304.561  10
  -5   2   1 3484.17 320.062   1
   5  -2  -1 3030.23 320.330   2
  -5   2   0 8449.59 497.449   1
   5  -2   0 8584.17 541.843   2
   5  -2   1 1348.14 216.708   2
   5  -2   2 56.3622 48.1380   2
   5  -2   3 4528.18 388.025   6
   5  -2   3 5225.74 423.639   2
  -5   2  -3 5765.77 390.793   8
   5  -2   4 203.757 92.8705   6
  -5   2  -4 253.077 99.2760   8
   5  -2   4 498.762 141.887   2
   5  -2   5-25.2655 52.3677   6
  -5   2  -5 128.834 68.1559   8
   5  -2   5 5.91939 51.5538   2
   5  -2   6 554.854 138.752   2
   5  -2   6 396.460 124.769   6
  -5   2  -6 300.245 110.842   8
   5  -2   7-39.3356 58.5128   6
  -5   2  -7 78.1649 74.0071   8
  -5   2  -8 76.8573 50.8322   8
  -5   1  10 217.369 95.5224   1
  -5   1  10 343.682 117.599   3
  -5   1   9-72.6710 95.6039   1
  -5   1   9 81.8971 65.2710   3
  -5   1   8 612.354 142.790   3
  -5   1   8 613.727 152.165   1
   5  -1  -8 869.163 173.399   2
   5  -1  -7 524.905 135.218   2
  -5   1   7 526.682 142.753   1
  -5   1   7 477.215 116.456   3
   5  -1  -6 1143.02 197.015   2
  -5   1   6 1380.45 214.361   1
   5  -1  -5 686.180 158.613   2
  -5   1   5 765.354 157.996   1
   5  -1  -4 99.2878 71.7322   2
  -5   1   4 49.2659 45.9112   1
  -5   1   3 3125.75 301.228   1
  -5   1   3 3235.01 276.602  10
   5  -1  -3 3439.75 344.358   2
  -5   1   2 10096.2 505.707  10
  -5   1   2 9007.45 515.898   1
   5  -1  -2 9703.59 574.970   2
  -5   1   1 4036.28 333.296  10
  -5   1   1 3929.36 337.969   1
   5  -1  -1 3917.20 363.832   2
   5  -1   0 190.678 95.7554   2
  -5   1   0 205.256 80.2489  10
   5  -1   1 550.390 142.330   2
  -5   1  -1 774.233 161.094  10
  -5   1  -2 4654.76 396.865  10
   5  -1   2 4218.42 380.785   2
   5  -1   3 787.853 166.942   2
  -5   1  -3 1129.99 195.117  10
   5  -1   4 2.55670 34.5990   2
  -5   1  -4 6.03762 37.4737  10
   5  -1   4 57.6878 52.7221   6
  -5   1  -5 191.151 92.4328  10
   5  -1   5 326.402 125.192   6
  -5   1  -5 335.141 91.4581   8
   5  -1   5 306.320 94.6567   2
  -5   1  -6 595.020 158.486  10
   5  -1   6 611.725 151.069   6
  -5   1  -6 669.060 150.099   8
   5  -1   6 998.839 180.765   2
  -5   1  -7 168.109 104.064  10
   5  -1   7 11.4557 74.9011   6
  -5   1  -7-4.80885 37.9114   8
  -5   0  11 750.017 183.669   1
  -5   0  11 974.996 195.910   3
  -5   0  10-84.5425 62.7824   3
  -5   0  10 22.0956 31.3400   1
   5   0  -9 248.997 97.2445   2
  -5   0   9 174.476 72.7115   3
  -5   0   9 160.047 72.1074   1
  -5   0   8 2266.89 261.463   3
   5   0  -8 2131.22 271.695   2
  -5   0   8 2321.99 282.237   1
   5   0  -7 940.345 184.846   2
  -5   0   7 1080.82 186.661   1
  -5   0   6 5232.53 401.979   1
   5   0  -6 5238.97 421.990   2
   5   0  -5 312.590 114.758   2
  -5   0   5 235.414 88.3100   1
  -5   0   4 209.376 81.9297   1
   5   0  -4 365.904 125.088   2
  -5   0   3 1626.19 202.249  10
  -5   0   3 1586.69 218.325   1
   5   0  -3 1425.58 223.564   2
  -5   0   2 3139.67 291.339  10
   5   0  -2 3289.99 336.348   2
   5   0  -1 988.152 185.144   2
  -5   0   1 1162.29 182.293  10
   5   0   0 168.401 97.0721   2
  -5   0   0 57.2881 41.3192  10
  -5   0  -1 2639.86 291.283  10
   5   0   1 3004.80 318.258   2
  -5   0  -2 2876.81 313.996  10
   5   0   2 2395.91 289.675   2
   5   0   3 225.992 90.3590   2
  -5   0  -3 46.2128 51.3482  10
   5   0   4 1252.75 209.935   2
  -5   0  -4 1524.45 242.670  10
   5   0   5 1134.48 199.479   2
  -5   0  -5 1268.14 227.036  10
  -5   0  -6 1082.55 221.258  10
   5   0   6 1264.92 231.276   6
  -5  -1  11 141.228 75.5299   1
  -5  -1  11 2.12072 37.5218   3
  -5  -1  10 139.058 77.3545   3
  -5  -1  10 270.622 100.438   1
  -5  -1   9 411.457 121.420   1
   5   1  -9 331.282 115.049   2
  -5  -1   9 590.188 138.973   3
   5   1  -8 106.253 65.6987   2
  -5  -1   8 200.270 91.4671   1
  -5  -1   8 258.942 88.3566   3
   5   1  -7 49.4218 90.8227   2
  -5  -1   7 82.1848 54.7114   1
   5   1  -6 823.992 171.232   2
  -5  -1   6 730.156 150.640   1
   5   1  -5 926.167 178.761   2
  -5  -1   5 863.819 163.336   1
  -5  -1   4 9566.50 491.170  10
  -5  -1   4 9145.87 520.709   1
   5   1  -4 9250.61 567.371   2
  -5  -1   3 4169.53 335.419  10
   5   1  -3 4632.30 400.042   2
   5   1  -2 214.247 97.1172   2
  -5  -1   2 245.072 92.5389  10
  -5  -1   1 1897.05 237.889  10
   5   1  -1 1623.01 241.955   2
  -5  -1   0 13355.7 653.360  10
   5   1   0 13797.5 689.620   2
  -5  -1  -1 2485.59 288.164  10
   5   1   1 2003.42 264.863   2
   5   1   2 338.205 119.711   2
  -5  -1  -2 293.612 102.391  10
   5   1   3 252.460 102.116   2
  -5  -1  -3 318.959 115.214  10
   5   1   4 687.422 158.908   2
  -5  -1  -4 556.369 156.508  10
  -5  -1  -5 3843.47 400.871  10
   5   1   5 3455.02 347.739   2
  -5  -1  -6 710.490 177.300  10
  -5  -2  11 586.716 154.491   3
  -5  -2  10 724.064 154.595   1
   5   2 -10 771.384 168.322   2
  -5  -2  10 719.330 158.732   3
   5   2  -9 754.790 173.091   2
  -5  -2   9 697.503 151.330   1
  -5  -2   9 431.014 124.120   6
  -5  -2   9 999.706 181.121   3
   5   2  -8 135.649 73.2934   2
  -5  -2   8 119.157 70.6053   1
   5   2  -7 642.728 156.971   2
  -5  -2   7 719.733 144.302   1
  -5  -2   6 37.6585 44.1059   1
   5   2  -6 68.4382 65.6031   2
  -5  -2   5 75.1805 56.3345   1
   5   2  -5 96.3582 61.4528   2
  -5  -2   5 151.224 69.0602  10
   5   2  -4 1170.39 207.973   2
  -5  -2   4 1608.46 212.532  10
  -5  -2   3 2173.06 254.299  10
   5   2  -3 2555.59 302.583   2
  -5  -2   2 2096.15 253.524  10
   5   2  -2 2119.96 281.994   2
   5   2  -1 701.444 164.335   2
  -5  -2   1 883.853 171.685  10
   5   2   0 181.848 96.4858   2
  -5  -2   0 268.851 102.813  10
   5   2   1 41.5999 52.6673   2
  -5  -2  -1 151.362 70.9901  10
  -5  -2  -2 2735.51 319.607  10
   5   2   2 2798.59 319.544   2
   5   2   3 862.229 179.688   2
  -5  -2  -3 787.874 179.039  10
  -5  -2  -4 2488.95 322.474  10
   5   2   4 2822.46 313.108   2
  -5  -2  -5 4864.08 463.428  10
  -5  -3  11 1142.96 215.679   3
  -5  -3  11 1110.55 219.098   6
   5   3 -10 103.675 69.2119   2
  -5  -3  10 20.2815 51.8657   6
  -5  -3   9 272.408 107.698   6
   5   3  -9 283.079 119.001   2
  -5  -3   9 217.095 83.1913   1
  -5  -3   8 958.316 173.591   1
   5   3  -8 1294.29 227.321   2
  -5  -3   7 154.374 65.8369   1
   5   3  -7 130.361 76.2333   2
   5   3  -6 55.7079 62.2802   2
  -5  -3   6-29.9171 41.2487   1
   5   3  -5 48.6277 52.6846   2
  -5  -3   5 81.6915 52.1102  10
   5   3  -4 1003.74 195.931   2
  -5  -3   4 993.236 176.344  10
   5   3  -3 790.133 172.188   2
  -5  -3   3 520.828 134.685  10
   5   3  -2 280.516 109.300   2
  -5  -3   2 268.909 87.5369  10
   5   3  -1 20.1992 35.3674   2
  -5  -3   1 94.4892 61.9361  10
   5   3   0 409.501 131.202   2
  -5  -3   0 337.265 100.757  10
   5   3   1 1442.78 233.273   2
  -5  -3  -1 2162.00 285.335  10
  -5  -3  -2 1744.26 260.736  10
   5   3   2 2069.63 283.302   2
   5   3   3 832.490 183.222   2
  -5  -3  -3 586.598 153.451  10
   5   3   4 1726.74 257.598   2
  -5  -4  11 1451.35 261.073   6
  -5  -4  10 2707.27 346.834   6
   5   4 -10 2680.44 328.806   2
  -5  -4   9-39.3807 61.3861   6
   5   4  -9-21.0116 50.6196   2
   5   4  -8 10.4460 43.7230   2
  -5  -4   8 134.251 95.1274   1
  -5  -4   7 62.3209 53.9525   1
   5   4  -7 83.2056 66.9320   2
  -5  -4   6 145.710 77.2416  10
   5   4  -6 172.292 88.7767   2
  -5  -4   5 15.2783 61.0608  10
   5   4  -5 98.9742 72.4472   2
  -5  -4   4 433.512 119.377  10
   5   4  -4 379.787 124.178   2
  -5  -4   3 146.635 74.4714  10
   5   4  -3 194.833 90.7851   2
  -5  -4   2 1393.84 229.186  10
   5   4  -2 1355.89 234.280   2
  -5  -4   1 1161.53 213.605  10
   5   4  -1 1096.39 211.327   2
   5   4   0 215.431 79.6724   2
  -5  -4   0 135.664 77.7638  10
  -5  -4  -1 1910.99 284.379  10
   5   4   1 2108.14 288.874   2
   5   4   2 741.537 172.410   2
  -5  -4  -2 1039.73 219.729  10
   5   4   3 852.314 191.696   2
   5   5 -10 1650.92 267.229   2
  -5  -5   9 53.8448 58.3876   6
   5   5  -9-12.6516 38.3290   2
   5   5  -8 15.8617 28.8404   2
   5   5  -8-7.56060 33.0872   9
  -5  -5   7 815.748 167.722  10
   5   5  -7 875.935 196.899   2
   5   5  -7 764.446 179.893   9
  -5  -5   6 20.9944 48.6541  10
   5   5  -6 53.6731 63.1882   2
  -5  -5   5 33.1620 33.0990  10
   5   5  -5 110.750 76.7190   2
   5   5  -5 6.35670 44.9186   9
  -5  -5   4 559.874 144.971  10
   5   5  -4 472.352 148.833   2
   5   5  -4 387.818 112.377   9
  -5  -5   3 1057.67 209.182  10
   5   5  -3 978.802 205.512   2
  -5  -5   2 1314.65 232.610  10
   5   5  -2 1109.70 222.232   2
  -5  -5   1 3253.67 368.783  10
   5   5  -1 2894.50 351.162   2
  -5  -5   0 958.364 202.608  10
   5   5   0 956.258 206.484   2
   5   5   1 7334.87 561.570   2
   5   5   2 717.898 179.328   2
  -5  -6   7 127.105 76.6674  10
  -5  -6   6 224.476 96.9060  10
   5   6  -6-24.8647 47.2499   9
  -5  -6   5 122.210 96.3609  10
   5   6  -5 226.782 102.660   9
  -5  -6   4 281.147 112.355  10
   5   6  -4 75.8812 56.6377   9
  -5  -6   3-28.7840 47.0550  10
   5   6  -3-10.9420 30.9857   9
  -6   4  -1 53.3597 54.9248   1
  -6   4  -2 6.06571 32.4824   1
  -6   4  -3 124.206 75.5728   1
  -6   3   2-7.08839 27.5715   1
  -6   3   1 1300.72 224.046   1
   6  -3  -1 1372.14 248.380   2
  -6   3   0 924.665 184.791   1
  -6   3  -1 183.369 92.7778  10
  -6   3  -1 264.938 104.443   1
  -6   3  -2 91.7512 62.2816   1
  -6   3  -3-91.4036 69.3783   1
   6  -2  -5 118.665 75.2349   2
   6  -2  -4 374.296 139.138   2
  -6   2   3 329.853 120.120   1
   6  -2  -3 378.379 171.030   2
  -6   2   2 0.80875 28.2113   1
   6  -2  -2-28.9390 51.1642   2
  -6   2   1-5.61044 18.9996   1
   6  -2  -1 115.201 77.1977   2
  -6   2   0 1470.41 232.202  10
  -6   2   0 1289.76 219.548   1
   6  -2   0 1324.36 236.547   2
  -6   2  -1 15.8998 39.9698  10
  -6   2  -1 38.0369 42.6866   1
   6  -2   1-86.4839 72.7749   2
  -6   2  -2 3323.33 369.962  10
   6  -2   2 3707.38 399.307   2
  -6   2  -2 4210.37 398.002   1
  -6   2  -3 42.2053 56.6450  10
   6  -2   3-19.7397 47.9492   2
   6  -1  -6 321.360 121.193   2
   6  -1  -5 140.563 85.9284   2
   6  -1  -4 522.333 163.879   2
  -6   1   4 586.283 149.371   1
  -6   1   3 5194.83 439.127   1
   6  -1  -3 4852.99 457.633   2
  -6   1   2 7707.40 533.316   1
   6  -1  -2 8357.33 600.758   2
  -6   1   1 6297.02 471.053  10
  -6   1   1 5520.30 457.615   1
   6  -1  -1 6008.88 508.997   2
   6  -1   0 234.010 106.284   2
  -6   1   0 240.545 103.456  10
  -6   1   0 279.207 104.829   1
   6  -1   1 14.4515 38.6224   2
  -6   1  -1 9.71204 62.1456  10
   6  -1   2 408.973 143.218   2
  -6   1  -2 290.217 132.718  10
   6  -1   3 942.258 206.225   2
   6   0  -7 466.070 145.921   2
   6   0  -6-72.6098 67.3919   2
   6   0  -5 1709.25 278.709   2
  -6   0   5 1676.51 253.713   1
  -6   0   4 4192.06 398.251   1
   6   0  -4 3188.47 381.941   2
   6   0  -3 22.5980 75.8238   2
  -6   0   3 134.158 77.4643   1
  -6   0   2 1459.53 223.936  10
  -6   0   2 1751.60 257.213   1
   6   0  -2 2092.87 304.416   2
  -6   0   1 3239.43 343.687  10
   6   0  -1 3173.63 370.659   2
   6   0   0 696.654 174.246   2
  -6   0   0 755.896 177.282  10
   6   0   1 541.735 152.480   2
  -6   0  -1 463.859 143.799  10
   6   0   2 153.423 81.3298   2
  -6   0  -2 330.384 118.499  10
   6   0   3 560.794 157.053   2
   6   1  -6 313.840 118.200   2
  -6  -1   6 366.303 128.148   1
   6   1  -5 807.948 188.199   2
  -6  -1   5 830.167 184.159   1
   6   1  -4 586.950 164.510   2
  -6  -1   4 549.230 151.485   1
   6   1  -3 357.823 127.321   2
  -6  -1   3 366.070 118.265   1
  -6  -1   3 411.188 125.166  10
   6   1  -2 510.120 149.943   2
  -6  -1   2 515.836 136.706  10
   6   1  -1 508.058 154.902   2
  -6  -1   1 756.406 172.143  10
   6   1   0 2116.22 305.362   2
  -6  -1   0 2782.26 333.159  10
   6   1   1 680.931 174.193   2
  -6  -1  -1 571.777 158.898  10
  -6  -2   6 297.702 107.712   1
  -6  -2   5 329.032 113.344   1
  -6  -2   4 2477.48 309.897   1
   6   2  -3 390.182 135.511   2
  -6  -2   3 58.4444 53.2179  10
  -6  -2   2 196.687 97.0816  10
  -6  -2   1 110.797 94.3561  10
  -6  -2   0 546.636 153.331  10
  -6  -3   4 51.8643 51.7163  10
  -6  -3   3 1406.94 235.837  10
  -6  -3   2 1292.20 230.995  10
  -6  -4   4 452.858 158.533  10
   0   0   0    0.00    0.00   0
TITL test_BT in P-1
REM P-1 (#2 in standard setting)
CELL 0.71073   4.921645   8.594858  12.118742 108.6098  97.2431  92.7516
ZERR    2.00   0.000291   0.000637   0.000744   0.0061   0.0050   0.0054
LATT  1
SFAC C H N O
UNIT 22.00 20.00 2.00 2.00
TREF
HKLF 4
END
;
_shelx_hkl_checksum              76767
_olex2_exptl_crystal_mounting_method 'MiTiGen microloop, cryo-oil'
_olex2_submission_special_instructions 'No special instructions were received'
loop_
_space_group_symop_operation_xyz
'x, y, z'
'-x, -y, -z'
loop_
_atom_site_label
_atom_site_type_symbol
_atom_site_fract_x
_atom_site_fract_y
_atom_site_fract_z
_atom_site_U_iso_or_equiv
_atom_site_adp_type
_atom_site_occupancy
_atom_site_site_symmetry_order
_atom_site_calc_flag
_atom_site_refinement_flags_posn
_atom_site_refinement_flags_occupancy
O3 O 0.2693(3) 0.99355(16) 0.13192(12) 0.0257(3) Uani 1 1 d . .
O6 O 0.1932(3) 0.59462(15) 0.06580(11) 0.0291(3) Uani 1 1 d . .
H6 H 0.065773 0.536572 0.017916 0.035 Uiso 0.5 1 calc GR P
O4 O 0.7460(2) 0.84649(15) 0.02992(11) 0.0264(3) Uani 1 1 d . .
H4 H 0.900883 0.878024 0.066977 0.032 Uiso 1 1 calc GR .
O1 O 0.8831(3) 0.97685(15) 0.31713(11) 0.0292(3) Uani 1 1 d . .
H1 H 0.997819 1.049386 0.361499 0.035 Uiso 1 1 calc GR .
O5 O 0.3221(3) 0.63581(17) -0.09339(11) 0.0330(3) Uani 1 1 d . .
O8 O 0.4353(3) 0.85497(15) 0.44049(12) 0.0337(3) Uani 1 1 d . .
H8 H 0.495319 0.947855 0.484084 0.040 Uiso 0.5 1 calc GR P
O2 O 0.6977(3) 1.18791(16) 0.27613(14) 0.0403(4) Uani 1 1 d . .
C3 C 0.5851(3) 0.77956(19) 0.09600(14) 0.0187(4) Uani 1 1 d . .
H3A H 0.701029 0.719102 0.136734 0.022 Uiso 1 1 calc R .
C2 C 0.4658(3) 0.91587(19) 0.18716(14) 0.0193(4) Uani 1 1 d . .
H2 H 0.373977 0.866087 0.236632 0.023 Uiso 1 1 calc R .
N1 N 0.2081(3) 0.36307(18) 0.23088(14) 0.0284(4) Uani 1 1 d . .
H1A H 0.315364 0.365051 0.177371 0.043 Uiso 1 1 calc GR .
H1B H 0.033601 0.338620 0.196453 0.043 Uiso 1 1 calc GR .
H1C H 0.257290 0.287111 0.263157 0.043 Uiso 1 1 calc GR .
O7 O 0.7675(3) 0.77751(18) 0.54907(14) 0.0480(4) Uani 1 1 d . .
C5 C 0.5866(4) 0.7502(2) 0.46337(16) 0.0259(4) Uani 1 1 d . .
C1 C 0.6937(3) 1.0436(2) 0.26559(14) 0.0212(4) Uani 1 1 d . .
C4 C 0.3501(3) 0.6606(2) 0.01282(15) 0.0201(4) Uani 1 1 d . .
C7 C 0.2381(4) 0.5271(2) 0.32363(16) 0.0262(4) Uani 1 1 d . .
H7A H 0.136254 0.522105 0.386124 0.031 Uiso 1 1 calc R .
H7B H 0.162635 0.607582 0.290617 0.031 Uiso 1 1 calc R .
C6 C 0.5368(4) 0.5792(2) 0.37318(17) 0.0287(4) Uani 1 1 d . .
H6A H 0.638757 0.575824 0.309097 0.034 Uiso 1 1 calc R .
H6B H 0.607576 0.500783 0.409382 0.034 Uiso 1 1 calc R .
H3 H 0.318(7) 1.025(4) 0.086(3) 0.094(13) Uiso 1 1 d . .
loop_
_atom_site_aniso_label
_atom_site_aniso_U_11
_atom_site_aniso_U_22
_atom_site_aniso_U_33
_atom_site_aniso_U_23
_atom_site_aniso_U_13
_atom_site_aniso_U_12
O3 0.0199(6) 0.0285(7) 0.0280(7) 0.0099(6) -0.0019(5) 0.0037(5)
O6 0.0248(7) 0.0310(7) 0.0272(7) 0.0082(6) -0.0025(5) -0.0124(5)
O4 0.0184(6) 0.0318(7) 0.0276(7) 0.0092(5) 0.0034(5) -0.0072(5)
O1 0.0243(7) 0.0266(7) 0.0293(7) 0.0050(5) -0.0104(5) -0.0029(5)
O5 0.0260(7) 0.0456(8) 0.0213(7) 0.0063(6) -0.0025(5) -0.0083(6)
O8 0.0432(8) 0.0218(7) 0.0301(7) 0.0037(6) -0.0044(6) 0.0030(6)
O2 0.0361(8) 0.0217(7) 0.0551(10) 0.0102(6) -0.0130(7) -0.0054(6)
C3 0.0154(8) 0.0188(8) 0.0214(8) 0.0078(6) -0.0008(6) -0.0021(6)
C2 0.0173(8) 0.0193(8) 0.0201(8) 0.0067(6) -0.0011(6) -0.0014(6)
N1 0.0236(8) 0.0233(8) 0.0305(8) 0.0017(6) -0.0037(6) -0.0019(6)
O7 0.0506(9) 0.0315(8) 0.0468(9) 0.0068(7) -0.0270(7) -0.0099(7)
C5 0.0251(9) 0.0238(9) 0.0256(9) 0.0068(7) -0.0013(7) -0.0053(7)
C1 0.0190(8) 0.0233(9) 0.0185(8) 0.0047(7) 0.0003(7) -0.0010(7)
C4 0.0160(8) 0.0183(8) 0.0237(9) 0.0051(7) -0.0003(6) 0.0009(6)
C7 0.0218(9) 0.0232(9) 0.0262(9) -0.0004(7) -0.0007(7) 0.0016(7)
C6 0.0225(9) 0.0255(9) 0.0315(10) 0.0027(8) -0.0016(7) 0.0006(7)
loop_
_atom_type_symbol
_atom_type_description
_atom_type_scat_dispersion_real
_atom_type_scat_dispersion_imag
_atom_type_scat_source
C C 0.0033 0.0016 'International Tables Vol C Tables 4.2.6.8 and 6.1.1.4'
H H 0.0000 0.0000 'International Tables Vol C Tables 4.2.6.8 and 6.1.1.4'
N N 0.0061 0.0033 'International Tables Vol C Tables 4.2.6.8 and 6.1.1.4'
O O 0.0106 0.0060 'International Tables Vol C Tables 4.2.6.8 and 6.1.1.4'
loop_
_geom_angle_atom_site_label_1
_geom_angle_atom_site_label_2
_geom_angle_atom_site_label_3
_geom_angle
C2 O3 H3 115(3)
C4 O6 H6 109.5
C3 O4 H4 109.5
C1 O1 H1 109.5
C5 O8 H8 109.5
O4 C3 H3A 109.1
O4 C3 C2 110.99(13)
O4 C3 C4 109.36(13)
C2 C3 H3A 109.1
C4 C3 H3A 109.1
C4 C3 C2 109.30(13)
O3 C2 C3 111.16(13)
O3 C2 H2 108.4
O3 C2 C1 109.78(13)
C3 C2 H2 108.4
C1 C2 C3 110.56(13)
C1 C2 H2 108.4
H1A N1 H1B 109.5
H1A N1 H1C 109.5
H1B N1 H1C 109.5
C7 N1 H1A 109.5
C7 N1 H1B 109.5
C7 N1 H1C 109.5
O8 C5 C6 114.85(16)
O7 C5 O8 125.94(17)
O7 C5 C6 119.20(17)
O1 C1 C2 111.94(14)
O2 C1 O1 125.12(15)
O2 C1 C2 122.93(16)
O6 C4 C3 113.41(14)
O5 C4 O6 125.60(15)
O5 C4 C3 120.99(15)
N1 C7 H7A 109.6
N1 C7 H7B 109.6
N1 C7 C6 110.20(14)
H7A C7 H7B 108.1
C6 C7 H7A 109.6
C6 C7 H7B 109.6
C5 C6 H6A 108.9
C5 C6 H6B 108.9
C7 C6 C5 113.48(15)
C7 C6 H6A 108.9
C7 C6 H6B 108.9
H6A C6 H6B 107.7
loop_
_geom_bond_atom_site_label_1
_geom_bond_atom_site_label_2
_geom_bond_distance
O3 C2 1.419(2)
O3 H3 0.75(3)
O6 H6 0.8200
O6 C4 1.283(2)
O4 H4 0.8200
O4 C3 1.4176(19)
O1 H1 0.8200
O1 C1 1.312(2)
O5 C4 1.224(2)
O8 H8 0.8200
O8 C5 1.270(2)
O2 C1 1.204(2)
C3 H3A 0.9800
C3 C2 1.530(2)
C3 C4 1.528(2)
C2 H2 0.9800
C2 C1 1.521(2)
N1 H1A 0.8900
N1 H1B 0.8900
N1 H1C 0.8900
N1 C7 1.483(2)
O7 C5 1.232(2)
C5 C6 1.512(2)
C7 H7A 0.9700
C7 H7B 0.9700
C7 C6 1.505(2)
C6 H6A 0.9700
C6 H6B 0.9700
loop_
_geom_hbond_atom_site_label_D
_geom_hbond_atom_site_label_H
_geom_hbond_atom_site_label_A
_geom_hbond_distance_DH
_geom_hbond_distance_HA
_geom_hbond_distance_DA
_geom_hbond_angle_DHA
_geom_hbond_site_symmetry_A
_geom_hbond_publ_flag
O4 H4 O3 0.82 1.97 2.7652(17) 165.0 1_655 yes
O1 H1 O7 0.82 1.79 2.6090(18) 173.9 2_776 yes
N1 H1A O4 0.89 2.56 3.142(2) 123.7 2_665 yes
N1 H1A O5 0.89 2.16 3.017(2) 160.9 2_665 yes
N1 H1B O5 0.89 2.08 2.916(2) 155.6 2_565 yes
N1 H1B O2 0.89 2.52 3.064(2) 120.3 1_445 yes
N1 H1C O2 0.89 2.37 2.986(2) 126.3 1_545 yes
O3 H3 O4 0.75(3) 2.05(3) 2.7269(19) 150(4) 2_675 yes
loop_
_geom_torsion_atom_site_label_1
_geom_torsion_atom_site_label_2
_geom_torsion_atom_site_label_3
_geom_torsion_atom_site_label_4
_geom_torsion
O3 C2 C1 O1 -178.95(14)
O3 C2 C1 O2 -0.1(2)
O4 C3 C2 O3 67.21(16)
O4 C3 C2 C1 -54.98(18)
O4 C3 C4 O6 -179.80(14)
O4 C3 C4 O5 -0.3(2)
O8 C5 C6 C7 -38.2(2)
C3 C2 C1 O1 -55.95(19)
C3 C2 C1 O2 122.89(19)
C2 C3 C4 O6 -58.11(18)
C2 C3 C4 O5 121.42(17)
N1 C7 C6 C5 176.50(15)
O7 C5 C6 C7 143.18(19)
C4 C3 C2 O3 -53.49(17)
C4 C3 C2 C1 -175.69(13)
