#------------------------------------------------------------------------------
#$Date: 2015-11-18 03:55:27 +0200 (Wed, 18 Nov 2015) $
#$Revision: 170373 $
#$URL: svn://www.crystallography.net/cod/cif/2/02/02/2020298.cif $
#------------------------------------------------------------------------------
#
# This file is available in the Crystallography Open Database (COD),
# http://www.crystallography.net/. The original data for this entry
# were provided by IUCr Journals, http://journals.iucr.org/.
#
# The file may be used within the scientific community so long as
# proper attribution is given to the journal article from which the
# data were obtained.
#
data_2020298
loop_
_publ_author_name
'M\"uller, Peter'
_publ_section_title
;
 Mometasone furoate revisited, or how did the hydrate get in the bottle?
;
_journal_coeditor_code           OV3071
_journal_issue                   12
_journal_name_full               'Acta Crystallographica Section C'
_journal_page_first
;
;
_journal_paper_doi               10.1107/S2053229615021476
_journal_volume                  71
_journal_year                    2015
_chemical_formula_iupac          'C27 H30 Cl2 O6 , H2 O'
_chemical_formula_moiety         'C27 H30 Cl2 O6, H2 O'
_chemical_formula_sum            'C27 H32 Cl2 O7'
_chemical_formula_weight         539.42
_chemical_name_systematic
'9\a,21-Dichloro-11\b,17\a-dihydroxy-16\a-methyl-3,20-dioxodipregna-1,4-dien-17-yl furan-2-carboxylate monohydrate'
_space_group_crystal_system      triclinic
_space_group_IT_number           1
_space_group_name_Hall           'P 1'
_space_group_name_H-M_alt        'P 1'
_symmetry_space_group_name_Hall  'P 1'
_symmetry_space_group_name_H-M   'P 1'
_atom_sites_solution_hydrogens   mixed
_atom_sites_solution_primary     vecmap
_atom_sites_solution_secondary   difmap
_audit_creation_method           SHELXL-2014/6
_cell_angle_alpha                73.617(5)
_cell_angle_beta                 85.522(6)
_cell_angle_gamma                69.492(5)
_cell_formula_units_Z            1
_cell_length_a                   7.2367(6)
_cell_length_b                   8.4193(6)
_cell_length_c                   11.7507(8)
_cell_measurement_reflns_used    2338
_cell_measurement_temperature    100(2)
_cell_measurement_theta_max      69.51
_cell_measurement_theta_min      3.92
_cell_volume                     643.17(9)
_computing_cell_refinement
;
SAINT (Bruker, 2014)
;
_computing_data_collection
;
APEX2 (Bruker, 2014)
;
_computing_data_reduction
;
SAINT (Bruker, 2014)
;
_computing_molecular_graphics
;
APEX2 (Bruker, 2014)
;
_computing_publication_material
;
APEX2 (Bruker, 2014)
;
_computing_structure_refinement
;
SHELXL2014/6 (Sheldrick, 2015b)
;
_computing_structure_solution
;
SHELXT (Sheldrick, 2015a)
;
_diffrn_ambient_temperature      100(2)
_diffrn_detector_area_resol_mean 8.3
_diffrn_measured_fraction_theta_full 0.975
_diffrn_measured_fraction_theta_max 0.953
_diffrn_measurement_device_type  'Bruker SMART APEXII CCD area-detector'
_diffrn_measurement_method       '\f and \w'
_diffrn_radiation_type           CuK\a
_diffrn_radiation_wavelength     1.54178
_diffrn_reflns_av_R_equivalents  0.0539
_diffrn_reflns_limit_h_max       8
_diffrn_reflns_limit_h_min       -8
_diffrn_reflns_limit_k_max       10
_diffrn_reflns_limit_k_min       -9
_diffrn_reflns_limit_l_max       14
_diffrn_reflns_limit_l_min       -14
_diffrn_reflns_number            9890
_diffrn_reflns_theta_full        67.000
_diffrn_reflns_theta_max         68.937
_diffrn_reflns_theta_min         3.922
_exptl_absorpt_coefficient_mu    2.652
_exptl_absorpt_correction_T_max  0.7533
_exptl_absorpt_correction_T_min  0.5946
_exptl_absorpt_correction_type   multi-scan
_exptl_absorpt_process_details
;
(SADABS; Krause <i>et al.</i>,  2015)
;
_exptl_crystal_colour            colourless
_exptl_crystal_density_diffrn    1.393
_exptl_crystal_density_method    'not measured'
_exptl_crystal_description       plate
_exptl_crystal_F_000             284
_exptl_crystal_size_max          0.050
_exptl_crystal_size_mid          0.030
_exptl_crystal_size_min          0.008
_refine_diff_density_max         0.249
_refine_diff_density_min         -0.272
_refine_ls_abs_structure_details
;
Flack x parameter determined using 1106 quotients [(I^+^) - (I^-^)]/[(I^+^) +
(I^-^)]  (Parsons <i>et al.</i>,  2013)
;
_refine_ls_abs_structure_Flack   0.033(13)
_refine_ls_extinction_method     none
_refine_ls_goodness_of_fit_ref   1.032
_refine_ls_hydrogen_treatment    mixed
_refine_ls_matrix_type           full
_refine_ls_number_parameters     337
_refine_ls_number_reflns         3691
_refine_ls_number_restraints     6
_refine_ls_restrained_S_all      1.031
_refine_ls_R_factor_all          0.0473
_refine_ls_R_factor_gt           0.0412
_refine_ls_shift/su_max          0.000
_refine_ls_shift/su_mean         0.000
_refine_ls_structure_factor_coef Fsqd
_refine_ls_weighting_details
'w = 1/[\s^2^(Fo^2^)+(0.0580P)^2^] where P=(Fo^2^+2Fc^2^)/3'
_refine_ls_weighting_scheme      calc
_refine_ls_wR_factor_gt          0.0979
_refine_ls_wR_factor_ref         0.1002
_reflns_number_gt                3309
_reflns_number_total             3691
_reflns_threshold_expression     I>2\s(I)
_cod_data_source_file            ov3071sup1.cif
_cod_data_source_block           I
_cod_original_cell_volume        643.18(9)
_cod_database_code               2020298
_shelx_space_group_comment
;
The symmetry employed for this shelxl refinement is uniquely defined
by the following loop, which should always be used as a source of
symmetry information in preference to the above space-group names.
They are only intended as comments.
;
_shelx_estimated_absorpt_t_min   0.879
_shelx_estimated_absorpt_t_max   0.979
_shelx_hkl_file
;
  -1   0   0  197.29   11.29
  -1   0   0  205.64   11.28
  -1   0   0  205.96   11.72
   1   0   0  210.82   11.70
  -2   0   0  198.24   11.28
  -2   0   0  198.39   10.52
  -2   0   0  180.78   10.34
  -2   0   0  171.59   10.28
  -2   0   0  171.89   11.19
   2   0   0  176.21   11.13
  -3   0   0  134.45    7.61
  -3   0   0  149.87    9.24
  -3   0   0  133.45    8.50
  -3   0   0  132.98    7.32
   3   0   0  119.90    7.08
   3   0   0  108.04    9.99
   3   0   0  109.75    8.57
  -4   0   0   25.89    2.56
  -4   0   0   22.65    4.57
  -4   0   0   22.30    2.05
   4   0   0   32.33    5.79
   4   0   0   27.52    2.32
   4   0   0   21.77    3.61
   4   0   0   30.40    4.08
   4   0   0   24.30    1.68
  -5   0   0   15.71    1.84
  -5   0   0    9.51    4.46
   5   0   0   18.57    4.02
   5   0   0   19.99    5.72
   5   0   0   16.10    2.25
   5   0   0   15.95    1.42
  -6   0   0    4.13    0.85
  -6   0   0    4.31    1.81
  -6   0   0    3.57    1.24
  -6   0   0    4.57    2.27
   6   0   0    3.55    1.28
   6   0   0    3.72    0.91
   6   0   0    3.83    2.87
   6   0   0    1.41    3.70
  -7   0   0    9.22    0.67
  -7   0   0   10.57    1.94
  -7   0   0    7.15    2.25
   7   0   0   10.65    3.48
  -8   0   0    9.61    1.33
  -7   1   0    1.54    0.26
  -7   1   0    0.71    1.47
  -7   1   0    1.41    0.35
   6  -1   0    7.39    4.14
   6  -1   0    4.47    1.46
  -6   1   0    4.61    1.88
  -6   1   0    4.79    2.14
  -6   1   0    5.63    0.54
   5  -1   0   67.87    9.91
   5  -1   0   43.78    2.85
   5  -1   0   51.36    6.35
   5  -1   0   44.24    3.72
  -5   1   0   38.22    6.28
  -5   1   0   32.31    6.53
   4  -1   0    9.67    1.10
   4  -1   0    8.53    2.81
   4  -1   0    8.62    1.44
   4  -1   0   11.13    4.29
  -4   1   0   11.24    1.65
  -4   1   0    9.26    1.24
  -4   1   0   10.57    4.09
   3  -1   0  525.84   34.40
   3  -1   0  549.21   32.37
   3  -1   0  568.68   30.14
  -3   1   0  569.89   30.45
  -3   1   0  603.61   32.39
  -3   1   0  532.36   30.28
  -3   1   0  508.48   33.49
  -3   1   0  555.24   30.77
   2  -1   0  507.12   26.09
   2  -1   0  458.60   28.86
   2  -1   0  486.31   27.60
  -2   1   0  453.75   26.25
  -2   1   0  504.59   27.49
  -2   1   0  473.52   27.71
  -2   1   0  466.75   28.45
  -2   1   0  478.29   26.17
   1  -1   0   84.38    5.61
  -1   1   0   84.02    5.78
  -1   1   0   82.38    4.69
  -1   1   0   82.72    4.66
   0   1   0  141.90    7.89
   0   1   0  141.44    8.21
   0   1   0  144.14    8.27
   0   1   0  147.17    7.89
  -1  -1   0  534.00   28.20
  -1  -1   0  550.23   28.22
   1   1   0  488.61   28.13
   1   1   0  504.85   28.16
   1   1   0  499.41   28.17
  -2  -1   0    1.14    1.14
  -2  -1   0    1.08    2.25
   2   1   0    1.79    1.03
   2   1   0    2.27    1.03
   2   1   0    2.70    0.99
  -3  -1   0  179.63   11.15
  -3  -1   0  175.21    9.78
  -3  -1   0  191.66   11.60
  -3  -1   0  171.53   10.06
   3   1   0  162.18    9.74
   3   1   0  166.29   12.07
   3   1   0  176.44    9.46
   3   1   0  160.17    9.71
   3   1   0  161.46    9.51
   3   1   0  185.58   10.78
  -4  -1   0   28.12    2.98
  -4  -1   0   24.83    4.56
  -4  -1   0   27.48    2.48
   4   1   0   38.67    4.01
   4   1   0   43.22    5.97
   4   1   0   32.08    4.01
   4   1   0   39.31    2.08
   4   1   0   37.26    2.38
  -5  -1   0   17.22    2.02
  -5  -1   0   17.14    4.99
   5   1   0   20.23    1.47
   5   1   0   15.85    3.43
   5   1   0   26.25    6.04
   5   1   0   19.60    1.87
  -6  -1   0   60.09    4.93
  -6  -1   0   55.10    3.58
  -6  -1   0   57.61    4.09
  -6  -1   0   57.65    4.45
   6   1   0   62.31    6.67
   6   1   0   53.71    3.74
   6   1   0   55.62    3.49
   6   1   0   75.06    9.56
  -7  -1   0   29.27    3.94
  -7  -1   0   32.01    2.21
  -7  -1   0   30.24    3.18
   7   1   0   35.27    5.34
  -8  -1   0    0.73    1.09
  -7   2   0    4.56    0.53
  -7   2   0    4.44    1.34
  -7   2   0    0.65    3.86
   6  -2   0    1.66    1.42
  -6   2   0    2.49    1.65
  -6   2   0    2.93    0.35
  -6   2   0    3.00    5.42
   5  -2   0   38.69    2.24
   5  -2   0   37.99    3.74
   5  -2   0   50.95    9.28
  -5   2   0   39.99    2.23
  -5   2   0   43.16    3.77
  -5   2   0   35.76    6.09
  -5   2   0   30.71    6.80
   4  -2   0    8.06    4.46
   4  -2   0    4.14    0.74
   4  -2   0    4.08    1.56
  -4   2   0    1.19    3.87
  -4   2   0    0.83    3.65
   3  -2   0   56.13    3.89
   3  -2   0   53.18    3.20
   3  -2   0   47.26    7.24
  -3   2   0   56.14    5.83
  -3   2   0   52.18    6.69
  -3   2   0   59.46    6.54
  -3   2   0   54.97    3.17
  -3   2   0   53.18    3.21
  -3   2   0   56.40    4.41
   2  -2   0  164.89   13.14
   2  -2   0  192.01    9.58
  -2   2   0  186.28   10.34
  -2   2   0  167.10    9.57
  -2   2   0  187.53   11.03
  -2   2   0  148.12   12.24
  -2   2   0  163.15   11.64
  -2   2   0  150.94    9.56
  -2   2   0  178.75    9.56
  -2   2   0  195.83   11.78
   1  -2   0   62.33    6.24
  -1   2   0   80.25    5.82
  -1   2   0   83.64    4.42
  -1   2   0   85.75    6.08
  -1   2   0   80.94    6.45
  -1   2   0   75.16    6.55
  -1   2   0   82.25    5.07
   0   2   0   79.79    5.46
   0   2   0   80.05    4.81
   0   2   0   91.10    4.85
   0   2   0   90.48    5.75
  -1  -2   0  365.77   23.18
   1   2   0  440.95   23.25
   1   2   0  426.41   23.21
   1   2   0  455.70   23.22
  -2  -2   0  584.00   29.98
  -2  -2   0  519.50   29.15
   2   2   0  509.57   28.92
   2   2   0  526.38   29.07
   2   2   0  549.42   28.92
   2   2   0  506.71   28.77
   2   2   0  499.75   28.90
  -3  -2   0   90.33    7.00
  -3  -2   0   73.59    5.19
  -3  -2   0   79.22    4.79
   3   2   0   80.87    5.16
   3   2   0   71.99    4.42
   3   2   0   79.96    4.31
   3   2   0   77.86    4.81
   3   2   0   71.48    6.23
   3   2   0   79.37    4.75
  -4  -2   0   66.32    4.28
  -4  -2   0   79.48    6.74
  -4  -2   0   77.74    6.72
  -4  -2   0   70.50    4.81
   4   2   0   57.56    6.43
   4   2   0   62.29    3.79
   4   2   0   61.93    4.88
   4   2   0   64.56    3.70
   4   2   0   59.92    3.82
  -5  -2   0   10.24    3.99
  -5  -2   0    8.64    1.58
  -5  -2   0    9.01    4.26
   5   2   0   10.22    2.57
   5   2   0    9.31    3.27
   5   2   0    7.69    0.93
  -6  -2   0    6.85    1.70
  -6  -2   0    8.20    2.46
  -6  -2   0    4.42    4.35
   6   2   0    8.67    0.90
   6   2   0    9.87    2.96
   6   2   0   12.68   11.86
  -7  -2   0    8.14    1.19
  -7  -2   0    9.78    2.51
   7   2   0   16.61    3.69
  -8  -2   0    9.23    2.03
  -8  -2   0    9.74    0.94
   8   2   0    6.25    0.55
  -6   3   0    4.86    1.56
  -6   3   0   -2.42    4.76
   5  -3   0    3.16    1.63
   5  -3   0    4.80    0.51
  -5   3   0    5.50    0.53
  -5   3   0    4.21    5.57
  -5   3   0    6.14    1.83
   4  -3   0   26.87    3.14
   4  -3   0   27.26    1.55
  -4   3   0   21.79    5.97
  -4   3   0   17.66    4.82
  -4   3   0   24.95    1.50
  -3   3   0   25.15    5.50
  -3   3   0   13.52    3.67
  -3   3   0   17.08    1.41
  -2   3   0   31.84    4.37
  -2   3   0   33.25    5.19
  -2   3   0   30.13    4.24
  -2   3   0   28.76    3.40
  -2   3   0   28.84    1.88
  -1   3   0   93.81    6.08
  -1   3   0   95.19    7.21
  -1   3   0   93.06    5.22
  -1   3   0   98.45    8.10
  -1   3   0   89.49    6.79
   0   3   0  199.25   13.89
   0   3   0  227.87   13.33
   0   3   0  221.14   12.12
   0   3   0  216.13   12.11
   0   3   0  226.82   11.97
   0   3   0  210.00   12.07
   0   3   0  227.97   13.11
   0   3   0  224.44   12.39
  -1  -3   0  163.02    9.16
   1   3   0  140.83    7.88
   1   3   0  144.77    7.64
   1   3   0  123.43    8.21
   1   3   0  131.48    7.75
   1   3   0  134.97    8.01
   1   3   0  141.60    8.37
  -2  -3   0   21.21    3.77
   2   3   0   31.64    2.78
   2   3   0   27.63    1.74
   2   3   0   25.63    2.42
   2   3   0   27.52    2.12
   2   3   0   27.84    2.06
  -3  -3   0   38.08    4.68
  -3  -3   0   35.45    2.45
   3   3   0   30.64    2.02
   3   3   0   31.49    2.49
   3   3   0   29.84    2.71
   3   3   0   31.47    2.43
   3   3   0   29.74    2.01
  -4  -3   0   89.79    7.80
  -4  -3   0   91.37    5.38
   4   3   0   86.36    4.87
   4   3   0   78.34    5.22
   4   3   0   88.46    4.91
   4   3   0   83.06    4.67
   4   3   0   73.54    5.85
  -5  -3   0   27.58    5.78
  -5  -3   0   26.24    5.65
  -5  -3   0   31.85    2.76
   5   3   0   29.53    3.41
   5   3   0   32.43    2.13
   5   3   0   31.01    1.87
  -6  -3   0   13.38    4.34
  -6  -3   0   19.49    3.21
  -6  -3   0   21.70    2.68
  -6  -3   0   14.52    2.53
  -6  -3   0   14.14    4.70
   6   3   0   21.68    1.16
   6   3   0   24.15    3.52
   6   3   0   20.34    1.43
  -7  -3   0    5.43    1.22
  -7  -3   0    5.96    2.38
   7   3   0    5.81    2.23
   7   3   0    5.56    0.51
  -8  -3   0   19.50    3.01
  -8  -3   0   24.15    1.78
   8   3   0   21.69    1.20
   8   3   0   20.99    1.20
   5  -4   0    7.15    0.66
  -5   4   0    0.94    4.89
  -5   4   0    5.48    0.63
   4  -4   0   30.34    1.79
  -4   4   0   25.47    6.53
  -4   4   0   29.44    1.76
   3  -4   0   12.52    1.03
  -3   4   0   21.79    2.78
  -3   4   0   17.70    1.44
  -3   4   0   14.78    4.28
  -3   4   0   15.80    1.12
  -3   4   0   22.53    5.71
  -3   4   0   24.09    4.07
  -3   4   0   22.68    5.79
  -2   4   0    0.26    2.09
  -2   4   0    0.69    0.58
  -2   4   0    1.50    1.72
  -2   4   0    1.97    2.85
  -2   4   0    0.31    3.00
  -1   4   0   62.94    5.99
  -1   4   0   69.37    7.18
  -1   4   0   69.13    3.69
  -1   4   0   66.32    5.89
  -1   4   0   57.56    4.63
  -1   4   0   57.55    6.12
   0   4   0    7.52    2.16
   0   4   0    8.00    0.92
   0   4   0    8.53    2.69
   0   4   0    9.05    0.79
   0   4   0    8.50    2.72
   1   4   0   -0.02    1.29
   1   4   0    1.56    0.32
   1   4   0   -0.47    1.03
   1   4   0    1.41    0.80
   1   4   0    0.98    0.77
   1   4   0    4.10    1.97
  -2  -4   0  111.49    8.74
   2   4   0  133.31    7.18
   2   4   0  138.12    7.59
   2   4   0  123.66    7.84
   2   4   0  131.84    7.40
   2   4   0  124.18    7.09
  -3  -4   0    1.46    2.99
   3   4   0    2.42    0.72
   3   4   0    1.29    1.10
   3   4   0    3.16    1.84
   3   4   0    2.32    0.65
   3   4   0    2.00    1.15
  -4  -4   0   57.49    4.10
  -4  -4   0   62.68    6.91
   4   4   0   61.08    4.11
   4   4   0   59.14    3.67
   4   4   0   63.10    3.64
  -5  -4   0   44.93    6.77
  -5  -4   0   58.33    4.00
   5   4   0   49.91    3.22
   5   4   0   48.87    3.78
   5   4   0   51.44    3.27
  -6  -4   0   45.52    7.16
  -6  -4   0   51.44    4.46
  -6  -4   0   44.36    6.82
  -6  -4   0   52.45    4.38
  -6  -4   0   58.08    4.22
   6   4   0   55.92    2.93
   6   4   0   54.41    2.93
   6   4   0   55.66    3.41
  -7  -4   0   20.53    2.87
  -7  -4   0   18.81    2.71
  -8  -4   0    2.66    1.77
  -8  -4   0    1.62    0.81
   5  -5   0    1.40    0.29
  -5   5   0    1.28    3.31
   4  -5   0    2.06    0.43
  -4   5   0    2.83    5.14
  -4   5   0   -1.21    4.78
   3  -5   0    4.15    0.49
  -3   5   0    6.82    2.32
  -3   5   0    4.55    5.20
  -3   5   0    6.75    5.33
  -3   5   0    6.14    3.20
  -2   5   0    8.78    2.40
  -2   5   0   10.83    2.33
  -2   5   0   12.04    1.32
  -2   5   0   11.73    3.41
  -2   5   0   18.50    5.58
  -2   5   0   11.12    3.74
  -2   5   0   15.19    5.52
  -2   5   0   13.17    5.22
  -2   5   0    5.36    3.66
  -2   5   0   15.58    4.39
  -1   5   0   19.12    4.97
  -1   5   0   12.78    1.23
  -1   5   0   12.13    4.13
  -1   5   0   11.87    3.75
  -1   5   0   14.23    3.65
   0   5   0    1.24    2.17
   0   5   0    2.80    1.82
   0   5   0    5.98    4.24
   0   5   0    5.32    0.60
   1   5   0   41.86    2.55
   1   5   0   44.29    4.81
   1   5   0   47.21    3.87
   1   5   0   43.61    2.93
   1   5   0   42.88    4.43
   1   5   0   46.66    2.96
   2   5   0   11.03    2.04
   2   5   0   12.18    1.62
   2   5   0   14.72    2.73
   2   5   0   12.47    1.18
   2   5   0   12.40    1.73
   3   5   0  148.98    9.78
   3   5   0  160.30    8.84
   3   5   0  156.57    9.24
   3   5   0  167.21    8.96
   3   5   0  154.22    9.46
  -4  -5   0  111.24   10.01
   4   5   0  122.43    6.82
   4   5   0  123.99    6.91
   4   5   0  117.69    7.33
  -5  -5   0   17.17    5.10
   5   5   0   26.14    2.69
   5   5   0   26.77    2.07
   5   5   0   23.49    2.18
   5   5   0   26.32    3.48
  -6  -5   0   11.63    2.34
   6   5   0    7.41    2.71
  -7  -5   0   20.79    2.70
  -8  -5   0   -0.45    1.45
   4  -6   0    1.52    0.33
  -4   6   0    0.36    3.48
   3  -6   0    1.41    0.42
  -3   6   0   -0.24    4.59
  -3   6   0    1.59    2.06
  -3   6   0    1.02    2.85
   2  -6   0    7.24    0.83
  -2   6   0    5.16    3.30
  -2   6   0    4.91    4.89
  -2   6   0    4.60    2.30
  -2   6   0    7.21    3.82
  -1   6   0   29.06    2.19
  -1   6   0   33.37    4.75
  -1   6   0   30.79    3.80
  -1   6   0   31.66    1.97
  -1   6   0   36.70    3.60
  -1   6   0   33.01    6.26
  -1   6   0   36.32    6.57
  -1   6   0   35.29    5.85
   0   6   0   83.67    8.07
   0   6   0   84.70    6.02
   0   6   0   86.10    8.63
   0   6   0   84.17    4.92
   0   6   0   84.30    8.86
   0   6   0   96.08    6.81
   1   6   0    7.39    0.82
   1   6   0   10.86    2.84
   2   6   0    2.53    1.45
   2   6   0    1.99    1.01
   3   6   0   19.55    2.22
   4   6   0   84.69    4.82
   4   6   0   85.21    5.19
   4   6   0   84.91    5.44
   4   6   0   65.26    6.25
  -5  -6   0   34.22    3.48
  -5  -6   0   31.07    6.15
   5   6   0   28.51    2.97
   5   6   0   32.91    2.30
   5   6   0   22.11    3.59
   5   6   0   27.96    2.78
  -6  -6   0    6.50    2.07
   6   6   0    5.01    1.39
  -7  -6   0    5.47    2.00
  -8  -6   0   -0.65    1.26
   3  -7   0    5.62    0.53
  -3   7   0    2.39    3.36
  -3   7   0    6.82    2.11
   2  -7   0    0.13    0.34
  -2   7   0    0.13    2.71
  -2   7   0    0.95    1.88
  -2   7   0   -2.08    1.97
  -2   7   0    1.25    3.79
  -2   7   0    0.57    4.26
  -1   7   0   14.19    2.98
  -1   7   0   10.47    3.36
  -1   7   0    8.71    4.98
  -1   7   0   11.53    0.96
  -1   7   0    8.28    2.41
  -1   7   0   18.09    4.45
   0   7   0   14.12    1.15
   0   7   0   12.63    2.50
   0   7   0   16.19    3.42
   0   7   0   12.13    2.93
   0   7   0   15.67    3.93
   1   7   0   12.49    2.40
   1   7   0   13.77    3.06
   1   7   0    9.08    2.90
   1   7   0   12.72    0.76
   1   7   0   12.66    1.09
   1   7   0   11.81    1.15
   1   7   0   10.25    2.70
   2   7   0   26.03    1.75
   2   7   0   24.94    1.37
   2   7   0   24.95    1.36
   2   7   0   25.44    3.73
   2   7   0   25.12    2.82
   2   7   0   23.12    1.45
   3   7   0   17.30    2.46
   3   7   0   18.28    3.37
   3   7   0   16.23    2.33
   3   7   0   17.01    2.03
   3   7   0   16.58    1.27
   3   7   0   17.14    1.44
  -4  -7   0   22.79    3.14
   4   7   0   26.11    3.58
   4   7   0   23.39    2.60
   4   7   0   23.36    2.77
   4   7   0   22.41    1.65
  -5  -7   0   16.53    2.47
   5   7   0   19.45    1.54
   5   7   0   18.25    3.17
   5   7   0   24.22    2.54
  -6  -7   0    2.84    1.96
   6   7   0    2.50    0.67
   6   7   0    1.26    1.18
   6   7   0    2.67    2.12
  -7  -7   0    9.91    1.95
  -7  -7   0    7.26    1.63
  -2   8   0    0.86    1.42
  -1   8   0    4.38    1.84
  -1   8   0    2.54    2.00
   0   8   0   19.94    1.13
   0   8   0   18.97    1.32
   0   8   0   21.75    3.67
   0   8   0   15.12    2.54
   0   8   0   20.60    3.31
   1   8   0    7.14    2.85
   1   8   0    5.27    0.37
   1   8   0    5.17    0.39
   1   8   0    4.80    0.68
   1   8   0    5.59    2.24
   2   8   0   18.16    1.46
   2   8   0   23.57    3.62
   2   8   0   16.62    2.60
   3   8   0   12.26    1.77
   3   8   0   12.06    3.10
   3   8   0   10.71    1.14
   3   8   0    9.69    2.36
   4   8   0   17.05    3.14
   4   8   0   16.17    1.16
   4   8   0   13.05    2.24
   4   8   0   18.20    2.43
   4   8   0   14.95    1.37
  -5  -8   0   25.79    3.05
   5   8   0   28.60    1.81
   5   8   0   27.43    2.59
   5   8   0   29.57    3.81
   5   8   0   27.62    3.18
  -6  -8   0    7.78    1.87
   6   8   0    6.47    1.32
   6   8   0    8.20    2.30
   6   8   0    4.94    1.47
   6   8   0    8.60    0.90
  -7  -8   0    6.39    1.43
   7   8   0    5.77    0.65
   0   9   0   12.31    2.05
   0   9   0   12.16    1.67
   1   9   0    3.99    1.64
   1   9   0    4.16    0.50
   1   9   0    5.28    1.97
   2   9   0    1.37    0.50
   2   9   0    1.72    1.88
   2   9   0    5.92    1.83
   3   9   0   35.78    3.92
   3   9   0   34.67    3.40
   3   9   0   32.27    2.06
   4   9   0    3.66    1.59
   4   9   0    2.42    0.53
   4   9   0    1.37    1.71
   5   9   0    8.19    1.54
   5   9   0   12.06    2.18
   5   9  -1   12.63    1.51
   4   9  -1    3.00    1.41
   4   9  -1    4.63    1.74
   4   9  -1    3.22    0.54
   3   9  -1    8.42    2.03
   3   9  -1   13.11    1.05
   3   9  -1   14.28    1.91
   2   9  -1   14.08    2.40
   2   9  -1   15.04    1.99
   2   9  -1   17.52    1.19
   1   9  -1   12.42    1.73
   1   9  -1   12.66    2.16
   1   9  -1   11.77    0.88
   6   8  -1   22.58    2.52
   6   8  -1   25.58    1.60
   6   8  -1   26.55    2.22
   6   8  -1   23.13    2.99
  -6  -8   1   23.47    2.83
   5   8  -1   17.15    2.22
   5   8  -1   16.33    2.06
   5   8  -1   13.96    1.17
   5   8  -1   17.82    2.88
  -5  -8   1   13.69    2.13
   4   8  -1    1.66    1.30
   4   8  -1    1.16    0.44
   4   8  -1    0.78    1.82
   4   8  -1    0.00    1.80
   3   8  -1   19.85    2.32
   3   8  -1   18.57    2.60
   3   8  -1   19.56    1.54
   3   8  -1   22.26    3.52
   2   8  -1    4.45    2.42
   2   8  -1    6.39    2.12
   2   8  -1    8.36    0.89
   1   8  -1    0.18    2.16
   1   8  -1    1.09    0.17
   1   8  -1    0.45    0.16
   1   8  -1    0.10    1.89
   1   8  -1    1.09    0.59
   0   8  -1   15.27    2.87
   0   8  -1   16.39    0.98
   0   8  -1   16.05    3.00
   0   8  -1   17.77    1.23
   0   8  -1   18.57    2.45
  -1   8  -1    6.13    2.11
  -1   8  -1    2.57    1.53
  -7  -7   1    0.83    1.62
   6   7  -1    9.79    2.56
   6   7  -1    7.46    1.44
  -6  -7   1   10.52    2.11
   5   7  -1   30.12    3.49
   5   7  -1   35.74    3.87
   5   7  -1   31.70    2.09
   5   7  -1   32.29    2.93
  -5  -7   1   25.48    3.48
   4   7  -1   12.25    2.31
   4   7  -1    7.07    2.52
   4   7  -1    9.57    1.11
   4   7  -1   10.11    1.67
  -4  -7   1   10.84    2.32
   3   7  -1   15.65    2.99
   3   7  -1   18.64    2.37
   3   7  -1   21.80    2.73
   3   7  -1   17.08    1.32
   3   7  -1   18.41    1.52
   2   7  -1    6.19    0.42
   2   7  -1    6.17    0.41
   2   7  -1    7.37    0.88
   2   7  -1    6.48    0.64
   2   7  -1    7.57    2.44
   2   7  -1    6.50    2.29
   1   7  -1    5.02    2.37
   1   7  -1    5.04    2.45
   1   7  -1    4.77    2.75
   1   7  -1    1.68    2.12
   1   7  -1    4.06    0.34
   1   7  -1    4.85    0.76
   0   7  -1   11.81    1.17
   0   7  -1   14.59    2.57
   0   7  -1   15.47    4.13
   0   7  -1   16.90    3.44
   0   7  -1   11.29    3.29
  -1   7  -1   31.61    4.01
  -1   7  -1   24.98    3.00
  -1   7  -1   26.09    5.62
  -1   7  -1   22.26    3.93
  -1   7  -1   34.77    5.81
  -1   7  -1   29.83    1.82
  -2   7  -1    4.10    1.85
  -2   7  -1    7.70    3.00
  -2   7  -1    3.60    4.05
  -2   7  -1    7.33    2.42
   2  -7   1    5.63    0.64
  -3   7  -1    8.52    2.05
   3  -7   1   12.86    0.82
  -8  -6   1    8.16    1.44
  -7  -6   1    8.60    2.01
   6   6  -1    8.75    2.66
   6   6  -1    9.35    1.48
  -6  -6   1    7.08    2.11
   5   6  -1   55.90    3.86
   5   6  -1   59.00    4.11
   5   6  -1   58.78    5.38
  -5  -6   1   60.64    4.72
   4   6  -1   18.37    3.08
   4   6  -1   15.53    2.31
  -4  -6   1   19.96    2.67
   3   6  -1    1.87    1.94
   3   6  -1    0.91    1.16
   3   6  -1    1.43    1.69
   2   6  -1   16.24    2.91
   2   6  -1   13.42    1.86
   1   6  -1    3.14    0.57
   1   6  -1    2.89    2.27
   1   6  -1    4.46    1.88
   0   6  -1   22.23    3.68
   0   6  -1   20.02    2.72
   0   6  -1   24.45    4.71
   0   6  -1   19.09    5.11
   0   6  -1   17.80    1.48
   0   6  -1   16.81    4.37
   0   6  -1   18.27    1.49
  -1   6  -1   24.98    1.70
  -1   6  -1   24.24    1.88
  -1   6  -1   24.93    2.93
  -1   6  -1   27.13    5.63
  -1   6  -1   29.50    4.22
  -1   6  -1   20.75    5.52
  -1   6  -1   24.26    5.67
  -2   6  -1   67.58    5.33
  -2   6  -1   80.80    8.66
  -2   6  -1   68.61    3.83
  -2   6  -1   65.64    6.33
  -2   6  -1   61.39    8.06
   2  -6   1   64.18    3.77
  -3   6  -1   25.12    5.66
  -3   6  -1   22.74    3.87
  -3   6  -1   33.10    1.89
  -3   6  -1   22.68    2.93
   3  -6   1   35.15    1.87
   4  -6   1   30.31    1.75
  -8  -5   1    8.13    1.59
  -7  -5   1    5.70    2.04
  -6  -5   1    2.08    1.85
   5   5  -1    9.37    1.88
   5   5  -1    8.46    1.29
   5   5  -1    9.55    2.50
   5   5  -1    8.26    1.47
  -5  -5   1   11.26    4.48
   4   5  -1   16.78    1.60
   4   5  -1   19.00    1.69
   4   5  -1   18.03    2.30
  -4  -5   1   15.11    4.53
   3   5  -1   53.96    3.38
   3   5  -1   54.55    3.84
   2   5  -1  186.25   10.90
   2   5  -1  182.84   10.27
   2   5  -1  181.61   10.59
   2   5  -1  160.71   11.33
   1   5  -1   38.62    3.89
   1   5  -1   36.70    4.43
   1   5  -1   41.80    2.88
   1   5  -1   42.79    2.39
   1   5  -1   38.50    5.07
   0   5  -1    4.79    2.55
   0   5  -1    2.66    2.22
   0   5  -1    3.15    0.58
  -1   5  -1  101.81    8.71
  -1   5  -1  115.52    9.80
  -1   5  -1  109.11    6.41
  -1   5  -1  116.26   10.04
  -1   5  -1  135.79   11.89
  -2   5  -1   49.87    7.97
  -2   5  -1   35.45    3.93
  -2   5  -1   31.60    2.21
  -2   5  -1   39.11    6.48
  -2   5  -1   18.17    4.36
  -2   5  -1   33.36    4.41
  -2   5  -1   47.02    6.65
  -2   5  -1   32.23    7.09
   2  -5   1   29.97    1.89
  -3   5  -1    2.05    5.09
  -3   5  -1    2.26    2.12
  -3   5  -1    0.71    5.17
  -3   5  -1    0.87    3.22
   3  -5   1    2.59    0.44
  -4   5  -1    6.03    4.91
  -4   5  -1    1.15    5.54
   4  -5   1    2.64    0.43
   5  -5   1   12.31    0.80
  -8  -4   1    4.16    1.73
  -8  -4   1    4.93    0.90
  -7  -4   1   49.23    4.28
  -7  -4   1   47.70    4.47
   6   4  -1   25.66    1.40
   6   4  -1   24.56    1.41
   6   4  -1   24.22    2.03
  -6  -4   1   25.70    3.24
  -6  -4   1   24.80    2.82
  -6  -4   1   26.38    3.43
   5   4  -1   13.49    2.18
   5   4  -1   17.12    2.24
   5   4  -1   18.14    1.61
  -5  -4   1   18.17    2.41
  -5  -4   1   16.08    4.55
   4   4  -1   73.63    5.55
   4   4  -1   88.83    4.86
   4   4  -1   81.34    4.87
   4   4  -1   80.91    5.28
  -4  -4   1   85.34    5.57
  -4  -4   1   87.59    8.15
   3   4  -1   76.25    4.47
   3   4  -1   75.65    5.33
   3   4  -1   79.64    4.53
   3   4  -1   77.23    4.88
   3   4  -1   77.65    5.16
  -3  -4   1   78.38    6.87
   2   4  -1   86.39    5.27
   2   4  -1   78.60    5.82
   2   4  -1   90.63    5.16
   2   4  -1   88.29    4.78
   2   4  -1   91.17    5.53
   2   4  -1   82.85    4.97
   1   4  -1  106.31    7.13
   1   4  -1  107.87    5.75
   1   4  -1   99.56    6.07
   1   4  -1  106.77    6.23
   1   4  -1   97.47    8.00
   0   4  -1   48.63    2.99
   0   4  -1   50.52    4.83
   0   4  -1   42.29    4.76
   0   4  -1   44.04    2.95
   0   4  -1   48.38    5.60
   0   4  -1   43.87    4.65
   0   4  -1   45.84    2.68
  -1   4  -1    8.67    0.91
  -1   4  -1    3.99    2.34
  -1   4  -1    5.29    2.38
  -1   4  -1    8.82    3.14
  -1   4  -1    5.57    2.84
  -2   4  -1   67.45    3.95
  -2   4  -1   75.28    8.96
  -2   4  -1   62.31    6.73
  -2   4  -1   70.16    7.33
  -3   4  -1   23.20    5.95
  -3   4  -1   20.73    1.39
  -3   4  -1   20.06    4.54
  -3   4  -1   25.52    1.78
  -3   4  -1   25.05    2.89
  -3   4  -1   29.26    6.55
  -3   4  -1   27.52    4.25
   3  -4   1   22.79    1.44
  -4   4  -1   -1.02    5.04
  -4   4  -1    0.03    0.34
   4  -4   1    0.34    0.40
  -5   4  -1   14.90    1.00
   5  -4   1   15.43    1.02
  -8  -3   1    1.29    1.81
  -8  -3   1    1.21    0.72
   7   3  -1   16.20    3.06
   7   3  -1   12.61    0.83
  -7  -3   1   13.71    2.71
  -7  -3   1   12.72    1.51
   6   3  -1   18.78    3.16
   6   3  -1   14.79    1.24
  -6  -3   1   18.28    2.50
  -6  -3   1    9.14    4.16
  -6  -3   1   14.60    2.13
  -6  -3   1   17.88    2.78
  -6  -3   1   13.57    5.08
   5   3  -1   22.79    1.71
   5   3  -1   25.35    3.34
   5   3  -1   19.14    1.38
  -5  -3   1   20.37    2.44
  -5  -3   1   12.05    4.86
   4   3  -1   19.40    1.28
   4   3  -1   20.25    1.61
   4   3  -1   22.49    1.87
   4   3  -1   19.12    2.13
   4   3  -1   18.85    2.71
   4   3  -1   22.29    1.61
  -4  -3   1   17.96    2.11
  -4  -3   1   19.95    4.61
   3   3  -1  203.62   11.42
   3   3  -1  211.57   11.48
   3   3  -1  202.72   11.31
   3   3  -1  215.68   11.65
   3   3  -1  201.72   11.74
  -3  -3   1  205.43   11.75
  -3  -3   1  209.12   13.44
   2   3  -1   43.85    2.65
   2   3  -1   50.17    2.45
   2   3  -1   40.76    3.00
   2   3  -1   37.76    2.90
   2   3  -1   39.58    3.19
   2   3  -1   39.42    4.28
   2   3  -1   46.35    3.02
  -2  -3   1   46.99    2.91
   1   3  -1    3.01    0.90
   1   3  -1    5.38    1.38
   1   3  -1    3.73    0.63
   1   3  -1    2.61    0.38
   1   3  -1    6.03    1.99
   1   3  -1    4.19    1.10
   1   3  -1    2.22    1.82
   0   3  -1  261.82   15.73
   0   3  -1  243.07   16.51
   0   3  -1  248.29   14.35
   0   3  -1  270.59   14.46
   0   3  -1  270.26   14.19
   0   3  -1  262.01   15.19
  -1   3  -1   77.95    6.68
  -1   3  -1   86.34    4.78
  -1   3  -1   85.48    6.44
  -1   3  -1   87.98    4.66
  -1   3  -1   75.64    7.58
  -1   3  -1   77.63    5.35
  -2   3  -1   37.77    4.95
  -2   3  -1   40.86    5.85
  -2   3  -1   41.92    2.45
  -3   3  -1   47.00    6.96
  -3   3  -1   35.89    2.30
  -3   3  -1   27.75    4.73
  -4   3  -1    4.24    1.74
  -4   3  -1    2.46    4.94
  -4   3  -1    3.82    0.45
  -4   3  -1    2.33    3.43
  -4   3  -1    3.48    0.43
   4  -3   1    4.48    1.72
  -5   3  -1    0.30    0.37
  -5   3  -1   -0.46    1.56
  -5   3  -1    3.89    5.33
   5  -3   1   -0.32    0.33
   5  -3   1    0.86    1.65
  -6   3  -1   12.82    0.89
  -6   3  -1   11.84    1.73
   8   2  -1    5.88    0.52
  -8  -2   1    7.99    0.87
  -8  -2   1    5.68    2.03
   7   2  -1   12.54    3.29
  -7  -2   1   12.39    1.36
  -7  -2   1   10.85    2.59
   6   2  -1   53.54    5.59
   6   2  -1   47.89    2.82
  -6  -2   1   50.31    3.71
  -6  -2   1   49.49    4.40
  -6  -2   1   41.36    3.10
  -6  -2   1   34.87    6.20
   4   2  -1   16.25    5.99
   4   2  -1    1.48    0.58
   4   2  -1    2.41    0.44
   4   2  -1    2.17    0.59
   4   2  -1    1.60    1.20
   4   2  -1    3.27    1.66
  -4  -2   1    7.12    4.13
  -4  -2   1    3.67    1.26
  -4  -2   1    5.20    3.41
   3   2  -1   68.36    4.06
   3   2  -1   67.41    4.45
   3   2  -1   83.38    5.13
   3   2  -1   69.09    4.18
   3   2  -1   70.29    4.21
  -3  -2   1   82.34    6.43
  -3  -2   1   72.32    4.92
  -3  -2   1   79.37    4.53
   2   2  -1  259.89   15.55
   2   2  -1  272.92   15.08
   2   2  -1  285.69   15.27
   2   2  -1  300.54   15.64
   2   2  -1  273.95   15.46
  -2  -2   1  251.05   15.44
  -2  -2   1  286.51   16.36
  -2  -2   1  271.73   15.27
   1   2  -1  152.15    8.86
   1   2  -1  156.49    8.48
   1   2  -1  158.19    8.65
  -1  -2   1  137.18    8.60
   0   2  -1  306.65   16.73
   0   2  -1  267.50   15.75
  -1   2  -1   73.73    4.71
  -1   2  -1   68.75    5.62
  -1   2  -1   69.73    4.19
  -1   2  -1   77.98    5.43
  -1   2  -1   73.97    3.98
  -1   2  -1   69.68    4.14
  -1   2  -1   70.06    4.10
  -1   2  -1   62.97    6.21
  -2   2  -1   22.18    1.78
  -2   2  -1   24.01    1.43
  -2   2  -1   23.18    3.38
  -2   2  -1   19.03    3.78
  -2   2  -1   21.14    4.11
  -2   2  -1   22.28    2.91
  -2   2  -1   23.63    4.82
  -2   2  -1   18.62    1.59
   2  -2   1   18.06    4.11
   2  -2   1   23.44    1.44
  -3   2  -1   65.19    6.18
  -3   2  -1   69.64    7.76
  -3   2  -1   74.83    4.13
  -3   2  -1   64.16    3.89
  -3   2  -1   68.22    7.18
   3  -2   1   68.64    4.59
   3  -2   1   64.62    8.36
   3  -2   1   61.49    3.87
  -4   2  -1   30.12    6.12
  -4   2  -1   34.25    5.39
   4  -2   1   43.17    8.01
   4  -2   1   31.90    2.23
   4  -2   1   36.17    3.36
  -5   2  -1    4.63    0.50
  -5   2  -1    5.38    1.96
  -5   2  -1    7.27    4.42
   5  -2   1    5.44    4.47
   5  -2   1    3.91    0.44
   5  -2   1    4.94    1.73
  -6   2  -1    5.36    5.27
  -6   2  -1    2.87    1.69
  -6   2  -1    5.20    0.62
   6  -2   1    2.67    1.37
  -7   2  -1    6.56    0.56
  -7   2  -1    3.76    1.24
  -8  -1   1    5.07    1.25
  -8  -1   1    4.19    1.69
   7   1  -1   30.60    4.84
  -7  -1   1   21.40    1.72
  -7  -1   1   16.04    2.90
  -7  -1   1   18.96    2.86
   6   1  -1   25.86    4.48
   6   1  -1   18.54    1.63
   6   1  -1   18.59    2.03
  -6  -1   1   21.39    3.39
  -6  -1   1   20.12    2.28
  -6  -1   1   15.50    5.44
  -6  -1   1   20.98    2.96
  -6  -1   1   20.07    1.80
   5   1  -1   11.65    1.65
   5   1  -1   18.31    4.79
   5   1  -1   13.52    1.23
   5   1  -1   14.48    3.38
  -5  -1   1   14.31    1.82
  -5  -1   1    9.93    4.54
  -5  -1   1   10.11    3.64
   4   1  -1   45.83    3.15
   4   1  -1   59.13    4.88
   4   1  -1   48.69    5.09
   4   1  -1   49.61    2.95
   4   1  -1   52.69    6.77
   4   1  -1   49.74    2.89
  -4  -1   1   50.07    3.40
  -4  -1   1   46.60    5.84
  -4  -1   1   54.29    3.88
  -4  -1   1   45.28    5.26
   3   1  -1    4.50    0.50
   3   1  -1    4.75    0.78
   3   1  -1    6.01    1.81
   3   1  -1    2.85    2.07
  -3  -1   1    4.94    1.33
  -3  -1   1    5.14    1.15
  -3  -1   1    5.54    2.82
  -3  -1   1    3.20    3.29
   2   1  -1  145.33    8.53
   2   1  -1  157.06    9.03
   2   1  -1  140.27    8.85
  -2  -1   1  153.85    8.58
  -2  -1   1  157.89    9.48
  -2  -1   1  137.08    8.32
   1   1  -1  450.86   26.24
   1   1  -1  486.05   26.06
   1   1  -1  472.90   26.34
  -1  -1   1  489.29   26.06
   0   1  -1  368.99   19.96
   0   1  -1  349.99   19.42
   0   1  -1  352.03   19.41
   0  -1   1  346.71   19.81
  -1   1  -1  390.70   21.94
  -1   1  -1  396.82   20.96
   1  -1   1  357.43   21.76
  -2   1  -1   32.38    1.94
  -2   1  -1   31.83    3.77
  -2   1  -1   30.58    2.30
  -2   1  -1   35.72    4.34
  -2   1  -1   30.96    4.31
  -2   1  -1   30.44    2.15
   2  -1   1   41.36    3.88
   2  -1   1   34.89    4.35
  -3   1  -1   29.25    2.31
  -3   1  -1   27.94    4.69
  -3   1  -1   23.39    1.96
  -3   1  -1   28.88    4.56
   3  -1   1   28.98    4.07
   3  -1   1   24.88    4.99
   3  -1   1   25.72    1.74
  -4   1  -1   13.68    4.39
  -4   1  -1   12.07    1.45
   4  -1   1    7.64    0.95
   4  -1   1   11.25    4.41
   4  -1   1    9.44    1.62
  -5   1  -1   67.98    5.37
  -5   1  -1   66.88    3.81
  -5   1  -1   78.76    8.40
  -5   1  -1   53.58    7.46
   5  -1   1   70.53    4.13
   5  -1   1   77.70    4.93
  -6   1  -1    5.12    0.52
  -6   1  -1    4.67    1.84
   6  -1   1    3.80    1.43
  -7   1  -1   15.17    1.02
  -7   1  -1   15.19    1.98
  -8   0   1    1.89    3.57
  -8   0   1    1.26    1.01
   7   0  -1    6.98    3.30
  -7   0   1    6.02    0.55
  -7   0   1    6.01    2.39
  -7   0   1    4.61    1.68
   6   0  -1   21.50    4.66
   6   0  -1   22.27    1.95
   6   0  -1   24.22    2.59
  -6   0   1   26.40    3.54
  -6   0   1   26.19    3.24
  -6   0   1   23.78    2.32
  -6   0   1   25.90    1.80
   5   0  -1   58.39    3.55
   5   0  -1   57.12    6.37
   5   0  -1   60.90    4.04
   5   0  -1   71.19    9.23
  -5   0   1   59.91    3.97
  -5   0   1   55.30    7.49
   4   0  -1   24.90    3.51
   4   0  -1   17.25    3.58
   4   0  -1   19.26    1.45
   4   0  -1   25.36    5.62
   4   0  -1   17.87    2.03
  -4   0   1   21.56    2.27
  -4   0   1   18.72    4.63
  -4   0   1   20.31    1.83
   3   0  -1   35.54    2.20
   3   0  -1   33.14    5.22
   3   0  -1   31.81    2.20
   3   0  -1   34.16    3.87
  -3   0   1   43.20    3.22
  -3   0   1   40.22    2.91
  -3   0   1   40.09    4.79
  -3   0   1   40.04    4.35
  -3   0   1   38.40    2.51
   2   0  -1   50.29    4.18
   2   0  -1   45.66    5.37
  -2   0   1   45.63    2.92
  -2   0   1   49.93    3.16
  -2   0   1   43.31    4.06
  -2   0   1   49.55    3.22
   1   0  -1  210.85   12.74
   1   0  -1  207.32   12.27
  -1   0   1  232.66   12.28
  -1   0   1  233.12   12.30
  -1   0   1  227.49   12.72
   0   0  -1  219.09   12.69
   0   0  -1  229.44   13.01
   0   0   1  240.03   12.68
   0   0   1  237.55   12.93
  -1   0  -1  899.25   49.20
  -1   0  -1  928.99   48.86
   1   0   1  850.27   48.68
   1   0   1  895.63   49.13
  -2   0  -1  804.45   44.39
  -2   0  -1  760.00   45.42
  -2   0  -1  891.08   45.32
  -2   0  -1  744.28   44.52
   2   0   1  907.26   44.25
   2   0   1  837.45   45.38
   2   0   1  746.55   46.25
  -3   0  -1  138.90    7.60
  -3   0  -1  132.74    7.31
  -3   0  -1  124.18    8.94
   3   0   1  119.45    8.68
   3   0   1  119.16   10.12
   3   0   1  123.69    7.04
  -4   0  -1   15.62    4.21
  -4   0  -1   14.47    1.73
  -4   0  -1   15.64    2.10
   4   0   1   14.77    1.24
   4   0   1   11.58    4.08
   4   0   1   12.25    2.99
   4   0   1   13.86    1.91
   4   0   1   13.83    2.98
  -5   0  -1   32.63    6.20
  -5   0  -1   38.56    3.13
   5   0   1   52.02    6.05
   5   0   1   46.70    3.34
   5   0   1   44.46    2.73
  -6   0  -1   11.23    1.09
  -6   0  -1   12.51    2.63
  -6   0  -1   12.59    2.10
   6   0   1    7.05    1.09
   6   0   1    7.01    1.43
   6   0   1    9.10    3.72
   6   0   1    9.41    5.06
  -7   0  -1    3.52    0.35
  -7   0  -1    2.72    1.64
   7   0   1    5.40    2.87
  -8   0  -1   15.38    1.82
  -7   1   1    7.21    1.67
  -7   1   1    7.90    0.59
   6  -1  -1   17.42    2.66
   6  -1  -1   25.68    5.39
  -6   1   1   19.13    1.20
  -6   1   1   19.36    2.99
  -6   1   1   21.69    3.15
   5  -1  -1   75.18    7.89
   5  -1  -1   98.81   11.65
   5  -1  -1   81.99    5.18
   5  -1  -1   74.12    4.54
  -5   1   1   65.61    8.62
  -5   1   1   78.30    8.53
   4  -1  -1   46.56    7.44
   4  -1  -1   43.83    2.60
   4  -1  -1   38.42    5.08
  -4   1   1   43.15    3.03
  -4   1   1   40.13    6.61
  -4   1   1   39.95    2.82
   3  -1  -1  235.25   18.13
   3  -1  -1  235.96   16.04
   3  -1  -1  243.68   14.00
  -3   1   1  269.17   14.78
  -3   1   1  250.05   14.14
  -3   1   1  280.77   14.34
  -3   1   1  238.03   17.18
  -3   1   1  279.54   16.33
   2  -1  -1  206.47   13.20
   2  -1  -1  245.48   11.72
   2  -1  -1  194.13   14.57
  -2   1   1  205.14   14.14
  -2   1   1  218.90   11.90
  -2   1   1  200.58   13.22
  -2   1   1  221.18   11.88
  -2   1   1  207.23   11.78
   1  -1  -1  207.11   13.08
  -1   1   1  218.50   12.15
  -1   1   1  229.60   12.16
  -1   1   1  231.47   13.14
   0   1   1   81.53    4.95
   0   1   1   81.15    4.54
   0   1   1   82.40    4.94
   0   1   1   81.60    4.52
  -1  -1  -1  147.07    8.10
   1   1   1  136.84    8.11
   1   1   1  145.91    8.06
  -2  -1  -1  340.50   18.87
   2   1   1  338.99   19.21
   2   1   1  342.75   19.18
   2   1   1  334.17   18.80
  -3  -1  -1  145.53    9.11
  -3  -1  -1  142.32    7.70
  -3  -1  -1  137.88    9.08
  -3  -1  -1  138.60    8.02
   3   1   1  117.43    7.40
   3   1   1  142.73    8.72
   3   1   1  115.69    9.64
   3   1   1  125.78    7.64
   3   1   1  135.64    7.34
  -4  -1  -1   16.44    3.98
  -4  -1  -1   16.39    4.02
  -4  -1  -1   23.44    1.99
   4   1   1   18.62    1.29
   4   1   1   15.26    1.71
   4   1   1   23.56    4.50
   4   1   1   17.92    2.90
  -5  -1  -1    7.28    3.77
  -5  -1  -1    5.21    1.31
   5   1   1    0.66    1.74
   5   1   1    2.53    2.85
   5   1   1    4.20    0.68
  -6  -1  -1   29.63    3.22
  -6  -1  -1   25.98    2.18
  -6  -1  -1   27.17    2.65
  -6  -1  -1   28.07    3.67
   6   1   1   26.57    2.36
   6   1   1   28.82    2.07
   6   1   1   40.87    5.59
   6   1   1   41.14    7.75
  -7  -1  -1   11.82    2.65
  -7  -1  -1   12.21    1.45
  -7  -1  -1   12.70    2.01
   7   1   1   16.82    3.96
  -8  -1  -1    4.87    1.23
  -7   2   1    0.81    1.24
  -7   2   1    1.11    0.30
  -7   2   1   -1.51    3.96
   6  -2  -1    6.08    1.62
  -6   2   1    5.62    1.82
  -6   2   1    6.09    0.57
   5  -2  -1   14.25    2.02
   5  -2  -1   10.87    5.15
   5  -2  -1   11.57    0.95
  -5   2   1   16.83    5.17
  -5   2   1   15.71    0.94
  -5   2   1   12.07    5.20
  -5   2   1   21.74    2.51
   4  -2  -1   15.36    2.61
   4  -2  -1   14.99    1.38
   4  -2  -1   21.50    6.20
  -4   2   1   13.11    4.66
  -4   2   1   16.20    4.45
   3  -2  -1   14.51    1.20
   3  -2  -1   14.55    2.18
   3  -2  -1   14.35    4.55
  -3   2   1   12.79    2.45
  -3   2   1   13.02    3.67
  -3   2   1   16.27    3.54
  -3   2   1   13.89    1.18
  -3   2   1   14.96    4.18
   2  -2  -1  357.70   19.91
   2  -2  -1  361.86   23.86
  -2   2   1  374.37   22.13
  -2   2   1  367.45   21.14
  -2   2   1  357.55   19.91
  -2   2   1  384.93   21.96
  -2   2   1  362.79   23.09
  -2   2   1  352.54   20.53
   1  -2  -1  249.77   17.61
  -1   2   1  334.10   16.97
  -1   2   1  272.59   17.75
  -1   2   1  336.05   17.96
  -1   2   1  308.77   16.44
   0   2   1  117.33    7.18
   0   2   1  110.20    7.09
   0   2   1  116.39    6.34
  -1  -2  -1  306.64   15.87
   1   2   1  224.27   14.72
   1   2   1  283.78   14.63
   1   2   1  252.58   14.72
  -2  -2  -1   54.54    5.63
  -2  -2  -1   49.05    4.81
  -2  -2  -1   60.68    3.99
   2   2   1   65.50    3.46
   2   2   1   64.17    3.42
   2   2   1   58.24    3.81
   2   2   1   56.34    3.64
  -3  -2  -1   19.06    3.79
  -3  -2  -1   22.26    2.57
  -3  -2  -1   21.79    2.14
   3   2   1   26.71    2.07
   3   2   1   24.01    1.40
   3   2   1   25.06    2.25
   3   2   1   23.18    3.19
   3   2   1   23.07    1.55
  -4  -2  -1  108.02    6.83
  -4  -2  -1   95.64    6.25
  -4  -2  -1   86.79    7.98
   4   2   1  113.19    5.78
   4   2   1  102.71    7.34
   4   2   1  126.01    9.24
   4   2   1  108.09    5.88
   4   2   1  107.62    5.92
   4   2   1   94.62    5.82
  -5  -2  -1   19.74    4.45
  -5  -2  -1   26.38    2.42
  -5  -2  -1   18.57    4.53
   5   2   1   21.05    1.52
   5   2   1   23.19    3.34
   5   2   1   30.39    5.45
  -6  -2  -1   15.55    2.78
  -6  -2  -1   14.03    2.12
   6   2   1   14.75    1.37
   6   2   1   19.78    3.93
   6   2   1   19.88    5.01
  -7  -2  -1   13.41    1.60
  -7  -2  -1   11.21    2.68
   7   2   1   19.09    3.84
  -8  -2  -1    1.04    0.55
   8   2   1    0.72    0.23
  -6   3   1   -1.49    4.90
  -6   3   1    0.03    0.32
  -6   3   1    0.96    1.46
   5  -3  -1   10.22    0.76
   5  -3  -1    9.22    1.82
  -5   3   1    7.91    0.68
  -5   3   1    4.60    6.05
  -5   3   1    6.00    1.87
   4  -3  -1   42.42    2.40
   4  -3  -1   42.68    3.82
  -4   3   1   41.13    2.36
  -4   3   1   39.69    6.08
  -3   3   1   15.85    1.32
  -3   3   1   15.08    3.71
  -3   3   1   15.63    4.46
  -3   3   1   14.10    5.02
  -3   3   1   13.97    2.71
  -2   3   1   28.65    4.45
  -2   3   1   23.29    1.59
  -2   3   1   25.84    3.88
  -2   3   1   28.67    4.84
  -2   3   1   22.43    3.06
  -2   3   1   24.44    4.87
  -1   3   1   52.27    4.15
  -1   3   1   56.05    3.14
  -1   3   1   56.89    5.81
  -1   3   1   60.01    5.18
  -1   3   1   49.84    4.78
   0  -3  -1   36.11    3.64
   0   3   1   34.48    1.85
   0   3   1   24.61    3.54
   0   3   1   29.14    1.92
   0   3   1   39.15    3.52
   0   3   1   34.86    2.67
   0   3   1   32.33    3.35
   0   3   1   29.60    1.90
  -1  -3  -1  138.89    8.92
  -1  -3  -1  119.69    8.26
   1   3   1  116.52    7.57
   1   3   1  131.30    7.36
   1   3   1  144.04    7.88
   1   3   1  135.30    7.67
  -2  -3  -1  198.97   12.32
  -2  -3  -1  193.79   12.65
   2   3   1  193.44   11.14
   2   3   1  199.78   10.99
   2   3   1  191.74   10.78
  -3  -3  -1  190.10   11.42
  -3  -3  -1  203.18   13.08
   3   3   1  209.47   11.71
   3   3   1  203.52   11.17
   3   3   1  209.16   11.48
   3   3   1  200.18   11.20
  -4  -3  -1   26.91    4.61
  -4  -3  -1   23.56    2.19
   4   3   1   20.03    1.24
   4   3   1   16.32    2.20
   4   3   1   19.78    1.44
   4   3   1   22.35    2.08
   4   3   1   18.44    1.50
  -5  -3  -1   70.89    7.65
  -5  -3  -1   86.38    5.36
  -5  -3  -1   75.17    7.64
   5   3   1   81.19    4.62
   5   3   1   80.71    6.26
   5   3   1   94.59    5.27
  -6  -3  -1   10.56    1.91
  -6  -3  -1   14.73    2.59
  -6  -3  -1   13.75    4.75
   6   3   1   12.34    2.86
   6   3   1   13.46    1.13
   6   3   1   13.05    0.82
  -7  -3  -1   19.75    2.15
  -7  -3  -1   22.53    3.19
  -7  -3  -1   20.45    3.12
   7   3   1   28.46    3.76
   7   3   1   26.10    1.40
  -8  -3  -1    1.83    0.80
  -8  -3  -1    0.51    1.61
   8   3   1    0.24    0.16
   8   3   1    0.52    0.16
  -6   4   1    4.45    3.74
   5  -4  -1    1.39    0.39
  -5   4   1    0.85    4.67
  -5   4   1    1.66    0.36
  -5   4   1    0.17    5.85
   4  -4  -1   18.79    1.13
  -4   4   1   14.80    6.32
  -4   4   1   19.15    7.29
  -4   4   1   15.02    1.03
  -3   4   1   22.85    3.92
  -3   4   1   19.36    5.70
  -3   4   1   14.86    4.23
  -3   4   1   13.13    1.37
  -3   4   1   17.18    5.02
  -3   4   1   18.21    2.69
  -3   4   1   11.65    2.79
  -2   4   1   32.20    5.97
  -2   4   1   25.37    4.29
  -2   4   1   19.18    2.93
  -2   4   1   19.28    4.16
  -2   4   1   14.25    5.73
  -2   4   1   20.74    1.55
  -1   4   1   90.44    8.24
  -1   4   1   89.47    6.89
  -1   4   1   83.90    4.67
  -1   4   1   79.67    5.65
  -1   4   1   70.62    6.93
  -1   4   1   84.45    7.11
   0   4   1   53.66    5.58
   0   4   1   49.38    3.83
   0   4   1   56.02    3.08
   0   4   1   52.49    3.18
   0   4   1   56.00    5.10
   0   4   1   58.71    4.87
   1   4   1    4.16    0.42
   1   4   1    3.20    0.65
   1   4   1    6.84    1.75
   1   4   1    3.46    2.03
   1   4   1    4.39    0.86
   1   4   1    7.37    1.38
   1   4   1    6.26    0.96
  -2  -4  -1  118.22    9.01
  -2  -4  -1  114.83    8.37
   2   4   1  122.80    6.92
   2   4   1  111.14    7.53
   2   4   1  117.27    6.62
   2   4   1  124.70    7.07
  -3  -4  -1   31.31    5.10
   3   4   1   31.70    2.51
   3   4   1   33.53    2.14
   3   4   1   32.56    2.84
   3   4   1   31.57    2.08
   3   4   1   32.90    3.67
   3   4   1   32.04    2.63
  -4  -4  -1   78.23    5.40
  -4  -4  -1   82.46    7.85
   4   4   1   87.45    5.01
   4   4   1   87.69    5.52
   4   4   1   91.97    5.06
   4   4   1   88.29    5.46
  -5  -4  -1   10.26    1.75
  -5  -4  -1    8.22    3.72
   5   4   1    4.74    1.05
   5   4   1    8.70    1.77
   5   4   1    6.78    1.01
  -6  -4  -1   16.63    2.61
  -6  -4  -1   14.29    4.82
  -6  -4  -1   20.95    2.71
   6   4   1   24.29    1.26
   6   4   1   23.39    1.25
  -7  -4  -1   12.68    2.38
  -7  -4  -1   15.05    2.56
  -8  -4  -1    5.98    1.78
  -8  -4  -1    7.61    1.04
  -8  -4  -1    7.26    1.79
   5  -5  -1    1.30    0.30
  -5   5   1    0.32    4.07
  -5   5   1   -0.01    3.39
   4  -5  -1    9.72    0.85
  -4   5   1    4.61    5.02
  -4   5   1   10.06    5.82
   3  -5  -1   51.40    2.91
  -3   5   1   47.86    6.18
  -3   5   1   48.07    3.18
  -3   5   1   50.92    7.96
  -3   5   1   48.66    8.35
  -3   5   1   54.18    4.65
  -3   5   1   62.51    8.92
  -2   5   1   15.61    3.64
  -2   5   1   17.93    5.45
  -2   5   1   15.22    4.83
  -2   5   1   17.99    5.74
  -2   5   1   13.90    4.15
  -2   5   1   11.59    2.84
  -2   5   1   11.33    3.10
  -2   5   1   13.06    1.38
  -2   5   1   13.31    2.52
  -2   5   1   11.46    4.22
  -1   5   1    3.58    3.38
  -1   5   1    2.37    2.17
  -1   5   1    0.59    2.42
  -1   5   1    1.34    0.58
   0   5   1  122.06    9.49
   0   5   1  120.68    7.23
   0   5   1  146.37   10.91
   0   5   1  133.50    7.18
   1   5   1   15.32    2.59
   1   5   1   15.01    1.33
   1   5   1   16.50    1.49
   1   5   1   15.07    2.85
   1   5   1   18.51    2.94
   1   5   1   15.25    1.05
   1   5   1   16.39    2.14
   2   5   1    2.63    2.01
   2   5   1    2.06    1.02
   2   5   1    1.51    0.92
   2   5   1    2.22    1.00
   2   5   1    2.63    0.67
  -3  -5  -1   79.16    7.49
   3   5   1   87.78    4.83
   3   5   1   81.27    5.88
   3   5   1   82.81    5.49
   3   5   1   84.06    5.24
  -4  -5  -1   71.17    7.59
   4   5   1   61.09    4.47
   4   5   1   61.47    3.97
   4   5   1   68.79    3.96
   4   5   1   68.34    5.29
  -5  -5  -1   65.56    8.20
   5   5   1   80.53    4.78
   5   5   1   83.01    4.78
   5   5   1   72.31    6.19
   5   5   1   84.32    5.27
  -6  -5  -1   19.92    2.77
  -7  -5  -1   20.17    2.77
  -8  -5  -1    2.75    1.56
   4  -6  -1    0.40    0.32
  -4   6   1   -0.71    3.60
   3  -6  -1   18.50    1.26
  -3   6   1   20.28    3.39
  -3   6   1   19.29    5.35
  -3   6   1   15.39    6.58
  -3   6   1   21.13    2.83
  -2   6   1   66.82    5.51
  -2   6   1   60.73   10.04
  -2   6   1   65.89    6.18
  -2   6   1   69.78    8.02
  -2   6   1   67.38    5.43
  -2   6   1   68.55    8.69
  -1   6   1    9.27    5.31
  -1   6   1    7.47    2.32
  -1   6   1    3.73    5.13
  -1   6   1    9.65    3.33
  -1   6   1    8.87    2.40
  -1   6   1    8.34    3.06
  -1   6   1   10.06    3.88
  -1   6   1    7.83    0.95
   0   6   1   93.32    8.14
   0   6   1   79.09    4.87
   0   6   1   85.39    7.68
   0   6   1   91.22    8.87
   1   6   1   42.73    2.51
   1   6   1   42.27    4.59
   2   6   1    0.86    0.95
   2   6   1    1.61    2.45
   2   6   1    0.93    0.72
   2   6   1    1.58    1.31
   3   6   1   73.40    4.62
   3   6   1   69.55    4.16
   3   6   1   66.69    5.67
   4   6   1   93.89    5.28
   4   6   1   84.05    6.77
   4   6   1   82.21    6.55
   4   6   1   92.43    5.78
  -5  -6  -1   60.74    4.60
  -5  -6  -1   57.08    7.63
   5   6   1   50.33    5.26
   5   6   1   59.58    3.73
   5   6   1   59.47    4.04
   5   6   1   56.57    4.24
  -6  -6  -1   40.00    3.74
   6   6   1   36.23    2.98
   6   6   1   33.61    4.60
  -7  -6  -1    6.61    2.14
  -8  -6  -1    2.89    1.49
   3  -7  -1    1.25    0.31
  -3   7   1    0.96    1.48
  -3   7   1    1.12    3.51
  -2   7   1   16.58    2.95
  -2   7   1   10.37    2.36
  -2   7   1   11.40    3.07
  -2   7   1    6.74    4.60
  -2   7   1   19.61    4.73
  -1   7   1   14.33    3.09
  -1   7   1   14.50    5.73
  -1   7   1   12.89    3.47
  -1   7   1   21.70    4.86
  -1   7   1   10.21    2.49
   0   7   1   19.88    4.26
   0   7   1   13.11    1.35
   0   7   1   12.19    2.34
   0   7   1   11.49    1.03
   0   7   1   14.24    3.42
   0   7   1   12.40    2.83
   1   7   1  116.72    6.48
   1   7   1  115.14    7.43
   1   7   1  106.37    6.46
   1   7   1  116.64    8.06
   1   7   1  114.27    8.44
   1   7   1  115.60    6.33
   1   7   1  134.71    9.30
   2   7   1   41.75    4.45
   2   7   1   44.18    2.66
   2   7   1   43.42    2.39
   2   7   1   47.49    3.99
   2   7   1   43.55    2.39
   3   7   1   12.20    2.22
   3   7   1   13.88    1.85
   3   7   1   11.84    1.19
   3   7   1   13.78    1.80
   3   7   1   10.57    1.05
   3   7   1   10.55    2.61
   3   7   1    9.92    2.73
   4   7   1   16.13    2.48
   4   7   1   16.33    2.98
   4   7   1   17.18    2.19
   4   7   1   12.77    1.62
   4   7   1   16.29    1.98
   4   7   1   14.57    1.27
  -5  -7  -1    9.26    2.09
   5   7   1    6.43    2.39
   5   7   1    6.95    1.66
   5   7   1    4.97    1.11
   5   7   1    6.67    0.88
  -6  -7  -1   17.29    2.49
   6   7   1   18.69    2.35
   6   7   1   18.35    1.50
   6   7   1   20.05    3.36
  -7  -7  -1    4.73    1.81
  -7  -7  -1    3.55    1.59
  -8  -7  -1    5.83    1.27
  -2   8   1    4.87    1.55
  -2   8   1    6.70    1.74
  -1   8   1   18.93    2.54
  -1   8   1   25.65    3.44
   0   8   1   12.24    2.81
   0   8   1    9.34    2.83
   0   8   1    7.02    0.74
   0   8   1    8.67    2.34
   0   8   1    5.82    0.51
   1   8   1   13.36    2.45
   1   8   1   10.96    1.02
   1   8   1   10.30    0.63
   1   8   1   10.76    0.65
   1   8   1   14.11    3.23
   2   8   1    9.20    2.43
   2   8   1   12.33    2.89
   2   8   1    7.95    0.85
   3   8   1    0.29    0.64
   3   8   1    0.78    1.28
   3   8   1   -0.13    2.04
   3   8   1    2.19    2.39
   4   8   1   17.16    1.47
   4   8   1   19.02    2.33
   4   8   1   21.42    3.49
   4   8   1   18.24    1.29
   4   8   1   18.52    2.53
   5   8   1   34.36    3.07
   5   8   1   38.41    2.30
   5   8   1   43.00    4.46
   5   8   1   32.85    3.53
  -6  -8  -1    3.32    1.68
   6   8   1    2.97    0.57
   6   8   1    4.86    2.32
   6   8   1    3.20    1.38
  -7  -8  -1    0.32    1.19
  -7  -8  -1    1.58    1.34
   7   8   1    0.77    0.40
   7   8   1    0.43    0.94
   0   9   1   14.09    2.22
   0   9   1   10.10    1.75
   1   9   1    1.23    1.98
   1   9   1    3.99    0.48
   1   9   1    3.66    1.84
   2   9   1    6.16    1.98
   2   9   1   11.28    2.74
   2   9   1    9.51    0.94
   3   9   1    7.66    1.96
   3   9   1    5.93    0.71
   3   9   1   10.28    2.62
   4   9   1    6.39    2.21
   4   9   1    4.80    1.78
   4   9   1    4.53    0.64
   5   9   1    7.12    1.58
   5   9   1    8.67    2.26
  -6  -9  -1    9.33    1.55
   6   9   1   15.09    2.87
   3   9  -2    4.35    1.30
   3   9  -2    5.48    0.58
   3   9  -2    4.46    1.51
   2   9  -2   23.19    1.52
   2   9  -2   26.73    2.72
   6   8  -2    9.53    0.80
   6   8  -2    8.38    1.15
   6   8  -2    6.68    1.23
  -6  -8   2   13.12    1.83
   5   8  -2   48.07    3.44
   5   8  -2   44.83    4.13
   5   8  -2   50.59    3.70
   5   8  -2   49.24    2.80
  -5  -8   2   46.78    3.78
   4   8  -2   21.18    2.95
   4   8  -2   16.14    2.21
   4   8  -2   19.11    1.18
   4   8  -2   15.30    2.19
  -4  -8   2   12.32    2.22
   3   8  -2    0.12    0.63
   3   8  -2   -1.28    1.77
   3   8  -2    0.93    1.89
   3   8  -2   -0.25    1.14
   2   8  -2   16.91    1.40
   2   8  -2   19.59    3.13
   2   8  -2   15.83    2.34
   1   8  -2   18.86    2.42
   1   8  -2   21.10    1.14
   1   8  -2   19.76    1.49
   1   8  -2   18.32    3.03
   1   8  -2   20.17    1.14
   0   8  -2    4.53    2.11
   0   8  -2    3.67    0.58
   0   8  -2    3.50    0.28
   0   8  -2    1.64    2.28
   0   8  -2    3.17    1.64
  -1   8  -2   10.15    2.13
  -1   8  -2   10.64    0.71
  -1   8  -2    9.61    0.61
   7   7  -2   16.30    1.22
  -7  -7   2   13.07    1.93
   6   7  -2    1.53    0.57
   6   7  -2    0.51    1.43
   6   7  -2    1.51    1.10
  -6  -7   2    3.36    1.82
   5   7  -2    8.69    1.62
   5   7  -2    8.81    1.96
   5   7  -2    4.81    2.13
   5   7  -2    4.92    0.75
  -5  -7   2    4.85    2.01
   4   7  -2   60.58    4.82
   4   7  -2   64.97    4.40
   4   7  -2   59.35    3.70
   4   7  -2   70.25    5.53
  -4  -7   2   61.13    4.85
   3   7  -2   26.70    3.72
   3   7  -2   22.97    1.69
   3   7  -2   23.35    2.82
   3   7  -2   25.15    1.85
   3   7  -2   26.04    2.65
   2   7  -2    1.92    0.39
   2   7  -2    1.00    2.01
   2   7  -2    1.48    2.09
   2   7  -2    1.71    0.72
   2   7  -2    1.30    0.19
   2   7  -2    1.72    0.18
   2   7  -2    2.02    1.64
   1   7  -2    7.41    2.55
   1   7  -2    5.96    0.52
   1   7  -2    6.96    0.89
   1   7  -2    5.79    2.98
   1   7  -2    8.78    2.92
   1   7  -2    4.14    2.08
   0   7  -2   52.85    4.51
   0   7  -2   53.87    3.25
   0   7  -2   65.44    6.97
   0   7  -2   49.37    5.42
   0   7  -2   53.62    5.34
  -1   7  -2    1.71    2.66
  -1   7  -2    2.14    1.90
  -1   7  -2    3.06    2.24
  -1   7  -2    4.59    3.05
  -1   7  -2    2.03    0.61
  -2   7  -2    4.10    2.63
  -2   7  -2    2.67    0.46
  -2   7  -2    0.61    1.50
  -2   7  -2    1.89    2.03
  -7  -6   2    2.88    1.70
   6   6  -2    9.08    1.52
  -6  -6   2   12.63    2.31
   5   6  -2   17.58    2.30
   5   6  -2   12.31    3.15
  -5  -6   2   16.37    2.55
   4   6  -2    7.91    1.06
   4   6  -2    8.41    1.41
   4   6  -2    9.38    1.73
   4   6  -2    6.43    2.21
   4   6  -2    7.87    1.70
  -4  -6   2   12.90    2.34
   3   6  -2   15.23    2.36
   3   6  -2   14.95    2.01
   3   6  -2   12.72    0.73
   3   6  -2   12.82    0.73
   3   6  -2   12.82    2.70
   3   6  -2    9.93    1.73
   2   6  -2   78.29    6.48
   2   6  -2   67.61    4.85
   2   6  -2   61.28    5.56
   2   6  -2   68.38    4.05
   2   6  -2   66.98    4.63
   2   6  -2   68.83    3.79
   2   6  -2   72.56    4.66
   1   6  -2   37.71    2.42
   1   6  -2   38.34    2.35
   1   6  -2   40.24    5.35
   1   6  -2   34.18    4.71
   1   6  -2   35.69    3.80
   1   6  -2   35.55    3.98
   0   6  -2   12.99    2.79
   0   6  -2   16.45    3.50
   0   6  -2   13.65    2.28
   0   6  -2   18.66    4.63
   0   6  -2   17.62    4.74
   0   6  -2   16.80    1.45
   0   6  -2   20.08    5.14
   0   6  -2   16.06    1.42
  -1   6  -2    1.87    4.21
  -1   6  -2    1.68    0.67
  -1   6  -2    3.45    3.27
  -1   6  -2    0.59    2.06
  -1   6  -2    2.58    3.24
  -2   6  -2    0.86    3.13
  -2   6  -2    1.67    2.01
  -2   6  -2    2.06    0.62
  -2   6  -2    4.19    3.22
  -2   6  -2    4.22    4.63
   2  -6   2    1.07    0.41
  -3   6  -2   33.33    1.93
  -3   6  -2   27.76    6.12
  -3   6  -2   28.95    4.39
   3  -6   2   31.27    1.86
   4  -6   2   39.86    2.24
  -8  -5   2    1.55    0.76
  -7  -5   2    3.31    1.77
  -7  -5   2    1.88    1.77
  -6  -5   2    7.58    2.11
   5   5  -2   26.80    2.84
   5   5  -2   28.65    2.71
   5   5  -2   31.85    2.28
  -5  -5   2   22.72    5.70
  -5  -5   2   24.39    3.30
   4   5  -2    6.67    1.11
   4   5  -2    5.40    1.54
   3   5  -2   13.54    1.91
   3   5  -2   13.95    1.48
   3   5  -2   14.35    2.49
   2   5  -2   25.48    1.60
   2   5  -2   23.22    3.56
   2   5  -2   28.70    2.42
   1   5  -2   43.71    5.78
   1   5  -2   47.04    2.61
   1   5  -2   40.17    5.04
   1   5  -2   40.90    3.14
   0   5  -2   43.00    6.45
   0   5  -2   36.70    2.33
   0   5  -2   34.31    5.24
  -1   5  -2  156.76   13.86
  -1   5  -2  149.95   11.35
  -1   5  -2  152.41   12.56
  -1   5  -2  152.37   10.00
  -1   5  -2  150.72    8.50
  -2   5  -2   39.56    6.48
  -2   5  -2   37.24    7.31
  -2   5  -2   35.19    3.78
  -2   5  -2   36.40    4.91
  -2   5  -2   31.14    6.97
   2  -5   2   31.51    1.98
  -3   5  -2    4.22    4.88
  -3   5  -2    3.48    3.32
  -3   5  -2    4.82    2.13
   3  -5   2    4.24    0.51
  -4   5  -2   18.57    5.10
  -4   5  -2   20.39    3.31
   4  -5   2   22.11    1.35
  -8  -4   2    1.43    1.56
  -8  -4   2    3.63    0.81
  -7  -4   2   30.67    3.62
  -7  -4   2   31.13    3.42
   6   4  -2   12.13    0.74
   6   4  -2   12.03    0.73
   6   4  -2   12.03    2.17
  -6  -4   2    9.67    2.36
  -6  -4   2   12.59    2.30
   5   4  -2   14.25    1.57
   5   4  -2   14.78    2.59
   5   4  -2   14.95    0.86
   5   4  -2   14.42    2.06
  -5  -4   2   13.53    4.62
  -5  -4   2   19.49    2.51
   4   4  -2   11.15    1.24
   4   4  -2    9.62    2.07
   4   4  -2   11.32    1.88
  -4  -4   2   13.32    4.20
   3   4  -2    6.90    0.69
   3   4  -2    6.66    1.47
   3   4  -2    3.89    1.68
   3   4  -2    7.16    1.08
  -3  -4   2    8.02    3.38
   2   4  -2  143.96    8.56
   2   4  -2  140.63    8.80
   2   4  -2  130.04    9.58
   2   4  -2  146.59    8.33
   2   4  -2  147.20    7.98
   2   4  -2  141.96   10.64
   2   4  -2  140.77    7.80
   1   4  -2  120.86    7.28
   1   4  -2  133.74    6.68
   1   4  -2  118.00    8.37
   1   4  -2  114.54    7.06
   1   4  -2  108.39    8.75
   1   4  -2  123.41    9.81
   0   4  -2   46.34    3.05
   0   4  -2   43.37    2.57
   0   4  -2   34.54    4.71
   0   4  -2   42.60    2.92
   0   4  -2   48.19    6.12
   0   4  -2   44.98    4.88
  -1   4  -2  138.51   11.58
  -1   4  -2  162.57   13.44
  -1   4  -2  164.79    8.65
  -1   4  -2  145.11    8.51
  -1   4  -2  154.95   11.51
  -2   4  -2  115.71   10.66
  -2   4  -2  118.38    6.82
  -2   4  -2  133.81   12.35
  -3   4  -2    1.61    0.35
  -3   4  -2    1.47    3.20
  -3   4  -2    4.25    3.27
  -3   4  -2    1.95    0.74
  -3   4  -2    1.12    1.97
   3  -4   2    1.92    0.43
  -4   4  -2   35.88    2.14
  -4   4  -2   30.87    4.74
   4  -4   2   39.63    2.18
  -5   4  -2    3.63    4.59
  -5   4  -2    9.54    0.73
   5  -4   2   10.17    0.76
  -8  -3   2    6.28    1.96
  -8  -3   2    9.13    1.15
   7   3  -2   24.98    1.49
   7   3  -2   24.62    3.55
  -7  -3   2   28.33    3.81
  -7  -3   2   28.18    2.25
   6   3  -2    0.51    0.76
   6   3  -2    0.12    0.53
   6   3  -2    0.70    1.80
  -6  -3   2   -0.50    1.41
  -6  -3   2    0.43    3.73
  -6  -3   2    1.04    1.97
  -6  -3   2    0.18    3.77
   5   3  -2   12.77    1.42
   5   3  -2   12.35    1.06
   5   3  -2   11.49    2.75
  -5  -3   2    8.23    3.77
  -5  -3   2   12.19    2.02
  -5  -3   2   13.23    4.93
   4   3  -2   11.22    0.98
   4   3  -2   13.38    1.32
   4   3  -2   12.48    2.58
   4   3  -2   12.08    1.70
   4   3  -2   15.19    1.92
  -4  -3   2   19.24    4.57
   3   3  -2   33.29    2.80
   3   3  -2   29.31    2.06
   3   3  -2   31.42    1.87
   3   3  -2   35.27    2.65
   3   3  -2   33.98    2.13
  -3  -3   2   29.46    2.53
  -3  -3   2   29.12    4.91
   2   3  -2   79.69    4.38
   2   3  -2   83.93    4.72
   2   3  -2   70.77    5.26
   2   3  -2   66.53    6.69
   2   3  -2   70.17    4.93
  -2  -3   2   69.72    4.83
  -2  -3   2   85.96    6.41
   1   3  -2  610.18   34.18
   1   3  -2  611.25   33.22
   1   3  -2  552.29   32.81
   1   3  -2  606.68   32.74
   1   3  -2  632.52   33.04
   1   3  -2  599.54   35.62
   0   3  -2   27.05    4.44
   0   3  -2   27.74    3.89
   0   3  -2   33.07    2.39
   0   3  -2   35.74    2.01
   0   3  -2   40.95    3.85
   0   3  -2   33.42    2.56
  -1   3  -2   -0.13    0.77
  -1   3  -2    0.11    1.97
  -1   3  -2    0.71    0.79
  -1   3  -2    0.08    1.68
  -1   3  -2    0.83    2.29
  -1   3  -2    0.49    0.47
  -2   3  -2   11.46    3.79
  -2   3  -2   10.70    3.08
  -2   3  -2   11.37    1.14
  -2   3  -2   15.55    1.36
  -3   3  -2    0.14    2.87
  -3   3  -2    1.74    2.88
  -3   3  -2    2.52    0.67
  -4   3  -2    1.68    3.23
  -4   3  -2    6.33    1.76
  -4   3  -2    4.47    0.49
   4  -3   2    4.41    0.49
   4  -3   2    4.94    2.05
  -5   3  -2   31.00    3.24
  -5   3  -2   33.26    1.98
   5  -3   2   36.08    1.96
   5  -3   2   28.70    3.51
  -6   3  -2    3.60    1.28
  -6   3  -2    4.04    0.41
   8   2  -2    1.16    0.23
  -8  -2   2    1.12    0.38
  -8  -2   2    1.76    1.83
   7   2  -2    0.35    1.91
  -7  -2   2    1.32    2.26
  -7  -2   2    0.94    0.95
   6   2  -2   57.47    3.55
   6   2  -2   70.35    6.71
  -6  -2   2   62.44    5.04
  -6  -2   2   48.62    7.24
  -6  -2   2   59.62    3.83
  -6  -2   2   62.90    4.41
   5   2  -2    1.66    0.70
   5   2  -2    0.93    0.54
   5   2  -2    1.05    0.76
   5   2  -2    0.95    1.79
   5   2  -2    8.81    7.22
  -5  -2   2    2.41    3.48
  -5  -2   2    1.88    4.19
  -5  -2   2    1.15    1.32
   4   2  -2    7.53    1.86
   4   2  -2    8.26    1.15
   4   2  -2    9.20    0.83
   4   2  -2    7.85    1.04
   4   2  -2    4.99    2.01
  -4  -2   2    7.46    3.36
  -4  -2   2    7.56    4.00
  -4  -2   2    4.92    1.34
   1   2  -2   51.83    4.34
   1   2  -2   45.20    5.33
   1   2  -2   52.24    3.59
   1   2  -2   55.19    3.33
   0   2  -2  105.77    5.95
   0   2  -2  105.16    6.16
   0   2  -2   98.28    5.67
   0   2  -2  107.84    7.33
   0   2  -2   98.42    8.12
  -1   2  -2   10.17    1.40
  -1   2  -2    9.59    0.83
  -1   2  -2    9.97    1.29
  -1   2  -2    9.18    2.34
  -1   2  -2   10.83    2.91
  -1   2  -2   12.03    2.57
   1  -2   2    8.66    2.78
  -2   2  -2   79.09    4.47
  -2   2  -2   85.52    4.88
  -2   2  -2   72.98    6.24
  -2   2  -2   74.13    4.66
  -2   2  -2   84.08    8.09
   2  -2   2   78.45    4.48
   2  -2   2   79.48    8.09
  -3   2  -2   89.99    5.02
  -3   2  -2   83.16    8.74
  -3   2  -2   79.04    4.84
  -3   2  -2   68.98    6.83
   3  -2   2   83.69    9.54
   3  -2   2   75.57    5.28
  -4   2  -2   13.32    3.81
   4  -2   2   16.40    5.69
   4  -2   2   14.02    2.01
  -5   2  -2    6.22    3.74
  -5   2  -2    9.58    2.02
  -5   2  -2   12.35    0.89
   5  -2   2   12.82    0.84
   5  -2   2    7.57    1.90
   5  -2   2   13.95    5.65
  -6   2  -2   14.32    2.10
  -6   2  -2   15.43    1.05
   6  -2   2   13.19    1.93
  -7   2  -2    2.72    1.06
  -7   2  -2    3.80    0.44
  -8  -1   2   17.53    2.05
  -8  -1   2   15.46    2.47
   7   1  -2   33.26    4.94
  -7  -1   2   29.72    2.07
  -7  -1   2   29.43    3.24
  -7  -1   2   30.42    3.81
   6   1  -2    2.63    2.58
   6   1  -2    4.07    1.12
   6   1  -2    4.58    0.85
  -6  -1   2    3.85    0.98
  -6  -1   2    4.13    4.53
  -6  -1   2    5.47    2.28
  -6  -1   2    3.27    1.34
  -6  -1   2    4.42    1.78
   4   1  -2   69.57    6.73
   4   1  -2   75.03    4.60
   4   1  -2   75.50    4.34
   4   1  -2   83.67    6.46
   4   1  -2   74.79    4.46
  -4  -1   2   75.20    7.55
  -4  -1   2   80.35    4.88
  -4  -1   2   75.47    7.10
  -4  -1   2   80.98    5.31
   1   1  -2  236.40   14.26
   1   1  -2  242.16   13.79
   1   1  -2  264.82   14.53
  -1  -1   2  245.64   13.81
   0   1  -2  638.30   35.44
   0   1  -2  650.82   36.22
   0  -1   2  667.85   35.45
   0  -1   2  631.59   36.03
  -1   1  -2  458.94   23.04
  -1   1  -2  387.60   23.09
  -1   1  -2  435.26   24.35
  -1   1  -2  427.33   23.18
   1  -1   2  390.16   24.03
  -2   1  -2   73.83    4.33
  -2   1  -2   72.83    6.85
  -2   1  -2   73.33    6.10
  -2   1  -2   74.97    4.57
  -2   1  -2   68.97    4.06
   2  -1   2   72.31    4.11
   2  -1   2   73.08    7.17
   2  -1   2   73.17    5.83
  -3   1  -2   70.94    7.68
  -3   1  -2   80.18    5.13
  -3   1  -2   73.56    6.87
  -3   1  -2   78.71    4.91
   3  -1   2   78.79    8.49
   3  -1   2   86.13    4.63
   3  -1   2   93.68    5.24
  -4   1  -2    8.25    3.51
  -4   1  -2    7.79    3.71
  -4   1  -2    6.87    1.19
   4  -1   2    3.18    3.19
   4  -1   2    4.00    1.37
   4  -1   2    4.36    0.82
  -5   1  -2    8.75    4.27
  -5   1  -2   15.39    0.97
  -5   1  -2   18.88    2.38
   5  -1   2   16.38    2.70
   5  -1   2   12.24    1.55
   5  -1   2   22.22    6.51
  -6   1  -2   15.04    0.99
  -6   1  -2   14.20    2.14
   6  -1   2    9.68    1.78
  -7   1  -2    9.45    1.69
  -7   1  -2   13.14    0.87
  -8   0   2    3.85    1.02
   7   0  -2    2.62    2.52
  -7   0   2    2.18    2.17
  -7   0   2    5.22    1.76
  -7   0   2    3.09    0.34
   6   0  -2   18.69    1.73
   6   0  -2   20.63    4.57
   6   0  -2   18.98    2.50
  -6   0   2   18.46    2.48
  -6   0   2   21.34    3.44
  -6   0   2   19.18    4.96
  -6   0   2   20.97    1.63
   4   0  -2   32.99    4.03
   4   0  -2   27.63    1.71
   4   0  -2   23.48    5.62
   4   0  -2   26.90    1.72
   4   0  -2   22.15    3.87
   4   0  -2   27.03    2.29
  -4   0   2   20.87    4.74
  -4   0   2   21.83    2.43
  -4   0   2   19.58    4.39
  -4   0   2   21.40    2.16
   3   0  -2   16.48    2.91
   3   0  -2   16.95    1.20
   3   0  -2   11.45    3.58
   3   0  -2   14.33    1.22
  -3   0   2   20.12    3.41
  -3   0   2   18.28    1.69
  -3   0   2   18.02    2.06
  -3   0   2   21.75    4.68
  -3   0   2   17.29    2.34
   2   0  -2  319.39   18.65
   2   0  -2  306.67   17.40
   2   0  -2  329.51   17.34
   2   0  -2  293.27   19.77
  -2   0   2  340.30   18.94
  -2   0   2  318.46   17.69
  -2   0   2  301.51   17.51
  -2   0   2  332.69   18.56
   1   0  -2  250.20   13.74
   1   0  -2  237.51   12.98
  -1   0   2  216.94   13.52
  -1   0   2  229.43   12.97
   0   0  -2  242.30   13.75
   0   0  -2  253.87   14.39
   0   0   2  252.68   13.74
   0   0   2  243.66   14.19
  -1   0  -2  156.16    9.63
  -1   0  -2  162.77   10.34
   1   0   2  178.91   10.20
   1   0   2  183.65    9.61
  -2   0  -2  508.78   26.18
  -2   0  -2  479.98   25.96
   2   0   2  467.77   27.00
   2   0   2  434.00   27.94
   2   0   2  471.04   25.76
  -3   0  -2  302.87   16.86
  -3   0  -2  305.98   16.56
  -3   0  -2  290.97   17.85
   3   0   2  286.39   19.75
   3   0   2  312.89   16.30
   3   0   2  281.52   17.95
  -4   0  -2   79.53    5.44
  -4   0  -2   86.85    5.88
  -4   0  -2   71.28    7.51
   4   0   2   93.50    5.09
   4   0   2   86.66    7.69
   4   0   2   99.71    5.52
   4   0   2   98.26    7.59
   4   0   2  110.17   10.16
  -5   0  -2    5.09    1.31
   5   0   2    7.39    3.18
   5   0   2    8.21    1.50
   5   0   2    4.78    3.86
   5   0   2    6.99    0.92
  -6   0  -2    2.33    2.02
  -6   0  -2    2.76    1.62
  -6   0  -2    0.26    4.16
  -6   0  -2    4.27    0.84
   6   0   2    4.97    1.40
   6   0   2    3.66    1.16
   6   0   2    2.75    3.12
  -7   0  -2   12.62    1.99
  -7   0  -2   15.45    1.02
   7   0   2   18.07    4.42
  -8   0  -2   34.97    2.56
  -7   1   2   21.00    1.24
  -7   1   2   19.09    2.69
   6  -1  -2   18.28    4.44
   6  -1  -2   16.96    2.69
  -6   1   2   17.86    2.47
  -6   1   2   19.61    1.19
  -6   1   2   20.77    3.04
   5  -1  -2    5.07    0.87
   5  -1  -2    5.57    1.39
   5  -1  -2    3.99    3.02
  -5   1   2    2.80    4.28
  -5   1   2    2.87    4.42
  -5   1   2    3.72    0.42
  -5   1   2    4.61    0.77
   4  -1  -2   33.27    4.88
   4  -1  -2   35.81    2.94
   4  -1  -2   37.20    2.22
   4  -1  -2   40.67    7.00
  -4   1   2   27.57    3.39
  -4   1   2   28.19    5.50
  -4   1   2   34.20    2.48
   3  -1  -2    4.62    2.15
   3  -1  -2    3.88    0.64
   3  -1  -2    3.10    2.97
   3  -1  -2    5.67    0.69
  -3   1   2    7.02    1.12
  -3   1   2    9.65    2.34
  -3   1   2    9.79    3.71
  -3   1   2    6.73    1.01
  -3   1   2    4.60    2.41
   2  -1  -2  352.61   19.82
   2  -1  -2  328.83   18.00
   2  -1  -2  305.90   21.11
  -2   1   2  340.07   18.52
  -2   1   2  343.11   18.01
  -2   1   2  323.69   20.51
  -2   1   2  304.69   18.10
  -2   1   2  312.67   19.57
  -2   1   2  354.37   19.64
  -2   1   2  330.01   18.22
   1  -1  -2   87.79    5.56
  -1   1   2   76.34    4.38
  -1   1   2   69.20    4.41
  -1   1   2   75.73    5.39
   0  -1  -2  289.26   17.19
   0   1   2  312.75   17.11
   0   1   2  290.96   16.61
   0   1   2  315.46   16.59
  -1  -1  -2  307.65   18.08
   1   1   2  341.92   18.06
   1   1   2  336.46   18.43
   1   1   2  323.07   18.47
  -2  -1  -2    2.49    2.81
   2   1   2    6.07    1.81
   2   1   2    6.66    1.26
   2   1   2    7.05    1.58
  -3  -1  -2  361.68   18.13
  -3  -1  -2  343.65   19.30
  -3  -1  -2  316.28   18.38
  -3  -1  -2  341.50   19.12
   3   1   2  291.98   20.33
   3   1   2  298.90   19.02
   3   1   2  308.89   18.07
   3   1   2  338.07   17.80
  -4  -1  -2   62.80    6.00
  -4  -1  -2   61.53    5.98
  -4  -1  -2   65.66    4.51
  -4  -1  -2   66.65    4.13
   4   1   2   64.56    5.50
   4   1   2   48.49    5.45
   4   1   2   61.45    3.85
   4   1   2   63.49    7.33
   4   1   2   63.93    3.59
  -5  -1  -2  136.26    7.88
   5   1   2  124.34    7.32
   5   1   2  132.15   10.44
   5   1   2  126.62    7.55
   5   1   2  141.39   12.88
  -6  -1  -2   25.04    3.06
  -6  -1  -2   26.33    2.49
  -6  -1  -2   27.34    3.77
  -6  -1  -2   20.84    1.99
   6   1   2   22.87    6.23
   6   1   2   24.78    2.19
   6   1   2   28.00    5.05
   6   1   2   23.35    1.88
  -7  -1  -2    3.14    0.81
  -7  -1  -2    2.76    1.52
   7   1   2    3.93    2.75
  -8  -1  -2    5.02    1.19
  -7   2   2   13.09    1.70
  -7   2   2   13.73    0.92
  -7   2   2   15.23    0.87
  -7   2   2    5.31    4.37
   6  -2  -2   13.75    2.03
  -6   2   2   14.21    2.25
  -6   2   2   12.37    0.87
   5  -2  -2   15.14    2.60
   5  -2  -2   13.51    0.92
  -5   2   2   13.50    0.93
  -5   2   2   12.16    4.75
  -5   2   2   12.42    5.68
  -5   2   2   14.58    2.31
   4  -2  -2   55.71    4.26
   4  -2  -2   57.57    3.47
   4  -2  -2   78.81    9.85
  -4   2   2   53.81    7.55
  -4   2   2   58.00    5.05
  -4   2   2   58.80    6.62
   3  -2  -2   35.17    2.87
   3  -2  -2   35.63    2.06
   3  -2  -2   48.18    7.04
  -3   2   2   34.88    5.34
  -3   2   2   29.64    2.05
  -3   2   2   24.31    5.43
  -3   2   2   28.84    3.46
  -3   2   2   27.15    4.32
   2  -2  -2   81.31    4.71
   2  -2  -2   82.58    8.41
  -2   2   2   86.39    4.72
  -2   2   2   87.22    6.83
  -2   2   2   80.87    6.30
  -2   2   2   86.06    7.06
  -2   2   2   91.03    7.81
  -2   2   2   79.22    5.48
  -1   2   2   32.93    3.59
  -1   2   2   36.02    2.98
  -1   2   2   34.07    2.03
  -1   2   2   33.43    3.84
  -1   2   2   34.11    4.11
   0   2   2  220.23   12.26
   0   2   2  209.29   11.42
   0   2   2  196.91   11.43
   0   2   2  205.26   12.23
  -1  -2  -2  104.05    6.15
   1   2   2  101.84    6.12
   1   2   2  109.12    6.22
   1   2   2  108.55    6.09
   1   2   2  101.22    6.31
  -2  -2  -2  168.28    9.20
  -2  -2  -2  163.43    9.47
   2   2   2  166.56    9.21
   2   2   2  158.08    9.43
   2   2   2  154.97    9.35
   2   2   2  166.01    9.43
  -3  -2  -2  244.57   13.44
  -3  -2  -2  225.18   13.76
  -3  -2  -2  249.71   14.99
   3   2   2  242.07   13.86
   3   2   2  225.61   14.96
   3   2   2  247.10   13.05
   3   2   2  256.72   13.47
   3   2   2  222.33   13.13
  -4  -2  -2   71.31    6.55
  -4  -2  -2   69.13    4.40
  -4  -2  -2   67.58    6.09
   4   2   2   73.74    3.78
   4   2   2   62.03    4.93
   4   2   2   58.64    6.42
   4   2   2   66.93    3.87
   4   2   2   53.97    5.24
   4   2   2   69.02    3.91
  -5  -2  -2   35.04    5.55
  -5  -2  -2   38.13    3.00
   5   2   2   31.72    4.25
   5   2   2   34.16    2.18
   5   2   2   38.35    5.99
  -6  -2  -2   35.46    2.78
  -6  -2  -2   45.34    3.75
  -6  -2  -2   44.51    3.35
  -6  -2  -2   47.28    4.20
   6   2   2   33.73    2.47
   6   2   2   37.85    5.17
  -7  -2  -2    9.60    1.23
  -7  -2  -2    9.24    2.46
   7   2   2    8.01    2.82
  -8  -2  -2    6.46    0.70
   8   2   2    5.47    0.49
  -6   3   2   17.97    1.05
  -6   3   2    7.21    5.60
  -6   3   2   16.24    2.12
   5  -3  -2   13.56    0.98
  -5   3   2   14.87    0.94
  -5   3   2   14.28    2.26
  -5   3   2    5.57    6.68
   4  -3  -2    5.50    0.62
   4  -3  -2    4.34    1.52
  -4   3   2    4.67    5.08
  -4   3   2    7.68    3.38
  -4   3   2    6.00    0.56
  -4   3   2    2.32    2.29
  -4   3   2    4.50    4.04
  -4   3   2    1.19    2.46
  -3   3   2   65.08    5.57
  -3   3   2   65.40    7.87
  -3   3   2   68.93    6.55
  -3   3   2   69.53    3.96
  -3   3   2   68.76    8.12
  -2   3   2   65.92    3.72
  -2   3   2   67.29    7.18
  -2   3   2   64.53    6.24
  -2   3   2   63.59    7.05
  -2   3   2   65.45    5.86
  -2   3   2   60.06    4.84
  -1   3   2   26.68    4.18
  -1   3   2   29.94    3.97
  -1   3   2   30.78    1.79
  -1   3   2   25.68    3.63
  -1   3   2   26.29    2.92
   0  -3  -2   62.36    5.76
   0   3   2   67.09    5.33
   0   3   2   65.21    3.57
   0   3   2   64.92    3.54
   0   3   2   64.81    4.26
   0   3   2   61.21    3.56
   0   3   2   59.93    5.39
   0   3   2   61.13    4.87
   0   3   2   63.36    4.56
  -1  -3  -2   65.19    6.08
   1   3   2   69.14    4.08
   1   3   2   78.97    4.52
   1   3   2   64.14    4.68
   1   3   2   64.22    4.41
  -2  -3  -2   17.06    3.56
   2   3   2   15.04    1.74
   2   3   2   13.08    1.87
  -3  -3  -2  190.08   11.27
  -3  -3  -2  192.97   11.97
  -3  -3  -2  165.05    9.41
   3   3   2  160.23    9.10
   3   3   2  159.87    9.43
   3   3   2  144.90    9.12
   3   3   2  144.92    9.63
  -4  -3  -2   46.55    5.67
   4   3   2   34.85    3.42
   4   3   2   39.51    2.21
   4   3   2   35.03    2.36
   4   3   2   39.80    3.00
   4   3   2   37.55    2.43
   4   3   2   38.96    2.50
  -5  -3  -2   19.22    4.99
  -5  -3  -2   19.65    2.29
   5   3   2   17.85    2.86
   5   3   2   16.02    1.22
  -6  -3  -2    1.49    3.63
  -6  -3  -2    1.27    1.94
  -6  -3  -2    0.90    1.93
  -6  -3  -2    1.07    1.37
   6   3   2    2.35    0.57
   6   3   2    5.17    2.18
   6   3   2    2.90    0.36
  -7  -3  -2    9.83    2.29
  -7  -3  -2   11.29    1.39
  -7  -3  -2    7.76    2.46
   7   3   2   13.30    0.78
   7   3   2   13.79    2.83
  -8  -3  -2    2.66    0.80
   8   3   2    2.83    0.23
   8   3   2    2.76    0.23
  -6   4   2    2.35    3.96
  -6   4   2    5.39    0.62
   5  -4  -2   20.40    1.33
  -5   4   2   18.23    5.02
  -5   4   2   21.09    1.24
  -5   4   2   21.66    1.31
  -5   4   2   18.33    6.85
  -5   4   2   22.09    3.07
   4  -4  -2    3.58    0.49
  -4   4   2    4.11    3.31
  -4   4   2    6.15    5.87
  -4   4   2    4.48    0.49
  -4   4   2    8.90    3.60
  -4   4   2    3.54    3.91
  -3   4   2   10.76    4.12
  -3   4   2    9.06    1.01
  -3   4   2    7.82    3.67
  -3   4   2   11.14    5.17
  -3   4   2    7.98    2.97
  -3   4   2    8.03    2.13
  -3   4   2    8.44    3.99
  -2   4   2  170.05   10.93
  -2   4   2  174.89   11.82
  -2   4   2  190.98   14.63
  -2   4   2  171.37   13.03
  -1   4   2   10.26    2.75
  -1   4   2   12.98    2.32
  -1   4   2    7.22    2.91
  -1   4   2   15.99    3.70
  -1   4   2   12.95    1.03
  -1   4   2    7.19    2.56
   0   4   2   10.17    0.81
   0   4   2    8.59    0.96
   0   4   2   11.03    3.04
   0   4   2    8.38    2.18
   0   4   2    7.30    2.29
   0   4   2    5.70    2.20
   0   4   2   13.08    2.14
  -1  -4  -2  106.17    8.01
   1   4   2   97.17    6.33
   1   4   2  101.57    5.58
   1   4   2   87.84    5.88
   1   4   2   86.53    6.75
   1   4   2   94.93    5.36
   1   4   2   88.25    5.48
   1   4   2   95.55    5.24
   1   4   2   98.61    6.14
  -2  -4  -2   70.89    6.23
  -2  -4  -2   68.83    6.81
   2   4   2   76.86    4.58
   2   4   2   73.71    4.25
   2   4   2   78.54    5.52
   2   4   2   76.39    4.76
  -3  -4  -2   67.26    7.58
  -3  -4  -2   69.20    6.79
   3   4   2   70.16    4.13
   3   4   2   71.86    4.50
   3   4   2   76.77    4.85
   4   4   2   63.08    4.21
   4   4   2   62.39    3.67
   4   4   2   56.58    3.61
  -5  -4  -2    3.94    1.47
  -5  -4  -2    3.19    3.59
   5   4   2    7.77    1.64
   5   4   2    6.19    1.05
   5   4   2    6.85    1.06
   5   4   2    5.16    1.43
  -6  -4  -2    5.78    3.94
  -6  -4  -2    8.10    2.08
  -6  -4  -2    6.72    1.76
   6   4   2    6.91    0.47
   6   4   2    7.13    0.46
  -7  -4  -2   36.38    3.89
   7   4   2   35.86    1.97
   7   4   2   35.89    1.96
  -8  -4  -2    4.01    0.94
  -8  -4  -2    3.24    1.70
   5  -5  -2    2.65    0.36
  -5   5   2    2.64    4.54
  -5   5   2    1.94    3.41
   4  -5  -2   25.87    1.52
  -4   5   2   19.92    5.48
  -4   5   2   15.88    3.97
   3  -5  -2   10.05    0.90
  -3   5   2   13.22    4.64
  -3   5   2   13.27    1.37
  -3   5   2   16.51    5.52
  -3   5   2   18.81    4.18
  -3   5   2   12.38    2.64
  -3   5   2   13.40    2.46
  -3   5   2   13.75    5.79
  -3   5   2    8.70    4.07
  -2   5   2    4.29    1.98
  -2   5   2    0.79    3.27
  -2   5   2    1.25    2.50
  -2   5   2    1.45    2.91
  -2   5   2    6.40    4.74
  -2   5   2    3.26    3.18
  -2   5   2    4.21    4.33
  -2   5   2    1.16    2.60
  -2   5   2    2.96    2.94
  -2   5   2    2.48    0.74
  -1   5   2   52.55    6.14
  -1   5   2   68.11    7.74
  -1   5   2   53.25    4.73
  -1   5   2   59.93    3.43
  -1   5   2   56.39    6.09
  -1   5   2   58.87    3.53
   0   5   2    3.83    3.39
   0   5   2   -0.12    1.31
   0   5   2    0.25    1.59
   0   5   2    1.17    1.89
   0   5   2    2.61    0.67
   0   5   2    2.30    0.50
   1   5   2  150.80    9.38
   1   5   2  158.56    8.44
   1   5   2  153.37    8.56
   1   5   2  160.33    8.65
   1   5   2  152.46   12.64
   1   5   2  162.51    9.86
   1   5   2  134.44    9.99
  -2  -5  -2   74.18    7.69
   2   5   2   91.34    5.17
   2   5   2   89.60    6.30
   2   5   2   78.79    5.96
   2   5   2   93.91    5.44
   2   5   2   99.08    5.57
   2   5   2   99.72    5.40
  -3  -5  -2    5.02    3.96
  -3  -5  -2    5.00    3.13
   3   5   2    7.23    1.45
   3   5   2    5.17    2.24
   3   5   2    4.73    0.83
   3   5   2    6.22    1.34
  -4  -5  -2  108.08    9.27
   4   5   2  105.72    5.95
   4   5   2   99.01    6.33
   4   5   2  101.46    6.42
   4   5   2   97.75    7.26
  -5  -5  -2   57.16    7.35
   5   5   2   67.18    3.99
   5   5   2   60.75    5.45
   5   5   2   64.22    4.42
  -6  -5  -2    4.09    2.06
  -6  -5  -2    2.84    1.98
  -7  -5  -2   -1.07    1.90
  -8  -5  -2    2.11    1.65
  -4   6   2   -0.05    3.46
   3  -6  -2   22.35    1.43
  -3   6   2   22.08    5.48
  -3   6   2   27.61    5.89
  -3   6   2   20.77    2.83
  -2   6   2   68.53    7.96
  -2   6   2   73.50    8.08
  -2   6   2   75.16    5.39
  -2   6   2   69.54    9.61
  -2   6   2   65.55    5.71
  -2   6   2   74.72    7.11
  -2   6   2   75.55    6.23
  -1   6   2   37.02    4.47
  -1   6   2   35.97    3.91
  -1   6   2   36.36    2.43
  -1   6   2   37.70    7.27
  -1   6   2   37.63    3.96
  -1   6   2   39.25    5.68
  -1   6   2   48.72    6.90
  -1   6   2   28.01    5.40
  -1   6   2   41.47    5.70
   0   6   2   34.12    4.60
   0   6   2   32.68    5.06
   0   6   2   31.43    5.83
   0   6   2   29.64    1.95
   0   6   2   29.65    4.07
   0   6   2   27.90    2.12
   1   6   2    5.42    0.59
   1   6   2    5.03    1.94
   1   6   2    6.22    0.87
   2   6   2   62.51    5.67
   2   6   2   62.12    3.96
   2   6   2   61.66    3.72
   3   6   2   22.51    2.20
   3   6   2   22.24    1.86
   3   6   2   22.19    3.34
  -4  -6  -2   31.57    5.90
   4   6   2   28.43    2.67
   4   6   2   23.15    3.53
   4   6   2   28.07    2.19
  -5  -6  -2    4.91    4.17
  -5  -6  -2    4.62    1.86
   5   6   2   12.61    2.72
   5   6   2    8.16    1.60
   5   6   2    7.14    1.24
   5   6   2    3.70    2.47
   5   6   2   12.12    1.87
  -6  -6  -2   13.68    2.49
   6   6   2   12.02    3.24
   6   6   2   10.03    1.48
  -7  -6  -2   23.89    3.36
  -8  -6  -2   13.33    1.91
   3  -7  -2    3.11    0.38
  -3   7   2    2.86    3.63
  -2   7   2   42.52    4.29
  -2   7   2   47.30    6.35
  -2   7   2   37.90    4.03
  -2   7   2   33.34    7.13
  -1   7   2    7.44    2.98
  -1   7   2    5.66    2.37
  -1   7   2    8.94    2.39
  -1   7   2   11.65    5.52
  -1   7   2    5.23    3.12
  -1   7   2    7.97    2.37
   0   7   2   39.73    4.66
   0   7   2   44.76    4.19
   0   7   2   37.78    2.50
   0   7   2   38.66    4.41
   0   7   2   40.30    2.35
   0   7   2   46.64    5.64
   1   7   2   34.97    1.93
   1   7   2   34.89    3.85
   1   7   2   44.41    4.19
   1   7   2   34.66    2.14
   1   7   2   32.09    2.18
   2   7   2   20.98    1.78
   2   7   2   17.94    3.28
   2   7   2   25.71    2.86
   2   7   2   21.00    1.16
   2   7   2   20.16    1.51
   2   7   2   21.16    1.16
   3   7   2   67.84    3.94
   3   7   2   65.10    6.06
   3   7   2   65.90    5.85
   3   7   2   68.57    4.64
   3   7   2   67.73    4.53
   3   7   2   78.63    5.11
   3   7   2   69.32    4.00
   3   7   2   68.89    4.15
   4   7   2   54.34    3.26
   4   7   2   58.39    4.35
   4   7   2   52.23    3.23
   4   7   2   54.94    5.13
   4   7   2   50.68    5.35
   4   7   2   56.28    3.93
   4   7   2   53.63    3.92
   4   7   2   54.25    3.48
  -5  -7  -2    6.63    2.01
   5   7   2    4.12    1.08
   5   7   2    3.37    0.72
   5   7   2    3.51    2.36
   5   7   2    3.55    1.41
  -6  -7  -2   39.29    3.83
   6   7   2   42.86    4.78
   6   7   2   37.70    2.50
  -7  -7  -2    4.37    1.78
  -7  -7  -2    3.59    1.68
  -8  -7  -2    3.05    1.23
  -2   8   2    3.60    1.61
  -1   8   2    2.27    1.96
  -1   8   2    1.58    1.74
   0   8   2   15.75    0.91
   0   8   2   15.37    3.32
   0   8   2   15.08    1.04
   0   8   2   11.92    2.48
   0   8   2   13.25    2.79
   1   8   2   41.78    4.99
   1   8   2   41.58    4.05
   1   8   2   37.25    2.09
   1   8   2   38.26    2.09
   1   8   2   36.16    2.28
   1   8   2   39.22    4.59
   2   8   2   21.97    3.51
   2   8   2   20.15    2.77
   2   8   2   19.66    1.50
   3   8   2    6.40    2.55
   3   8   2    3.29    1.37
   3   8   2    4.79    2.06
   3   8   2    3.98    0.72
   4   8   2    6.76    1.54
   4   8   2    4.39    1.11
   4   8   2    7.93    0.80
   4   8   2   12.53    2.86
   4   8   2    6.53    0.82
   4   8   2    9.05    2.04
   5   8   2   11.47    1.95
   5   8   2    9.04    0.98
   5   8   2    8.83    2.58
  -6  -8  -2    4.70    1.92
  -6  -8  -2    6.68    1.83
   6   8   2    4.20    1.35
   6   8   2    2.63    0.56
   6   8   2    1.47    2.06
  -7  -8  -2    6.03    1.47
  -7  -8  -2    5.41    1.45
   7   8   2    7.54    0.76
   0   9   2    2.26    1.54
   0   9   2    2.55    1.55
   1   9   2    7.47    1.97
   1   9   2    7.86    0.70
   1   9   2    8.43    2.29
   2   9   2   24.57    1.60
   2   9   2   28.87    3.63
   2   9   2   24.16    2.71
   3   9   2    2.15    1.77
   3   9   2    1.54    0.53
   3   9   2    1.53    2.03
   4   9   2    1.43    1.57
   4   9   2    2.23    0.54
   4   9   2    1.44    2.04
  -5  -9  -2    9.87    1.91
   5   9   2   10.86    1.67
   5   9   2   16.23    2.66
  -6  -9  -2    4.24    1.36
   6   9   2    5.94    1.84
   3  10   2   12.21    0.84
   5   8  -3   27.17    1.61
   5   8  -3   25.65    2.20
   5   8  -3   24.61    2.61
  -5  -8   3   28.53    2.72
   4   8  -3   10.49    0.74
   4   8  -3   12.77    1.84
   4   8  -3    9.92    1.41
  -4  -8   3   11.44    1.89
   3   8  -3    5.27    0.72
   3   8  -3    5.32    1.87
   3   8  -3    5.22    1.65
   3   8  -3    4.87    1.20
   2   8  -3   17.22    1.36
   2   8  -3   16.29    2.66
   2   8  -3   15.19    2.06
   1   8  -3    5.94    1.55
   1   8  -3    5.52    0.36
   1   8  -3    5.40    0.71
   1   8  -3    4.83    2.03
   1   8  -3    5.89    0.37
   0   8  -3    9.62    0.58
   0   8  -3   10.53    2.21
   0   8  -3    9.10    0.61
   0   8  -3   10.22    0.91
  -7  -7   3    6.40    1.39
   6   7  -3    3.11    1.30
   6   7  -3    3.01    0.59
   6   7  -3    4.06    1.14
  -6  -7   3    4.26    1.70
   5   7  -3   28.42    2.69
   5   7  -3   24.47    2.96
   5   7  -3   31.72    1.99
  -5  -7   3   30.94    3.48
   4   7  -3   14.40    1.31
   4   7  -3   10.49    2.01
   4   7  -3   14.20    1.88
  -4  -7   3   10.77    2.31
   3   7  -3   13.36    2.26
   3   7  -3   14.44    1.88
   3   7  -3   12.06    2.58
   3   7  -3   14.50    1.27
  -3  -7   3   15.93    2.36
   2   7  -3   27.56    3.76
   2   7  -3   27.55    1.50
   2   7  -3   26.82    1.62
   2   7  -3   21.62    2.72
   2   7  -3   26.02    1.52
   2   7  -3   27.54    1.95
   2   7  -3   27.48    3.72
   1   7  -3    1.76    1.78
   1   7  -3    0.32    0.73
   1   7  -3    0.02    0.38
   1   7  -3    1.19    1.99
   1   7  -3    0.06    2.13
   0   7  -3   12.98    1.24
   0   7  -3    7.50    3.13
   0   7  -3    8.04    2.51
   0   7  -3    9.82    2.09
   0   7  -3   16.66    3.21
  -1   7  -3    7.16    2.80
  -1   7  -3    9.65    1.02
  -1   7  -3   13.60    2.69
  -2   7  -3    8.22    2.05
  -2   7  -3    3.51    2.29
  -2   7  -3    8.94    0.80
   2  -7   3    9.56    0.69
  -7  -6   3   16.82    2.47
   6   6  -3    5.97    1.36
  -6  -6   3    7.98    1.99
   5   6  -3    1.47    1.36
  -5  -6   3    1.73    2.09
   4   6  -3    3.21    0.89
   4   6  -3    3.83    1.54
  -4  -6   3    2.47    1.88
   3   6  -3   19.38    2.48
   3   6  -3   18.33    1.04
   3   6  -3   16.62    2.98
   3   6  -3   18.14    2.48
   3   6  -3   16.84    1.57
   3   6  -3   18.24    2.34
   3   6  -3   18.82    1.04
  -3  -6   3   22.34    2.81
   2   6  -3   15.59    1.28
   2   6  -3   17.24    2.17
   2   6  -3   23.25    3.96
   2   6  -3   16.16    2.96
   2   6  -3   15.55    0.98
   2   6  -3   15.93    1.49
   2   6  -3   18.76    2.15
   2   6  -3   17.12    1.40
   2   6  -3   16.11    2.32
  -2  -6   3   19.38    2.71
   1   6  -3   28.05    1.97
   1   6  -3   28.70    2.91
   1   6  -3   18.48    3.18
   1   6  -3   30.26    5.15
   1   6  -3   21.54    5.41
   1   6  -3   26.27    1.72
   1   6  -3   26.78    1.83
   0   6  -3   25.79    3.99
   0   6  -3   29.54    6.78
   0   6  -3   21.15    1.79
   0   6  -3   24.47    1.82
   0   6  -3   21.31    2.64
   0   6  -3   32.86    6.02
   0   6  -3   24.12    3.57
  -1   6  -3   26.22    4.07
  -1   6  -3   26.44    5.71
  -1   6  -3   28.83    1.98
  -2   6  -3   10.42    4.21
  -2   6  -3   18.34    3.81
  -2   6  -3   18.61    1.50
  -2   6  -3   23.23    5.14
   2  -6   3   20.96    1.29
  -3   6  -3    1.78    2.47
  -3   6  -3    0.15    3.23
  -3   6  -3    2.75    0.57
   3  -6   3    3.54    0.41
  -7  -5   3    2.39    1.62
  -7  -5   3    1.94    1.70
  -6  -5   3   24.53    3.24
  -6  -5   3   26.29    3.49
   5   5  -3   27.09    2.25
   5   5  -3   28.59    1.57
   5   5  -3   28.83    1.56
   5   5  -3   25.71    2.74
  -5  -5   3   31.39    3.42
   4   5  -3   13.94    1.92
   4   5  -3   12.11    0.73
   4   5  -3    9.37    1.84
   4   5  -3   12.85    0.77
   4   5  -3   13.29    2.39
   4   5  -3   13.20    1.44
   3   5  -3   50.80    3.27
   3   5  -3   53.52    5.18
   3   5  -3   51.82    3.85
   3   5  -3   49.40    3.21
   2   5  -3   33.89    2.91
   2   5  -3   34.59    4.64
   2   5  -3   33.16    2.06
   1   5  -3    0.78    2.14
   1   5  -3    2.26    0.59
   1   5  -3    1.42    1.14
   1   5  -3    1.70    2.33
   0   5  -3   38.07    2.47
   0   5  -3   37.53    5.69
   0   5  -3   43.50    7.06
  -1   5  -3   30.86    6.72
  -1   5  -3   32.38    4.30
  -1   5  -3   28.25    5.84
  -1   5  -3   32.68    2.21
  -1   5  -3   31.68    2.15
  -2   5  -3   36.06    2.79
  -2   5  -3   45.91    7.19
  -2   5  -3   35.02    6.49
  -2   5  -3   39.90    4.82
   2  -5   3   33.95    2.11
  -3   5  -3    8.36    4.63
  -3   5  -3    6.51    3.55
   3  -5   3   12.39    0.95
  -4   5  -3    2.03    0.59
  -4   5  -3    1.12    3.49
  -4   5  -3    2.52    2.54
   4  -5   3    2.23    0.39
  -8  -4   3   19.89    1.50
  -8  -4   3   13.93    2.37
  -7  -4   3    1.26    1.85
   6   4  -3    2.01    0.28
   6   4  -3    1.64    1.49
   6   4  -3    2.10    0.21
  -6  -4   3    3.37    2.03
  -6  -4   3    3.82    1.90
   5   4  -3   49.99    2.71
   5   4  -3   54.19    3.32
   5   4  -3   54.00    5.04
  -5  -4   3   45.61    4.24
  -5  -4   3   42.48    7.20
  -5  -4   3   46.52    4.18
  -5  -4   3   44.93    3.99
   4   4  -3    4.26    1.90
   4   4  -3    4.35    1.46
   4   4  -3    4.97    0.99
   4   4  -3    6.65    0.75
  -4  -4   3    5.77    3.82
   3   4  -3   17.20    1.13
   3   4  -3   16.00    3.11
   3   4  -3   16.14    2.14
   3   4  -3   14.90    1.46
  -3  -4   3   14.34    3.92
   2   4  -3   53.39    3.79
   2   4  -3   51.31    6.41
   2   4  -3   49.03    4.47
   2   4  -3   53.00    3.28
   2   4  -3   47.35    5.27
   2   4  -3   51.06    4.06
   2   4  -3   62.84    3.11
   1   4  -3   75.09    4.18
   1   4  -3   77.28    8.00
   1   4  -3   75.60    6.32
   1   4  -3   71.96    4.71
   1   4  -3   67.25    6.57
   1   4  -3   74.60    4.94
   0   4  -3   44.27    6.26
   0   4  -3   38.49    5.16
   0   4  -3   39.16    2.84
   0   4  -3   38.00    2.42
   0   4  -3   42.59    5.06
  -1   4  -3   27.58    1.87
  -1   4  -3   28.25    6.13
  -1   4  -3   25.52    5.08
  -2   4  -3  116.79   11.97
  -2   4  -3  121.55    8.01
  -2   4  -3  107.18    6.29
  -2   4  -3   94.40   11.95
  -3   4  -3   31.66    5.01
  -3   4  -3   29.68    6.78
  -3   4  -3   25.62    1.58
   3  -4   3   26.27    1.62
  -4   4  -3    6.78    0.67
  -4   4  -3    8.75    3.30
   4  -4   3    6.74    0.77
  -5   4  -3   -0.45    3.76
  -8  -3   3   11.52    1.16
  -8  -3   3    8.57    1.84
   7   3  -3   14.29    0.90
   7   3  -3   15.48    2.76
  -7  -3   3   13.35    2.52
  -7  -3   3   14.64    1.74
   6   3  -3   14.20    3.33
  -6  -3   3   13.57    2.76
   5   3  -3   27.60    1.88
   5   3  -3   31.33    2.25
   5   3  -3   33.22    4.53
  -5  -3   3   24.40    5.87
  -5  -3   3   24.79    6.05
  -5  -3   3   29.40    3.02
   3   3  -3   10.79    1.62
   3   3  -3   11.40    3.44
   3   3  -3   12.18    2.77
   3   3  -3   11.80    2.03
   3   3  -3   10.54    1.09
   3   3  -3    8.75    0.88
  -3  -3   3   10.23    3.50
  -3  -3   3   13.27    1.82
   2   3  -3   35.67    2.80
   2   3  -3   39.55    3.64
   2   3  -3   34.27    2.26
   2   3  -3   34.30    2.09
   2   3  -3   42.08    5.62
   2   3  -3   35.68    3.05
  -2  -3   3   33.57    4.45
   1   3  -3  629.49   38.35
   1   3  -3  612.02   35.08
   1   3  -3  650.43   34.86
   1   3  -3  643.55   34.49
   1   3  -3  631.43   36.37
   0   3  -3   83.27    7.38
   0   3  -3   96.34    5.92
   0   3  -3   83.98    8.75
   0   3  -3  101.66    5.25
   0   3  -3   93.71    5.63
  -1   3  -3   71.45    4.57
  -1   3  -3   74.74    8.13
  -1   3  -3   79.24    4.25
  -1   3  -3   68.71    6.75
  -1   3  -3   78.51    4.77
  -1   3  -3   67.27    6.92
  -2   3  -3   30.09    2.29
  -2   3  -3   33.28    6.02
  -2   3  -3   29.56    1.98
  -3   3  -3    3.01    3.34
  -4   3  -3   20.78    3.84
  -4   3  -3   14.89    2.08
  -4   3  -3   14.85    1.05
   4  -3   3   10.20    2.47
   4  -3   3   15.60    1.04
  -5   3  -3    0.09    1.44
  -5   3  -3    0.25    0.36
   5  -3   3   -0.46    1.52
   5  -3   3    0.34    0.33
  -6   3  -3    3.12    1.08
  -6   3  -3    4.97    0.51
   8   2  -3    3.47    0.29
   8   2  -3    3.04    0.34
  -8  -2   3    3.16    1.68
   7   2  -3   50.94    5.28
  -7  -2   3   42.00    4.42
  -7  -2   3   42.57    2.93
   6   2  -3   37.02    5.16
   6   2  -3   27.35    2.04
   6   2  -3   30.47    2.21
  -6  -2   3   27.85    2.49
  -6  -2   3   32.02    3.14
  -6  -2   3   27.85    3.53
   5   2  -3    5.34    0.94
   5   2  -3    4.07    0.93
   5   2  -3    5.33    0.75
   5   2  -3    4.70    2.55
  -5  -2   3    3.74    3.55
  -5  -2   3    3.02    1.42
  -5  -2   3    4.82    4.47
   4   2  -3   85.59    5.27
   4   2  -3   93.70    6.90
   4   2  -3   85.17    7.45
   4   2  -3   96.88    5.11
   4   2  -3   92.91    5.27
  -4  -2   3   94.56    5.77
  -4  -2   3   86.11    8.32
  -4  -2   3   85.26    8.35
   3   2  -3   84.70    6.19
   3   2  -3   80.14    5.11
   3   2  -3   83.27    4.62
   3   2  -3   82.52    4.84
   3   2  -3   82.97    4.78
  -3  -2   3   83.51    5.21
  -3  -2   3   80.27    7.15
   2   2  -3   28.25    3.46
   2   2  -3   29.34    2.41
   2   2  -3   33.34    1.83
   2   2  -3   27.54    1.98
  -2  -2   3   27.68    2.52
  -2  -2   3   38.19    4.52
   1   2  -3   39.12    4.23
   1   2  -3   44.19    2.42
   1   2  -3   47.07    3.03
   1   2  -3   38.96    2.50
   1   2  -3   38.65    5.29
   1   2  -3   37.94    3.21
   1   2  -3   45.76    2.45
   0   2  -3  207.20   13.44
   0   2  -3  208.52   11.87
   0   2  -3  217.88   11.59
   0   2  -3  218.19   12.14
   0   2  -3  203.51   14.81
  -1   2  -3  115.20    6.49
  -1   2  -3  118.58    6.74
  -1   2  -3  108.31    8.40
  -1   2  -3  108.74    9.54
  -1   2  -3  117.89    6.19
   1  -2   3   88.86    8.93
  -2   2  -3   63.95    3.84
  -2   2  -3   69.49    4.37
  -2   2  -3   63.85    4.15
  -2   2  -3   71.53    7.73
   2  -2   3   74.56    8.17
  -3   2  -3    6.85    1.23
  -3   2  -3   10.17    3.86
   3  -2   3    6.91    3.71
   3  -2   3    3.94    1.61
  -4   2  -3   21.73    1.33
   4  -2   3   21.77    6.46
   4  -2   3   23.89    3.30
   4  -2   3   19.50    1.30
  -5   2  -3   43.92    3.76
  -5   2  -3   40.17    2.31
   5  -2   3   38.24    2.27
   5  -2   3   38.68    3.82
  -6   2  -3   15.59    1.07
  -6   2  -3   15.09    2.02
  -7   2  -3    1.14    0.84
  -8  -1   3    1.10    1.54
   7   1  -3    0.14    1.99
  -7  -1   3    0.76    1.63
  -7  -1   3    0.53    0.70
  -7  -1   3   -0.11    2.10
   6   1  -3    1.59    1.01
   6   1  -3    1.77    0.78
   6   1  -3    6.17    3.15
  -6  -1   3    1.78    0.93
  -6  -1   3    0.64    1.77
  -6  -1   3    0.98    1.99
   5   1  -3   31.29    2.07
   5   1  -3   28.76    2.49
   5   1  -3   39.63    5.41
   5   1  -3   32.68    2.18
  -5  -1   3   28.49    2.73
  -5  -1   3   24.34    6.07
  -5  -1   3   24.64    5.51
   4   1  -3  130.17    6.97
   4   1  -3  110.05    9.57
   4   1  -3  131.01    7.22
   4   1  -3  125.18    7.11
  -4  -1   3  123.25   10.30
  -4  -1   3  127.48    9.83
  -4  -1   3  120.69    7.44
  -4  -1   3  123.47    7.87
   3   1  -3   35.08    2.09
   3   1  -3   34.56    2.47
   3   1  -3   31.87    2.19
   3   1  -3   28.29    3.77
  -3  -1   3   42.87    3.14
   1   1  -3  244.29   12.05
   1   1  -3  225.82   12.31
   1   1  -3  226.31   12.54
   1   1  -3  217.29   13.51
  -1  -1   3  196.48   12.26
  -1  -1   3  210.51   12.53
   0   1  -3   11.70    0.97
   0   1  -3   15.14    1.98
   0   1  -3   14.82    1.68
   0   1  -3   16.39    2.83
   0   1  -3   10.76    2.74
   0  -1   3   20.97    2.62
  -1   1  -3   38.63    4.79
  -1   1  -3   42.25    2.87
  -1   1  -3   46.23    4.52
  -1   1  -3   40.64    3.20
  -1   1  -3   43.17    2.48
   1  -1   3   37.72    3.92
   1  -1   3   47.55    2.52
   1  -1   3   44.53    5.12
  -2   1  -3   41.24    3.91
  -2   1  -3   41.43    2.69
  -2   1  -3   38.17    5.18
  -2   1  -3   38.15    2.23
  -2   1  -3   39.74    3.01
   2  -1   3   34.06    2.30
   2  -1   3   33.28    5.15
  -3   1  -3  199.41   11.44
  -3   1  -3  183.54   12.18
  -3   1  -3  206.82   11.19
   3  -1   3  193.18   10.88
   3  -1   3  198.00   11.31
   3  -1   3  198.62   15.68
  -4   1  -3    0.02    0.92
  -4   1  -3    1.36    3.17
   4  -1   3    1.61    0.69
   4  -1   3    1.10    3.37
   4  -1   3    0.93    1.32
  -5   1  -3   22.90    3.03
  -5   1  -3   21.53    2.14
  -5   1  -3   20.50    1.67
  -5   1  -3   19.98    1.33
  -5   1  -3   21.56    4.78
   5  -1   3   21.18    1.84
   5  -1   3   22.85    3.04
   5  -1   3   29.30    7.41
  -6   1  -3   10.23    0.84
  -6   1  -3    7.56    1.82
   6  -1   3    9.09    1.72
  -7   1  -3    2.28    1.26
  -7   1  -3    1.51    0.32
  -7   0   3   -0.67    1.59
  -7   0   3    0.15    0.24
  -7   0   3    1.78    2.07
   6   0  -3   29.45    5.33
   6   0  -3   22.58    2.68
  -6   0   3   29.24    3.62
  -6   0   3   27.41    1.92
  -6   0   3   30.24    3.50
   4   0  -3   59.05    3.52
   4   0  -3   59.50    3.95
   4   0  -3   64.04    3.61
   4   0  -3   62.53    6.46
   4   0  -3   70.97    6.18
  -4   0   3   61.37    4.30
  -4   0   3   50.74    6.90
  -4   0   3   61.89    3.97
  -4   0   3   53.01    6.31
   3   0  -3   28.83    1.86
   3   0  -3   30.89    1.74
   3   0  -3   29.91    3.78
   3   0  -3   31.77    2.29
  -3   0   3   21.82    2.12
  -3   0   3   23.48    2.49
  -3   0   3   23.14    2.88
  -3   0   3   20.96    4.87
  -3   0   3   22.86    4.48
  -3   0   3   24.30    2.49
   2   0  -3  141.65    9.03
   2   0  -3  144.87   10.52
   2   0  -3  156.41    8.96
  -2   0   3  165.13    9.22
  -2   0   3  190.23   10.97
  -2   0   3  184.73   10.74
  -2   0   3  159.65    9.40
  -2   0   3  165.26    9.40
   1   0  -3  238.80   13.93
   1   0  -3  213.16   12.86
  -1   0   3  216.82   13.64
  -1   0   3  234.95   12.87
  -1   0   3  241.04   12.69
   0   0  -3   45.17    3.13
   0   0  -3   53.25    4.21
   0   0   3   37.14    3.63
   0   0   3   41.47    3.13
  -1   0  -3  295.72   16.86
  -1   0  -3  301.50   16.67
  -1   0  -3  308.16   17.94
   1   0   3  302.63   17.66
   1   0   3  302.87   16.83
  -2   0  -3   33.19    4.97
  -2   0  -3   36.83    2.60
  -2   0  -3   37.57    3.00
   2   0   3   36.20    2.16
   2   0   3   33.81    3.71
   2   0   3   34.55    4.70
  -3   0  -3    7.83    1.31
   3   0   3    2.69    2.42
   3   0   3    5.22    2.18
   3   0   3    4.34    0.67
   3   0   3    4.41    1.14
  -4   0  -3   77.57    5.05
  -4   0  -3   90.35    5.64
   4   0   3   94.34    9.67
   4   0   3   77.20    5.13
   4   0   3   72.94    4.66
   4   0   3   89.17    7.20
   4   0   3   79.76    7.49
  -5   0  -3   68.55    4.80
   5   0   3   80.28    4.93
   5   0   3   70.91    4.36
   5   0   3   79.24   10.42
   5   0   3   68.10    7.65
  -6   0  -3    3.27    0.45
  -6   0  -3    4.41    1.68
  -6   0  -3    6.10    0.93
   6   0   3    6.12    3.27
   6   0   3    4.14    1.36
  -7   0  -3   23.89    1.43
  -7   0  -3   22.23    2.77
  -7   1   3   18.29    2.83
  -7   1   3   22.69    1.30
   6  -1  -3   31.93    3.18
  -6   1   3   31.59    3.62
  -6   1   3   29.81    1.80
  -6   1   3   32.03    3.87
   5  -1  -3   61.51    4.47
   5  -1  -3   59.08    3.84
  -5   1   3   69.61    3.74
  -5   1   3   64.95    7.46
  -5   1   3   69.19    4.82
  -5   1   3   64.63    5.03
  -5   1   3   59.11    3.55
  -5   1   3   66.80    9.01
   3  -1  -3    9.00    1.00
   3  -1  -3   12.72    1.53
   3  -1  -3    8.99    1.05
   3  -1  -3   10.03    2.74
  -3   1   3    6.01    2.67
  -3   1   3    9.45    1.53
  -3   1   3    8.86    1.18
  -3   1   3   11.45    4.19
  -3   1   3    9.43    2.09
   2  -1  -3  175.66   11.33
   2  -1  -3  191.64    9.46
  -2   1   3  177.79   10.51
  -2   1   3  168.31    9.46
  -2   1   3  186.39   11.34
  -2   1   3  166.87    9.74
  -2   1   3  156.94   11.94
  -2   1   3  168.78   10.10
  -2   1   3  154.25    9.61
   1  -1  -3   66.39    5.58
  -1   1   3   82.03    4.75
  -1   1   3   75.34    4.30
  -1   1   3   78.11    4.46
  -1   1   3   75.83    5.47
  -1   1   3   65.80    4.43
   0  -1  -3  133.31    8.62
   0  -1  -3  127.91    7.69
   0   1   3  138.43    7.66
   0   1   3  135.40    8.43
  -1  -1  -3  468.95   26.02
  -1  -1  -3  456.15   26.75
  -1  -1  -3  515.93   26.90
   1   1   3  448.62   25.92
   1   1   3  464.13   26.57
  -2  -1  -3   45.30    3.71
  -2  -1  -3   59.02    5.24
  -2  -1  -3   50.10    3.38
   2   1   3   56.64    3.32
   2   1   3   47.67    4.10
   2   1   3   49.97    3.53
   2   1   3   48.96    4.91
  -3  -1  -3  157.40    9.55
  -3  -1  -3  139.45   10.43
  -3  -1  -3  166.72    9.17
   3   1   3  168.15   10.33
   3   1   3  163.69    9.18
   3   1   3  168.10   11.90
   3   1   3  155.40    8.76
  -4  -1  -3   88.32    5.49
  -4  -1  -3  103.67    6.17
   4   1   3   80.83    5.00
   4   1   3   77.12    5.25
   4   1   3   85.96    7.37
   4   1   3   95.31    7.02
   4   1   3  102.21    9.42
  -5  -1  -3  275.85   16.71
   5   1   3  334.78   22.83
   5   1   3  288.54   16.41
   5   1   3  287.19   16.20
   5   1   3  303.21   19.79
  -6  -1  -3   35.64    3.91
  -6  -1  -3   28.20    2.34
  -6  -1  -3   35.47    3.33
  -6  -1  -3   31.92    2.84
   6   1   3   29.69    2.50
   6   1   3   30.56    7.06
   6   1   3   32.20    2.21
   6   1   3   32.28    5.33
  -7  -1  -3    1.23    1.53
  -7  -1  -3    1.81    0.77
   7   1   3    4.34    2.55
  -8  -1  -3   10.93    1.39
  -7   2   3    9.87    0.61
  -7   2   3    7.02    1.45
  -7   2   3    4.74    4.02
   6  -2  -3    6.32    1.68
  -6   2   3    7.93    0.65
  -6   2   3    8.93    2.04
   5  -2  -3    6.41    0.61
   5  -2  -3  -12.00   13.71
   5  -2  -3    9.24    1.71
  -5   2   3    5.57    0.80
  -5   2   3    4.34    1.88
  -5   2   3    5.34    0.63
  -5   2   3    5.89    4.31
   3  -2  -3   28.73    6.22
   3  -2  -3   35.81    3.11
   3  -2  -3   36.48    2.26
  -3   2   3   37.37    5.56
  -3   2   3   35.36    5.53
  -3   2   3   44.26    4.85
  -3   2   3   38.59    3.73
   2  -2  -3  158.00   10.19
  -2   2   3  198.72   10.30
  -2   2   3  193.46   11.53
  -2   2   3  192.68   12.42
  -2   2   3  187.79   10.22
  -2   2   3  184.14   11.00
  -2   2   3  188.32   13.48
  -1   2   3  127.45    6.31
  -1   2   3  113.95    8.68
  -1   2   3  108.25    6.38
  -1   2   3  120.19    7.91
  -1   2   3  106.80    7.79
  -1   2   3  116.95    6.93
  -1   2   3  103.42    6.42
  -1   2   3  118.94    7.30
  -1   2   3  109.54    6.40
   0   2   3   14.95    2.29
   0   2   3   16.42    2.75
   0   2   3   16.34    1.57
   1   2   3   21.79    1.94
   1   2   3   21.95    2.41
   1   2   3   19.25    2.40
   1   2   3   23.71    1.77
  -2  -2  -3 1000.00   51.17
  -2  -2  -3  897.67   49.63
   2   2   3  937.08   49.65
   2   2   3  839.58   50.86
   2   2   3  889.10   49.80
   2   2   3  887.75   49.37
  -3  -2  -3  279.44   17.11
  -3  -2  -3  258.41   15.12
  -3  -2  -3  286.84   16.76
   3   2   3  269.55   15.86
   3   2   3  245.25   16.93
   3   2   3  273.60   15.17
   3   2   3  277.36   14.77
  -4  -2  -3   57.24    3.69
  -4  -2  -3   50.77    5.54
   4   2   3   47.17    4.81
   4   2   3   53.49    6.13
   4   2   3   50.81    3.20
   4   2   3   54.16    4.48
   4   2   3   52.23    3.21
   4   2   3   56.79    3.07
  -5  -2  -3   22.02    2.33
  -5  -2  -3   19.69    4.87
   5   2   3   17.55    1.61
   5   2   3   19.95    1.46
   5   2   3   19.91    3.63
   5   2   3   19.09    4.51
  -6  -2  -3   94.81    6.56
  -6  -2  -3   89.47    5.74
  -6  -2  -3  104.66    6.37
  -6  -2  -3   99.38    6.86
   6   2   3   87.74    5.53
   6   2   3  107.51    8.89
   6   2   3  115.78   11.41
  -7  -2  -3    3.84    1.00
  -7  -2  -3    2.46    1.99
   7   2   3    5.67    2.50
  -8  -2  -3    4.31    0.57
   8   2   3    2.83    0.30
  -6   3   3    5.69    1.67
  -6   3   3    8.13    0.60
  -6   3   3    3.85    5.48
   5  -3  -3    2.43    1.46
  -5   3   3    4.18    0.43
  -5   3   3    4.00    1.80
  -5   3   3   -3.42    6.42
   4  -3  -3   21.50    2.96
   4  -3  -3   26.05    1.57
  -4   3   3   26.13    1.64
  -4   3   3   27.39    6.33
  -4   3   3   18.38    4.69
  -4   3   3   21.01    3.50
  -4   3   3   27.43    1.54
  -4   3   3   37.47    5.30
  -3   3   3   10.14    2.61
  -3   3   3    9.45    3.58
  -3   3   3   11.10    4.86
  -3   3   3   11.02    3.77
  -3   3   3    9.23    1.10
  -2   3   3   17.26    4.12
  -2   3   3   31.62    4.22
  -2   3   3   27.79    3.28
  -2   3   3   24.56    5.20
  -2   3   3   24.57    1.68
  -1   3   3  410.18   25.16
  -1   3   3  410.46   24.20
  -1   3   3  387.37   22.76
  -1   3   3  400.35   24.06
  -1   3   3  397.24   23.25
  -1   3   3  424.77   22.13
   0   3   3  117.89    7.67
   0   3   3  112.43    6.38
   0   3   3  116.79    6.37
   0   3   3  103.86    8.14
   0   3   3  107.70    6.34
   0   3   3  119.59    7.18
   0   3   3  113.46    6.24
   0   3   3  113.34    7.37
  -1  -3  -3   13.28    3.90
   1   3   3   10.07    0.73
   1   3   3    9.65    1.17
   1   3   3   13.23    2.10
   1   3   3    8.20    1.43
   1   3   3    7.96    1.80
   1   3   3    8.42    1.37
   2   3   3    9.45    1.41
   2   3   3    5.82    1.34
   2   3   3    8.99    0.65
  -3  -3  -3  488.43   27.10
  -3  -3  -3  542.88   29.01
  -3  -3  -3  522.90   29.38
   3   3   3  487.00   27.12
   3   3   3  473.90   27.11
   3   3   3  460.60   27.30
   3   3   3  461.77   26.69
   3   3   3  491.75   26.81
  -4  -3  -3   97.92    8.19
  -4  -3  -3   90.20    5.60
   4   3   3   90.10    5.16
   4   3   3   88.41    5.67
   4   3   3   93.15    5.73
   4   3   3   92.95    5.01
   4   3   3   77.07    6.33
  -5  -3  -3   43.36    3.29
  -5  -3  -3   33.29    5.59
   5   3   3   37.26    2.32
   5   3   3   42.76    4.32
   5   3   3   38.61    2.61
  -6  -3  -3    2.99    1.46
  -6  -3  -3    5.13    2.19
  -6  -3  -3    3.88    3.38
  -6  -3  -3    4.49    2.18
   6   3   3    6.40    0.72
   6   3   3    6.62    2.46
  -7  -3  -3    1.98    1.93
  -7  -3  -3    1.70    2.06
  -7  -3  -3    3.69    1.09
   7   3   3    3.88    2.02
   7   3   3    3.69    0.34
  -8  -3  -3   16.47    2.14
  -8  -3  -3   17.43    1.54
   8   3   3   15.60    0.96
   8   3   3   18.83    0.97
  -6   4   3    8.95    1.35
  -6   4   3    0.93    3.99
   5  -4  -3    5.56    0.53
  -5   4   3    3.51    6.52
  -5   4   3    6.25    0.52
  -5   4   3    7.23    1.77
   4  -4  -3    5.87    0.69
  -4   4   3    2.22    3.61
  -4   4   3    5.11    0.54
  -4   4   3    5.88    2.40
  -4   4   3    4.41    5.87
  -3   4   3   40.16    6.47
  -3   4   3   33.61    6.19
  -3   4   3   38.37    4.86
  -3   4   3   30.69    2.20
  -3   4   3   22.92    3.81
  -3   4   3   35.94    3.54
  -3   4   3   34.57    5.45
  -3   4   3   39.94    6.80
  -2   4   3   24.89    4.62
  -2   4   3   20.22    1.59
  -2   4   3   16.66    2.96
  -2   4   3   21.84    4.57
  -2   4   3   27.72    5.26
  -1   4   3   32.94    4.40
  -1   4   3   29.85    4.75
  -1   4   3   24.47    4.03
  -1   4   3   33.40    1.99
  -1   4   3   31.38    3.39
  -1   4   3   34.22    5.03
   0   4   3  144.34   10.98
   0   4   3  159.24   10.22
   0   4   3  162.49   10.37
   0   4   3  162.60    9.70
   0   4   3  152.70    9.38
   0   4   3  149.01    8.60
   0   4   3  156.15    8.53
  -1  -4  -3   19.91    4.42
   1   4   3   15.28    2.53
   1   4   3   19.13    1.60
   1   4   3   14.48    1.05
   1   4   3   14.00    1.23
   1   4   3   15.51    1.52
   1   4   3   19.99    2.35
   1   4   3   15.78    2.59
  -2  -4  -3   23.11    4.29
   2   4   3   22.48    1.51
   2   4   3   20.27    2.14
   2   4   3   19.26    1.96
   2   4   3   27.87    3.43
   3   4   3   44.82    3.22
   3   4   3   43.97    2.78
   3   4   3   48.93    3.50
  -4  -4  -3    2.75    3.60
   4   4   3    6.39    0.91
   4   4   3    4.90    1.46
  -5  -4  -3   13.21    1.87
  -5  -4  -3   14.07    4.93
   5   4   3   10.68    1.94
   5   4   3   14.29    1.49
   5   4   3   11.85    1.86
  -6  -4  -3   72.80    4.92
  -6  -4  -3   71.25    5.23
  -6  -4  -3   57.07    7.87
   6   4   3   70.33    3.75
   6   4   3   67.85    5.48
  -7  -4  -3    6.25    2.18
   7   4   3    7.99    0.50
   7   4   3    8.60    0.50
  -8  -4  -3    4.55    1.77
  -8  -4  -3    5.09    0.95
   5  -5  -3   23.30    1.34
  -5   5   3   12.35    5.10
   4  -5  -3    2.61    0.45
  -4   5   3    2.14    6.20
  -4   5   3    2.46    4.07
  -4   5   3    1.21    3.45
   3  -5  -3   36.19    2.34
  -3   5   3   46.26    7.10
  -3   5   3   49.69    8.40
  -3   5   3   39.15    2.62
  -3   5   3   45.77    4.31
  -3   5   3   47.42    4.51
  -3   5   3   29.02    5.34
  -3   5   3   49.49    7.70
  -3   5   3   46.35    5.85
  -2   5   3   98.69    8.78
  -2   5   3  118.60   11.42
  -2   5   3   98.91    7.70
  -2   5   3  111.93    7.06
  -2   5   3  112.57   10.32
  -2   5   3  112.40    9.60
  -2   5   3  107.83   10.17
  -2   5   3  112.82    7.98
  -2   5   3  107.68    6.21
  -1   5   3   20.27    1.64
  -1   5   3   20.67    4.05
  -1   5   3   20.73    1.55
  -1   5   3   19.49    3.01
  -1   5   3   21.59    4.81
  -1   5   3   23.10    4.33
   0   5   3    5.17    0.82
   0   5   3    5.41    2.40
   0   5   3    5.59    2.13
   0   5   3    7.60    2.25
   0   5   3    4.29    1.90
   0   5   3    4.87    3.50
   0   5   3    5.71    0.64
   1   5   3   86.10    5.02
   1   5   3   93.78    6.55
   1   5   3   84.37    5.82
   1   5   3   90.24    5.08
   1   5   3   85.33    6.95
   1   5   3   81.48    6.44
   1   5   3   89.08    5.97
   1   5   3   89.87    4.89
  -2  -5  -3   13.74    4.09
   2   5   3   14.25    1.67
   2   5   3   13.37    1.81
   2   5   3   16.67    2.76
   2   5   3   15.49    1.74
   2   5   3   14.15    1.27
  -3  -5  -3   39.40    5.57
  -3  -5  -3   41.64    6.56
   3   5   3   42.48    3.12
   3   5   3   44.27    4.24
   3   5   3   42.61    2.64
   3   5   3   41.07    3.33
  -4  -5  -3   20.14    5.00
   4   5   3   23.06    1.73
   4   5   3   15.98    3.11
   4   5   3   21.18    2.38
  -5  -5  -3   47.79    6.92
   5   5   3   53.44    4.89
   5   5   3   50.46    3.93
   5   5   3   53.34    3.85
   5   5   3   54.16    3.43
  -6  -5  -3    6.91    2.26
  -6  -5  -3    5.41    2.13
  -7  -5  -3    9.20    2.27
  -8  -5  -3    0.91    1.58
   4  -6  -3   25.13    1.40
  -4   6   3   15.45    3.96
  -4   6   3   17.87    5.73
   3  -6  -3    1.93    0.44
  -3   6   3    2.35    4.33
  -3   6   3    4.19    6.17
  -3   6   3    6.97    2.42
  -3   6   3    2.76    2.38
  -2   6   3   71.35    5.34
  -2   6   3   62.29    5.02
  -2   6   3   70.75    6.94
  -2   6   3   61.12    9.11
  -2   6   3   69.13    5.71
  -2   6   3   59.95    4.01
  -2   6   3   68.57    8.11
  -2   6   3   67.80    7.84
  -1   6   3   45.13    6.95
  -1   6   3   50.89    4.40
  -1   6   3   52.41    6.46
  -1   6   3   50.08    5.11
  -1   6   3   47.99    4.37
  -1   6   3   47.92    3.05
  -1   6   3   55.72    7.37
  -1   6   3   46.27    6.78
  -1   6   3   58.53    7.70
  -1   6   3   49.08    5.98
  -1   6   3   46.14    3.17
   0   6   3    4.13    0.94
   0   6   3    4.52    0.68
   0   6   3    4.01    4.19
   0   6   3    6.32    2.59
   0   6   3    4.91    2.46
   1   6   3   13.66    2.84
   1   6   3   15.79    1.13
   1   6   3   15.37    1.43
   2   6   3   10.59    1.43
   2   6   3   11.46    3.17
   2   6   3   12.60    1.64
   2   6   3   13.32    1.55
   2   6   3   14.85    2.22
  -3  -6  -3   -0.53    3.75
   3   6   3    0.94    2.29
   3   6   3    1.77    1.16
   3   6   3    2.42    0.91
   3   6   3    1.76    1.04
  -4  -6  -3   19.67    5.08
   4   6   3   18.31    3.45
   4   6   3   22.66    2.25
   4   6   3   20.53    2.42
   4   6   3   21.01    1.80
  -5  -6  -3   13.95    5.21
  -5  -6  -3   18.62    2.60
   5   6   3   11.53    3.12
   5   6   3   13.41    1.69
   5   6   3   16.46    2.35
   5   6   3   18.59    2.28
   5   6   3   16.89    3.18
  -6  -6  -3   -0.25    1.95
  -6  -6  -3    1.32    1.99
   6   6   3    0.50    1.15
   6   6   3    3.65    2.54
  -7  -6  -3    0.83    1.89
  -7  -6  -3    0.11    1.70
  -8  -6  -3   31.56    2.93
   3  -7  -3    4.10    0.42
  -2   7   3    5.40    2.05
  -2   7   3    2.70    2.83
  -2   7   3    5.69    2.26
  -2   7   3    4.45    4.53
  -1   7   3    2.13    2.08
  -1   7   3    3.12    2.16
  -1   7   3    2.00    2.67
   0   7   3   71.82    5.23
   0   7   3   65.97    5.06
   0   7   3   64.52    3.95
   0   7   3   60.26    4.12
   0   7   3   84.54    7.27
   0   7   3   70.85    5.78
   0   7   3   69.80    3.82
   1   7   3   45.81    2.45
   1   7   3   46.06    2.62
   1   7   3   48.00    4.47
   1   7   3   53.76    4.97
   1   7   3   40.92    2.62
   1   7   3   43.54    4.09
   1   7   3   38.92    2.86
   2   7   3    5.59    0.34
   2   7   3    5.22    0.34
   2   7   3    5.57    1.08
   2   7   3    5.23    2.21
   2   7   3    5.21    2.76
   2   7   3    4.92    2.03
   2   7   3    5.80    0.74
   3   7   3   51.41    5.77
   3   7   3   61.20    3.90
   3   7   3   56.97    3.29
   3   7   3   56.68    4.38
   3   7   3   56.13    3.63
   3   7   3   53.29    4.97
   3   7   3   58.35    3.37
   3   7   3   56.71    4.07
   4   7   3   24.07    1.93
   4   7   3   28.80    2.66
   4   7   3   20.62    2.32
   4   7   3   22.89    1.65
   4   7   3   23.86    3.29
   4   7   3   22.14    1.67
   4   7   3   23.13    2.48
   4   7   3   18.94    3.56
   5   7   3   36.52    2.37
   5   7   3   40.72    4.51
   5   7   3   35.25    2.72
  -6  -7  -3    7.61    2.10
  -6  -7  -3    8.68    2.30
   6   7   3   12.51    3.12
   6   7   3    8.94    0.97
  -7  -7  -3    1.04    1.66
  -7  -7  -3    0.76    1.57
  -8  -7  -3    3.33    1.29
  -1   8   3   -0.15    1.82
   0   8   3    3.87    0.34
   0   8   3    4.49    0.47
   0   8   3    4.14    2.16
   0   8   3    8.57    2.25
   0   8   3    4.85    2.43
   1   8   3   11.30    1.03
   1   8   3   14.06    2.91
   1   8   3   10.59    2.37
   1   8   3   11.83    0.71
   1   8   3   12.26    0.72
   1   8   3   14.17    2.61
   2   8   3   31.22    2.41
   2   8   3   37.82    3.73
   2   8   3   31.59    4.17
   2   8   3   36.31    2.15
   3   8   3    6.39    1.07
   3   8   3    6.36    2.38
   3   8   3    4.85    1.95
   3   8   3    7.00    0.81
   4   8   3    3.09    1.72
   4   8   3    3.01    0.95
   4   8   3    4.56    2.21
   4   8   3    4.35    0.54
   4   8   3    5.04    0.73
   5   8   3   -1.05    1.94
   5   8   3    0.55    0.49
   5   8   3    0.24    1.42
  -6  -8  -3    9.49    2.07
   6   8   3   15.19    2.87
   6   8   3   11.17    1.03
  -7  -8  -3   10.05    1.70
  -7  -8  -3   10.18    1.62
   7   8   3   11.54    0.90
   0   9   3    3.38    1.60
   1   9   3    1.98    1.64
   1   9   3    4.76    1.79
   1   9   3    2.25    0.39
   2   9   3    3.51    1.83
   2   9   3    4.82    0.57
   2   9   3    4.64    1.96
   3   9   3   13.91    1.12
   3   9   3   15.67    2.13
   3   9   3   14.50    2.81
  -4  -9  -3   21.72    2.85
   4   9   3   29.59    3.46
   4   9   3   29.46    2.93
   4   9   3   23.72    1.63
  -5  -9  -3    0.30    1.50
   5   9   3    0.08    1.68
   5   9   3    2.18    1.30
  -6  -9  -3    0.92    1.28
   3  10   3    2.89    0.40
   5   8  -4   -0.03    0.74
  -5  -8   4   -0.92    1.18
   4   8  -4   12.30    1.65
  -4  -8   4   14.72    1.82
   2   8  -4    7.58    0.76
   1   8  -4    4.06    0.60
   0   8  -4   15.45    1.15
   0   8  -4   19.33    1.00
   6   7  -4   12.82    1.01
   6   7  -4   11.18    1.60
   6   7  -4    9.88    1.30
  -6  -7   4    9.71    1.75
   5   7  -4    5.58    1.40
   5   7  -4    7.49    1.37
   5   7  -4    5.91    0.73
  -5  -7   4    6.12    1.89
   4   7  -4    0.32    1.37
   4   7  -4    0.48    1.31
   4   7  -4    0.56    0.59
  -4  -7   4    2.42    1.92
   3   7  -4    2.52    0.61
   3   7  -4    0.68    1.26
   3   7  -4    3.31    1.67
  -3  -7   4    1.12    1.81
   2   7  -4   22.25    1.42
   2   7  -4   24.27    1.74
   2   7  -4   23.64    1.34
   2   7  -4   24.91    1.43
   2   7  -4   24.09    3.48
   1   7  -4    6.85    2.15
   1   7  -4    9.03    0.99
   1   7  -4    9.46    0.64
   1   7  -4   12.47    3.11
   0   7  -4    2.03    0.67
   0   7  -4    2.50    2.48
   0   7  -4    3.12    1.84
  -1   7  -4    9.58    2.70
  -1   7  -4   10.37    2.18
  -1   7  -4   13.10    1.12
  -7  -6   4    8.86    1.51
   6   6  -4    4.22    1.15
  -6  -6   4    6.00    1.75
   5   6  -4    2.58    1.38
  -5  -6   4    0.45    2.03
   4   6  -4   13.92    0.75
   4   6  -4   12.69    1.54
   4   6  -4   13.61    2.04
   4   6  -4   13.00    0.75
   4   6  -4   11.08    2.00
  -4  -6   4   13.06    2.44
   3   6  -4    0.51    0.17
   3   6  -4    0.78    1.75
   3   6  -4    0.72    0.71
   3   6  -4    1.24    1.44
   3   6  -4    0.28    1.65
  -3  -6   4    3.04    2.15
   2   6  -4    8.43    2.99
   2   6  -4    8.08    0.92
   2   6  -4    9.67    1.08
   2   6  -4    9.76    1.79
  -2  -6   4    5.66    2.27
   1   6  -4   23.08    4.82
   1   6  -4   20.30    1.45
   1   6  -4   19.24    1.69
   0   6  -4   25.00    5.36
   0   6  -4   27.56    2.03
   0   6  -4   27.26    4.33
   0   6  -4   27.22    3.72
  -1   6  -4   10.91    4.09
  -1   6  -4   10.66    2.58
  -1   6  -4   10.24    3.28
  -1   6  -4    9.48    1.04
  -2   6  -4    4.28    3.05
  -2   6  -4    6.31    0.84
   2  -6   4    9.02    0.77
  -3   6  -4   -1.35    2.03
  -3   6  -4    1.67    0.49
  -3   6  -4    0.39    1.61
   3  -6   4    0.64    0.30
  -7  -5   4   12.25    1.81
  -7  -5   4    9.13    1.82
  -6  -5   4    1.78    1.82
  -6  -5   4    0.26    1.71
   5   5  -4    3.27    1.48
   5   5  -4    3.81    0.31
   5   5  -4    4.39    0.31
  -5  -5   4    1.38    1.86
  -5  -5   4    4.27    2.05
   4   5  -4   48.18    3.81
   4   5  -4   54.28    4.09
   4   5  -4   50.55    2.78
   4   5  -4   49.10    3.31
   4   5  -4   51.92    5.01
  -4  -5   4   51.69    4.38
   3   5  -4    6.47    2.59
   3   5  -4    7.13    1.75
   3   5  -4    9.04    0.95
   3   5  -4   10.80    1.64
   2   5  -4   24.34    2.59
   2   5  -4   26.10    5.15
   2   5  -4   27.29    1.78
   2   5  -4   28.76    4.73
   1   5  -4   37.87    3.07
   1   5  -4   36.24    2.61
   1   5  -4   38.08    2.47
   1   5  -4   47.04    7.01
   1   5  -4   47.01    6.12
   0   5  -4   -0.28    1.01
   0   5  -4    2.40    2.83
   0   5  -4   -0.17    0.65
   0   5  -4    2.05    3.32
   0   5  -4    0.13    0.76
   0   5  -4   -0.66    0.56
   0   5  -4   -0.26    2.60
  -1   5  -4    5.85    4.00
  -1   5  -4    5.78    3.53
  -1   5  -4    8.23    3.22
  -1   5  -4    6.80    0.97
  -1   5  -4    7.96    0.98
  -2   5  -4    3.05    3.15
  -2   5  -4    3.45    0.83
  -2   5  -4    5.57    3.74
  -3   5  -4   15.39    1.41
  -3   5  -4   14.46    3.60
   3  -5   4   15.07    1.09
  -4   5  -4    3.16    2.24
  -4   5  -4    3.04    0.59
   4  -5   4    4.35    0.50
  -8  -4   4    4.08    0.61
  -7  -4   4    3.82    1.86
   6   4  -4   41.49    2.36
   6   4  -4   41.07    4.22
  -6  -4   4   44.76    4.22
  -6  -4   4   46.80    3.85
   5   4  -4   12.86    0.79
   5   4  -4   14.36    1.80
   5   4  -4   10.77    1.60
   5   4  -4   12.36    1.13
   5   4  -4   15.59    3.27
  -5  -4   4   16.55    2.53
  -5  -4   4   19.16    2.51
   4   4  -4   12.36    3.07
   4   4  -4   15.99    1.66
   4   4  -4   15.06    2.17
   4   4  -4   15.46    1.20
  -4  -4   4   12.40    4.54
   3   4  -4   52.95    6.87
   3   4  -4   50.88    3.01
   3   4  -4   48.45    5.69
   3   4  -4   52.70    3.93
   3   4  -4   53.22    3.30
   2   4  -4    2.33    1.36
   2   4  -4    1.56    0.49
   2   4  -4    3.20    2.90
   2   4  -4    2.45    2.06
   1   4  -4   24.85    1.68
   1   4  -4   25.43    2.42
   1   4  -4   23.20    5.30
   1   4  -4   24.66    4.49
   0   4  -4   50.01    6.15
   0   4  -4   44.09    2.82
   0   4  -4   46.12    3.34
   0   4  -4   54.32    7.42
  -1   4  -4   13.39    1.64
  -1   4  -4   13.13    1.29
  -1   4  -4    8.38    3.88
  -1   4  -4   12.47    4.61
  -2   4  -4   16.94    5.39
  -2   4  -4   21.83    3.97
  -2   4  -4   17.58    1.48
   2  -4   4   15.18    1.10
  -3   4  -4    4.45    3.62
  -3   4  -4    3.56    0.42
   3  -4   4    3.11    0.49
  -4   4  -4   15.95    1.12
  -4   4  -4    8.86    4.45
  -4   4  -4   13.67    3.36
   4  -4   4   18.01    1.13
   5  -4   4    2.20    0.28
  -8  -3   4    7.34    1.58
  -8  -3   4    9.39    0.83
   7   3  -4   20.74    1.17
  -7  -3   4   16.83    2.69
   6   3  -4   49.36    5.64
  -6  -3   4   48.09    4.59
   5   3  -4   37.30    5.14
   5   3  -4   37.33    2.66
   5   3  -4   32.17    2.31
  -5  -3   4   42.41    3.92
  -5  -3   4   36.81    6.79
  -5  -3   4   43.52    3.48
  -5  -3   4   34.04    6.53
   4   3  -4    2.39    0.56
   4   3  -4    1.42    1.97
   4   3  -4   -0.05    2.40
   4   3  -4   13.38    5.82
   4   3  -4    1.04    0.77
   4   3  -4    0.10    1.21
  -4  -3   4    3.60    3.92
  -4  -3   4    1.40    1.51
   3   3  -4   40.60    6.27
   3   3  -4   35.51    4.09
   3   3  -4   29.49    4.32
   3   3  -4   36.29    2.98
   3   3  -4   34.61    2.04
   3   3  -4   33.96    2.27
  -3  -3   4   25.61    2.80
  -3  -3   4   26.59    4.98
   2   3  -4  156.27   10.32
   2   3  -4  148.45    8.22
   2   3  -4  163.83   12.86
   2   3  -4  144.42    8.76
   2   3  -4  142.50   10.81
   2   3  -4  145.15    8.35
   1   3  -4   18.04    2.06
   1   3  -4   19.01    3.59
   1   3  -4   18.28    2.45
   1   3  -4   15.20    4.33
   1   3  -4   15.20    3.57
   1   3  -4   18.63    1.26
   0   3  -4   15.41    3.45
   0   3  -4   15.94    4.42
   0   3  -4   15.88    1.84
   0   3  -4   14.07    3.61
   0   3  -4   18.47    2.32
   0   3  -4   18.56    1.27
  -1   3  -4   32.21    5.07
  -1   3  -4   33.70    2.19
  -1   3  -4   39.67    5.08
  -1   3  -4   34.76    2.68
  -1   3  -4   39.97    6.40
  -2   3  -4   15.62    4.92
  -2   3  -4   21.13    1.58
  -2   3  -4   19.27    1.97
  -3   3  -4   32.91    4.80
  -3   3  -4   35.78    2.12
  -3   3  -4   50.03    7.90
   3  -3   4   36.25    2.11
  -4   3  -4   16.04    3.66
  -4   3  -4   15.71    2.20
  -4   3  -4   17.86    1.22
   4  -3   4   19.25    1.22
  -5   3  -4    2.17    1.33
  -5   3  -4    2.97    0.42
   5  -3   4    3.25    0.38
  -6   3  -4    3.08    1.00
  -6   3  -4    5.62    0.54
  -8  -2   4   17.27    2.31
   7   2  -4   53.89    5.42
  -7  -2   4   52.01    3.25
  -7  -2   4   49.21    4.68
   6   2  -4   10.08    3.54
  -6  -2   4   11.33    2.75
  -6  -2   4    9.25    1.40
   5   2  -4   15.30    1.44
   5   2  -4   17.04    1.72
   5   2  -4   15.55    4.01
  -5  -2   4   22.06    2.59
  -5  -2   4   16.12    5.39
  -5  -2   4   19.46    2.81
  -5  -2   4   18.27    5.26
   4   2  -4   55.32    5.95
   4   2  -4   50.50    3.05
   4   2  -4   56.18    3.30
  -4  -2   4   54.90    3.87
  -4  -2   4   37.66    6.40
  -4  -2   4   46.91    6.76
   3   2  -4  100.51    5.82
   3   2  -4   88.02    8.04
   3   2  -4  100.39    7.66
   3   2  -4  106.25    5.64
   3   2  -4   95.60    6.21
  -3  -2   4  112.67    8.96
  -3  -2   4   98.79    6.24
   2   2  -4  151.27    8.23
   2   2  -4  140.49    8.34
   2   2  -4  150.96    8.73
   2   2  -4  141.09   10.16
   2   2  -4  152.05   12.30
  -2  -2   4  159.11    8.71
   1   2  -4   73.73    3.86
   1   2  -4   68.12    6.08
   1   2  -4   66.31    3.93
   1   2  -4   68.14    4.35
   1   2  -4   65.11    4.69
   1   2  -4   62.56    7.27
  -1  -2   4   70.90    4.41
   0   2  -4    7.62    0.84
   0   2  -4    9.80    1.70
   0   2  -4   12.97    3.11
   0   2  -4    8.41    1.45
   0   2  -4    9.18    3.41
  -1   2  -4  198.66   11.55
  -1   2  -4  221.65   12.22
  -1   2  -4  226.07   16.05
  -1   2  -4  216.89   14.30
  -1   2  -4  196.17   11.86
  -2   2  -4   89.72    5.69
  -2   2  -4   94.21    9.55
  -2   2  -4   89.33    5.43
  -2   2  -4   80.76    5.01
   2  -2   4  104.94   10.09
  -3   2  -4   -0.28    1.00
  -3   2  -4    0.02    2.41
   3  -2   4    0.69    1.51
   3  -2   4    0.11    3.07
  -4   2  -4   21.22    2.40
  -4   2  -4   23.60    4.05
  -4   2  -4   15.84    1.12
  -4   2  -4   15.21    1.01
   4  -2   4   11.13    0.96
   4  -2   4   12.41    5.27
   4  -2   4   10.83    2.03
  -5   2  -4   27.90    3.11
  -5   2  -4   26.81    1.60
   5  -2   4   22.88    3.29
   5  -2   4   24.70    1.53
  -6   2  -4    0.97    0.35
  -6   2  -4    0.85    1.34
  -7  -1   4   29.84    3.13
  -7  -1   4   26.17    3.60
  -7  -1   4   30.69    1.93
   6   1  -4    7.23    1.28
   6   1  -4   10.74    3.85
  -6  -1   4   10.13    1.24
  -6  -1   4    9.46    2.01
  -6  -1   4   11.58    2.63
   5   1  -4   24.32    1.84
   5   1  -4   24.47    4.95
   5   1  -4   23.69    1.96
   5   1  -4   24.89    2.38
  -5  -1   4   26.28    2.70
  -5  -1   4   30.38    3.73
  -5  -1   4   20.32    5.62
   3   1  -4   76.86    4.50
   3   1  -4   82.80    4.38
   3   1  -4   66.83    6.83
   3   1  -4   77.03    4.67
   3   1  -4   78.14    6.58
  -3  -1   4   72.72    5.26
  -3  -1   4   76.70    4.94
  -3  -1   4   76.72    7.10
  -3  -1   4   80.09    7.37
   1   1  -4  170.67    9.00
   1   1  -4  152.74    8.70
   1   1  -4  142.30    9.22
   1   1  -4  148.49   12.04
   1   1  -4  158.53    8.63
   1   1  -4  162.02   10.57
  -1  -1   4  164.62    9.01
  -1  -1   4  155.86    9.29
   0   1  -4  502.75   28.36
   0   1  -4  469.37   26.78
   0   1  -4  491.17   26.56
   0   1  -4  482.58   29.82
   0   1  -4  492.21   26.28
   0  -1   4  435.21   28.85
   0  -1   4  501.65   26.58
  -1   1  -4   88.18    5.54
  -1   1  -4   89.60    8.13
  -1   1  -4   90.91    7.28
  -1   1  -4   79.26    4.80
  -1   1  -4   92.13    5.22
   1  -1   4   81.11    4.83
   1  -1   4   90.57    8.05
  -2   1  -4   25.88    4.40
  -2   1  -4   29.07    2.37
  -2   1  -4   35.48    2.91
  -2   1  -4   28.22    1.79
   2  -1   4   25.81    1.87
   2  -1   4   28.45    5.12
  -3   1  -4   31.83    2.99
  -3   1  -4   27.83    2.47
   3  -1   4   37.83    6.54
   3  -1   4   33.46    3.19
   3  -1   4   30.55    2.08
  -4   1  -4    3.58    1.18
   4  -1   4    4.59    0.91
   4  -1   4    4.00    3.75
   4  -1   4    3.66    1.56
  -5   1  -4   10.63    0.88
  -5   1  -4   10.04    2.12
  -5   1  -4    9.68    1.57
   5  -1   4   16.74    6.04
   5  -1   4   11.82    1.92
   5  -1   4   10.64    1.25
  -6   1  -4    1.69    0.40
  -6   1  -4    1.85    1.65
   6  -1   4    0.86    1.29
  -7   1  -4    0.93    1.10
  -7   1  -4    0.99    0.30
  -7   0   4    8.46    0.64
  -7   0   4    8.12    1.83
  -7   0   4    6.03    2.10
   6   0  -4    3.16    3.03
   6   0  -4   -0.11    1.22
  -6   0   4    0.16    0.31
  -6   0   4   -0.70    2.07
  -6   0   4   -0.38    0.68
  -6   0   4   -0.30    1.83
   5   0  -4   20.39    9.71
   5   0  -4    2.28    1.29
   5   0  -4    2.91    0.86
   5   0  -4    2.94    0.86
   5   0  -4    1.84    2.93
  -5   0   4    1.76    4.63
  -5   0   4    3.45    1.40
  -5   0   4    3.93    2.23
  -5   0   4    3.52    0.76
   1   0  -4  288.14   15.08
   1   0  -4  293.54   16.94
   1   0  -4  272.95   15.33
  -1   0   4  267.29   17.51
  -1   0   4  273.51   15.33
  -1   0   4  278.61   15.55
  -1   0   4  258.61   16.07
   0   0  -4  294.77   20.03
   0   0  -4  299.82   17.14
   0   0  -4  267.61   17.30
   0   0  -4  305.76   16.90
   0   0  -4  304.34   16.89
   0   0  -4  313.22   18.72
   0   0   4  318.19   18.39
   0   0   4  320.86   17.16
   0   0   4  306.40   19.32
   0   0   4  334.36   16.91
   0   0   4  330.53   17.38
   0   0   4  319.28   18.41
  -1   0  -4   -0.28    1.04
  -1   0  -4    0.38    1.29
  -1   0  -4   -1.67    1.85
  -1   0  -4    1.65    2.03
  -1   0  -4    0.68    0.43
   1   0   4   -0.34    1.02
   1   0   4    1.66    0.53
   1   0   4    0.66    1.62
   1   0   4    0.06    1.86
  -2   0  -4   94.46    6.12
  -2   0  -4   83.04    8.16
  -2   0  -4  105.76    5.79
   2   0   4   86.49    8.37
   2   0   4   91.20    7.15
   2   0   4  106.99    5.42
  -3   0  -4  110.30    6.79
  -3   0  -4   98.61    6.33
   3   0   4  101.05    6.36
   3   0   4  120.09   10.32
   3   0   4  114.90    8.28
   3   0   4  100.17    5.94
  -4   0  -4   53.36    3.66
   4   0   4   53.18    3.82
   4   0   4   51.05    3.16
   4   0   4   41.38    5.65
   4   0   4   57.23    7.96
  -5   0  -4    6.53    0.66
  -5   0  -4    5.74    1.71
  -5   0  -4    7.38    1.53
   5   0   4    6.18    1.00
   5   0   4    7.51    3.49
   5   0   4    6.86    4.29
   5   0   4    5.57    1.51
  -6   0  -4   50.52    2.93
  -6   0  -4   53.09    4.24
  -6   0  -4   52.34    3.18
   6   0   4   59.39    6.99
   6   0   4   48.14    3.74
  -7   0  -4    5.99    0.63
  -7   0  -4    4.28    1.51
  -7   1   4    0.49    1.41
  -7   1   4    0.40    0.23
   6  -1  -4   17.12    2.71
  -6   1   4   21.51    1.30
  -6   1   4   20.87    2.67
   5  -1  -4   85.78    5.88
   5  -1  -4   86.52    5.27
  -5   1   4   95.59    6.02
  -5   1   4   90.13    5.06
  -5   1   4   94.01    5.13
  -5   1   4   80.49   10.03
  -5   1   4   92.35    4.98
   3  -1  -4   99.48    5.60
   3  -1  -4   93.88    5.20
   3  -1  -4   97.15    5.11
  -3   1   4   86.49    5.57
  -3   1   4   83.75    6.68
  -3   1   4   84.40    5.38
  -3   1   4   82.50    5.99
  -3   1   4   83.02    7.74
   2  -1  -4  135.08    7.42
   2  -1  -4  134.68    9.54
  -2   1   4  122.94    9.14
  -2   1   4  130.82    7.64
  -2   1   4  132.10    8.18
  -2   1   4  131.92    7.42
  -2   1   4  126.76   10.42
  -2   1   4  154.46    7.90
   1  -1  -4  223.15   14.67
   1  -1  -4  247.20   12.92
  -1   1   4  238.22   13.99
  -1   1   4  228.74   15.42
  -1   1   4  225.92   14.48
  -1   1   4  252.24   12.93
  -1   1   4  230.79   13.13
  -1   1   4  234.35   13.27
   0  -1  -4  165.95   11.22
   0   1   4  183.18    9.68
   0   1   4  169.13    9.90
   0   1   4  180.49   11.06
   0   1   4  175.05   11.88
   0   1   4  181.78   10.10
  -1  -1  -4   77.08    5.76
  -1  -1  -4   65.49    4.37
  -1  -1  -4   67.09    4.06
   1   1   4   63.90    4.08
   1   1   4   63.24    4.23
   1   1   4   57.08    5.70
   1   1   4   62.51    5.07
   1   1   4   62.03    3.66
  -2  -1  -4  128.76    7.85
  -2  -1  -4  136.05    7.46
  -2  -1  -4  121.58    8.98
   2   1   4  130.42    8.61
   2   1   4  122.93    7.07
   2   1   4  131.58    7.43
   2   1   4  126.19    9.62
  -3  -1  -4  217.08   15.53
  -3  -1  -4  250.14   13.97
  -3  -1  -4  235.69   14.36
   3   1   4  254.79   17.23
   3   1   4  255.95   13.55
   3   1   4  256.63   15.48
   3   1   4  260.45   13.78
  -4  -1  -4   19.94    2.74
  -4  -1  -4   18.01    2.08
   4   1   4   21.15    3.42
   4   1   4   19.52    4.73
   4   1   4   18.15    3.64
   4   1   4   18.69    2.00
   4   1   4   16.67    1.42
  -5  -1  -4   17.84    2.31
   5   1   4   22.08    1.72
   5   1   4   22.07    2.22
   5   1   4   19.89    4.42
   5   1   4   22.46    5.82
  -6  -1  -4   54.75    4.68
  -6  -1  -4   55.66    3.49
  -6  -1  -4   58.50    4.45
   6   1   4   51.52    3.66
   6   1   4   66.10    7.03
  -7  -1  -4    9.37    0.99
  -7  -1  -4    6.11    1.65
   7   1   4   12.21    3.33
  -7   2   4    0.67    1.13
  -7   2   4   -3.02    3.45
  -7   2   4    0.19    0.18
   6  -2  -4    5.22    1.71
  -6   2   4    8.80    2.03
  -6   2   4   10.15    0.70
   5  -2  -4   41.61   17.07
   5  -2  -4   13.54    0.84
   5  -2  -4   12.40    1.97
  -5   2   4    1.81    3.52
  -5   2   4   10.28    2.22
  -5   2   4   10.87    0.87
  -5   2   4    9.60    1.00
   3  -2  -4   19.66    2.42
   3  -2  -4   19.68    1.42
   3  -2  -4   14.37    1.47
  -3   2   4   19.14    3.11
  -3   2   4   13.75    3.98
  -3   2   4   21.48    3.75
  -3   2   4   17.30    1.52
  -3   2   4   18.96    4.66
   2  -2  -4  161.95    9.68
  -2   2   4  189.34    9.89
  -2   2   4  178.11   10.61
  -2   2   4  183.05   13.36
  -2   2   4  170.99   10.91
  -2   2   4  170.98    9.83
  -2   2   4  179.35    9.69
  -2   2   4  171.31   12.00
  -1   2   4   38.81    2.74
  -1   2   4   53.99    4.08
  -1   2   4   37.90    4.89
  -1   2   4   32.73    4.12
  -1   2   4   49.43    2.58
  -1   2   4   41.80    2.91
  -1   2   4   49.45    3.59
   0   2   4  188.79   10.47
   0   2   4  168.60   12.30
   0   2   4  176.42   11.58
   0   2   4  186.67   10.58
   0   2   4  208.78   10.27
  -1  -2  -4  157.35   10.75
   1   2   4  172.71   10.12
   1   2   4  162.55    9.13
   1   2   4  159.36    9.24
   1   2   4  158.49    8.82
   1   2   4  156.07   10.83
  -2  -2  -4   86.03    7.57
  -2  -2  -4   74.08    5.04
   2   2   4   92.73    6.12
   2   2   4   88.61    4.66
   2   2   4   86.00    5.08
   2   2   4   83.00    5.30
   2   2   4   75.64    6.56
  -3  -2  -4  118.64    8.98
  -3  -2  -4  111.71    6.86
   3   2   4  113.27    6.89
   3   2   4  112.14    9.15
   3   2   4  123.41    6.43
   3   2   4  113.91    7.88
  -4  -2  -4   56.88    4.07
  -4  -2  -4   60.14    6.24
   4   2   4   54.95    4.98
   4   2   4   57.46    6.82
   4   2   4   63.80    3.45
   4   2   4   47.47    5.24
   4   2   4   64.96    3.66
  -5  -2  -4   16.16    2.22
   5   2   4   17.16    1.44
   5   2   4   15.28    1.60
   5   2   4   19.20    4.84
   5   2   4   22.27    3.94
  -6  -2  -4    6.20    2.21
  -6  -2  -4    6.54    1.55
  -6  -2  -4    7.63    1.22
   6   2   4   12.15    3.36
   6   2   4   14.08    4.72
   6   2   4    5.23    0.84
  -7  -2  -4    2.70    2.03
  -7  -2  -4    5.74    1.01
   7   2   4    3.47    2.29
   8   2   4    6.49    0.48
  -6   3   4    2.04    5.21
  -6   3   4    6.24    1.67
  -6   3   4    5.74    0.52
   5  -3  -4    4.05    1.70
  -5   3   4    5.78    2.04
  -5   3   4    4.53    6.53
  -5   3   4    7.45    3.63
  -5   3   4    5.08    0.58
   4  -3  -4   31.45    1.94
   4  -3  -4   33.61    3.17
  -4   3   4   30.32    4.32
  -4   3   4   33.56    3.31
  -4   3   4   33.87    1.91
  -4   3   4   29.23    5.15
  -4   3   4   30.86    6.91
  -4   3   4   33.45    2.02
  -3   3   4   90.89    9.12
  -3   3   4   98.90   10.13
  -3   3   4   94.35    7.81
  -3   3   4   93.21    5.37
  -3   3   4   95.14    6.80
  -2   3   4   22.35    2.91
  -2   3   4   21.89    3.64
  -2   3   4   18.45    4.27
  -2   3   4   17.82    1.41
  -2   3   4   17.80    4.31
  -1   3   4  133.72    7.32
  -1   3   4  132.75    8.19
  -1   3   4  131.99    8.76
  -1   3   4  121.96    9.44
  -1   3   4  135.62   10.52
  -1   3   4  138.49    9.54
   0   3   4   13.08    2.44
   0   3   4   15.80    1.10
   0   3   4   14.20    1.42
   0   3   4   14.61    2.11
   0   3   4   13.20    2.95
   0   3   4   13.93    2.52
   0   3   4   16.18    1.54
  -1  -3  -4   90.25    7.80
   1   3   4   89.88    5.49
   1   3   4   84.94    6.93
   1   3   4   89.87    5.07
   1   3   4  101.78    6.33
   1   3   4   93.47    5.38
  -2  -3  -4   25.61    5.01
   2   3   4   31.22    1.92
   2   3   4   27.28    1.70
   2   3   4   29.98    2.38
   2   3   4   26.10    3.45
   2   3   4   28.41    2.45
   2   3   4   30.00    2.77
  -3  -3  -4   45.30    3.52
  -3  -3  -4   62.03    5.88
  -3  -3  -4   64.07    6.36
   3   3   4   52.79    3.66
   3   3   4   57.14    3.18
   3   3   4   55.82    3.05
   3   3   4   44.43    4.90
   3   3   4   48.96    3.96
  -4  -3  -4    9.05    1.53
  -4  -3  -4    7.58    3.50
   4   3   4    7.27    0.76
   4   3   4    8.16    1.59
   4   3   4    7.15    1.99
   4   3   4    5.18    0.81
   4   3   4    6.89    2.48
   4   3   4    6.31    1.46
  -5  -3  -4   43.27    3.31
  -5  -3  -4   34.26    5.87
   5   3   4   48.02    4.74
   5   3   4   40.39    2.50
  -6  -3  -4    7.30    1.75
  -6  -3  -4    6.51    2.29
   6   3   4    5.88    2.40
   6   3   4    3.47    0.66
  -7  -3  -4    5.32    2.20
  -7  -3  -4    9.84    1.31
   7   3   4    8.06    0.62
   7   3   4    9.76    2.53
  -8  -3  -4    6.96    0.85
  -8  -3  -4    6.33    1.70
  -6   4   4   29.42    2.56
   5  -4  -4    0.96    0.36
  -5   4   4    8.72    6.07
  -5   4   4    0.95    0.26
  -5   4   4   -0.43    3.11
  -5   4   4    0.05    1.56
   4  -4  -4    9.32    0.81
  -4   4   4    8.72    2.41
  -4   4   4    8.06    0.82
  -4   4   4    7.01    0.64
  -4   4   4    6.00    5.75
  -4   4   4    8.20    3.92
  -3   4   4   28.64    5.98
  -3   4   4   18.59    4.23
  -3   4   4   20.59    1.65
  -3   4   4   25.61    2.84
  -3   4   4   17.93    1.21
  -3   4   4   16.51    3.35
  -3   4   4   22.05    5.57
  -3   4   4   25.66    4.28
  -3   4   4   24.95    2.99
  -2   4   4   23.07    5.09
  -2   4   4   22.92    4.24
  -2   4   4   19.47    3.92
  -2   4   4   21.56    3.31
  -2   4   4   21.81    1.63
  -1   4   4   25.33    3.33
  -1   4   4   18.90    3.75
  -1   4   4   25.91    4.16
  -1   4   4   23.56    1.63
  -1   4   4   26.47    3.79
  -1   4   4   26.57    4.61
   0  -4  -4  101.07    8.33
   0   4   4   97.66    8.21
   0   4   4   99.10    5.31
   0   4   4   94.31    5.38
   0   4   4   80.27    7.20
   0   4   4   96.00    6.98
   0   4   4  105.18    7.34
   0   4   4   96.93    6.42
   0   4   4   84.25    6.28
  -1  -4  -4   76.59    7.49
   1   4   4   79.19    4.40
   1   4   4   83.15    4.52
   1   4   4   80.94    5.55
   1   4   4   78.14    4.72
   1   4   4   79.01    5.64
   1   4   4   70.71    6.35
   1   4   4   80.31    4.77
  -2  -4  -4   50.14    6.97
   2   4   4   50.97    3.46
   2   4   4   49.26    2.85
   2   4   4   50.33    4.30
   2   4   4   51.23    3.02
   2   4   4   52.45    3.56
   2   4   4   50.07    3.42
  -3  -4  -4   42.47    6.34
  -3  -4  -4   39.12    5.38
   3   4   4   38.75    2.60
   3   4   4   41.30    3.49
   3   4   4   43.48    3.16
   3   4   4   48.69    3.37
  -4  -4  -4    2.81    4.28
  -4  -4  -4   -0.53    3.14
   4   4   4    0.86    1.04
   4   4   4    0.98    0.70
   4   4   4    1.66    1.26
  -5  -4  -4   19.10    2.24
  -5  -4  -4   14.49    4.66
   5   4   4   18.68    1.67
   5   4   4   20.10    2.34
   5   4   4   17.58    2.54
  -6  -4  -4   14.44    2.09
  -6  -4  -4   13.74    2.36
   6   4   4   18.30    2.63
   6   4   4   16.75    0.96
  -7  -4  -4    4.14    2.16
   7   4   4    3.47    0.31
   7   4   4    3.49    0.29
  -8  -4  -4    3.88    0.87
  -8  -4  -4    2.55    1.64
  -5   5   4    1.75    2.52
  -5   5   4   -1.30    4.28
   4  -5  -4    0.57    0.40
  -4   5   4    1.58    5.85
  -4   5   4   -1.42    3.43
   3  -5  -4    0.56    0.42
  -3   5   4    1.76    2.08
  -3   5   4    0.32    0.91
  -3   5   4    2.39    2.11
  -3   5   4    3.15    5.66
  -3   5   4    2.84    3.98
   2  -5  -4    5.30    0.65
  -2   5   4   12.62    3.79
  -2   5   4   13.63    4.63
  -2   5   4    6.86    2.71
  -2   5   4    9.66    4.08
  -2   5   4    7.90    2.21
  -2   5   4    9.59    0.98
  -2   5   4    7.41    3.81
  -2   5   4    8.81    5.26
  -2   5   4   10.77    2.31
  -2   5   4    7.98    3.53
  -1   5   4   18.11    2.95
  -1   5   4   25.64    4.57
  -1   5   4   27.58    5.36
  -1   5   4   23.05    4.27
  -1   5   4   24.84    1.71
   0   5   4   32.50    2.23
   0   5   4   26.88    4.07
   0   5   4   29.79    4.71
   0   5   4   31.66    3.46
   0   5   4   33.16    1.99
  -1  -5  -4  127.12   10.51
   1   5   4  120.79    7.69
   1   5   4  115.48    6.75
   1   5   4  113.49    8.45
   1   5   4  113.04    8.92
   1   5   4  123.18    8.15
   1   5   4  123.98    6.85
   1   5   4  123.34    7.97
   1   5   4  116.44    6.61
  -2  -5  -4   17.21    4.52
  -2  -5  -4   20.32    4.21
   2   5   4   13.98    1.73
   2   5   4   18.10    1.36
   2   5   4   20.75    3.16
   2   5   4   15.27    1.81
   2   5   4   12.83    2.18
  -3  -5  -4   27.63    5.15
  -3  -5  -4   26.64    6.10
   3   5   4   29.28    2.58
   3   5   4   28.27    2.65
   3   5   4   29.89    1.99
   3   5   4   29.11    3.79
  -4  -5  -4    6.71    4.44
  -4  -5  -4   10.46    4.27
   4   5   4   12.19    1.73
   4   5   4   13.03    1.34
  -5  -5  -4   13.74    2.60
  -5  -5  -4   12.58    4.92
   5   5   4   11.98    2.85
   5   5   4   13.12    2.07
   5   5   4   14.50    1.76
  -6  -5  -4    6.50    2.06
  -6  -5  -4    9.40    2.32
   6   5   4    3.68    1.19
  -7  -5  -4   16.02    2.50
  -8  -5  -4    2.43    1.64
   4  -6  -4    6.38    0.65
  -4   6   4    7.64    5.37
  -4   6   4    6.45    3.08
   3  -6  -4   14.76    1.04
  -3   6   4   12.79    3.88
  -3   6   4   13.55    2.65
  -3   6   4    8.47    4.23
  -3   6   4   14.66    6.10
  -2   6   4   21.60    2.15
  -2   6   4   26.91    3.03
  -2   6   4   32.23    5.80
  -2   6   4   31.35    5.65
  -2   6   4   26.55    6.25
  -2   6   4   25.76    4.49
  -2   6   4   23.26    3.13
  -1   6   4    2.61    1.96
  -1   6   4   -3.16    4.79
  -1   6   4    5.87    3.29
  -1   6   4    1.66    2.31
  -1   6   4    0.90    3.65
  -1   6   4    1.41    4.17
  -1   6   4    1.63    5.27
  -1   6   4    0.29    1.98
  -1   6   4    1.94    0.70
  -1   6   4    4.28    2.78
  -1   6   4    1.45    0.97
   0   6   4    8.76    2.33
   0   6   4    9.97    1.18
   0   6   4   12.15    3.61
   0   6   4    9.60    2.99
   0   6   4    7.12    0.82
   0   6   4   12.53    3.57
   1   6   4   78.45    6.56
   1   6   4   87.31    4.86
   1   6   4   79.66    4.64
   1   6   4   82.79    6.73
   2   6   4    0.05    0.92
   2   6   4    1.53    2.45
   2   6   4    0.82    0.75
   2   6   4    1.14    1.15
  -3  -6  -4   13.20    5.10
   3   6   4   12.97    3.24
   3   6   4   13.54    1.51
   3   6   4   11.78    1.67
  -4  -6  -4   37.80    6.14
   4   6   4   30.36    4.45
   4   6   4   26.69    3.76
   4   6   4   31.65    2.91
   4   6   4   34.16    2.35
  -5  -6  -4   45.99    7.62
  -5  -6  -4   53.33    4.58
  -5  -6  -4   54.23    4.44
   5   6   4   59.21    3.50
   5   6   4   58.34    4.10
   5   6   4   38.88    5.08
   5   6   4   55.77    5.02
  -6  -6  -4    7.60    2.33
  -6  -6  -4    4.23    2.05
  -7  -6  -4    1.63    1.71
  -7  -6  -4    3.41    1.92
  -8  -6  -4    2.07    1.54
   3  -7  -4    1.16    0.32
  -2   7   4    7.31    2.08
  -2   7   4    6.87    2.44
  -2   7   4   11.93    3.82
  -2   7   4    3.90    2.87
  -1   7   4   36.83    5.48
  -1   7   4   26.55    3.10
  -1   7   4   29.18    2.36
  -1   7   4   38.51    4.88
  -1   7   4   34.58    4.19
   0   7   4    5.02    0.51
   0   7   4    4.62    0.71
   0   7   4    6.46    2.12
   0   7   4    3.61    1.05
   0   7   4    4.05    1.89
   0   7   4    3.77    2.59
   1   7   4    9.44    0.61
   1   7   4    9.41    1.24
   1   7   4   12.00    2.13
   1   7   4    8.58    0.92
   1   7   4   11.03    2.75
   1   7   4    9.61    0.95
   2   7   4   78.30    4.33
   2   7   4   74.92    4.57
   2   7   4   72.21    6.03
   2   7   4   65.95    6.47
   2   7   4   77.77    4.12
   2   7   4   76.57    4.12
   3   7   4   15.87    3.64
   3   7   4   15.95    1.88
   3   7   4   13.35    1.61
   3   7   4   15.42    1.15
   3   7   4   15.29    2.75
   3   7   4   14.24    1.32
   4   7   4    9.32    1.60
   4   7   4    5.04    2.73
   4   7   4    9.25    1.03
   4   7   4    8.21    1.19
   4   7   4    9.14    2.44
   4   7   4    9.53    0.94
  -5  -7  -4    5.62    2.39
   5   7   4    7.76    0.90
   5   7   4    8.75    2.58
   5   7   4    6.48    1.24
  -6  -7  -4    2.14    2.02
  -6  -7  -4    2.53    1.83
   6   7   4    1.18    0.64
  -7  -7  -4    4.86    1.73
  -7  -7  -4    4.06    1.68
  -8  -7  -4    5.97    1.34
  -1   8   4    7.40    1.95
  -1   8   4    9.74    2.13
   0   8   4   24.69    4.04
   0   8   4   25.16    1.45
   0   8   4   26.83    2.86
   0   8   4   28.29    3.59
   1   8   4   19.43    3.02
   1   8   4   15.66    2.45
   1   8   4   16.73    0.95
   1   8   4   17.22    0.94
   1   8   4   12.55    1.70
   1   8   4   15.69    1.19
   2   8   4   10.07    1.29
   2   8   4   11.35    1.06
   2   8   4   13.27    2.62
   2   8   4    9.64    2.07
   3   8   4   13.91    1.15
   3   8   4    9.82    1.28
   3   8   4   11.96    2.64
  -4  -8  -4    7.08    2.19
   4   8   4    6.51    0.83
   4   8   4    7.34    0.75
   4   8   4    4.86    1.07
   4   8   4    9.64    2.58
  -5  -8  -4    4.38    2.06
   5   8   4    3.16    0.57
   5   8   4    2.66    2.15
  -6  -8  -4   18.88    3.07
   6   8   4   18.27    1.33
  -7  -8  -4    8.50    1.51
  -7  -8  -4    6.68    1.54
   7   8   4    6.55    0.69
   0   9   4   -0.49    1.40
   1   9   4   17.25    2.25
   1   9   4   21.59    1.29
   2   9   4    2.32    1.65
   2   9   4    1.56    1.56
   2   9   4    1.29    0.45
   3   9   4    7.06    0.72
   3   9   4    6.70    2.03
  -4  -9  -4    3.23    1.59
   4   9   4    2.52    0.57
   4   9   4    5.24    1.93
  -5  -9  -4    8.47    1.81
   5   9   4    8.28    2.10
  -6  -9  -4    5.72    1.46
   3  10   4    2.07    0.38
   4  10   4    8.05    0.72
   5   7  -5   11.36    1.66
   5   7  -5   11.32    1.02
  -5  -7   5   12.21    1.90
   4   7  -5    2.87    0.58
   4   7  -5    2.51    1.15
  -4  -7   5    3.44    1.75
   3   7  -5   18.51    1.30
   3   7  -5   17.72    2.16
  -3  -7   5   19.20    2.41
   2   7  -5    3.39    0.73
   2   7  -5    4.66    0.35
   2   7  -5    4.75    0.37
  -2  -7   5    5.47    1.75
   1   7  -5    7.27    0.53
   1   7  -5    8.70    0.87
   0   7  -5   52.74    3.10
  -1   7  -5   15.64    2.43
  -1   7  -5   18.30    1.22
   6   6  -5   20.45    1.94
  -6  -6   5   18.72    2.58
   5   6  -5   23.88    2.45
  -5  -6   5   23.43    3.28
   4   6  -5    3.36    0.27
   4   6  -5    2.10    1.47
   4   6  -5    3.34    0.26
   4   6  -5    3.72    0.90
  -4  -6   5    4.56    2.00
   3   6  -5   22.81    1.91
   3   6  -5   24.03    3.94
   3   6  -5   25.40    1.42
   3   6  -5   29.29    2.81
  -3  -6   5   26.21    3.46
   2   6  -5   33.49    2.22
   2   6  -5   33.98    3.12
   2   6  -5   38.23    5.25
  -2  -6   5   31.28    3.77
   1   6  -5    7.89    1.06
   1   6  -5   12.18    3.83
   1   6  -5   10.07    1.01
   0   6  -5   21.25    4.85
   0   6  -5   17.60    1.60
   0   6  -5   15.91    3.21
  -1   6  -5   15.54    2.63
  -1   6  -5   17.09    3.31
  -1   6  -5   23.60    5.76
  -1   6  -5   19.03    1.56
   1  -6   5   17.58    1.20
  -2   6  -5    0.40    0.59
  -2   6  -5    0.60    1.63
  -2   6  -5    0.73    2.44
   2  -6   5    1.15    0.34
  -7  -5   5   11.32    1.75
  -6  -5   5    1.19    1.65
  -6  -5   5    2.19    1.57
   5   5  -5    0.40    0.20
   5   5  -5    1.39    1.39
   5   5  -5    0.50    0.15
  -5  -5   5    0.31    1.71
  -5  -5   5    2.21    1.96
   4   5  -5   19.78    2.59
   4   5  -5   24.21    3.74
   4   5  -5   21.34    1.12
  -4  -5   5   13.95    2.51
  -4  -5   5   14.11    2.69
   3   5  -5   25.12    4.59
   3   5  -5   25.92    2.79
   3   5  -5   21.67    2.63
   3   5  -5   24.71    1.64
  -3  -5   5   18.93    2.83
  -3  -5   5   23.61    3.28
   2   5  -5   29.90    2.21
   2   5  -5   31.21    2.91
   2   5  -5   43.62    5.73
   2   5  -5   31.56    2.09
   2   5  -5   36.96    6.36
   2   5  -5   29.89    2.95
   1   5  -5    7.08    3.70
   1   5  -5    6.86    0.89
   1   5  -5    5.92    1.55
   1   5  -5    5.95    0.86
   1   5  -5    6.02    3.33
   1   5  -5    6.33    1.05
   0   5  -5   36.72    4.57
   0   5  -5   42.06    7.75
   0   5  -5   36.52    2.31
   0   5  -5   38.17    2.51
   0   5  -5   32.90    2.90
   0   5  -5   44.15    6.76
   0   5  -5   36.77    2.45
  -1   5  -5   11.49    3.53
  -1   5  -5   10.91    1.20
  -1   5  -5   15.01    4.76
   1  -5   5   12.55    0.98
  -2   5  -5   18.65    1.56
  -2   5  -5   17.10    3.85
   2  -5   5   16.94    1.20
  -3   5  -5    8.19    3.06
  -3   5  -5    6.72    0.84
   3  -5   5    7.77    0.74
  -4   5  -5    4.61    0.56
   4  -5   5    4.88    0.48
  -7  -4   5   -0.08    1.50
  -7  -4   5    0.23    0.83
   6   4  -5   17.25    2.91
   6   4  -5   17.27    0.98
  -6  -4   5   15.26    2.63
   5   4  -5   79.36    5.34
   5   4  -5   84.36    7.38
   5   4  -5   81.95    4.57
  -5  -4   5   83.55    5.81
  -5  -4   5   90.23    6.14
   4   4  -5   86.54    5.47
   4   4  -5   87.10    5.18
   4   4  -5   92.09    6.15
   4   4  -5   88.53    5.81
   4   4  -5   97.30    8.32
  -4  -4   5   99.51    6.46
  -4  -4   5   98.55    6.28
   3   4  -5    1.79    0.83
   3   4  -5    2.43    2.88
   3   4  -5    3.07    2.58
   3   4  -5    0.89    0.50
   3   4  -5    3.20    1.61
   2   4  -5    2.99    2.73
   2   4  -5    3.59    1.48
   2   4  -5    2.65    0.61
   2   4  -5    2.94    3.09
   1   4  -5   39.52    3.21
   1   4  -5   43.70    7.35
   1   4  -5   39.90    6.01
   1   4  -5   40.71    2.53
   0   4  -5   69.23    4.81
   0   4  -5   70.92    4.28
   0   4  -5   85.01   10.11
   0   4  -5   79.42    8.31
  -1   4  -5    6.68    3.57
  -1   4  -5    2.35    3.09
  -1   4  -5    3.05    0.74
  -1   4  -5    3.49    1.20
  -1   4  -5    4.39    0.92
  -1   4  -5    5.21    3.88
   1  -4   5    3.24    0.46
  -2   4  -5    4.17    0.81
  -2   4  -5    4.95    3.95
  -2   4  -5    5.59    0.55
  -2   4  -5    4.61    3.25
   2  -4   5    6.13    0.70
  -3   4  -5   -0.18    3.47
   3  -4   5   -0.19    0.41
  -4   4  -5    0.41    2.64
   4  -4   5    0.53    0.35
  -5   4  -5   13.50    1.04
   7   3  -5   79.55    4.42
  -7  -3   5   80.74    5.70
  -7  -3   5   82.39    4.77
   6   3  -5   11.25    3.13
  -6  -3   5    4.20    2.13
   5   3  -5    6.34    1.11
   5   3  -5    7.08    0.82
   5   3  -5   11.34    3.45
   5   3  -5    8.92    4.04
  -5  -3   5    4.51    1.65
  -5  -3   5    6.40    2.11
   4   3  -5   93.32    8.35
   4   3  -5   93.74   10.30
   4   3  -5   85.70    5.17
   4   3  -5   75.99    4.89
  -4  -3   5   92.14    5.85
   3   3  -5   51.20    7.63
   3   3  -5   46.92    3.03
   3   3  -5   47.28    3.72
   3   3  -5   57.33    6.27
   3   3  -5   43.62    2.84
  -3  -3   5   51.77    3.82
   2   3  -5   18.17    4.02
   2   3  -5   21.03    1.42
   2   3  -5   18.27    4.91
   2   3  -5   23.25    2.47
   1   3  -5   20.38    4.44
   1   3  -5   19.13    5.10
   1   3  -5   17.64    3.63
   1   3  -5   20.15    2.31
   1   3  -5   20.62    1.41
   1   3  -5   20.02    2.69
   0   3  -5   29.93    4.85
   0   3  -5   31.06    5.22
   0   3  -5   26.05    1.86
   0   3  -5   41.17    6.67
   0   3  -5   29.81    2.58
  -1   3  -5   17.87    2.11
  -1   3  -5   14.21    4.64
  -1   3  -5   20.52    4.81
  -1   3  -5   20.86    1.52
  -2   3  -5   45.32    7.76
  -2   3  -5   39.07    3.05
  -2   3  -5   39.95    2.57
  -3   3  -5   54.66    6.02
  -3   3  -5   47.74    2.86
  -3   3  -5   48.00    4.15
  -3   3  -5   49.77    2.94
  -3   3  -5   60.51    9.15
   3  -3   5   51.90    2.88
  -4   3  -5   17.43    1.24
  -4   3  -5   19.19    4.00
  -4   3  -5   18.51    2.21
   4  -3   5   20.58    1.26
  -5   3  -5    0.67    0.30
  -5   3  -5    0.08    2.29
  -5   3  -5    0.72    1.13
  -7  -2   5   28.88    3.44
  -7  -2   5   24.17    1.91
   6   2  -5   53.83    6.41
  -6  -2   5   46.86    4.55
  -6  -2   5   42.17    3.19
   5   2  -5   26.40    2.09
   5   2  -5   35.40    5.69
   5   2  -5   32.54    2.41
  -5  -2   5   31.91    3.81
  -5  -2   5   31.80    3.07
   4   2  -5    2.59    0.93
   4   2  -5   21.94    7.45
   4   2  -5    1.83    2.56
   4   2  -5    3.94    0.73
  -4  -2   5    3.73    1.51
  -4  -2   5    2.84    3.66
   3   2  -5   17.00    6.37
   3   2  -5    0.72    1.26
   3   2  -5    3.04    2.68
   3   2  -5    4.18    3.64
  -3  -2   5    5.57    1.50
   2   2  -5   32.93    4.86
   2   2  -5   40.66    4.66
   2   2  -5   30.20    2.08
   2   2  -5   38.16    6.27
   2   2  -5   34.14    2.88
   2   2  -5   33.60    2.24
  -2  -2   5   36.53    2.91
   1   2  -5   57.76    6.47
   1   2  -5   75.16    3.97
   1   2  -5   68.70    6.43
   1   2  -5   71.97    8.52
   1   2  -5   70.27    4.54
  -1  -2   5   69.54    4.51
   0   2  -5   32.87    4.57
   0   2  -5   25.09    5.49
   0   2  -5   32.11    2.67
   0   2  -5   35.48    2.04
   0   2  -5   33.17    3.14
  -1   2  -5   15.53    1.22
  -1   2  -5   11.86    4.07
  -1   2  -5   15.45    2.28
  -1   2  -5   15.82    1.87
  -2   2  -5   10.38    1.59
  -2   2  -5    6.62    3.50
  -2   2  -5    8.57    1.02
   2  -2   5    6.55    4.19
  -3   2  -5   20.10    2.10
   3  -2   5   18.58    3.20
   3  -2   5   20.47    6.26
  -4   2  -5   44.34    3.86
  -4   2  -5   41.46    2.50
  -4   2  -5   48.04    5.62
  -4   2  -5   43.91    2.61
   4  -2   5   41.15    2.48
   4  -2   5   46.07    4.23
   4  -2   5   51.29    9.35
  -5   2  -5    8.87    0.83
  -5   2  -5    8.15    1.77
   5  -2   5    9.33    1.88
  -6   2  -5    6.46    1.35
  -6   2  -5    7.14    0.65
  -7  -1   5   13.64    1.01
  -7  -1   5   13.25    1.86
  -7  -1   5   12.45    2.26
   6   1  -5    2.42    1.01
   6   1  -5    4.46    3.12
  -6  -1   5    2.59    1.00
  -6  -1   5    2.75    2.15
  -6  -1   5    2.96    1.71
   5   1  -5   43.87    6.18
   5   1  -5   35.84    2.44
   5   1  -5   34.35    3.03
   5   1  -5   37.03    2.63
  -5  -1   5   40.06    3.97
  -5  -1   5   28.13    6.20
  -5  -1   5   35.87    3.28
  -5  -1   5   39.72    3.27
  -5  -1   5   39.06    2.76
   4   1  -5    3.06    0.85
   4   1  -5    4.90    2.94
   4   1  -5    0.95    1.07
   4   1  -5    0.58    0.64
  -4  -1   5    2.42    1.28
  -4  -1   5    2.36    3.85
   3   1  -5    9.42    1.25
   3   1  -5    6.96    2.63
   3   1  -5   10.72    3.44
   3   1  -5    9.50    1.03
   3   1  -5    9.80    1.69
  -3  -1   5   11.08    3.84
  -3  -1   5   11.68    1.77
   2   1  -5   25.23    1.82
   2   1  -5   27.39    1.73
   2   1  -5   31.95    2.35
   2   1  -5   26.16    2.38
   2   1  -5   27.84    4.18
  -2  -1   5   20.73    2.41
   1   1  -5   77.03    4.39
   1   1  -5   77.22    4.89
   1   1  -5   72.20    8.35
   1   1  -5   73.57    6.64
   1   1  -5   73.61    4.47
  -1  -1   5   91.02    4.93
   0   1  -5   17.55    3.48
   0   1  -5   17.96    2.01
   0   1  -5   15.24    4.11
   0   1  -5   17.60    1.22
   0   1  -5   15.66    2.33
   0  -1   5   15.71    3.62
   0  -1   5   18.27    1.93
  -1   1  -5   74.43    4.95
  -1   1  -5   78.95    8.31
  -1   1  -5   76.29    4.57
  -1   1  -5   70.60    4.12
   1  -1   5   63.13    7.44
  -2   1  -5   17.61    2.11
  -2   1  -5   16.55    4.41
  -2   1  -5   19.09    2.47
   2  -1   5   23.77    2.81
   2  -1   5   21.29    4.82
   2  -1   5   23.61    1.57
  -3   1  -5   14.39    1.91
   3  -1   5   14.80    1.45
   3  -1   5   15.09    2.11
   3  -1   5   20.99    5.48
  -4   1  -5   39.20    2.86
  -4   1  -5   34.94    1.91
   4  -1   5   29.12    1.88
   4  -1   5   31.16    3.54
   4  -1   5   43.44    8.39
   4  -1   5   28.40    2.32
  -5   1  -5    8.62    2.03
  -5   1  -5    8.82    0.80
  -5   1  -5    8.44    1.00
   5  -1   5    7.51    1.87
  -6   1  -5    1.29    0.38
  -6   1  -5    0.16    1.36
  -7   1  -5    3.82    0.44
  -7   1  -5    2.26    0.93
  -7   0   5    7.22    1.89
  -7   0   5   10.58    0.72
  -7   0   5    9.63    1.79
   6   0  -5    3.33    1.32
   6   0  -5    4.22    3.03
  -6   0   5    4.18    1.92
  -6   0   5    2.47    2.16
  -6   0   5    3.09    0.88
  -6   0   5    2.47    0.68
  -6   0   5    2.76    0.40
   5   0  -5    5.42    3.33
   5   0  -5   24.34   11.21
   5   0  -5    2.70    0.81
   5   0  -5    4.28    1.03
   5   0  -5    2.20    1.38
  -5   0   5    3.99    1.85
  -5   0   5    4.25    0.83
  -5   0   5    3.83    4.32
  -5   0   5    5.78    1.06
  -5   0   5    5.50    1.50
  -5   0   5    5.28    0.58
  -5   0   5    4.13    2.25
   3   0  -5   63.03    3.97
   3   0  -5   47.63    5.71
   3   0  -5   60.92    3.45
   3   0  -5   56.46    3.60
  -3   0   5   59.00    3.93
  -3   0   5   59.08    4.36
  -3   0   5   63.38    6.38
   2   0  -5   48.11    2.84
   2   0  -5   50.90    3.31
   2   0  -5   47.24    2.99
   2   0  -5   46.46    5.19
  -2   0   5   49.71    3.41
  -2   0   5   45.00    5.01
  -2   0   5   47.58    3.68
   1   0  -5   73.63    4.09
   1   0  -5   69.14    5.95
  -1   0   5   56.19    4.37
  -1   0   5   62.28    3.65
  -1   0   5   61.99    4.14
   0   0  -5  187.30   14.78
   0   0  -5  200.62   13.37
   0   0  -5  207.51   11.34
   0   0  -5  189.49   10.98
   0   0   5  212.32   11.38
   0   0   5  197.55   13.99
   0   0   5  205.86   11.00
   0   0   5  198.52   11.62
  -1   0  -5  181.67   14.29
  -1   0  -5  203.50   10.95
  -1   0  -5  178.64   10.57
  -1   0  -5  194.30   11.34
   1   0   5  197.67   10.95
   1   0   5  195.54   10.60
   1   0   5  193.19   12.54
   1   0   5  195.01   13.94
  -2   0  -5    6.94    1.37
   2   0   5    5.60    2.79
   2   0   5    3.35    1.35
   2   0   5    5.24    2.17
   2   0   5    2.85    0.65
  -3   0  -5   82.15    4.81
   3   0   5   84.30    8.98
   3   0   5   65.83    6.72
   3   0   5   67.67    4.22
   3   0   5   70.77    4.89
  -4   0  -5   12.45    1.82
   4   0   5   11.53    1.79
   4   0   5   14.86    4.91
   4   0   5   11.03    1.19
   4   0   5   14.21    3.82
  -5   0  -5   26.71    2.64
  -5   0  -5   25.26    3.63
  -5   0  -5   29.44    3.36
  -5   0  -5   25.60    1.69
  -5   0  -5   25.71    2.20
   5   0   5   31.97    7.20
   5   0   5   33.42    3.09
   5   0   5   39.15    5.88
   5   0   5   29.61    2.18
  -6   0  -5    8.75    1.92
  -6   0  -5   11.59    0.90
   6   0   5   12.75    3.88
  -7   0  -5    7.32    0.66
  -7   0  -5    7.65    1.46
  -7   1   5    5.23    0.47
  -7   1   5    4.92    1.50
  -6   1   5   23.29    1.43
  -6   1   5   22.94    3.34
   5  -1  -5    6.48    0.98
   5  -1  -5   11.83   11.85
   5  -1  -5    6.97    1.67
  -5   1   5    6.20    0.65
  -5   1   5    7.21    2.01
  -5   1   5    5.64    0.85
  -5   1   5    6.81    0.75
   4  -1  -5    6.55    1.05
   4  -1  -5    6.24    0.93
   4  -1  -5    8.28    1.65
  -4   1   5    2.46    1.17
  -4   1   5    3.08    3.71
   2  -1  -5   23.67    1.60
   2  -1  -5   24.89    2.77
  -2   1   5   21.04    1.77
  -2   1   5   24.46    2.13
  -2   1   5   23.92    2.93
  -2   1   5   21.57    4.00
  -2   1   5   25.72    2.34
  -2   1   5   19.00    4.16
   0  -1  -5   64.30    3.54
   0  -1  -5   58.49    3.89
   0   1   5   61.51    4.26
   0   1   5   58.58    6.11
   0   1   5   70.18    4.03
   0   1   5   61.88    5.32
  -1  -1  -5  187.16   10.09
  -1  -1  -5  145.69   12.93
   1   1   5  193.80   10.08
   1   1   5  174.11   10.31
   1   1   5  190.10    9.70
   1   1   5  164.23   12.40
   1   1   5  172.60   11.43
   1   1   5  169.46   11.42
  -2  -1  -5   68.47    4.61
   2   1   5   70.62    4.61
   2   1   5   81.92    6.12
   2   1   5   66.78    4.09
   2   1   5   87.36    7.50
  -3  -1  -5   72.36    4.43
   3   1   5   63.28    6.02
   3   1   5   79.89    7.87
   3   1   5   60.36    3.76
   3   1   5   60.81    4.18
  -4  -1  -5   15.16    2.04
   4   1   5   18.08    2.16
   4   1   5   17.76    4.89
   4   1   5   17.16    1.47
   4   1   5   16.01    3.68
  -5  -1  -5   41.34    3.71
  -5  -1  -5   42.15    3.53
   5   1   5   64.28    8.64
   5   1   5   56.33    6.29
   5   1   5   44.55    3.38
   5   1   5   42.89    2.92
  -6  -1  -5   10.30    2.39
  -6  -1  -5   10.97    2.08
  -6  -1  -5   10.80    1.28
   6   1   5    9.40    3.50
   6   1   5    8.30    1.29
  -7  -1  -5    3.09    1.39
  -7   2   5    3.37    1.07
  -7   2   5    4.15    0.45
  -6   2   5   13.42    0.91
  -6   2   5   14.97    2.33
   5  -2  -5    0.34    0.32
   5  -2  -5    1.48    1.61
  -5   2   5   -0.06    0.34
  -5   2   5    1.62    1.70
  -5   2   5   -0.17    0.60
   4  -2  -5   37.49    3.25
   4  -2  -5   31.00    1.96
  -4   2   5   35.17    6.55
  -4   2   5   33.80    4.23
  -4   2   5   35.70    2.14
  -4   2   5   33.00    1.96
  -1   2   5  152.44   11.13
  -1   2   5  151.65   12.20
  -1   2   5  167.74    9.37
  -1   2   5  172.67    9.52
  -1   2   5  169.30    9.13
  -1   2   5  170.53    9.88
   0   2   5  503.74   31.56
   0   2   5  537.65   29.19
   0   2   5  547.87   28.78
   0   2   5  535.92   29.03
   0   2   5  510.22   30.57
  -1  -2  -5    5.78    3.41
   1   2   5    6.77    2.37
   1   2   5    7.68    0.84
   1   2   5    9.93    1.46
   1   2   5    6.63    2.00
   1   2   5    7.05    1.36
  -2  -2  -5    0.41    2.85
  -2  -2  -5   -0.27    1.07
   2   2   5    0.96    1.11
   2   2   5    0.99    0.43
   2   2   5    1.62    1.58
   2   2   5    2.23    1.76
   2   2   5    2.26    2.02
   2   2   5    0.78    0.98
  -3  -2  -5   66.75    4.57
  -3  -2  -5   56.58    6.72
   3   2   5   84.70    5.96
   3   2   5   73.18    4.59
   3   2   5   79.49    7.49
   3   2   5   71.59    4.22
   3   2   5   61.50    5.78
   3   2   5   70.64    3.97
  -4  -2  -5  104.20    6.05
  -4  -2  -5   89.48    8.11
   4   2   5   96.35    5.36
   4   2   5   92.64    5.55
   4   2   5   89.53    7.71
   4   2   5   95.13    9.44
  -5  -2  -5    1.56    1.23
   5   2   5    0.41    0.78
   5   2   5    4.05    2.54
   5   2   5    2.02    2.91
   5   2   5    2.04    0.74
  -6  -2  -5    1.71    2.10
  -6  -2  -5    2.29    1.02
   6   2   5    3.33    2.59
  -7  -2  -5    0.57    1.94
  -7  -2  -5    0.32    0.84
   7   2   5    3.63    2.12
   8   2   5    1.21    0.18
  -6   3   5    9.69    1.82
  -6   3   5    7.20    4.71
  -6   3   5   11.79    0.74
   5  -3  -5   11.06    0.84
   5  -3  -5    7.00    1.79
  -5   3   5   11.16    2.15
  -5   3   5   12.86    3.98
  -5   3   5    7.04    5.89
  -5   3   5   11.73    1.10
  -5   3   5   12.49    0.83
   4  -3  -5   21.31    3.01
   4  -3  -5   23.97    1.56
  -4   3   5   25.27    2.98
  -4   3   5   27.57    1.69
  -4   3   5   23.02    6.30
  -4   3   5   26.38    1.54
  -4   3   5   27.57    3.95
  -3   3   5  127.00    8.38
  -3   3   5  131.38   12.19
  -3   3   5  101.75   10.00
  -2   3   5   71.18    6.14
  -2   3   5   70.31    7.96
  -2   3   5   72.25    7.09
  -2   3   5   70.26    4.14
  -2   3   5   72.63    5.67
  -1   3   5   58.68    5.78
  -1   3   5   58.42    4.58
  -1   3   5   56.82    6.55
  -1   3   5   58.34    3.40
  -1   3   5   58.82    3.59
   0   3   5   61.31    3.93
   0   3   5   66.86    4.06
   0   3   5   63.48    3.62
   0   3   5   64.28    6.38
   0   3   5   62.13    5.55
  -1  -3  -5  197.10   13.66
   1   3   5  199.58   11.74
   1   3   5  216.95   12.71
   1   3   5  196.22   13.54
   1   3   5  205.60   11.50
   1   3   5  198.14   11.02
   1   3   5  198.05   11.06
   1   3   5  196.98   11.34
  -2  -3  -5   20.77    5.10
   2   3   5   23.66    1.50
   2   3   5   25.69    2.88
   2   3   5   23.62    2.32
   2   3   5   22.22    2.06
   2   3   5   22.25    3.64
   2   3   5   23.75    1.57
  -3  -3  -5   16.24    4.50
  -3  -3  -5   16.60    1.96
   3   3   5   20.22    1.48
   3   3   5   19.87    1.31
   3   3   5   21.78    2.60
   3   3   5   20.26    3.59
   3   3   5   21.80    2.14
   3   3   5   19.55    1.40
   3   3   5   19.09    2.81
  -4  -3  -5   14.39    2.02
  -4  -3  -5   10.48    3.77
   4   3   5   20.65    4.00
   4   3   5   21.58    3.08
   4   3   5   17.75    2.20
   4   3   5   17.76    1.25
  -5  -3  -5    7.26    1.62
  -5  -3  -5    4.94    3.75
   5   3   5    7.41    3.15
   5   3   5    8.84    2.60
   5   3   5    6.13    0.78
  -6  -3  -5    6.51    2.37
   6   3   5    3.24    2.23
   6   3   5    4.11    0.90
  -7  -3  -5   26.04    3.44
  -7  -3  -5   27.22    2.18
   7   3   5   28.98    3.67
   7   3   5   25.97    1.53
  -8  -3  -5   11.70    1.85
  -8  -3  -5   11.88    1.19
   5  -4  -5   36.51    1.94
  -5   4   5   28.27    6.33
  -5   4   5   22.54    4.02
  -5   4   5   33.15    3.29
  -5   4   5   32.74    1.88
   4  -4  -5   35.67    2.16
  -4   4   5   45.59    6.30
  -4   4   5   34.49    2.09
  -4   4   5   37.71    2.18
  -4   4   5   43.09    6.86
   3  -4  -5   86.18    4.78
  -3   4   5   84.95    4.79
  -3   4   5   79.86    4.73
  -3   4   5   94.21    7.01
  -3   4   5   83.07    4.99
  -3   4   5   88.26    9.03
  -3   4   5   97.67   10.56
  -3   4   5   93.23    6.05
  -3   4   5   80.02    7.60
  -2   4   5    4.56    3.04
  -2   4   5    3.11    0.74
  -2   4   5    3.95    2.20
  -2   4   5    5.04    3.03
  -2   4   5    5.03    2.80
  -1   4   5  193.01   12.42
  -1   4   5  202.88   12.12
  -1   4   5  205.98   10.97
  -1   4   5  200.76   13.78
  -1   4   5  204.88   15.19
  -1   4   5  180.04   13.83
   0  -4  -5    5.72    3.62
   0   4   5    6.11    0.81
   0   4   5    7.97    2.32
   0   4   5    5.72    2.43
   0   4   5    6.68    0.72
   0   4   5    6.60    1.07
   0   4   5    6.03    2.10
   0   4   5    4.93    2.29
   0   4   5    6.98    2.37
  -1  -4  -5   12.75    4.26
   1   4   5   18.28    1.37
   1   4   5   19.87    1.25
   1   4   5   18.95    1.72
   1   4   5   17.79    2.67
   1   4   5   18.95    3.43
   1   4   5   18.30    2.98
   1   4   5   17.08    1.56
   1   4   5   18.22    1.79
   1   4   5   19.26    2.71
  -2  -4  -5  108.35    9.68
   2   4   5  100.23    6.10
   2   4   5  100.82    6.24
   2   4   5  101.69    5.73
   2   4   5  100.61    7.88
   2   4   5   91.06    7.20
   2   4   5  104.10    6.70
   2   4   5  101.24    5.60
  -3  -4  -5   31.44    5.37
  -3  -4  -5   26.17    4.79
   3   4   5   23.05    3.00
   3   4   5   26.46    1.60
   3   4   5   27.50    2.63
   3   4   5   27.56    1.87
   3   4   5   24.78    2.38
   3   4   5   24.43    2.16
  -4  -4  -5   13.42    5.03
  -4  -4  -5   10.73    4.14
   4   4   5    8.41    2.01
   4   4   5    9.81    1.26
   4   4   5    9.74    1.74
   4   4   5    9.30    0.85
  -5  -4  -5   62.16    5.18
  -5  -4  -5   47.87    7.23
   5   4   5   61.07    3.25
   5   4   5   58.95    4.31
   5   4   5   56.87    3.67
   5   4   5   65.35    5.27
  -6  -4  -5    4.27    2.20
  -6  -4  -5    3.39    2.07
   6   4   5    4.07    1.73
   6   4   5    2.35    0.26
  -7  -4  -5    0.84    2.08
   7   4   5    0.24    0.16
   7   4   5    0.16    0.13
  -8  -4  -5   22.01    2.63
  -8  -4  -5   24.31    1.78
   5  -5  -5    8.28    0.64
  -5   5   5    6.51    2.60
  -5   5   5    6.54    4.06
   4  -5  -5   21.32    1.38
  -4   5   5   24.11    4.31
  -4   5   5   17.50    5.83
   3  -5  -5   49.02    2.72
  -3   5   5   39.44    4.50
  -3   5   5   48.11    7.23
  -3   5   5   44.06    6.22
   2  -5  -5   10.77    0.95
  -2   5   5   15.83    1.40
  -2   5   5   13.26    2.30
  -2   5   5   13.36    4.16
  -2   5   5   16.57    4.95
  -2   5   5   10.25    3.86
  -2   5   5   20.14    4.38
  -2   5   5   14.91    3.25
  -2   5   5   18.63    5.33
  -1   5   5   17.86    1.55
  -1   5   5   20.48    3.27
  -1   5   5   23.93    5.04
  -1   5   5   18.67    4.02
  -1   5   5   22.16    4.58
  -1   5   5   21.80    1.73
   0  -5  -5   54.99    7.61
   0   5   5   61.12    5.23
   0   5   5   62.34    6.97
   0   5   5   66.90    3.75
   0   5   5   62.96    3.60
   0   5   5   57.78    6.19
  -1  -5  -5    8.00    4.13
   1   5   5    5.90    2.20
   1   5   5    8.36    0.94
   1   5   5    7.46    1.29
   1   5   5    8.03    0.83
   1   5   5    9.58    2.46
   1   5   5    5.97    2.28
   1   5   5    5.90    2.08
   2   5   5   18.45    1.71
   2   5   5   19.55    1.95
   2   5   5   15.64    2.67
   2   5   5   21.72    3.24
   2   5   5   19.57    1.52
   2   5   5   19.58    1.25
  -3  -5  -5  101.17   10.12
  -3  -5  -5  109.17    9.36
   3   5   5  111.95    7.86
   3   5   5  114.86    6.75
   3   5   5  112.51    6.29
   3   5   5  109.11    7.29
  -4  -5  -5    5.37    4.70
  -4  -5  -5    5.22    3.66
   4   5   5    6.36    1.53
   4   5   5    8.05    1.09
  -5  -5  -5    1.31    3.74
  -5  -5  -5    1.60    2.20
  -5  -5  -5    0.97    1.92
   5   5   5   -0.50    0.93
   5   5   5    0.45    1.33
  -6  -5  -5   14.02    2.65
  -6  -5  -5   17.70    2.63
  -7  -5  -5    0.08    1.97
  -8  -5  -5    2.34    1.48
   4  -6  -5   26.52    1.53
  -4   6   5   21.49    5.60
  -4   6   5   22.63    3.61
   3  -6  -5   16.84    1.15
  -3   6   5   12.06    3.87
  -3   6   5   15.38    2.75
  -3   6   5   13.96    5.44
   2  -6  -5   34.10    2.05
  -2   6   5   30.88    3.67
  -2   6   5   39.50    6.54
  -2   6   5   36.06    4.83
  -2   6   5   35.02    5.98
  -2   6   5   33.82    2.64
  -2   6   5   33.92    4.13
  -1   6   5   12.94    1.58
  -1   6   5   11.71    2.93
  -1   6   5   10.58    1.32
  -1   6   5   11.39    5.66
  -1   6   5   14.26    4.47
  -1   6   5    9.68    3.58
  -1   6   5   10.78    2.25
  -1   6   5   18.00    3.90
   0   6   5   38.42    5.70
   0   6   5   36.12    4.92
   0   6   5   32.83    4.21
   0   6   5   31.23    2.12
   0   6   5   33.39    2.49
   0   6   5   28.01    4.18
   0   6   5   34.53    3.62
   1   6   5   27.81    2.03
   1   6   5   30.59    4.07
   1   6   5   27.39    3.63
   1   6   5   26.54    1.76
   1   6   5   27.60    3.93
  -2  -6  -5   22.90    5.85
   2   6   5   16.47    2.67
   2   6   5   18.45    1.95
   2   6   5   17.71    3.28
   2   6   5   22.09    1.70
  -3  -6  -5   32.45    6.76
  -3  -6  -5   35.12    5.65
   3   6   5   43.68    3.11
   3   6   5   40.10    4.78
   3   6   5   41.82    2.64
  -4  -6  -5   25.14    3.25
  -4  -6  -5   21.97    5.38
   4   6   5   20.91    1.97
   4   6   5   17.95    3.59
   4   6   5   20.20    2.36
   4   6   5   22.81    3.11
  -5  -6  -5   13.72    2.66
  -5  -6  -5   12.13    2.30
   5   6   5    6.27    2.78
   5   6   5   10.03    2.58
   5   6   5    6.68    1.70
   5   6   5   10.74    1.38
  -6  -6  -5   50.82    4.59
  -6  -6  -5   52.85    4.39
   6   6   5   45.05    3.29
  -7  -6  -5    3.77    1.79
  -7  -6  -5    3.00    1.86
  -8  -6  -5    1.64    1.35
   3  -7  -5    3.39    0.38
   2  -7  -5   24.24    1.48
  -2   7   5   22.14    2.98
  -2   7   5   28.21    5.35
  -2   7   5   20.93    4.20
  -2   7   5   16.93    2.59
  -1   7   5    5.28    3.19
  -1   7   5    5.54    1.98
  -1   7   5    7.27    3.68
  -1   7   5    3.19    2.26
  -1   7   5    5.20    1.13
   0   7   5   11.79    1.38
   0   7   5   11.38    3.47
   0   7   5    8.68    2.13
   0   7   5   10.28    3.70
   0   7   5    9.85    0.86
   1   7   5   39.42    4.71
   1   7   5   36.68    2.04
   1   7   5   34.64    2.25
   1   7   5   36.33    3.73
   1   7   5   38.08    2.69
   1   7   5   37.13    2.21
   2   7   5    2.21    0.19
   2   7   5    2.80    0.23
   2   7   5    0.53    2.50
   2   7   5    1.93    0.96
   2   7   5    1.36    0.57
   3   7   5  127.58    7.12
   3   7   5  118.45    9.21
   3   7   5  131.87    7.33
   3   7   5  127.33    7.06
   3   7   5  128.23    7.64
   3   7   5  126.39    7.58
  -4  -7  -5   39.97    4.09
   4   7   5   31.35    4.05
   4   7   5   39.08    2.63
   4   7   5   35.99    2.33
   4   7   5   36.72    2.35
  -5  -7  -5    2.59    2.11
   5   7   5    3.44    0.69
   5   7   5    3.01    1.04
   5   7   5    2.23    2.07
  -6  -7  -5    1.73    1.80
  -6  -7  -5    2.02    2.05
   6   7   5    3.15    0.66
  -7  -7  -5   18.77    2.69
  -7  -7  -5   17.59    2.65
  -1   8   5    2.99    1.63
  -1   8   5    3.70    2.06
   0   8   5   32.25    4.37
   0   8   5   37.99    3.81
   0   8   5   33.23    1.88
   1   8   5   43.69    2.58
   1   8   5   41.10    2.99
   1   8   5   42.04    4.25
   1   8   5   43.90    4.21
   1   8   5   45.80    2.43
   1   8   5   45.50    2.43
   2   8   5    2.03    0.93
   2   8   5    3.20    0.60
   3   8   5   35.28    2.66
   3   8   5   38.18    2.32
  -4  -8  -5   44.31    3.94
   4   8   5   43.41    2.59
   4   8   5   36.42    2.83
   4   8   5   41.33    4.22
   4   8   5   43.06    2.43
  -5  -8  -5    5.03    2.13
   5   8   5    7.79    2.29
   5   8   5    6.44    0.81
  -6  -8  -5    5.43    1.90
   6   8   5    4.42    0.56
  -7  -8  -5    6.14    1.44
   7   8   5    5.09    0.65
   0   9   5    6.71    1.71
   1   9   5   19.68    1.24
   2   9   5   17.02    1.21
   3   9   5    9.75    0.96
   4   9   5   22.78    2.90
   4   9   5   20.13    1.46
  -5  -9  -5    2.90    1.53
   5   9   5    4.10    1.64
  -6  -9  -5   14.67    2.21
   3  10   5   10.74    0.81
   5   7  -6   10.04    0.74
  -5  -7   6    9.24    1.40
   4   7  -6   23.72    2.12
   4   7  -6   27.62    1.62
  -4  -7   6   26.76    2.68
   3   7  -6    4.00    1.07
   3   7  -6    7.27    0.62
  -3  -7   6    7.75    1.69
   2   7  -6    0.74    0.14
   2   7  -6    1.01    0.14
  -2  -7   6    1.50    1.39
   1   7  -6    7.74    0.47
   1   7  -6    6.81    0.73
   0   7  -6    3.19    0.51
  -6  -6   6   17.96    1.99
   5   6  -6   13.14    1.79
   5   6  -6   11.82    1.24
  -5  -6   6   11.09    1.99
   4   6  -6    4.87    0.85
   4   6  -6    3.52    1.37
   4   6  -6    4.67    0.30
   4   6  -6    4.35    0.29
  -4  -6   6    6.07    1.89
   3   6  -6    7.63    0.93
   3   6  -6    7.52    1.61
   3   6  -6    8.27    2.41
   3   6  -6    7.51    0.52
  -3  -6   6    9.82    2.26
   2   6  -6   27.24    2.80
   2   6  -6   27.84    1.94
   2   6  -6   26.58    4.65
  -2  -6   6   31.93    3.52
   1   6  -6   14.63    1.50
   1   6  -6   16.58    4.01
   1   6  -6   17.80    1.24
   0   6  -6    6.98    0.90
  -1   6  -6    7.23    2.46
  -1   6  -6    7.03    0.85
   1  -6   6    7.71    0.69
  -2   6  -6    4.11    0.61
  -2   6  -6    2.52    1.91
   2  -6   6    5.62    0.49
  -6  -5   6    6.88    1.82
  -6  -5   6    5.67    1.55
   5   5  -6    3.94    0.31
   5   5  -6    4.72    1.38
   5   5  -6    3.89    0.31
  -5  -5   6    1.85    1.82
  -5  -5   6    2.40    1.79
   4   5  -6    2.28    1.52
   4   5  -6    2.63    0.26
   4   5  -6    1.67    2.03
  -4  -5   6    2.50    1.89
  -4  -5   6    2.32    2.05
   3   5  -6   12.19    3.59
   3   5  -6    9.73    1.74
  -3  -5   6    9.40    2.30
  -3  -5   6   15.23    2.62
   2   5  -6   51.61    6.46
   2   5  -6   38.45    3.32
   2   5  -6   34.79    2.54
  -2  -5   6   36.40    3.97
   1   5  -6    8.55    0.99
   1   5  -6    8.51    3.67
  -1  -5   6    7.03    2.29
   0   5  -6    8.78    1.07
   0   5  -6    9.26    4.19
   0   5  -6    8.82    1.12
   0  -5   6   13.13    2.56
  -1   5  -6   24.03    1.97
  -1   5  -6   25.21    3.99
  -1   5  -6   32.21    6.30
   1  -5   6   26.42    1.63
  -2   5  -6    6.10    0.92
  -2   5  -6    4.91    2.92
   2  -5   6    8.56    0.78
  -3   5  -6    1.08    0.57
  -3   5  -6    0.57    2.24
   3  -5   6    0.76    0.31
  -7  -4   6    5.56    0.84
  -7  -4   6    4.58    1.45
   6   4  -6    3.61    0.27
   6   4  -6    3.43    0.29
  -6  -4   6    2.65    1.80
   5   4  -6    4.94    1.43
   5   4  -6    6.06    2.50
  -5  -4   6    3.69    2.15
  -5  -4   6    3.90    1.81
   4   4  -6   16.81    4.06
   4   4  -6   25.10    2.69
  -4  -4   6   29.16    3.26
  -4  -4   6   32.35    3.63
   3   4  -6   15.29    4.18
   3   4  -6   18.42    2.49
   3   4  -6   12.39    2.10
   3   4  -6   14.68    1.28
   3   4  -6   15.29    4.94
  -3  -4   6   19.26    2.77
   2   4  -6    0.77    2.60
   2   4  -6    0.54    0.60
   2   4  -6    1.10    3.04
   2   4  -6    0.51    1.31
   2   4  -6    1.69    1.36
  -2  -4   6    4.15    2.23
   1   4  -6   24.32    1.80
   1   4  -6   25.14    2.72
   1   4  -6   23.11    5.94
   1   4  -6   30.67    5.91
   1   4  -6   28.24    2.74
  -1  -4   6   23.27    3.56
   0   4  -6    0.31    2.62
   0   4  -6    0.89    0.72
   0   4  -6    1.21    3.15
   0   4  -6    1.03    0.72
   0   4  -6    1.47    1.24
   0   4  -6    1.08    0.88
   0  -4   6    1.91    2.03
  -1   4  -6   13.80    1.40
  -1   4  -6   15.41    1.53
  -1   4  -6   14.55    1.94
  -1   4  -6   14.97    3.54
  -1   4  -6   13.68    1.30
  -1   4  -6   15.93    4.74
  -1   4  -6   17.28    5.67
   1  -4   6   13.40    1.03
   1  -4   6   12.11    2.41
  -2   4  -6   18.43    1.24
  -2   4  -6   16.47    3.95
  -2   4  -6   19.92    1.75
   2  -4   6   18.18    1.26
  -3   4  -6    1.47    3.10
  -3   4  -6   -0.04    0.77
   3  -4   6    0.58    0.40
  -4   4  -6    2.38    2.42
  -4   4  -6    7.49    0.90
   4  -4   6    8.95    0.64
   7   3  -6   19.52    1.13
   7   3  -6   17.56    1.12
  -7  -3   6   23.91    1.65
  -7  -3   6   24.20    2.78
   6   3  -6    0.66    1.98
  -6  -3   6    1.50    1.91
  -6  -3   6    0.02    1.13
   5   3  -6   45.59    5.99
  -5  -3   6   37.17    4.13
   4   3  -6   57.25    3.52
   4   3  -6   54.36    3.22
   4   3  -6   54.07    3.88
   4   3  -6   59.92    6.99
   4   3  -6   65.20    8.92
  -4  -3   6   43.64    4.15
  -4  -3   6   46.33    4.20
  -4  -3   6   51.50    4.62
   3   3  -6   35.21    2.20
   3   3  -6   33.95    2.43
   3   3  -6   34.67    5.54
   3   3  -6   29.23    6.62
   3   3  -6   36.24    3.20
   2   3  -6   41.46    5.93
   2   3  -6   35.58    3.10
   2   3  -6   39.77    7.30
   2   3  -6   37.18    2.32
   1   3  -6   25.85    5.15
   1   3  -6   23.77    1.67
   1   3  -6   22.67    2.49
   1   3  -6   24.25    5.99
   0   3  -6   61.84    3.71
   0   3  -6   65.38    7.59
   0   3  -6   70.69    9.24
   0   3  -6   61.54    4.36
  -1   3  -6   38.61    2.52
  -1   3  -6   39.22    3.13
  -1   3  -6   46.24    7.86
  -2   3  -6    5.21    1.40
  -2   3  -6    6.19    3.10
  -2   3  -6    5.84    0.65
  -2   3  -6    6.08    0.80
  -2   3  -6    4.79    3.82
   2  -3   6    6.35    0.71
  -3   3  -6   13.82    2.01
  -3   3  -6   11.33    3.83
  -3   3  -6   11.76    0.92
  -3   3  -6   15.45    1.12
   3  -3   6   11.15    0.99
  -4   3  -6    9.81    3.40
  -4   3  -6   14.57    1.01
  -4   3  -6   13.96    1.95
   4  -3   6   15.99    1.04
  -5   3  -6    6.30    1.24
  -5   3  -6    8.15    0.56
  -5   3  -6    3.83    2.07
  -7  -2   6    8.07    1.96
  -7  -2   6   10.30    1.13
   6   2  -6   41.68    5.77
  -6  -2   6   42.84    4.38
  -6  -2   6   41.90    3.02
   5   2  -6    9.40    3.77
  -5  -2   6    9.77    2.51
   3   2  -6   36.89    2.45
   3   2  -6   39.58    2.62
   3   2  -6   42.34    7.87
   3   2  -6   42.50    6.13
  -3  -2   6   37.72    3.41
   2   2  -6   11.24    0.98
   2   2  -6    7.86    3.29
   2   2  -6   11.87    1.90
   2   2  -6   10.28    1.20
   2   2  -6    9.84    1.06
   2   2  -6   12.24    4.59
  -2  -2   6    9.25    1.72
   1   2  -6   21.38    2.26
   1   2  -6   22.87    4.28
   1   2  -6   17.41    4.15
   1   2  -6   18.15    4.94
   1   2  -6   19.99    1.42
   0   2  -6   74.54    4.31
   0   2  -6   78.24    4.98
   0   2  -6   67.07    7.54
   0   2  -6   80.48    9.51
  -1   2  -6   82.37    9.50
  -1   2  -6   68.49    4.15
  -1   2  -6   72.85    4.70
  -2   2  -6    1.58    1.19
  -2   2  -6    1.11    2.87
  -3   2  -6   20.66    1.64
  -3   2  -6   21.76    2.37
  -3   2  -6   22.96    1.41
  -3   2  -6   21.34    2.88
   3  -2   6   23.17    1.39
   3  -2   6   21.49    3.31
  -4   2  -6   17.76    3.84
  -4   2  -6   21.45    1.37
  -4   2  -6   19.52    1.50
  -4   2  -6   20.41    2.87
   4  -2   6   22.78    3.48
   4  -2   6   20.87    1.31
  -5   2  -6   19.82    1.27
  -5   2  -6   14.48    3.18
  -5   2  -6   22.85    2.65
  -6   2  -6    6.44    1.19
  -6   2  -6    8.00    0.57
  -7  -1   6    0.61    1.52
  -7  -1   6    0.37    1.27
   6   1  -6   11.71    3.87
  -6  -1   6    6.07    2.32
  -6  -1   6    5.50    1.72
  -6  -1   6    7.79    1.14
   5   1  -6   17.33    1.59
   5   1  -6   22.00    5.24
   5   1  -6   15.54    2.29
   5   1  -6   19.85    1.78
  -5  -1   6   16.02    1.94
  -5  -1   6   16.29    2.73
  -5  -1   6   15.55    2.24
   4   1  -6    0.46    2.46
   4   1  -6    0.10    0.80
   4   1  -6   11.14    7.90
   4   1  -6    0.19    0.67
   4   1  -6    0.10    1.21
  -4  -1   6    1.55    1.45
   2   1  -6   93.07    7.78
   2   1  -6   81.41    4.77
   2   1  -6   76.82    4.63
   2   1  -6   82.57    5.35
   2   1  -6   86.03    8.08
   2   1  -6   83.00    9.73
  -2  -1   6   76.62    5.30
   1   1  -6   86.10    8.52
   1   1  -6  102.71    6.05
   1   1  -6   96.92    5.54
   1   1  -6  106.54    8.54
   1   1  -6   96.77    5.64
   1   1  -6  100.83   10.55
  -1  -1   6  104.17    6.18
   0   1  -6   51.27    3.06
   0   1  -6   56.54    3.69
   0   1  -6   53.51    7.36
   0  -1   6   53.30    6.61
   0  -1   6   51.64    3.75
  -1   1  -6  130.65    7.85
  -1   1  -6  126.98    7.33
  -1   1  -6  134.95   12.34
   1  -1   6  141.56   12.10
  -2   1  -6    3.09    3.22
  -2   1  -6    1.52    1.24
   2  -1   6    1.17    0.71
   2  -1   6    2.95    3.01
   2  -1   6    1.74    1.68
  -3   1  -6   44.79    3.34
   3  -1   6   38.93    2.76
   3  -1   6   51.12    8.26
   3  -1   6   44.45    3.96
  -4   1  -6   36.54    2.86
  -4   1  -6   39.39    3.42
  -4   1  -6   33.55    1.90
  -4   1  -6   31.07    2.11
   4  -1   6   27.37    1.84
   4  -1   6   29.42    7.51
   4  -1   6   30.15    3.51
  -5   1  -6   27.20    4.41
  -5   1  -6   25.70    3.02
  -5   1  -6   24.19    1.68
  -5   1  -6   24.57    1.54
   5  -1   6   23.49    3.04
  -6   1  -6   15.34    0.97
  -6   1  -6    9.38    1.68
  -7   0   6    7.18    1.47
  -7   0   6    6.19    0.51
   6   0  -6    0.45    2.61
   6   0  -6   -0.21    1.17
  -6   0   6    0.77    0.54
  -6   0   6    0.91    0.33
  -6   0   6    2.87    1.81
  -6   0   6    0.99    1.97
  -6   0   6    1.64    0.78
   5   0  -6   30.25    6.01
   5   0  -6   24.89    2.23
   5   0  -6   25.80    1.95
   5   0  -6   25.90    2.93
  -5   0   6   25.90    2.11
  -5   0   6   26.52    3.56
  -5   0   6   24.07    1.55
  -5   0   6   28.06    3.05
  -5   0   6   24.64    1.89
   1   0  -6  227.79   17.26
   1   0  -6  220.23   12.07
   1   0  -6  223.51   12.17
   1   0  -6  237.74   12.45
   1   0  -6  209.73   12.42
  -1   0   6  215.98   12.82
  -1   0   6  211.22   12.51
  -1   0   6  207.61   15.73
   0   0  -6   16.35    4.45
   0   0  -6   21.42    2.10
   0   0  -6   22.76    1.39
   0   0   6   21.52    1.46
   0   0   6   16.16    3.82
   0   0   6   18.60    2.12
  -1   0  -6   85.90    5.00
  -1   0  -6   77.55    8.67
   1   0   6   79.78    5.04
   1   0   6   78.86    4.51
   1   0   6   76.23    8.05
   1   0   6   75.90    4.97
  -2   0  -6   16.65    2.05
   2   0   6   16.26    2.38
   2   0   6   17.19    4.57
   2   0   6   14.52    1.26
  -3   0  -6   14.41    1.95
   3   0   6   17.75    2.67
   3   0   6   15.68    1.49
   3   0   6   14.33    4.82
  -4   0  -6   26.60    1.65
  -4   0  -6   28.51    2.70
   4   0   6   27.17    2.13
   4   0   6   28.55    6.80
   4   0   6   28.32    5.28
   4   0   6   28.51    3.17
  -5   0  -6    0.81    0.94
  -5   0  -6    0.97    0.39
  -5   0  -6   -0.36    1.61
   5   0   6    2.72    1.52
   5   0   6    1.59    2.56
  -6   0  -6    8.58    1.81
  -6   0  -6   10.08    1.00
  -6   0  -6    8.67    0.82
   6   0   6    8.92    3.14
  -7   0  -6   16.03    2.02
  -7   0  -6   14.97    0.95
  -7   1   6   17.49    2.24
  -7   1   6   18.51    1.07
  -6   1   6    3.62    0.41
  -6   1   6    2.50    1.83
  -6   1   6    3.18    0.79
   5  -1  -6   12.90    1.98
  -5   1   6   10.51    1.07
  -5   1   6   10.01    0.81
  -5   1   6    9.64    0.98
  -5   1   6    9.05    2.14
   4  -1  -6   30.87    2.10
   4  -1  -6   31.19    3.07
   4  -1  -6   34.26    2.29
   4  -1  -6   29.93    1.73
  -4   1   6   26.49    1.75
  -4   1   6   26.14    2.00
  -4   1   6   27.55    2.66
  -1   1   6   59.80    4.10
  -1   1   6   55.26    3.81
  -1   1   6   55.14    3.30
  -1   1   6   57.05    6.63
   0  -1  -6    0.71    2.46
   0   1   6    0.77    1.18
   0   1   6    0.42    1.14
   0   1   6    0.41    2.00
   0   1   6    0.85    0.51
  -1  -1  -6   21.77    4.10
  -1  -1  -6   25.46    2.42
   1   1   6   27.78    3.71
   1   1   6   26.68    4.60
   1   1   6   30.26    2.40
   1   1   6   29.73    1.82
   1   1   6   31.59    2.47
  -2  -1  -6   18.83    2.06
   2   1   6   10.41    3.39
   2   1   6   10.19    3.11
   2   1   6   12.78    1.19
   2   1   6   13.71    1.80
   2   1   6   13.89    1.82
   2   1   6   12.65    2.83
  -3  -1  -6   30.77    2.95
   3   1   6   37.06    4.55
   3   1   6   37.39    2.94
   3   1   6   33.88    2.22
   3   1   6   36.42    6.37
   3   1   6   28.39    4.52
  -4  -1  -6   10.23    1.76
   4   1   6    8.78    1.05
   4   1   6    9.50    1.54
   4   1   6    7.63    3.03
   4   1   6    7.66    3.89
  -5  -1  -6  133.35    8.00
  -5  -1  -6  135.16    8.40
  -5  -1  -6  123.28    7.42
  -5  -1  -6  144.08    8.06
   5   1   6  115.74    7.62
   5   1   6  112.68    7.30
   5   1   6  139.08   11.29
   5   1   6  153.52   14.34
  -6  -1  -6    5.83    1.68
  -6  -1  -6    8.53    2.45
  -6  -1  -6    6.43    1.08
   6   1   6    7.13    3.18
   6   1   6    5.28    1.11
  -7  -1  -6    2.43    0.37
  -7  -1  -6    2.92    0.46
  -7  -1  -6    2.59    1.21
  -6   2   6   34.75    3.62
  -6   2   6   31.66    4.75
  -6   2   6   40.35    2.17
   5  -2  -6   25.86    3.36
  -5   2   6   27.85    3.23
  -5   2   6   27.59    1.88
  -5   2   6   27.09    1.64
   4  -2  -6   70.14    4.44
   4  -2  -6   76.33    4.89
   4  -2  -6   79.82    5.45
  -4   2   6   89.52    5.54
  -4   2   6   80.16    4.45
  -4   2   6   88.61    4.59
   3  -2  -6   31.37    9.50
  -3   2   6    1.54    2.63
   0   2   6  221.04   14.30
   0   2   6  219.36   11.95
   0   2   6  208.00   15.29
   0   2   6  207.42   12.28
   0   2   6  223.51   12.53
   0   2   6  222.00   12.23
  -1  -2  -6   41.01    5.65
   1   2   6   43.37    3.20
   1   2   6   45.43    2.62
   1   2   6   44.77    4.68
   1   2   6   44.97    2.96
   1   2   6   41.27    5.40
   1   2   6   43.68    3.43
  -2  -2  -6   38.76    2.88
  -2  -2  -6   42.71    5.88
   2   2   6   33.62    5.04
   2   2   6   35.44    4.18
   2   2   6   34.71    2.94
   2   2   6   37.06    2.65
   2   2   6   38.71    2.29
  -3  -2  -6   31.68    5.28
  -3  -2  -6   34.88    2.77
   3   2   6   30.80    5.14
   3   2   6   31.04    3.95
   3   2   6   31.89    1.97
   3   2   6   27.43    2.68
   3   2   6   25.15    3.79
   3   2   6   29.53    2.37
  -4  -2  -6    1.46    3.03
  -4  -2  -6    0.71    1.17
   4   2   6    1.39    1.99
   4   2   6    0.96    0.92
   4   2   6    2.11    2.55
   4   2   6    0.88    0.65
  -5  -2  -6    0.06    2.08
  -5  -2  -6    1.29    1.44
  -5  -2  -6    0.60    1.26
   5   2   6    1.24    0.75
   5   2   6    2.63    3.11
   5   2   6    2.78    2.52
   5   2   6    2.23    0.93
  -6  -2  -6   11.18    2.49
  -6  -2  -6   13.36    1.48
  -6  -2  -6   12.40    1.93
   6   2   6   13.86    3.65
  -7  -2  -6    0.47    1.90
  -7  -2  -6    0.43    0.77
  -6   3   6    2.03    1.33
  -6   3   6    1.51    0.24
  -6   3   6    1.19    3.81
  -6   3   6    2.09    2.27
   5  -3  -6   44.97    2.41
   5  -3  -6   36.53    3.77
  -5   3   6   34.11    6.40
  -5   3   6   42.79    3.91
  -5   3   6   46.61    2.42
  -5   3   6   41.71    2.57
  -5   3   6   29.78    4.86
   4  -3  -6   46.48    3.76
   4  -3  -6   42.35    2.52
  -4   3   6   42.16    2.50
  -4   3   6   47.04    3.89
  -4   3   6   43.51    2.64
   3  -3  -6  155.18    8.59
   3  -3  -6  140.41    8.18
  -3   3   6  141.81    8.16
  -3   3   6  166.06   14.36
  -3   3   6  153.50    9.96
  -2   3   6   50.45    7.30
  -2   3   6   46.00    2.87
  -2   3   6   48.80    4.72
  -1   3   6   86.92    5.35
  -1   3   6   92.23    5.30
  -1   3   6   74.49    7.56
  -1   3   6   91.16    5.00
  -1   3   6   89.46    6.19
  -1   3   6   83.49    7.70
  -1   3   6   90.00    8.91
   0   3   6  153.38   10.66
   0   3   6  153.43    8.27
   0   3   6  153.17    8.25
   0   3   6  149.89    8.71
   0   3   6  121.10   10.50
   0   3   6  148.47    8.59
   0   3   6  153.79   11.88
   0   3   6  151.16    8.56
  -1  -3  -6   32.11    5.52
   1   3   6   28.86    4.52
   1   3   6   30.78    3.83
   1   3   6   32.81    2.87
   1   3   6   35.24    2.04
   1   3   6   33.16    2.33
   1   3   6   35.99    2.07
   1   3   6   31.05    2.60
   1   3   6   25.85    4.03
  -2  -3  -6    5.19    3.98
   2   3   6    3.01    0.56
   2   3   6    3.02    1.89
   2   3   6    2.39    1.22
   2   3   6    2.34    1.93
   2   3   6    3.38    1.27
   2   3   6    3.05    1.73
   2   3   6    3.94    0.81
  -3  -3  -6   11.60    4.24
   3   3   6   22.47    2.90
   3   3   6   16.07    1.54
   3   3   6   16.61    1.28
   3   3   6   22.08    4.15
   3   3   6   18.30    3.10
   3   3   6   20.46    2.25
  -4  -3  -6   12.89    1.85
  -4  -3  -6   10.83    4.13
  -4  -3  -6    9.81    4.47
   4   3   6   11.64    1.89
   4   3   6   13.63    3.80
   4   3   6   10.55    1.10
   4   3   6   10.53    2.69
  -5  -3  -6    4.99    2.28
  -5  -3  -6    4.17    1.48
  -5  -3  -6    3.34    2.14
  -5  -3  -6    3.22    3.39
   5   3   6    1.66    2.04
   5   3   6    3.95    2.83
   5   3   6    3.72    0.71
  -6  -3  -6   25.50    3.65
   6   3   6   30.03    4.34
  -7  -3  -6   11.32    1.28
  -7  -3  -6   11.89    2.34
   7   3   6   11.91    0.75
  -8  -3  -6    5.29    0.64
   5  -4  -6   11.53    0.91
  -5   4   6   15.05    3.51
  -5   4   6   16.13    2.00
  -5   4   6   15.30    0.86
  -5   4   6   11.70    4.95
   4  -4  -6    1.14    0.43
  -4   4   6    1.53    1.77
  -4   4   6    1.71    0.53
  -4   4   6    2.31    0.34
  -4   4   6    2.08    3.82
  -4   4   6    3.08    5.07
   3  -4  -6   72.08    3.77
  -3   4   6   60.53    5.83
  -3   4   6   69.00    3.80
  -3   4   6   60.97    3.71
  -3   4   6   69.12    9.17
  -2   4   6   40.31    4.43
  -2   4   6   36.80    6.87
  -2   4   6   37.81    2.49
  -1   4   6   39.17    4.42
  -1   4   6   39.90    5.63
  -1   4   6   40.33    2.57
  -1   4   6   47.55    6.75
   0  -4  -6   25.20    5.56
   0   4   6   27.88    4.02
   0   4   6   28.00    2.37
   0   4   6   28.56    4.72
   0   4   6   22.39    3.93
   0   4   6   26.56    3.31
   0   4   6   25.94    2.15
   0   4   6   24.00    2.12
   0   4   6   28.07    1.90
   0   4   6   28.31    1.79
  -1  -4  -6   43.95    6.53
   1   4   6   40.45    4.76
   1   4   6   49.68    4.63
   1   4   6   45.05    2.72
   1   4   6   41.92    3.18
   1   4   6   45.89    2.63
   1   4   6   44.47    5.50
   1   4   6   42.72    3.09
   1   4   6   42.50    2.85
   1   4   6   45.71    3.96
  -2  -4  -6   13.74    5.03
   2   4   6    9.35    1.02
   2   4   6    8.76    1.28
   2   4   6   14.28    3.11
   2   4   6   11.31    2.63
   2   4   6   11.52    2.08
   2   4   6    8.10    2.27
   2   4   6   10.27    1.56
   2   4   6    9.70    0.90
   2   4   6   12.78    1.85
   3   4   6    9.04    0.86
   3   4   6    9.32    2.36
   3   4   6    9.31    1.74
   3   4   6    8.43    2.30
   3   4   6    7.95    1.03
   3   4   6    7.46    2.45
  -4  -4  -6   56.90    7.10
  -4  -4  -6   59.16    7.86
   4   4   6   74.59    4.85
   4   4   6   71.92    3.96
   4   4   6   83.79    6.24
  -5  -4  -6    0.96    2.04
  -5  -4  -6   -1.25    3.37
  -5  -4  -6   -0.12    1.87
   5   4   6   -1.31    1.24
   5   4   6   -0.02    0.50
   5   4   6    0.67    1.57
   5   4   6   -0.23    0.22
  -6  -4  -6    2.05    2.17
  -6  -4  -6    2.86    2.06
   6   4   6    4.93    0.37
   6   4   6    5.51    1.95
  -7  -4  -6    4.61    2.08
   7   4   6    8.49    0.51
  -8  -4  -6   15.61    2.02
  -8  -4  -6   19.05    1.45
   5  -5  -6   19.94    1.17
   4  -5  -6   20.47    1.32
  -4   5   6   17.74    5.17
  -4   5   6   25.92    4.22
   3  -5  -6    4.24    0.55
  -3   5   6    5.75    4.95
  -3   5   6    7.89    2.38
  -3   5   6    6.05    0.57
  -3   5   6    6.63    4.02
   2  -5  -6    0.22    0.37
  -2   5   6    0.10    0.41
  -2   5   6    0.45    0.72
  -2   5   6   -0.67    2.00
  -2   5   6    2.01    3.77
  -2   5   6   -1.43    2.46
  -2   5   6   -0.01    2.72
  -2   5   6    0.77    2.54
  -1   5   6   21.35    3.90
  -1   5   6   26.57    2.04
  -1   5   6   22.92    4.90
  -1   5   6   20.37    3.48
  -1   5   6   25.46    5.41
  -1   5   6   22.65    1.77
   0  -5  -6    2.10    3.43
   0   5   6    3.06    2.39
   0   5   6    3.58    2.42
   0   5   6    8.68    2.88
   0   5   6    6.15    0.77
   0   5   6    7.35    0.97
   0   5   6    4.80    1.14
  -1  -5  -6  135.64   12.59
   1   5   6  142.68   10.68
   1   5   6  150.21   11.65
   1   5   6  151.00    8.19
   1   5   6  144.56    9.52
   1   5   6  156.48    8.33
   1   5   6  148.27    8.55
  -2  -5  -6    5.85    4.62
   2   5   6   17.18    3.09
   2   5   6   13.30    1.05
   2   5   6   13.43    1.30
   2   5   6   18.01    1.93
   2   5   6   12.89    2.90
  -3  -5  -6   13.10    4.96
  -3  -5  -6   11.87    4.53
   3   5   6   11.66    1.76
   3   5   6   12.39    2.51
   3   5   6   11.17    2.98
   3   5   6   10.63    1.23
  -4  -5  -6   15.84    4.68
  -4  -5  -6   17.96    6.02
   4   5   6   16.07    2.16
   4   5   6   14.50    1.55
   4   5   6    9.60    2.83
   4   5   6   14.20    2.42
  -5  -5  -6   29.28    3.74
  -5  -5  -6   25.80    3.54
  -5  -5  -6   26.87    6.26
   5   5   6   35.96    3.09
   5   5   6   32.75    1.72
   5   5   6   30.60    2.33
  -6  -5  -6    1.76    2.13
  -6  -5  -6    0.66    2.07
  -7  -5  -6    6.90    1.88
  -7  -5  -6   13.52    2.37
  -8  -5  -6    0.62    1.29
   4  -6  -6   15.64    0.97
  -4   6   6    7.55    2.95
   3  -6  -6    7.54    0.81
  -3   6   6    9.96    2.33
  -3   6   6    9.87    3.68
  -3   6   6    9.40    5.34
   2  -6  -6    6.90    0.78
  -2   6   6    7.79    3.64
  -2   6   6   10.49    2.62
  -2   6   6    4.22    3.79
  -2   6   6    7.66    1.29
  -1   6   6   74.27    5.52
  -1   6   6   66.56    6.76
  -1   6   6   74.54    4.49
  -1   6   6   67.48    4.31
  -1   6   6   92.23    8.59
  -1   6   6   91.39    9.69
  -1   6   6   71.93    4.09
  -1   6   6   62.24    6.06
   0   6   6   34.29    2.55
   0   6   6   37.58    5.29
   0   6   6   34.42    3.95
   0   6   6   41.27    6.14
   0   6   6   33.10    2.23
   0   6   6   33.27    4.37
   0   6   6   32.18    2.04
  -1  -6  -6    2.44    4.33
   1   6   6    5.24    3.00
   1   6   6    4.29    2.55
   1   6   6    3.36    0.59
   1   6   6    4.26    0.93
   1   6   6    4.08    2.55
   1   6   6    6.14    2.58
  -2  -6  -6    9.07    4.81
   2   6   6   13.40    1.07
   2   6   6   15.15    3.40
   2   6   6   14.42    1.82
   2   6   6   17.02    3.07
   2   6   6   15.18    1.62
  -3  -6  -6   26.46    6.88
  -3  -6  -6   25.37    5.32
   3   6   6   32.26    2.11
   3   6   6   35.28    2.40
   3   6   6   34.55    4.52
   3   6   6   31.47    2.83
   3   6   6   32.99    1.77
   3   6   6   32.40    1.77
  -4  -6  -6   11.32    4.46
  -4  -6  -6   15.79    2.59
   4   6   6   12.86    3.37
   4   6   6   11.31    1.27
   4   6   6   14.37    2.06
   4   6   6   15.41    1.53
  -5  -6  -6   -1.00    2.13
   5   6   6    0.95    0.98
  -6  -6  -6   17.26    2.64
  -6  -6  -6   17.55    2.82
  -7  -6  -6    1.77    1.64
  -7  -6  -6    2.09    1.79
  -8  -6  -6    9.48    1.47
   3  -7  -6   18.45    1.12
  -3   7   6   13.25    3.11
   2  -7  -6    1.56    0.41
  -2   7   6   -2.70    3.21
  -2   7   6   -0.53    2.04
  -1   7   6    2.24    2.84
  -1   7   6    3.93    3.53
  -1   7   6    8.11    2.55
  -1   7   6    3.87    1.06
   0   7   6   12.08    2.30
   0   7   6    8.83    1.33
   0   7   6    8.00    0.86
   0   7   6    8.80    3.32
   1   7   6   44.87    5.01
   1   7   6   40.16    2.18
   1   7   6   40.19    2.36
   1   7   6   34.13    2.37
   1   7   6   38.90    4.11
   1   7   6   40.00    2.82
   2   7   6   12.73    0.74
   2   7   6   13.87    2.49
   2   7   6   12.42    0.74
   2   7   6   13.29    1.17
   2   7   6   11.77    1.39
   2   7   6   16.84    2.41
   2   7   6    9.50    3.09
   3   7   6   72.98    4.14
   3   7   6   73.67    4.23
   3   7   6   69.98    4.76
   3   7   6   74.08    4.44
  -4  -7  -6   38.43    3.89
   4   7   6   41.33    2.48
   4   7   6   39.72    2.73
  -5  -7  -6   35.56    3.97
   5   7   6   31.95    2.06
   5   7   6   28.50    2.37
  -6  -7  -6   13.17    2.46
   6   7   6   13.50    1.20
  -7  -7  -6    1.26    1.48
  -7  -7  -6    0.69    1.44
   7   7   6    1.72    0.48
  -1   8   6    3.77    1.97
   0   8   6   45.13    4.40
   0   8   6   44.57    2.53
   0   8   6   50.21    5.17
   0   8   6   45.60    2.59
   1   8   6   81.57    4.47
   1   8   6   81.53    4.60
   1   8   6   83.68    6.38
   1   8   6   81.89    5.71
   1   8   6   81.03    4.46
   2   8   6    4.55    0.68
   2   8   6    3.10    1.04
   3   8   6    0.98    0.62
   3   8   6    0.39    0.93
  -4  -8  -6   42.63    3.96
   4   8   6   40.17    2.60
   4   8   6   42.75    2.43
  -5  -8  -6   10.83    2.22
   5   8   6    9.65    0.92
  -6  -8  -6    6.55    1.88
   6   8   6   10.26    0.87
  -7  -8  -6    4.13    1.29
   7   8   6    5.46    0.60
   0   9   6    7.39    1.68
   1   9   6   17.42    1.11
   2   9   6   19.33    1.32
   3   9   6    2.17    0.53
   4   9   6    5.38    0.68
  -5  -9  -6    1.08    1.38
  -6  -9  -6    0.05    1.14
  -3  -7   7    4.35    1.22
  -2  -7   7    3.04    1.14
   5   6  -7   14.58    1.61
   5   6  -7   15.70    1.15
  -5  -6   7   14.80    2.04
   4   6  -7    0.50    1.01
   4   6  -7    1.25    0.60
  -4  -6   7    0.92    1.55
   3   6  -7    3.22    0.33
   3   6  -7    3.98    1.24
   3   6  -7    3.66    0.32
   3   6  -7    3.37    0.68
  -3  -6   7    2.55    1.74
   2   6  -7    4.68    1.25
   2   6  -7    4.52    0.65
  -2  -6   7    5.12    1.89
   1   6  -7   21.29    1.25
  -1  -6   7   20.12    2.87
   0   6  -7    1.85    0.63
   0  -6   7    2.42    0.42
  -1   6  -7    3.58    0.62
   1  -6   7    5.91    0.50
  -6  -5   7    5.94    1.49
   5   5  -7    7.78    0.45
   5   5  -7    6.06    1.31
   5   5  -7    7.64    0.49
  -5  -5   7    3.79    1.74
  -5  -5   7    7.26    1.77
   4   5  -7    6.78    1.56
   4   5  -7    8.72    0.56
   4   5  -7    6.91    2.32
  -4  -5   7    8.83    2.22
  -4  -5   7    8.54    2.01
   3   5  -7   16.03    1.96
   3   5  -7   10.44    1.39
   3   5  -7   11.21    3.43
  -3  -5   7   17.07    2.61
  -3  -5   7   18.06    2.70
   2   5  -7    0.73    1.39
   2   5  -7    0.44    2.73
   2   5  -7    0.85    0.73
  -2  -5   7    3.20    1.99
   1   5  -7    3.55    0.77
   1   5  -7    3.83    3.31
  -1  -5   7    3.80    2.11
   0   5  -7   47.36    2.67
   0   5  -7   56.90    7.24
   0  -5   7   39.69    4.05
   0  -5   7   42.13    2.56
  -1   5  -7   -0.68    2.35
  -1   5  -7    0.15    0.72
   1  -5   7    0.57    1.73
   1  -5   7    0.60    0.36
  -2   5  -7    1.61    0.65
  -2   5  -7    1.34    2.38
   2  -5   7    1.97    0.44
   6   4  -7   40.51    2.13
   6   4  -7   38.40    2.14
  -6  -4   7   35.40    3.49
   5   4  -7    8.44    1.46
   5   4  -7    7.83    0.57
   5   4  -7    7.11    2.54
  -5  -4   7   10.82    1.98
  -5  -4   7    8.90    2.23
   4   4  -7    5.01    1.49
   4   4  -7   10.46    3.40
  -4  -4   7    5.06    1.95
  -4  -4   7    8.63    2.48
   3   4  -7   48.99    3.80
  -3  -4   7   45.89    4.43
  -3  -4   7   47.73    4.40
   2   4  -7   34.92    8.24
   2   4  -7   37.91    6.39
   2   4  -7   38.13    2.57
   2   4  -7   36.87    3.33
  -2  -4   7   42.55    4.07
   1   4  -7    8.27    4.47
   1   4  -7    8.05    3.91
   1   4  -7    6.44    1.59
   1   4  -7    6.39    1.00
   1   4  -7    6.82    0.89
  -1  -4   7    9.03    2.55
   0   4  -7    6.41    3.89
   0   4  -7    3.62    0.84
   0  -4   7    6.78    0.71
   0  -4   7    4.59    2.26
  -1   4  -7   12.08    1.18
  -1   4  -7   12.22    1.26
  -1   4  -7   10.06    3.23
   1  -4   7    8.98    2.45
   1  -4   7    9.73    0.91
  -2   4  -7    3.61    0.87
  -2   4  -7    3.37    3.00
  -2   4  -7    4.86    0.59
   2  -4   7    4.37    2.01
   2  -4   7    4.42    0.52
  -3   4  -7   12.20    3.09
  -3   4  -7   12.46    1.31
   3  -4   7    7.64    1.85
   3  -4   7   13.51    0.89
  -4   4  -7    1.97    1.85
  -4   4  -7    1.51    0.51
  -7  -3   7    2.11    0.56
  -7  -3   7    2.82    1.28
  -6  -3   7    2.05    1.83
  -6  -3   7    1.37    1.00
   5   3  -7   46.40    6.01
  -5  -3   7   42.32    4.20
   4   3  -7    1.58    2.82
   4   3  -7    1.63    1.37
  -4  -3   7    1.67    2.09
   3   3  -7   25.27    2.82
   3   3  -7   27.84    1.88
   3   3  -7   30.31    5.95
   3   3  -7   27.05    2.70
   3   3  -7   27.48    6.45
  -3  -3   7   29.64    3.59
   2   3  -7   51.26    3.72
   2   3  -7   55.52    7.05
   2   3  -7   45.07    3.76
   2   3  -7   62.93    8.87
   2   3  -7   45.57    2.90
  -2  -3   7   43.32    4.15
   1   3  -7   25.66    2.77
   1   3  -7   25.25    2.77
   1   3  -7   23.58    5.35
   1   3  -7   26.12    6.57
   1   3  -7   26.53    1.90
  -1  -3   7   35.51    3.78
   0   3  -7   17.86    5.59
   0   3  -7   18.05    1.47
   0   3  -7   17.75    2.28
   0   3  -7   18.48    5.19
   0  -3   7   23.62    3.46
   0  -3   7   15.96    1.15
  -1   3  -7   63.73    9.27
  -1   3  -7   50.07    3.27
  -1   3  -7   54.03    3.25
  -1   3  -7   54.27    3.91
   1  -3   7   52.75    3.03
  -2   3  -7    6.53    0.68
  -2   3  -7    8.46    0.94
  -2   3  -7    8.98    3.48
  -2   3  -7    9.03    1.21
   2  -3   7    9.38    0.79
  -3   3  -7   11.73    1.81
  -3   3  -7   11.83    0.89
  -3   3  -7    9.34    1.26
  -3   3  -7   13.63    1.06
  -3   3  -7    9.08    3.60
   3  -3   7   14.69    0.99
  -4   3  -7    0.46    1.13
  -4   3  -7    0.25    0.26
  -4   3  -7    2.04    2.71
  -4   3  -7   -0.16    0.74
   4  -3   7    0.03    0.28
  -7  -2   7   11.35    0.83
  -7  -2   7    8.63    1.68
  -6  -2   7   18.74    1.80
  -6  -2   7   14.81    2.47
   5   2  -7    4.79    3.37
  -5  -2   7    4.05    1.27
  -5  -2   7    3.42    2.11
   4   2  -7   38.16    2.65
   4   2  -7   40.92    6.45
   4   2  -7   31.25    2.38
  -4  -2   7   35.27    4.00
  -4  -2   7   36.57    3.51
   3   2  -7    5.11    1.47
   3   2  -7    5.64    1.06
   3   2  -7    5.39    0.76
   3   2  -7    5.19    0.83
   3   2  -7    5.61    3.49
   3   2  -7    4.32    3.87
  -3  -2   7    5.44    1.70
  -3  -2   7    6.74    2.05
   2   2  -7   49.81    3.77
   2   2  -7   42.64    6.51
   2   2  -7   50.93    2.95
   2   2  -7   50.39    8.53
  -2  -2   7   47.07    3.78
   1   2  -7   20.22    4.76
   1   2  -7   17.81    1.35
   1   2  -7   16.39    2.23
   1   2  -7   17.64    5.47
   0   2  -7    3.38    3.64
   0   2  -7    2.11    1.33
   0   2  -7    3.34    0.69
  -1   2  -7   23.51    2.49
  -1   2  -7   24.10    1.73
  -1   2  -7   27.12    6.48
  -2   2  -7   32.44    1.97
  -2   2  -7   33.80    2.97
  -2   2  -7   42.41    7.91
  -2   2  -7   32.81    2.37
  -2   2  -7   37.27    4.17
  -2   2  -7   38.77    3.31
   2  -2   7   31.01    1.96
  -3   2  -7   16.13    1.42
  -3   2  -7   14.36    2.15
  -3   2  -7   14.53    1.09
   3  -2   7   16.26    2.27
   3  -2   7   15.33    1.07
  -4   2  -7   34.27    4.93
  -4   2  -7   31.49    1.94
  -4   2  -7   31.81    1.83
  -4   2  -7   31.64    3.26
   4  -2   7   29.95    1.79
   4  -2   7   24.69    3.37
  -5   2  -7    2.07    0.35
  -5   2  -7   -0.12    2.24
  -5   2  -7    0.85    1.30
  -7  -1   7    4.18    1.44
   6   1  -7    9.07    5.01
  -6  -1   7    8.38    1.07
  -6  -1   7    5.93    2.08
  -6  -1   7    5.88    1.59
  -6  -1   7    8.34    0.67
   5   1  -7    0.58    3.05
  -5  -1   7    0.88    1.54
  -5  -1   7    1.05    1.10
  -5  -1   7    1.79    2.03
   4   1  -7   36.77    6.09
   4   1  -7   30.02    2.36
   4   1  -7   33.53    2.55
  -4  -1   7   39.83    3.93
  -4  -1   7   34.77    2.50
  -4  -1   7   37.31    2.82
  -4  -1   7   39.06    3.42
  -4  -1   7   38.10    3.51
   2   1  -7  199.83   11.32
   2   1  -7  212.30   11.47
   2   1  -7  190.43   15.38
   2   1  -7  203.43   18.08
  -2  -1   7  211.59   12.04
   1   1  -7  152.23    8.28
   1   1  -7  153.58    8.90
   1   1  -7  163.62   14.65
  -1  -1   7  133.54    8.87
   0   1  -7   14.08    4.66
   0   1  -7   16.95    1.29
   0   1  -7   17.59    2.04
   0  -1   7   15.77    2.08
  -1   1  -7   31.09    2.01
  -1   1  -7   29.73    2.76
  -1   1  -7   31.39    6.63
   1  -1   7   30.23    6.38
  -2   1  -7   40.50    3.28
   2  -1   7   44.67    7.57
   2  -1   7   38.79    3.81
  -3   1  -7    6.82    1.81
  -3   1  -7    4.65    2.12
  -3   1  -7    6.29    0.94
  -3   1  -7    7.36    1.54
  -3   1  -7    6.34    0.72
   3  -1   7    8.41    2.02
   3  -1   7    7.85    0.68
   3  -1   7   10.71    5.04
  -4   1  -7    0.67    0.65
  -4   1  -7    1.13    1.58
  -4   1  -7    1.17    0.42
   4  -1   7    1.08    0.32
   4  -1   7    0.80    1.67
  -5   1  -7    8.45    0.80
  -5   1  -7    5.75    2.90
  -5   1  -7    8.57    0.98
  -5   1  -7    7.57    1.80
   5  -1   7    5.57    1.75
  -6   1  -7    4.77    1.31
  -6   1  -7    6.54    0.58
  -7   0   7    2.61    1.09
  -6   0   7   43.42    2.43
  -6   0   7   42.13    2.70
  -6   0   7   42.12    3.68
   5   0  -7   12.62    4.34
   5   0  -7   15.33    2.64
  -5   0   7   18.84    2.74
  -5   0   7   16.59    1.71
  -5   0   7   16.47    1.55
  -5   0   7   16.64    1.12
  -5   0   7   16.34    2.67
   4   0  -7   67.79    3.97
   4   0  -7   75.13    4.84
   4   0  -7   69.86    4.15
   4   0  -7   63.43    8.31
  -4   0   7   67.60    4.86
  -4   0   7   67.38    5.09
  -4   0   7   57.05    3.69
  -4   0   7   68.34    4.78
  -4   0   7   62.50    4.17
  -4   0   7   62.78    3.98
   1   0  -7    1.59    0.55
   1   0  -7    2.65    0.63
   1   0  -7    1.50    0.66
   1   0  -7    1.80    3.11
  -1   0   7    1.07    1.21
  -1   0   7   -0.47    1.96
   0   0  -7    3.83    3.04
   0   0  -7    5.71    1.37
   0   0  -7    6.62    0.82
   0   0   7   11.11    1.68
   0   0   7    6.19    3.03
  -1   0  -7   58.60    7.93
  -1   0  -7   54.06    3.75
   1   0   7   50.43    3.16
   1   0   7   55.04    3.88
   1   0   7   53.82    3.97
   1   0   7   55.31    7.16
  -2   0  -7    4.78    1.50
   2   0   7    4.45    1.59
   2   0   7    4.72    0.86
   2   0   7    7.87    3.66
  -3   0  -7   70.92    5.01
   3   0   7   70.99    4.39
   3   0   7   96.15   10.68
   3   0   7   73.88    5.28
  -4   0  -7   32.83    3.02
  -4   0  -7   30.48    3.37
  -4   0  -7   34.32    2.01
   4   0   7   33.18    2.45
   4   0   7   37.84    8.04
   4   0   7   35.47    3.51
  -5   0  -7    2.90    1.68
  -5   0  -7    3.28    0.48
   5   0   7    3.68    1.50
  -6   0  -7    8.62    0.85
  -6   0  -7    7.20    1.62
  -6   0  -7    8.84    0.73
  -6   1   7    7.98    1.85
  -6   1   7    7.17    0.91
  -6   1   7    8.92    0.70
   5  -1  -7   11.78    1.93
  -5   1   7    7.23    1.99
  -5   1   7    9.48    1.03
  -5   1   7    9.79    0.79
  -5   1   7    9.17    0.88
   4  -1  -7   55.81    3.49
   4  -1  -7   53.38    3.18
   4  -1  -7   55.68    4.40
  -4   1   7   55.55    3.42
  -4   1   7   58.93    3.21
  -4   1   7   61.92    4.56
  -4   1   7   57.48    3.52
  -4   1   7   57.19    4.08
   2  -1  -7   17.86    1.73
   2  -1  -7   16.82    1.46
   2  -1  -7   17.63    2.27
  -2   1   7   24.26    5.42
  -2   1   7   25.31    2.31
   0  -1  -7  176.44   15.09
   0   1   7  175.62   10.33
   0   1   7  172.90    9.83
   0   1   7  190.24   14.23
   0   1   7  177.87   10.23
  -1  -1  -7   88.51    5.64
   1   1   7   95.49    5.73
   1   1   7   97.86    9.19
   1   1   7   87.76    5.10
   1   1   7   86.20    5.59
  -2  -1  -7   24.99    2.62
   2   1   7   29.18    1.92
   2   1   7   31.39    2.65
   2   1   7   23.81    4.28
   2   1   7   28.58    5.47
   2   1   7   28.62    2.65
  -3  -1  -7   24.94    2.58
   3   1   7   20.72    1.72
   3   1   7   21.75    4.44
   3   1   7   22.05    5.62
   3   1   7   23.23    2.69
  -4  -1  -7   53.99    4.78
  -4  -1  -7   57.60    4.28
  -4  -1  -7   54.03    4.10
   4   1   7   65.06    6.86
   4   1   7   65.97    9.06
   4   1   7   52.24    3.99
   4   1   7   51.90    3.44
  -5  -1  -7    5.72    1.85
  -5  -1  -7    8.50    2.60
  -5  -1  -7    5.65    1.17
   5   1   7    7.24    3.23
   5   1   7    5.61    1.42
  -6  -1  -7    1.00    1.49
  -6  -1  -7    0.45    0.36
   6   1   7    1.44    2.30
  -7  -1  -7   20.53    2.25
  -7  -1  -7   22.49    1.30
  -6   2   7    0.13    1.48
  -6   2   7    2.81    2.60
  -6   2   7    0.86    0.27
   5  -2  -7    1.87    1.63
  -5   2   7    2.16    1.75
  -5   2   7    1.80    0.38
  -5   2   7    1.04    0.66
   4  -2  -7   13.36    0.98
   4  -2  -7   13.52    1.69
   4  -2  -7   29.05   14.63
   4  -2  -7   13.69    2.10
  -4   2   7   14.48    1.32
  -4   2   7   15.39    1.00
  -4   2   7   12.17    2.11
   3  -2  -7   45.15    3.58
   3  -2  -7   40.60    2.42
   3  -2  -7   45.02    3.02
  -3   2   7   41.38    3.17
  -3   2   7   39.58    2.41
  -3   2   7   42.91    2.65
  -2   2   7    4.63    2.26
  -2   2   7    3.46    3.11
  -1   2   7  116.64    7.31
  -1   2   7  124.83    7.19
  -1   2   7  121.50    7.45
  -1   2   7  115.05    7.76
  -1   2   7  119.03   11.09
  -1   2   7  121.21    6.75
   0   2   7    4.01    2.30
   0   2   7    3.05    1.24
   0   2   7    1.82    0.61
   0   2   7    2.02    1.21
   0   2   7    1.35    1.12
   0   2   7    1.06    2.27
  -1  -2  -7    6.13    3.18
   1   2   7    2.42    2.04
   1   2   7    2.48    1.38
   1   2   7    2.35    1.96
   1   2   7    3.25    2.04
   1   2   7    3.66    2.73
   1   2   7    2.84    0.60
   1   2   7    3.70    1.07
   1   2   7    2.34    1.25
  -2  -2  -7  149.70    8.61
  -2  -2  -7  122.09   10.94
   2   2   7  125.97   10.45
   2   2   7  170.61   12.74
   2   2   7  153.62    8.66
   2   2   7  163.50   10.69
   2   2   7  144.80    8.05
   2   2   7  140.15    8.32
  -3  -2  -7    9.13    1.86
   3   2   7    8.97    3.69
   3   2   7   10.35    1.75
   3   2   7    7.31    1.60
   3   2   7    9.60    1.12
   3   2   7    8.77    2.95
  -4  -2  -7   85.97    5.93
   4   2   7   90.96    8.38
   4   2   7   91.81    5.53
   4   2   7   90.37    5.24
   4   2   7   97.11   10.31
  -5  -2  -7   22.24    3.76
  -5  -2  -7   26.98    3.00
  -5  -2  -7   26.45    3.73
   5   2   7   26.32    2.04
   5   2   7   43.37    7.35
   5   2   7   38.85    5.39
   5   2   7   24.90    2.21
  -6  -2  -7    2.13    2.24
  -6  -2  -7    1.09    1.46
  -6  -2  -7    3.73    1.08
   6   2   7    2.20    2.34
  -6   3   7    1.71    0.26
  -6   3   7    1.29    1.19
   5  -3  -7    6.22    0.62
  -5   3   7    7.47    0.79
  -5   3   7    8.03    0.65
  -5   3   7    9.33    2.00
   4  -3  -7    8.73    1.86
   4  -3  -7   11.19    0.85
  -4   3   7    9.45    0.80
  -4   3   7    9.30    0.95
  -4   3   7    8.04    2.00
   3  -3  -7  119.94    6.85
   3  -3  -7  107.26    6.41
  -3   3   7  119.92    6.51
  -3   3   7  126.24   12.68
  -3   3   7  119.67    7.36
  -3   3   7  115.06    6.39
  -3   3   7  107.95    8.15
  -2   3   7    6.64    0.89
  -2   3   7   10.18    2.75
  -2   3   7    6.89    3.71
  -1   3   7   59.68    7.00
  -1   3   7   69.16    4.30
  -1   3   7   64.68    5.39
  -1   3   7   65.64    4.67
  -1   3   7   66.08    3.89
  -1   3   7   74.13    8.45
   0   3   7   53.48    3.77
   0   3   7   58.29    5.93
   0   3   7   54.56    3.75
   0   3   7   55.80    3.92
   0   3   7   54.95    3.24
   0   3   7   49.64    6.06
   0   3   7   60.54    7.32
  -1  -3  -7   26.84    5.37
   1   3   7   24.12    4.64
   1   3   7   26.69    1.77
   1   3   7   26.91    4.10
   1   3   7   21.85    3.84
   1   3   7   25.68    2.67
   1   3   7   27.13    2.49
   1   3   7   27.37    2.17
  -2  -3  -7   71.45    8.44
   2   3   7   79.40    4.52
   2   3   7   84.20    5.17
   2   3   7   87.98    8.17
   2   3   7   79.15    4.77
   2   3   7   75.21    6.98
  -3  -3  -7   19.26    4.78
   3   3   7   20.33    2.31
   3   3   7   15.41    3.42
   3   3   7   18.41    1.41
   3   3   7   16.01    1.69
   3   3   7   18.59    4.21
  -4  -3  -7   52.93    7.02
  -4  -3  -7   62.47    4.34
   4   3   7   57.17    4.33
   4   3   7   58.50    7.62
   4   3   7   61.32    3.53
   4   3   7   58.24    6.11
  -5  -3  -7   52.67    4.42
  -5  -3  -7   41.27    3.58
  -5  -3  -7   49.06    4.48
   5   3   7   43.29    5.36
   5   3   7   41.15    2.76
   5   3   7   41.07    6.85
  -6  -3  -7   19.86    3.01
  -6  -3  -7   24.41    3.12
   6   3   7   20.94    3.86
  -7  -3  -7    4.50    0.92
  -7  -3  -7    3.21    1.94
   7   3   7    4.22    0.34
   5  -4  -7    0.73    0.26
  -5   4   7    0.50    2.95
  -5   4   7    1.49    1.40
   4  -4  -7   48.15    2.88
  -4   4   7   49.94    2.82
  -4   4   7   57.47    6.74
  -4   4   7   51.54    2.95
  -4   4   7   51.03    4.13
   3  -4  -7   13.04    0.96
  -3   4   7   12.28    0.87
  -3   4   7   10.30    1.08
   2  -4  -7   59.84    3.56
  -2   4   7   65.02    5.04
  -2   4   7   64.69    3.82
  -2   4   7   62.41    3.63
  -2   4   7   76.11    9.21
  -2   4   7   60.81    5.62
  -1   4   7   36.12    5.48
  -1   4   7   37.33    4.58
  -1   4   7   41.78    6.67
  -1   4   7   37.59    2.47
   0  -4  -7    0.48    3.40
   0   4   7    5.43    1.25
   0   4   7    3.51    0.69
   0   4   7    3.81    1.21
   0   4   7    3.73    0.74
   0   4   7    6.10    2.97
   0   4   7    6.32    2.82
   0   4   7    2.19    2.15
  -1  -4  -7   65.66    8.46
   1   4   7   69.21    7.32
   1   4   7   62.19    4.03
   1   4   7   66.42    6.81
   1   4   7   68.43    4.33
   1   4   7   65.19    3.84
   1   4   7   66.14    3.80
  -2  -4  -7  100.56   10.10
   2   4   7  103.36    6.24
   2   4   7   98.59    5.71
   2   4   7  100.37    5.59
   2   4   7   94.17    8.16
   2   4   7   97.73    9.01
  -3  -4  -7   42.98    7.37
   3   4   7   54.95    3.06
   3   4   7   53.56    3.88
   3   4   7   52.31    6.19
   3   4   7   50.28    5.39
  -4  -4  -7   11.77    4.36
  -4  -4  -7   14.28    5.28
  -4  -4  -7   16.15    2.54
   4   4   7   11.04    1.11
   4   4   7   13.35    3.07
   4   4   7   10.25    1.84
  -5  -4  -7    6.62    2.29
  -5  -4  -7    5.91    2.45
   5   4   7    3.10    1.46
   5   4   7    4.15    0.69
   5   4   7    3.47    2.01
  -6  -4  -7   18.80    2.92
   6   4   7   21.53    3.23
   6   4   7   19.87    1.17
  -7  -4  -7    3.25    1.87
   4  -5  -7    3.09    0.43
  -4   5   7    4.06    3.41
  -4   5   7    2.29    0.42
   3  -5  -7   46.70    2.82
  -3   5   7   54.61    6.38
  -3   5   7   51.24    2.84
  -3   5   7   45.83    4.49
   2  -5  -7   11.75    1.04
  -2   5   7   12.99    4.44
  -2   5   7   16.83    4.93
  -2   5   7   13.87    1.47
  -2   5   7   16.18    1.11
  -2   5   7   16.87    1.79
  -2   5   7   16.56    4.30
  -2   5   7   15.91    2.49
   1  -5  -7    6.48    4.13
  -1   5   7   18.15    5.14
  -1   5   7   18.84    4.90
  -1   5   7   12.37    1.39
  -1   5   7   15.58    2.43
  -1   5   7   18.58    2.69
  -1   5   7   14.26    3.39
  -1   5   7   12.11    1.56
  -1   5   7   14.85    1.14
  -1   5   7   16.90    3.89
   0  -5  -7    5.76    4.31
   0   5   7    4.82    2.62
   0   5   7    6.26    3.14
   0   5   7    8.42    1.07
   0   5   7    5.95    3.21
   0   5   7    8.79    1.35
   0   5   7    6.28    0.84
  -1  -5  -7   39.04    7.83
   1   5   7   56.63    6.61
   1   5   7   50.68    3.01
   1   5   7   49.66    2.91
   1   5   7   56.92    6.07
   1   5   7   44.53    3.02
   1   5   7   46.09    3.37
  -2  -5  -7   25.14    6.80
   2   5   7   22.35    4.11
   2   5   7   22.26    1.58
   2   5   7   22.23    3.84
   2   5   7   23.96    2.40
   2   5   7   24.48    1.74
  -3  -5  -7   14.68    4.50
  -3  -5  -7   12.86    4.79
   3   5   7   21.29    3.49
   3   5   7   15.15    2.07
   3   5   7   17.53    1.25
   3   5   7   18.98    3.43
   3   5   7   19.32    1.59
  -4  -5  -7   25.67    3.67
  -4  -5  -7   21.95    5.18
  -4  -5  -7   17.71    5.68
   4   5   7   28.50    3.60
   4   5   7   24.53    2.66
   4   5   7   17.69    3.50
   4   5   7   22.70    1.30
  -5  -5  -7    7.51    2.53
  -5  -5  -7    5.82    2.23
   5   5   7    7.01    0.48
   5   5   7    9.78    2.15
  -6  -5  -7    9.51    2.36
  -6  -5  -7    8.07    2.44
  -7  -5  -7    5.38    1.81
  -7  -5  -7    5.22    1.90
   4  -6  -7   16.63    0.98
  -4   6   7    9.81    2.73
   3  -6  -7    9.77    0.85
  -3   6   7    6.35    2.07
  -3   6   7   14.80    3.70
   2  -6  -7   46.24    2.50
  -2   6   7   37.67    3.34
  -2   6   7   45.01    2.46
  -2   6   7   36.96    2.94
  -2   6   7   42.02    4.53
  -2   6   7   46.59    6.62
  -2   6   7   42.22    5.07
  -1   6   7    0.36    0.91
  -1   6   7   -0.61    2.44
  -1   6   7   -0.62    3.36
  -1   6   7    0.02    0.45
  -1   6   7   -0.79    1.10
  -1   6   7    0.17    2.06
   0   6   7   44.74    6.63
   0   6   7   33.87    4.84
   0   6   7   44.21    6.10
   0   6   7   41.04    2.74
   0   6   7   36.42    2.51
   0   6   7   38.67    2.37
   0   6   7   39.94    4.14
  -1  -6  -7   18.17    6.44
   1   6   7   19.96    1.61
   1   6   7   23.76    1.92
   1   6   7   26.05    2.92
   1   6   7   24.56    4.69
   1   6   7   26.14    3.97
   1   6   7   33.45    4.82
   1   6   7   22.75    1.60
  -2  -6  -7    6.28    4.80
   2   6   7    9.65    1.54
   2   6   7    8.04    0.92
   2   6   7    5.87    2.64
   2   6   7   10.84    1.08
   2   6   7    9.67    0.64
   2   6   7   11.12    1.37
   2   6   7   13.31    3.01
  -3  -6  -7   30.59    5.88
  -3  -6  -7   38.61    3.99
   3   6   7   35.65    2.43
   3   6   7   34.32    4.57
   3   6   7   41.06    2.65
   3   6   7   43.22    2.50
   3   6   7   40.95    3.21
   3   6   7   40.65    2.16
   3   6   7   40.83    4.04
  -4  -6  -7   25.15    3.79
   4   6   7   21.04    3.82
   4   6   7   29.68    2.91
   4   6   7   29.43    2.16
  -5  -6  -7    5.85    2.32
  -6  -6  -7    2.07    2.08
  -6  -6  -7    4.05    2.04
  -7  -6  -7    1.31    1.62
  -7  -6  -7    0.87    1.51
  -3   7   7    1.49    2.48
   2  -7  -7    1.58    0.39
  -2   7   7    0.10    3.08
  -2   7   7    0.28    1.92
  -1   7   7   16.28    4.45
  -1   7   7   14.03    2.72
  -1   7   7   14.01    0.99
  -1   7   7   15.68    3.77
   0   7   7   24.95    4.60
   0   7   7   23.78    1.55
   0   7   7   23.06    2.12
   0   7   7   24.76    2.89
   1   7   7   11.10    1.10
   1   7   7   13.73    2.62
   1   7   7   11.43    3.03
   1   7   7   11.37    1.39
   2   7   7   20.82    1.20
   2   7   7   21.16    1.91
   2   7   7   21.28    1.55
   2   7   7   21.85    2.70
   2   7   7   23.41    3.25
   3   7   7   31.18    3.45
   3   7   7   29.08    1.97
   3   7   7   27.47    1.82
   3   7   7   29.29    2.20
  -4  -7  -7   12.67    2.52
   4   7   7   12.49    1.61
   4   7   7   14.25    1.22
  -5  -7  -7    6.33    2.26
   5   7   7    4.63    0.72
  -6  -7  -7   20.32    3.22
   6   7   7   26.28    1.69
  -7  -7  -7    5.37    1.46
  -7  -7  -7    3.97    1.43
   7   7   7    5.43    0.60
  -2   8   7    5.65    1.56
  -1   8   7    1.50    1.91
   0   8   7   18.14    1.08
   0   8   7   16.75    2.60
   0   8   7   19.35    1.19
   1   8   7   27.22    1.73
   1   8   7   25.74    3.42
   1   8   7   27.12    1.51
   1   8   7   28.24    3.37
   1   8   7   26.91    1.51
   2   8   7    6.95    2.05
   2   8   7    5.78    0.76
   3   8   7   10.00    0.97
  -4  -8  -7   14.73    2.37
   4   8   7   12.03    1.28
   4   8   7   13.49    0.91
  -5  -8  -7    0.97    1.75
   5   8   7    1.22    0.44
  -6  -8  -7   16.12    2.56
   6   8   7   15.31    1.12
   0   9   7    4.88    1.51
   1   9   7   26.07    2.93
   1   9   7   30.00    1.71
   2   9   7    0.94    0.46
   3   9   7   11.85    1.06
   4   9   7   23.31    1.55
  -5  -9  -7    2.58    1.29
   4   6  -8   22.01    1.41
  -4  -6   8   21.74    2.23
   3   6  -8    1.00    0.13
   3   6  -8    0.46    0.81
   3   6  -8    1.25    0.13
   3   6  -8    1.09    0.46
  -3  -6   8    0.53    1.32
   2   6  -8    0.66    0.16
   2   6  -8    0.97    0.38
  -2  -6   8    0.76    1.41
  -1  -6   8   16.15    2.13
   5   5  -8    6.13    1.01
  -5  -5   8    4.60    1.29
  -5  -5   8    6.50    1.45
   4   5  -8    7.10    1.35
   4   5  -8    7.30    0.46
  -4  -5   8    4.00    1.61
  -4  -5   8    5.00    1.81
   3   5  -8    2.87    1.27
   3   5  -8    2.55    0.69
  -3  -5   8    4.20    1.85
  -3  -5   8    4.32    1.86
   2   5  -8    1.11    1.20
   2   5  -8    1.16    0.65
  -2  -5   8    1.70    1.79
   1   5  -8   20.18    1.52
  -1  -5   8   21.49    2.98
   0   5  -8   15.55    1.04
   0  -5   8   12.42    2.23
   0  -5   8   13.16    0.98
   1  -5   8    1.37    1.51
   1  -5   8    1.81    0.33
   2  -5   8   12.70    0.82
  -6  -4   8   15.14    2.20
   5   4  -8    0.08    1.01
   5   4  -8    0.29    0.17
  -5  -4   8    0.43    1.57
   4   4  -8   17.29    3.74
   4   4  -8   18.28    2.25
  -4  -4   8   19.70    2.67
  -4  -4   8   20.11    3.31
   3   4  -8   19.52    4.56
   3   4  -8   20.65    2.58
  -3  -4   8   20.03    3.28
  -3  -4   8   17.48    2.57
   2   4  -8   15.22    4.52
   2   4  -8   19.48    2.53
  -2  -4   8   17.71    2.72
   1   4  -8   24.51    2.66
   1   4  -8   22.33    1.80
   1   4  -8   25.13    5.46
  -1  -4   8   20.93    1.71
  -1  -4   8   25.37    3.64
   0   4  -8   -0.45    0.67
   0   4  -8   -0.92    2.71
   0  -4   8    1.07    0.40
   0  -4   8    0.93    2.15
  -1   4  -8    7.71    2.90
  -1   4  -8   10.27    1.03
   1  -4   8    7.23    2.28
   1  -4   8    8.95    0.82
  -2   4  -8    3.31    2.73
  -2   4  -8    3.30    0.81
   2  -4   8    3.40    1.87
   2  -4   8    4.74    0.48
  -3   4  -8   12.86    1.11
  -3   4  -8    8.18    2.38
   3  -4   8    7.52    1.67
   3  -4   8   12.68    0.77
   6   3  -8   16.14    0.94
  -6  -3   8   15.89    2.44
  -6  -3   8   17.61    1.65
   5   3  -8   24.21    5.60
   4   3  -8   11.21    3.86
   4   3  -8   18.44    2.40
  -4  -3   8   19.86    2.95
   3   3  -8    6.22    1.69
   3   3  -8    8.01    4.04
  -3  -3   8    6.12    2.19
  -3  -3   8    7.34    2.23
   2   3  -8   66.11    9.81
   2   3  -8   57.86    4.14
  -2  -3   8   51.34    4.68
   1   3  -8   30.81    7.36
   1   3  -8   35.13    2.25
   1   3  -8   38.57    3.13
   1   3  -8   38.55    6.73
   1   3  -8   31.17    3.11
  -1  -3   8   37.64    3.99
  -1  -3   8   29.98    1.98
   0   3  -8   78.84    9.96
   0   3  -8   59.61    4.35
   0   3  -8   56.92    3.81
   0   3  -8   58.00    3.72
   0   3  -8   69.96    9.78
   0  -3   8   70.01    5.35
   0  -3   8   64.32    3.52
  -1   3  -8   27.24    4.24
  -1   3  -8   23.59    2.09
   1  -3   8   30.60    1.75
   1  -3   8   35.10    3.88
  -2   3  -8    5.31    0.82
  -2   3  -8    2.81    2.99
   2  -3   8    6.38    0.76
   2  -3   8    6.35    2.15
  -3   3  -8    4.90    3.04
  -3   3  -8    8.79    0.73
   3  -3   8    9.68    0.78
  -4   3  -8    3.38    0.67
  -4   3  -8    3.78    2.24
   4  -3   8    3.12    1.41
  -6  -2   8    2.32    1.67
  -6  -2   8    2.38    0.86
   5   2  -8   17.67    4.27
  -5  -2   8    9.93    2.28
  -5  -2   8   12.43    1.49
   4   2  -8   23.24    2.57
   4   2  -8   22.55    5.19
  -4  -2   8   21.90    3.49
   3   2  -8   66.85    8.14
   3   2  -8   60.13    4.26
   3   2  -8   59.02    3.73
   3   2  -8   75.98   10.67
  -3  -2   8   64.57    4.81
  -3  -2   8   65.69    5.10
   2   2  -8  255.14   20.13
   2   2  -8  208.35   12.20
   2   2  -8  221.59   12.69
  -2  -2   8  198.15   12.06
  -2  -2   8  242.35   13.20
   1   2  -8    3.55    1.54
   1   2  -8    5.15    1.56
   1   2  -8    2.32    3.59
   1   2  -8    2.75    0.66
   1   2  -8    3.06    3.11
  -1  -2   8    3.44    0.45
  -1  -2   8    7.37    2.41
   0   2  -8    0.71    0.31
   0   2  -8    1.20    1.44
   0   2  -8    0.29    0.59
   0   2  -8   -0.73    2.97
   0   2  -8    0.01    1.34
   0  -2   8    1.31    0.39
   0  -2   8    1.43    1.97
  -1   2  -8   71.13    9.69
  -1   2  -8   56.60    5.29
  -1   2  -8   55.18    3.29
  -1   2  -8   57.10    4.26
   1  -2   8   60.17    3.32
   1  -2   8   62.51    4.91
  -2   2  -8   24.69    2.02
  -2   2  -8   26.18    1.61
  -2   2  -8   28.66    2.98
  -2   2  -8   29.23    4.02
   2  -2   8   26.87    1.62
  -3   2  -8    2.52    1.59
  -3   2  -8    1.89    0.69
  -3   2  -8    1.25    0.39
   3  -2   8    0.66    0.39
   3  -2   8    0.70    1.64
  -4   2  -8   14.25    3.40
  -4   2  -8   16.56    1.08
  -4   2  -8   16.47    2.42
  -4   2  -8   17.55    1.17
   4  -2   8   14.33    1.14
  -5   2  -8    3.20    0.38
  -5   2  -8    2.07    1.94
  -5   2  -8    2.27    0.96
  -6  -1   8    0.71    0.26
  -6  -1   8    0.83    1.20
  -6  -1   8    0.32    1.54
  -6  -1   8    1.34    0.64
   5   1  -8   31.51    5.98
  -5  -1   8   37.23    2.64
  -5  -1   8   37.37    3.80
  -5  -1   8   36.33    2.10
  -5  -1   8   34.49    3.31
   4   1  -8   33.31    6.11
  -4  -1   8   36.53    3.44
  -4  -1   8   36.09    3.93
  -4  -1   8   36.13    2.12
  -4  -1   8   35.59    2.88
  -4  -1   8   37.84    2.58
   3   1  -8    5.32    4.26
   3   1  -8    2.93    0.77
   3   1  -8    6.52    3.98
   3   1  -8    3.78    0.98
   3   1  -8    3.61    1.36
  -3  -1   8    2.57    1.64
  -3  -1   8    2.04    1.84
  -3  -1   8    3.65    0.45
   2   1  -8   62.21    9.77
   2   1  -8   56.06    7.57
  -2  -1   8   49.91    4.12
   1   1  -8  332.14   19.77
   1   1  -8  349.36   19.18
   1   1  -8  399.07   27.13
  -1  -1   8  335.63   19.83
   0   1  -8   33.27    3.01
   0   1  -8   33.46    2.17
   0   1  -8   34.37    7.66
  -1   1  -8   18.51    2.31
  -1   1  -8   16.03    5.30
  -2   1  -8   15.11    1.05
  -2   1  -8   19.00    2.27
  -2   1  -8   20.31    2.33
  -2   1  -8   19.31    2.98
   2  -1   8   18.70    2.38
   2  -1   8   13.68    5.34
   2  -1   8   11.83    1.00
  -3   1  -8    6.55    1.79
  -3   1  -8    8.02    0.97
  -3   1  -8    7.87    2.34
  -3   1  -8    8.19    0.77
   3  -1   8    8.67    2.05
   3  -1   8    8.80    0.74
  -4   1  -8   37.83    2.44
  -4   1  -8   38.32    2.22
  -4   1  -8   39.78    3.67
   4  -1   8   33.82    3.61
  -5   1  -8    2.31    0.39
  -5   1  -8    0.79    2.38
  -5   1  -8    0.64    1.30
  -5   1  -8    2.11    0.44
  -6   1  -8   -0.17    0.88
  -6   0   8   10.35    0.72
  -6   0   8    9.48    1.73
   5   0  -8   46.24    6.81
  -5   0   8   41.56    2.76
  -5   0   8   41.04    2.40
  -5   0   8   40.85    3.62
  -4   0   8   82.33    4.72
  -4   0   8   85.59    5.01
  -4   0   8   86.16    5.80
  -4   0   8   86.38    5.19
   3   0  -8   43.83    2.97
   3   0  -8   53.57    9.68
   3   0  -8   53.90    3.23
  -3   0   8   43.66    2.67
  -3   0   8   47.47    3.87
  -3   0   8   43.31    4.00
   2   0  -8    7.57    1.27
   2   0  -8    5.97    0.87
   2   0  -8    2.66    4.21
  -2   0   8    7.15    1.74
   1   0  -8    4.17    0.66
   1   0  -8    7.37    4.24
  -1   0   8    6.38    1.54
   0   0  -8   52.44    8.09
   0   0  -8   44.52    3.47
   0   0   8   46.84    3.80
   0   0   8   50.36    7.27
   0   0   8   45.11    3.66
  -1   0  -8   13.24    2.01
   1   0   8    9.97    4.02
   1   0   8   16.07    2.17
   1   0   8   21.34    2.68
  -2   0  -8    5.07    1.56
   2   0   8    8.88    4.16
   2   0   8    7.35    0.94
   2   0   8    7.78    1.76
  -3   0  -8   18.26    2.60
  -3   0  -8   16.88    2.23
  -3   0  -8   14.16    1.10
  -3   0  -8   17.14    2.83
   3   0   8   16.33    1.04
   3   0   8   17.44    5.62
   3   0   8   17.06    3.01
   3   0   8   17.51    1.67
  -4   0  -8    1.02    1.64
  -4   0  -8    0.58    2.02
  -4   0  -8    0.48    0.77
  -4   0  -8    0.22    0.37
   4   0   8    0.24    1.52
  -5   0  -8   32.94    1.96
  -5   0  -8   35.98    3.38
  -5   0  -8   31.97    2.16
  -6   0  -8    4.78    1.27
  -6   0  -8    4.18    0.41
  -6   0  -8    4.48    0.53
  -6   1   8   23.34    1.37
  -6   1   8   22.63    2.83
   5  -1  -8    7.34    1.70
  -5   1   8   10.55    2.06
  -5   1   8    9.52    0.75
  -5   1   8    6.95    0.93
   4  -1  -8   -0.17    1.55
  -4   1   8    0.62    0.40
  -4   1   8   -0.01    1.71
  -4   1   8    0.75    0.76
  -4   1   8    0.61    0.81
   3  -1  -8   19.43    1.77
   3  -1  -8   17.02    2.67
   3  -1  -8   16.59    1.09
  -3   1   8   13.51    2.05
  -3   1   8   15.11    1.50
  -3   1   8   16.85    1.56
  -3   1   8   14.74    1.10
  -3   1   8   16.11    2.29
   1  -1  -8   17.90    5.68
   1  -1  -8   23.35    1.90
  -1   1   8   23.56    2.35
  -1   1   8   21.47    2.98
  -1   1   8   27.09    5.76
   0   1   8   17.59    2.29
   0   1   8   18.52    4.76
   0   1   8   18.72    1.48
   0   1   8   20.41    2.67
  -1  -1  -8   38.85    3.42
   1   1   8   48.61    2.86
   1   1   8   44.94    6.92
   1   1   8   47.40    3.59
   1   1   8   48.18    3.58
  -2  -1  -8   26.98    2.69
   2   1   8   24.42    2.53
   2   1   8   24.82    2.89
   2   1   8   26.07    1.90
   2   1   8   34.20    6.73
  -3  -1  -8    5.19    0.56
  -3  -1  -8    7.81    2.49
  -3  -1  -8    7.18    1.78
   3   1   8    6.21    3.10
   3   1   8    4.04    1.54
   3   1   8    5.28    3.72
   3   1   8    3.39    0.87
  -4  -1  -8    5.56    1.52
  -4  -1  -8    6.67    1.79
  -4  -1  -8    8.91    2.53
  -4  -1  -8    6.56    0.69
   4   1   8    4.06    0.97
   4   1   8    4.03    3.95
   4   1   8    7.47    3.26
   4   1   8    5.08    1.51
  -5  -1  -8    4.30    1.70
  -5  -1  -8    4.81    0.52
   5   1   8    2.72    1.28
   5   1   8    4.83    2.91
  -6  -1  -8   12.92    1.18
  -6  -1  -8   14.39    0.94
  -6  -1  -8    9.75    1.75
  -6   2   8    6.97    0.50
  -6   2   8    5.73    1.42
  -5   2   8   15.15    0.97
  -5   2   8   12.66    2.05
  -5   2   8   12.86    1.28
   4  -2  -8    5.48    0.63
   4  -2  -8    4.51    1.77
  -4   2   8    2.26    1.76
  -4   2   8    5.55    0.54
  -4   2   8    4.62    0.83
   3  -2  -8    1.30    1.39
   3  -2  -8    1.52    0.43
   3  -2  -8    1.69    0.98
  -3   2   8    1.42    0.72
  -3   2   8    1.41    0.41
  -3   2   8    0.92    1.09
  -3   2   8    1.79    0.82
  -3   2   8    1.46    0.62
  -3   2   8    1.06    1.70
   2  -2  -8   52.02    3.57
  -2   2   8   54.94    4.59
  -2   2   8   50.91    3.78
  -2   2   8   58.98    8.33
  -1   2   8   39.76    3.22
  -1   2   8   46.31    7.04
  -1   2   8   41.73    2.62
  -1   2   8   36.16    3.97
  -1   2   8   41.89    3.71
   0   2   8   20.36    1.57
   0   2   8   19.06    4.84
   0   2   8   19.96    2.26
   0   2   8   19.33    2.62
  -1  -2  -8   10.79    3.98
   1   2   8   10.75    1.09
   1   2   8   10.29    1.46
   1   2   8   11.01    3.26
   1   2   8   10.09    3.66
   1   2   8   10.79    1.85
   2   2   8    3.65    2.89
   2   2   8    5.74    2.66
   2   2   8    5.38    1.23
   2   2   8    5.17    0.82
   2   2   8    4.19    1.55
  -3  -2  -8   34.05    3.04
   3   2   8   35.38    6.44
   3   2   8   31.45    2.71
   3   2   8   29.76    2.17
   3   2   8   26.73    2.83
   3   2   8   32.52    5.08
  -4  -2  -8   38.68    3.82
  -4  -2  -8   42.78    4.22
  -4  -2  -8   38.05    3.54
  -4  -2  -8   43.66    4.52
   4   2   8   49.31    3.35
   4   2   8   49.10    2.93
   4   2   8   43.54    6.00
   4   2   8   60.54    8.29
  -5  -2  -8    5.59    2.50
  -5  -2  -8    5.15    2.59
  -5  -2  -8    5.77    1.74
   5   2   8    5.69    1.25
   5   2   8    6.48    3.07
  -6  -2  -8    2.91    1.40
  -6  -2  -8    2.42    0.97
   6   2   8    3.51    2.88
  -7  -2  -8    0.84    0.40
  -5   3   8   15.54    3.82
  -5   3   8   24.19    3.01
  -5   3   8   25.16    1.42
  -5   3   8   24.17    1.63
   4  -3  -8    2.47    0.43
   4  -3  -8    2.59    1.55
  -4   3   8    2.69    1.70
  -4   3   8    4.37    1.76
  -4   3   8    4.73    0.75
   3  -3  -8    8.32    1.37
   3  -3  -8    7.83    0.79
  -3   3   8    6.62    0.71
  -3   3   8    6.46    1.86
  -3   3   8    7.80    0.90
   2  -3  -8   69.11    3.78
  -2   3   8   71.55    5.18
  -2   3   8   68.73    5.74
  -2   3   8   64.90    3.91
  -2   3   8   62.75    3.76
  -2   3   8   74.33    9.77
  -1   3   8   86.22    4.91
  -1   3   8   87.33    5.72
  -1   3   8   81.33    6.23
  -1   3   8   85.00    9.81
  -1   3   8   80.30    5.34
   0  -3  -8    2.27    3.72
   0   3   8    0.82    1.21
   0   3   8    1.42    2.39
   0   3   8    0.70    0.68
   0   3   8    1.39    2.46
   0   3   8    0.62    1.21
   1   3   8   51.14    6.10
   1   3   8   63.94    7.51
   1   3   8   56.97    4.03
   1   3   8   52.97    3.31
   1   3   8   56.37    3.75
  -2  -3  -8    9.30    4.47
   2   3   8    6.30    2.78
   2   3   8    7.66    0.87
   2   3   8    9.57    1.29
   2   3   8    7.65    1.66
   2   3   8    3.84    2.69
   3   3   8   10.41    1.88
   3   3   8   12.86    3.37
   3   3   8   13.41    1.29
   3   3   8   11.48    3.86
   3   3   8   11.29    1.69
  -4  -3  -8   13.23    4.56
  -4  -3  -8   18.92    2.76
  -4  -3  -8   14.64    2.71
   4   3   8   14.63    2.17
   4   3   8   10.33    1.53
   4   3   8   23.43    4.44
   4   3   8   13.47    1.41
   4   3   8   17.95    4.68
  -5  -3  -8   48.59    4.62
  -5  -3  -8   49.59    4.91
   5   3   8   48.91    5.91
  -6  -3  -8    1.02    2.13
  -6  -3  -8    0.67    2.04
   6   3   8    0.65    1.79
  -7  -3  -8    8.06    1.00
   7   3   8    8.45    0.55
  -5   4   8    6.77    2.60
  -5   4   8    4.82    1.30
   4  -4  -8    8.66    0.72
  -4   4   8    9.74    4.07
  -4   4   8    7.44    0.76
  -4   4   8    9.93    1.86
  -4   4   8    6.37    0.59
   3  -4  -8    1.44    0.45
  -3   4   8    1.95    1.77
  -3   4   8    1.40    0.63
  -3   4   8    1.00    0.32
   2  -4  -8    5.04    0.57
  -2   4   8    3.09    2.27
  -2   4   8    6.39    0.78
  -2   4   8    7.79    1.98
  -2   4   8    5.70    3.74
  -2   4   8    5.91    0.94
   1  -4  -8   17.10    1.09
  -1   4   8   16.40    2.37
  -1   4   8   14.66    1.53
  -1   4   8   14.27    1.45
  -1   4   8   16.24    2.81
  -1   4   8   15.29    5.01
  -1   4   8   21.54    3.72
  -1   4   8   15.09    1.32
  -1   4   8   16.20    4.60
   0  -4  -8   14.29    4.83
   0   4   8   25.35    2.47
   0   4   8   23.32    3.50
   0   4   8   24.08    2.28
   0   4   8   20.90    4.98
   0   4   8   19.68    4.67
   0   4   8   21.75    1.69
  -1  -4  -8    4.21    4.37
   1   4   8   10.39    3.46
   1   4   8    8.84    1.58
   1   4   8    8.90    1.26
   1   4   8    9.90    3.48
   1   4   8    8.13    0.91
  -2  -4  -8  200.17   16.36
   2   4   8  224.19   15.45
   2   4   8  214.93   12.15
   2   4   8  213.01   12.63
   2   4   8  220.23   12.03
   2   4   8  241.71   16.69
  -3  -4  -8   66.79    8.87
   3   4   8   85.16    4.73
   3   4   8   94.11    7.85
   3   4   8   82.50    5.54
   3   4   8   85.80    8.72
  -4  -4  -8   22.67    3.67
  -4  -4  -8   17.04    4.96
   4   4   8   21.60    4.01
   4   4   8   20.14    6.02
   4   4   8   20.44    1.58
   4   4   8   23.19    3.90
   4   4   8   19.55    2.52
  -5  -4  -8    0.88    1.98
  -5  -4  -8    1.03    2.10
   5   4   8   -0.49    1.75
  -6  -4  -8   34.64    3.81
  -6  -4  -8   32.76    3.95
   6   4   8   32.57    1.87
   6   4   8   35.26    3.88
  -7  -4  -8    4.93    1.85
   4  -5  -8    3.69    0.41
  -4   5   8    3.30    0.45
  -4   5   8    1.49    3.03
   3  -5  -8   12.03    0.91
  -3   5   8    7.41    3.81
  -3   5   8    8.82    0.97
  -3   5   8    9.66    1.92
   2  -5  -8    8.38    0.83
  -2   5   8    6.50    3.91
  -2   5   8    5.14    2.11
  -2   5   8    7.48    1.86
  -2   5   8    6.86    0.75
  -2   5   8    6.80    1.14
  -1   5   8   63.07    8.14
  -1   5   8   63.84    4.51
  -1   5   8   63.50    3.73
  -1   5   8   69.39    9.25
  -1   5   8   69.48    4.04
  -1   5   8   60.89    3.89
  -1   5   8   62.38    5.89
  -1   5   8   64.03    5.06
   0  -5  -8   31.58    7.69
   0   5   8   47.29    4.29
   0   5   8   47.73    2.79
   0   5   8   46.96    5.05
   0   5   8   53.54    6.82
   0   5   8   46.01    3.33
   0   5   8   46.67    3.03
   0   5   8   45.79    2.92
   0   5   8   50.34    7.13
  -1  -5  -8   33.63    7.82
   1   5   8   32.40    2.15
   1   5   8   33.33    5.79
   1   5   8   32.26    2.18
   1   5   8   36.40    2.33
   1   5   8   31.79    2.76
   1   5   8   37.19    5.67
   1   5   8   32.03    2.39
  -2  -5  -8   30.18    7.34
   2   5   8   25.97    2.60
   2   5   8   29.60    4.76
   2   5   8   24.55    1.87
   2   5   8   24.97    4.88
   2   5   8   25.45    1.77
  -3  -5  -8   44.84    7.65
  -3  -5  -8   54.62    4.21
   3   5   8   40.38    5.18
   3   5   8   44.02    3.66
   3   5   8   42.14    2.71
  -4  -5  -8   13.59    2.73
   4   5   8   16.23    3.21
   4   5   8   14.42    0.84
   4   5   8   12.67    1.14
   4   5   8   12.07    2.01
  -5  -5  -8    2.04    2.20
  -5  -5  -8    1.94    2.07
   5   5   8    1.78    1.68
   5   5   8    1.62    0.22
   5   5   8    1.98    0.23
  -6  -5  -8    0.19    1.92
  -6  -5  -8   -0.26    1.92
  -7  -5  -8    3.35    1.58
  -7  -5  -8    4.78    1.76
   3  -6  -8    8.04    0.79
  -3   6   8   10.50    3.28
  -3   6   8    8.41    1.86
   2  -6  -8   13.58    0.93
  -2   6   8    7.86    1.97
  -2   6   8   11.45    3.61
  -2   6   8   10.44    0.92
  -2   6   8   11.19    2.42
  -2   6   8    8.63    3.56
  -1   6   8   24.49    2.12
  -1   6   8   22.97    2.33
  -1   6   8   30.98    6.03
  -1   6   8   28.01    3.06
  -1   6   8   25.04    1.65
   0   6   8    2.34    0.63
   0   6   8    3.38    0.94
   0   6   8    0.93    2.23
   0   6   8    0.63    2.81
   1   6   8   28.53    2.23
   1   6   8   32.69    5.59
   1   6   8   28.85    1.92
   1   6   8   25.90    4.08
   1   6   8   42.12    5.62
   1   6   8   25.62    1.94
   1   6   8   30.64    3.29
   2   6   8   27.18    1.89
   2   6   8   28.60    2.52
   2   6   8   27.70    1.80
   2   6   8   25.28    1.79
   2   6   8   27.20    2.12
  -3  -6  -8   27.57    3.84
   3   6   8   36.99    2.32
   3   6   8   34.68    3.17
   3   6   8   36.17    2.35
   3   6   8   48.11    4.70
   3   6   8   34.19    2.52
   3   6   8   36.79    2.01
  -4  -6  -8   10.42    2.57
   4   6   8   10.60    1.24
   4   6   8   10.19    0.60
   4   6   8   10.02    0.60
  -5  -6  -8    1.61    2.11
   5   6   8    2.10    0.71
  -6  -6  -8    5.70    2.14
  -6  -6  -8    8.01    1.98
  -7  -6  -8   11.54    1.74
  -7  -6  -8    7.87    1.68
   2  -7  -8    7.18    0.65
  -2   7   8    3.10    1.87
  -2   7   8    8.03    2.81
  -1   7   8   49.36    2.81
  -1   7   8   49.26    4.59
   0   7   8    2.00    2.22
   0   7   8    3.12    0.60
   0   7   8    4.94    2.77
   1   7   8   44.64    4.51
   1   7   8   36.61    2.77
   1   7   8   42.93    2.54
   1   7   8   47.35    5.54
   2   7   8   24.87    3.72
   2   7   8   24.56    1.72
   2   7   8   22.95    1.34
   2   7   8   23.60    2.91
   2   7   8   23.85    2.06
   3   7   8   15.48    1.71
   3   7   8   15.52    1.22
   3   7   8   16.53    0.92
   3   7   8   18.17    2.46
   3   7   8   16.89    1.45
   3   7   8   17.36    0.92
  -4  -7  -8   36.16    4.04
   4   7   8   39.59    2.41
  -5  -7  -8    2.95    2.05
   5   7   8    1.91    0.61
  -6  -7  -8    7.28    1.99
   6   7   8    7.54    0.79
   7   7   8   16.21    1.12
  -1   8   8   19.47    2.34
   0   8   8    2.95    1.99
   0   8   8    0.55    0.37
   0   8   8    1.05    0.20
   1   8   8    5.78    0.41
   1   8   8    3.71    1.94
   1   8   8    5.82    0.42
   1   8   8    5.73    0.65
   2   8   8   33.35    3.77
   2   8   8   36.26    2.23
   3   8   8    0.22    0.59
   4   8   8    2.07    0.62
  -5  -8  -8    7.26    1.88
   5   8   8   10.08    0.81
  -6  -8  -8    3.10    1.41
   6   8   8    5.12    0.59
   1   9   8    6.14    0.58
   1   9   8    4.64    1.49
   2   9   8    3.67    0.50
   3   9   8   12.32    1.00
   4   9   8   12.26    1.01
   4   5  -9    2.83    0.23
   4   5  -9    2.61    0.85
   4   5  -9    3.39    0.25
   4   5  -9    1.95    0.54
  -4  -5   9    2.51    1.17
  -4  -5   9    4.01    1.26
   3   5  -9   13.04    1.17
   3   5  -9   12.92    0.76
   3   5  -9   12.90    1.74
  -3  -5   9   13.02    1.93
  -3  -5   9   11.86    1.80
   2   5  -9   16.41    1.19
   2   5  -9   13.79    1.81
  -2  -5   9   13.60    2.04
  -2  -5   9   14.97    2.10
   1   5  -9    9.45    0.89
  -1  -5   9   10.09    0.72
  -1  -5   9    8.08    1.72
   0  -5   9    1.60    0.29
   0  -5   9    2.58    1.34
   5   4  -9   11.11    0.61
   5   4  -9   10.36    0.71
  -5  -4   9    7.83    1.52
   4   4  -9   14.50    2.03
  -4  -4   9   14.39    1.87
  -4  -4   9   11.69    2.13
   3   4  -9   28.81    2.55
  -3  -4   9   26.58    3.27
  -3  -4   9   25.84    2.98
   2   4  -9    3.91    1.37
   2   4  -9    4.62    3.17
  -2  -4   9    1.35    1.88
   1   4  -9    6.41    0.86
   1   4  -9    5.61    1.38
   1   4  -9    6.69    3.71
  -1  -4   9    1.43    1.92
  -1  -4   9    3.50    0.45
   0   4  -9   14.83    1.35
   0  -4   9   14.77    1.04
   0  -4   9   16.87    2.65
  -1   4  -9   11.34    1.01
   1  -4   9   12.89    0.90
   1  -4   9   11.22    2.27
  -2   4  -9    3.08    2.08
   2  -4   9    6.51    0.56
   2  -4   9    4.86    1.69
  -5  -3   9    2.55    1.54
   4   3  -9    3.39    1.26
  -4  -3   9    4.38    1.96
   3   3  -9   20.47    4.90
   3   3  -9   23.83    2.71
  -3  -3   9   19.89    3.35
  -3  -3   9   20.35    2.63
   2   3  -9    0.62    1.40
   2   3  -9   -0.28    3.15
  -2  -3   9    0.62    2.03
  -2  -3   9    0.77    0.36
   1   3  -9    8.85    3.97
   1   3  -9    6.26    1.58
  -1  -3   9    8.03    2.51
  -1  -3   9   10.04    0.82
   0   3  -9   14.49    1.46
   0   3  -9   16.36    2.28
   0  -3   9   12.45    0.98
   0  -3   9   11.27    2.60
  -1   3  -9    4.58    0.81
   1  -3   9    4.05    0.51
   1  -3   9    4.46    2.29
  -2   3  -9    9.34    2.89
  -2   3  -9   12.27    1.18
   2  -3   9   13.22    2.52
   2  -3   9   13.74    0.97
  -3   3  -9    2.22    2.30
   3  -3   9    8.36    0.61
   3  -3   9    6.52    1.80
  -6  -2   9    3.20    0.60
  -6  -2   9    1.53    1.30
  -5  -2   9    2.89    0.36
  -5  -2   9    2.58    1.00
  -5  -2   9    2.29    1.70
   4   2  -9   -0.10    1.21
   4   2  -9    0.62    2.78
  -4  -2   9    0.21    1.99
  -4  -2   9    0.19    0.32
   3   2  -9   25.70    2.73
   3   2  -9   30.14    6.14
  -3  -2   9   26.45    3.47
  -3  -2   9   23.28    1.51
   2   2  -9   30.90    3.08
   2   2  -9   26.85    6.07
  -2  -2   9   32.82    1.94
  -2  -2   9   38.10    3.81
   1   2  -9   20.41    2.59
   1   2  -9   17.25    1.49
   1   2  -9   25.31    6.92
  -1  -2   9   21.82    3.55
  -1  -2   9   17.49    1.21
   0   2  -9    5.54    1.65
   0   2  -9    2.40    5.64
   0  -2   9    4.12    2.42
   0  -2   9    4.13    0.51
  -1   2  -9    7.49    0.69
   1  -2   9    7.90    0.77
   1  -2   9    7.81    2.43
  -2   2  -9    4.10    0.45
  -2   2  -9    4.04    0.84
   2  -2   9    4.89    0.52
   2  -2   9    3.27    2.06
  -3   2  -9    2.14    0.37
  -3   2  -9    2.60    2.85
  -3   2  -9    1.79    0.65
   3  -2   9    3.63    0.40
  -4   2  -9   15.14    2.91
  -4   2  -9   20.04    1.15
  -6  -1   9   19.22    1.13
  -5  -1   9   16.88    2.84
  -5  -1   9   18.37    1.73
  -5  -1   9   20.26    1.22
  -5  -1   9   18.78    2.41
   4   1  -9    0.55    2.90
  -4  -1   9    0.73    1.54
  -4  -1   9    2.28    0.84
  -4  -1   9    2.15    0.39
  -4  -1   9    2.77    2.03
  -4  -1   9    2.24    1.21
   3   1  -9   11.99    1.76
   3   1  -9   12.85    4.67
  -3  -1   9   11.24    0.90
  -3  -1   9   12.51    2.52
  -3  -1   9   13.58    2.13
   2   1  -9    1.51    0.64
   2   1  -9    0.70    3.66
   2   1  -9    3.06    1.53
  -2  -1   9    3.53    1.63
  -2  -1   9    2.81    0.43
  -2  -1   9    3.14    1.98
   1   1  -9    1.13    0.35
   1   1  -9    2.56    3.55
   1   1  -9    1.85    1.33
   1   1  -9    2.17    0.64
  -1  -1   9    1.58    1.61
  -1  -1   9    3.83    2.01
  -1  -1   9    1.83    0.42
   0   1  -9    8.59    1.84
   0   1  -9    8.70    0.73
   0   1  -9   10.54    2.69
   0   1  -9    8.42    1.58
   0   1  -9    9.31    4.59
   0  -1   9    7.02    0.73
   0  -1   9    8.33    2.31
  -1   1  -9   40.93    2.50
  -1   1  -9   44.71    4.58
  -1   1  -9   42.95    3.39
  -1   1  -9   41.29    3.57
   1  -1   9   46.14    2.51
   1  -1   9   47.26    4.18
  -2   1  -9    2.54    2.39
  -2   1  -9    1.39    0.40
   2  -1   9    1.68    1.53
   2  -1   9    1.28    0.39
  -3   1  -9    0.54    0.74
  -3   1  -9    1.44    0.41
  -3   1  -9    0.98    2.39
  -3   1  -9    1.45    1.62
   3  -1   9    1.53    1.60
   3  -1   9    1.47    0.35
  -4   1  -9   19.43    2.67
  -4   1  -9   22.39    1.37
  -4   1  -9   21.26    1.63
  -5   1  -9    0.79    1.98
  -5   1  -9    0.01    0.26
  -5   1  -9    0.15    0.99
  -6   0   9    8.73    1.46
  -6   0   9   12.25    0.75
  -5   0   9    1.63    0.34
  -5   0   9    1.53    0.76
  -5   0   9    2.31    1.45
  -4   0   9   71.43    5.09
  -4   0   9   68.56    3.90
  -4   0   9   69.79    4.38
   3   0  -9   25.22    2.51
   3   0  -9   23.81    8.77
   3   0  -9   24.65    2.05
   3   0  -9   25.34    1.97
  -3   0   9   28.61    2.06
  -3   0   9   27.52    1.64
  -3   0   9   34.00    3.39
   2   0  -9   22.77    1.98
   2   0  -9   25.93    2.08
   2   0  -9   30.42    8.05
   2   0  -9   26.35    2.65
   2   0  -9   22.65    1.55
  -2   0   9   28.11    1.57
  -2   0   9   34.72    3.02
   1   0  -9   92.56    5.74
   1   0  -9   88.44    4.98
   1   0  -9   97.86   11.90
  -1   0   9   94.67    6.08
  -1   0   9   84.69    4.98
   0   0  -9    4.97    3.83
   0   0  -9    2.80    0.44
   0   0  -9    3.43    1.34
   0   0   9    4.30    1.59
   0   0   9    2.84    1.85
   0   0   9    4.62    0.46
  -1   0  -9   11.11    2.49
  -1   0  -9    9.72    1.85
  -1   0  -9    8.66    0.71
  -1   0  -9   10.91    1.70
   1   0   9    7.20    2.12
   1   0   9    6.86    0.69
   1   0   9    5.01    1.53
   1   0   9    8.53    4.16
  -2   0  -9   17.64    2.39
  -2   0  -9   21.77    2.84
  -2   0  -9   16.11    2.95
  -2   0  -9   18.48    1.28
   2   0   9   23.90    6.58
   2   0   9   21.37    1.25
   2   0   9   23.31    3.01
  -3   0  -9    9.87    1.94
  -3   0  -9    9.30    2.54
  -3   0  -9   11.42    0.86
   3   0   9    7.84    1.83
  -4   0  -9    9.80    1.98
  -4   0  -9    5.89    0.91
  -4   0  -9   10.65    2.45
  -4   0  -9    7.46    0.76
   4   0   9    6.40    1.61
  -5   0  -9   13.52    1.22
  -5   0  -9   11.58    1.76
  -5   0  -9   14.43    0.97
  -6   0  -9    2.70    0.86
  -6   1   9    8.95    0.58
  -6   1   9    6.58    1.33
  -5   1   9    7.84    0.64
  -5   1   9    6.32    0.84
  -5   1   9    8.38    1.73
  -4   1   9   14.79    1.47
  -4   1   9   13.37    2.20
  -4   1   9   16.92    1.10
  -4   1   9   15.50    1.58
   3  -1  -9   36.21    2.17
   3  -1  -9   42.99    3.43
   3  -1  -9   31.55    3.69
   3  -1  -9   30.33    8.05
  -3   1   9   37.55    2.47
  -3   1   9   38.46    2.19
  -3   1   9   39.53    3.70
   2  -1  -9   15.24    6.38
   2  -1  -9   14.44    1.64
   2  -1  -9   12.80    0.95
  -2   1   9   12.39    2.00
  -2   1   9   13.01    0.95
  -2   1   9   11.95    1.40
   1  -1  -9   18.99    1.74
   1  -1  -9   18.34    1.24
  -1   1   9   19.84    1.23
  -1   1   9   22.30    5.81
  -1   1   9   20.22    3.04
  -1   1   9   20.94    2.55
   0   1   9   14.79    4.60
   0   1   9   11.03    1.94
   0   1   9   10.13    1.73
   1   1   9   20.37    2.57
   1   1   9   21.30    2.75
   1   1   9   18.92    1.63
   1   1   9   23.57    5.87
  -2  -1  -9   39.37    2.36
  -2  -1  -9   45.54    4.49
  -2  -1  -9   42.55    3.40
  -2  -1  -9   41.14    3.20
   2   1   9   39.12    2.31
   2   1   9   41.11    3.54
   2   1   9   39.33    2.68
   2   1   9   58.02    8.36
  -3  -1  -9   22.96    2.69
  -3  -1  -9   27.56    3.13
  -3  -1  -9   26.50    4.04
  -3  -1  -9   22.33    1.54
   3   1   9   28.01    6.56
   3   1   9   26.45    1.97
   3   1   9   27.63    2.95
  -4  -1  -9   22.87    3.77
  -4  -1  -9   25.44    1.57
  -4  -1  -9   26.50    3.17
   4   1   9   24.00    2.74
   4   1   9   30.45    5.36
  -5  -1  -9    3.58    1.60
  -5  -1  -9    4.40    0.80
  -5  -1  -9    2.24    1.83
  -5  -1  -9    3.92    0.45
   5   1   9    6.56    3.66
  -6  -1  -9   11.31    0.78
  -6  -1  -9    9.10    1.42
  -6  -1  -9   11.99    0.97
  -5   2   9    4.66    0.52
  -5   2   9    3.24    0.66
  -5   2   9    3.20    1.52
   4  -2  -9    5.75    0.61
   4  -2  -9    5.55    1.81
  -4   2   9    5.88    0.87
  -4   2   9    5.69    1.89
  -4   2   9    5.32    0.52
   3  -2  -9   13.19    1.07
  -3   2   9   14.63    1.31
  -3   2   9   17.28    2.44
  -3   2   9   13.85    1.53
  -3   2   9   16.46    1.05
  -3   2   9   14.67    1.50
   2  -2  -9   15.54    1.02
   2  -2  -9   17.55    1.85
  -2   2   9   13.73    1.99
  -2   2   9   12.56    1.34
  -2   2   9   16.43    2.39
  -2   2   9   13.75    1.02
  -2   2   9   10.29    5.45
  -2   2   9   11.34    1.23
   1  -2  -9    8.59    0.75
  -1   2   9    6.69    0.71
  -1   2   9    5.16    3.76
  -1   2   9   10.21    1.79
  -1   2   9   10.54    1.89
   0   2   9   88.49    5.27
   0   2   9   95.13    5.94
   0   2   9  102.00   10.86
   0   2   9   85.18    5.85
   1   2   9   57.41    4.29
   1   2   9   74.77    8.77
   1   2   9   62.11    4.24
   1   2   9   56.75    3.62
  -2  -2  -9    5.45    2.64
  -2  -2  -9    5.89    1.64
   2   2   9   10.02    4.02
   2   2   9    6.09    1.55
   2   2   9    5.30    1.34
   2   2   9    4.50    0.85
   2   2   9    7.95    3.28
   2   2   9   11.09    3.73
  -3  -2  -9   11.22    1.93
  -3  -2  -9    9.66    1.64
  -3  -2  -9   11.98    2.79
   3   2   9    5.62    0.97
   3   2   9    3.80    2.78
   3   2   9    2.47    3.43
   3   2   9    4.78    1.40
  -4  -2  -9   12.49    2.02
  -4  -2  -9    6.66    2.50
   4   2   9   11.87    3.88
   4   2   9    6.84    1.38
  -5  -2  -9    6.85    2.31
  -5  -2  -9    8.59    1.77
   5   2   9    6.78    2.88
  -6  -2  -9    3.74    0.68
  -6  -2  -9    5.04    1.23
  -5   3   9   28.85    1.58
  -5   3   9   24.56    3.56
  -5   3   9   27.64    1.76
  -5   3   9   27.39    2.88
   4  -3  -9   15.33    1.06
  -4   3   9   16.59    1.04
  -4   3   9   16.13    1.37
  -4   3   9   14.72    2.16
   3  -3  -9   32.30    1.95
  -3   3   9   33.41    2.18
  -3   3   9   27.25    3.72
  -3   3   9   32.21    1.89
  -3   3   9   34.44    3.46
   2  -3  -9   17.64    1.34
   2  -3  -9   19.05    2.16
  -2   3   9   20.96    3.33
  -2   3   9   22.77    1.48
  -2   3   9   19.92    1.64
  -2   3   9   23.04    2.65
  -2   3   9   22.74    1.33
  -2   3   9   26.21    6.41
   1  -3  -9   66.65    4.02
  -1   3   9   72.74    4.20
  -1   3   9   78.94    5.20
  -1   3   9   71.09    5.94
  -1   3   9   93.09   10.28
  -1   3   9   71.35    3.98
  -1   3   9   66.27    4.79
  -1   3   9   70.41    4.28
   0  -3  -9   34.21    6.55
   0   3   9   36.91    7.06
   0   3   9   37.50    5.91
   0   3   9   37.14    3.26
   0   3   9   34.29    3.10
   0   3   9   35.54    2.43
  -1  -3  -9    0.49    3.72
   1   3   9    5.35    0.89
   1   3   9    6.89    1.37
   1   3   9    7.74    3.23
   1   3   9    6.63    3.35
   1   3   9    6.95    1.64
   2   3   9   14.99    3.94
   2   3   9   18.95    2.29
   2   3   9   14.43    4.58
   2   3   9   22.23    1.68
   2   3   9   22.78    2.21
  -3  -3  -9   22.66    3.47
   3   3   9   22.25    1.77
   3   3   9   22.64    2.20
   3   3   9   21.12    2.60
   3   3   9   25.79    4.94
   3   3   9   19.63    4.48
   3   3   9   19.74    5.21
  -4  -3  -9    4.24    2.68
  -4  -3  -9    3.28    2.29
   4   3   9    5.09    2.79
  -5  -3  -9   14.34    2.94
   5   3   9   13.48    3.40
  -6  -3  -9    1.42    1.77
  -7  -3  -9   18.81    1.26
   4  -4  -9   49.84    2.72
  -4   4   9   47.39    2.81
  -4   4   9   46.09    3.76
  -4   4   9   46.47    5.62
   3  -4  -9    3.10    0.50
  -3   4   9    3.06    0.71
  -3   4   9    2.94    1.87
  -3   4   9    2.85    1.58
   2  -4  -9   21.39    1.51
  -2   4   9   25.29    1.70
  -2   4   9   25.76    3.28
  -1   4   9    0.28    2.53
  -1   4   9    2.23    3.18
  -1   4   9    3.09    3.74
  -1   4   9    1.60    1.57
  -1   4   9    1.72    0.43
  -1   4   9    0.66    0.76
  -1   4   9    0.00    1.85
  -1   4   9    1.43    0.69
   0  -4  -9   17.32    2.28
   0   4   9   19.18    1.67
   0   4   9   32.61    6.09
   0   4   9   21.87    2.54
   0   4   9   20.39    1.60
   0   4   9   16.76    3.17
   0   4   9   18.16    2.26
   0   4   9   26.00    5.99
  -1  -4  -9   54.77    8.49
   1   4   9   73.74    8.62
   1   4   9   67.47    4.65
   1   4   9   68.63    4.02
   1   4   9   68.95    4.06
   1   4   9   71.62    7.97
   1   4   9   71.40    4.40
  -2  -4  -9   89.29   10.47
   2   4   9  109.10    6.18
   2   4   9  112.82    6.93
   2   4   9  118.06    9.90
   2   4   9  114.23   10.89
   2   4   9  111.32    6.34
  -3  -4  -9   13.99    2.84
   3   4   9   10.47    1.92
   3   4   9   13.66    3.80
   3   4   9   14.24    1.34
   3   4   9    9.73    3.69
  -4  -4  -9   43.25    4.80
   4   4   9   51.21    5.75
  -5  -4  -9   19.80    3.17
  -5  -4  -9   16.66    2.79
   5   4   9   20.53    3.78
  -6  -4  -9   -0.62    1.87
  -6  -4  -9    0.99    1.94
   6   4   9    0.87    0.21
   4  -5  -9   27.96    1.59
  -4   5   9   26.60    3.97
  -4   5   9   27.85    1.62
   3  -5  -9   82.33    4.32
  -3   5   9   74.75    6.72
  -3   5   9   72.77    4.35
   2  -5  -9    8.37    0.82
  -2   5   9    7.65    0.84
  -2   5   9    6.14    3.49
  -2   5   9    8.88    1.78
  -2   5   9   10.28    2.12
   1  -5  -9   59.28    3.46
  -1   5   9   58.77    4.32
  -1   5   9   59.10    4.97
  -1   5   9   74.82    8.57
  -1   5   9   62.42    3.57
   0   5   9   48.79    3.46
   0   5   9   47.56    4.37
   0   5   9   48.02    2.98
   0   5   9   55.60    7.21
   0   5   9   46.92    3.07
   0   5   9   60.94    8.24
   1   5   9    6.08    3.53
   1   5   9    5.37    1.41
   1   5   9    4.27    3.06
   1   5   9    6.73    0.90
   1   5   9    6.91    0.90
   1   5   9    7.03    1.09
   1   5   9    5.85    0.74
   2   5   9   53.72    3.97
   2   5   9   51.58    3.20
   2   5   9   53.05    3.23
   2   5   9   52.16    3.20
   2   5   9   58.45    7.14
  -3  -5  -9   40.75    4.11
   3   5   9   33.45    2.37
   3   5   9   34.85    2.27
   3   5   9   39.11    5.38
  -4  -5  -9    2.67    2.29
   4   5   9    7.47    2.76
   4   5   9    4.79    0.39
  -5  -5  -9    9.34    2.55
   5   5   9    9.72    0.66
   5   5   9   16.16    2.84
  -6  -5  -9    4.54    1.96
  -6  -5  -9    4.05    2.07
   3  -6  -9    7.86    0.68
  -3   6   9    5.81    2.58
   2  -6  -9    0.00    0.38
  -2   6   9    0.17    2.86
  -2   6   9   -0.46    0.41
  -2   6   9    1.69    1.88
   1  -6  -9    2.18    0.46
  -1   6   9    4.62    3.37
  -1   6   9    1.55    0.57
  -1   6   9    1.12    0.91
  -1   6   9    2.42    2.07
   0   6   9   86.68    6.07
   0   6   9   96.17    9.26
   0   6   9   74.16    4.84
   0   6   9   81.56    4.67
   1   6   9   30.78    2.10
   1   6   9   31.47    3.89
   1   6   9   32.66    5.67
   2   6   9   41.38    2.52
   2   6   9   36.88    2.41
   2   6   9   46.31    5.59
   3   6   9   31.91    4.37
   3   6   9   25.84    1.81
   3   6   9   24.68    1.47
  -4  -6  -9   16.44    2.79
   4   6   9   13.67    1.35
   4   6   9   13.76    0.80
   4   6   9   13.80    0.82
   4   6   9   12.73    2.84
  -5  -6  -9   13.50    2.51
  -6  -6  -9   17.14    3.04
   2  -7  -9   18.64    1.14
  -2   7   9   17.53    2.06
  -1   7   9    1.02    1.84
  -1   7   9    0.11    0.39
   0   7   9   17.47    1.27
   0   7   9   16.26    2.56
   0   7   9   14.96    3.71
   1   7   9   13.42    3.54
   1   7   9   17.96    1.36
   1   7   9   16.48    2.68
   2   7   9    3.40    0.69
   2   7   9    3.26    2.18
   2   7   9    3.90    2.14
   2   7   9    3.22    0.29
   3   7   9    8.72    0.82
   3   7   9    7.52    0.47
   3   7   9    7.00    0.89
   3   7   9    8.01    0.47
   3   7   9    7.89    2.08
  -4  -7  -9   16.61    2.66
   4   7   9   19.69    2.33
   4   7   9   22.76    1.49
  -5  -7  -9    3.00    1.85
   5   7   9    2.58    0.59
  -6  -7  -9    1.78    1.54
   6   7   9    2.49    0.51
  -1   8   9   10.72    1.69
   0   8   9    4.94    0.40
   0   8   9    5.36    1.89
   0   8   9    6.14    0.62
   1   8   9   12.81    0.73
   1   8   9   12.42    0.73
   1   8   9    8.33    1.99
   1   8   9   12.24    1.04
   2   8   9    7.63    1.95
   2   8   9    7.94    0.81
   3   8   9    4.69    0.67
   3   8   9    5.82    1.73
  -5  -8  -9    2.63    1.45
   2   9   9   12.98    0.93
   2   9   9   11.83    1.62
   3   9   9    5.39    0.57
   4   4 -10    3.67    0.94
  -4  -4  10    3.81    1.22
   3   4 -10   11.79    1.62
  -3  -4  10   10.18    1.63
  -3  -4  10   10.63    1.87
   2   4 -10   26.45    1.80
   2   4 -10   29.61    2.34
  -2  -4  10   25.18    2.89
  -2  -4  10   24.82    2.90
  -2  -4  10   24.84    1.52
   1   4 -10    6.75    1.17
   1   4 -10    7.44    0.82
  -1  -4  10    8.25    0.63
  -1  -4  10    8.16    1.85
   0   4 -10    2.73    0.54
   0  -4  10    2.54    1.62
   0  -4  10    2.32    0.34
   1  -4  10    7.76    0.57
   1  -4  10    5.55    1.50
   4   3 -10   14.76    1.74
  -4  -3  10   10.51    1.94
  -4  -3  10   13.20    0.85
   3   3 -10    6.37    1.37
  -3  -3  10    5.83    0.56
  -3  -3  10    5.16    1.91
   2   3 -10    0.44    1.31
  -2  -3  10    0.11    1.78
  -2  -3  10    0.46    0.34
   1   3 -10   37.81    3.20
  -1  -3  10   40.23    2.25
  -1  -3  10   36.77    3.85
   0   3 -10    2.89    0.75
   0  -3  10    2.31    0.42
   0  -3  10    4.68    2.15
  -1   3 -10    7.28    0.89
   1  -3  10   10.65    0.79
   1  -3  10   10.92    2.34
  -2   3 -10   42.60    2.30
  -2   3 -10   31.82    3.76
   2  -3  10   40.49    2.23
   2  -3  10   36.78    3.56
  -5  -2  10   -0.04    0.22
  -5  -2  10   -0.42    0.70
  -5  -2  10   -0.06    1.21
   4   2 -10   15.52    1.97
  -4  -2  10   15.96    2.69
  -4  -2  10   18.08    1.10
   3   2 -10   16.97    4.45
   3   2 -10   18.95    2.42
  -3  -2  10   16.91    1.12
  -3  -2  10   16.20    2.48
   2   2 -10   20.38    5.30
   2   2 -10   17.78    2.47
  -2  -2  10   15.70    2.67
  -2  -2  10   17.55    1.17
   1   2 -10   38.45    3.29
  -1  -2  10   38.76    2.26
  -1  -2  10   39.52    4.06
   0   2 -10   17.02    2.38
   0  -2  10   20.60    3.04
   0  -2  10   17.36    1.22
  -1   2 -10    0.67    0.78
   1  -2  10    0.19    2.01
   1  -2  10    0.49    0.39
  -2   2 -10   -0.69    2.44
  -2   2 -10    0.58    0.28
  -2   2 -10    0.13    0.65
   2  -2  10    0.33    1.88
   2  -2  10    0.49    0.33
  -3   2 -10    6.63    0.53
  -3   2 -10    9.59    0.87
  -3   2 -10    8.13    2.60
   3  -2  10    3.97    1.85
   3  -2  10    5.71    0.53
  -5  -1  10    0.10    1.09
  -5  -1  10    0.72    0.71
  -5  -1  10    0.75    0.26
  -4  -1  10    5.75    1.59
  -4  -1  10    8.63    0.72
  -4  -1  10    7.40    1.89
  -4  -1  10    8.88    1.33
   3   1 -10   30.54    2.71
  -3  -1  10   25.01    3.11
  -3  -1  10   24.77    3.28
  -3  -1  10   26.35    1.63
   2   1 -10   13.70    1.87
  -2  -1  10   11.24    0.92
  -2  -1  10   11.95    2.41
   1   1 -10    2.81    1.53
  -1  -1  10    3.88    0.49
  -1  -1  10    2.66    2.16
   0   1 -10   11.22    0.81
   0   1 -10   13.68    1.95
   0  -1  10   10.37    2.44
   0  -1  10    8.18    0.86
  -1   1 -10   26.42    1.58
  -1   1 -10   23.86    4.02
  -1   1 -10   24.89    2.67
   1  -1  10   27.61    3.60
   1  -1  10   25.95    1.60
  -2   1 -10   15.41    1.03
  -2   1 -10   13.64    3.04
   2  -1  10   12.29    2.47
   2  -1  10   11.15    2.01
   2  -1  10   15.57    1.02
  -3   1 -10   53.29    3.00
  -3   1 -10   52.01    3.24
   3  -1  10   54.15    4.27
  -4   1 -10    2.88    2.30
  -4   1 -10    3.60    0.38
  -4   1 -10    3.98    0.58
   4  -1  10    3.96    1.51
  -5   0  10    9.93    1.67
  -5   0  10   14.86    1.03
  -5   0  10   16.24    0.95
  -4   0  10    5.32    0.63
  -4   0  10    3.90    1.04
  -4   0  10    4.80    1.73
  -3   0  10   10.19    2.07
  -3   0  10    8.78    0.80
  -3   0  10    9.19    1.09
   2   0 -10   32.93    3.09
   2   0 -10   32.64    1.93
  -2   0  10   33.62    1.96
   1   0 -10   14.09    1.96
   1   0 -10   13.14    0.95
   1   0 -10   16.94    6.01
  -1   0  10   11.95    0.93
   0   0 -10   13.87    1.90
   0   0 -10   13.05    0.98
   0   0 -10   14.37    2.72
   0   0  10   13.96    2.17
   0   0  10   12.78    0.93
  -1   0 -10   22.87    1.59
  -1   0 -10   23.07    2.71
  -1   0 -10   24.73    3.58
   1   0  10   27.96    1.57
   1   0  10   30.23    3.17
   1   0  10   28.88    3.55
  -2   0 -10    9.79    0.78
  -2   0 -10   10.99    2.69
   2   0  10    5.66    1.64
   2   0  10    7.94    0.72
   2   0  10    8.43    2.16
  -3   0 -10   59.20    5.16
  -3   0 -10   62.06    3.27
   3   0  10   49.31    4.31
  -4   0 -10   42.04    4.47
  -4   0 -10   49.60    3.05
  -4   0 -10   52.05    2.80
  -5   0 -10   10.63    0.74
  -5   0 -10   11.01    0.91
  -5   0 -10    6.60    2.10
  -5   1  10   20.63    1.20
  -5   1  10   18.35    2.51
  -4   1  10    0.21    1.64
  -4   1  10   -0.57    0.66
  -4   1  10    0.25    0.33
   3  -1 -10   13.14    0.94
  -3   1  10   11.72    2.19
  -3   1  10   14.24    1.00
  -3   1  10   12.84    1.39
   2  -1 -10   22.04    1.41
   2  -1 -10   24.84    2.53
  -2   1  10   22.53    1.42
  -2   1  10   21.71    1.82
   1  -1 -10    8.65    1.72
   1  -1 -10    8.36    0.84
  -1   1  10   11.25    1.99
  -1   1  10    8.71    1.75
  -1   1  10   11.44    0.79
   0  -1 -10    0.38    0.38
   0  -1 -10    0.10    1.38
   0   1  10    0.23    1.56
   0   1  10   -0.65    1.35
   0   1  10   -0.04    2.66
   0   1  10    0.54    0.33
  -1  -1 -10   69.51    5.20
  -1  -1 -10   67.06    4.28
  -1  -1 -10   60.99    3.43
   1   1  10   57.27    4.51
   1   1  10   60.57    4.56
   1   1  10   60.52    9.21
   1   1  10   54.41    3.39
  -2  -1 -10   41.73    4.29
  -2  -1 -10   37.78    3.05
  -2  -1 -10   36.54    2.17
   2   1  10   35.81    2.82
   2   1  10   29.20    6.96
   2   1  10   38.48    3.45
  -3  -1 -10    6.16    2.43
  -3  -1 -10    8.34    0.77
   3   1  10    7.99    1.67
  -4  -1 -10    0.32    1.97
  -4  -1 -10    2.95    0.44
   4   1  10    1.53    1.21
  -5  -1 -10    1.51    0.35
  -5  -1 -10    0.47    1.65
  -5  -1 -10    1.84    0.60
  -5   2  10    4.28    0.59
  -5   2  10    3.53    1.26
  -5   2  10    4.21    0.41
  -4   2  10   20.23    1.71
  -4   2  10   25.00    2.83
  -4   2  10   25.07    1.43
   3  -2 -10    7.52    0.76
  -3   2  10    7.04    0.97
  -3   2  10    7.17    0.97
  -3   2  10    7.87    2.04
  -3   2  10    7.98    0.74
   2  -2 -10   15.92    1.16
  -2   2  10   15.59    1.46
  -2   2  10   18.03    2.38
  -2   2  10   19.85    2.96
  -2   2  10   17.04    1.12
   1  -2 -10   20.20    1.94
   1  -2 -10   18.46    2.35
   1  -2 -10   19.37    1.30
  -1   2  10   18.78    1.71
  -1   2  10   19.84    2.48
  -1   2  10   24.11    3.15
  -1   2  10   22.94    6.19
  -1   2  10   19.76    1.25
   0  -2 -10   96.22    5.45
   0  -2 -10   98.29    6.15
   0   2  10  104.46    6.33
   0   2  10   99.63    6.43
   0   2  10   99.36   11.10
   0   2  10   94.20    5.41
  -1  -2 -10    2.66    0.45
  -1  -2 -10    3.49    2.16
  -1  -2 -10    2.45    1.47
   1   2  10    1.85    2.81
   1   2  10    2.42    1.46
   1   2  10    2.91    1.60
   1   2  10    1.56    0.77
  -2  -2 -10   12.56    0.97
  -2  -2 -10   14.17    2.71
  -2  -2 -10   18.14    2.08
   2   2  10    8.83    3.66
   2   2  10   15.99    2.32
   2   2  10   12.09    2.07
   2   2  10   11.08    4.65
  -3  -2 -10   10.05    0.83
  -3  -2 -10    9.77    1.64
  -3  -2 -10   14.57    2.91
   3   2  10   10.71    3.60
   3   2  10    9.40    3.77
   3   2  10    9.07    1.61
  -4  -2 -10    1.96    2.30
  -4  -2 -10    1.11    0.36
   4   2  10    2.16    2.57
   4   2  10    1.23    1.07
  -5  -2 -10    5.53    1.98
  -5  -2 -10    9.32    0.73
  -6  -2 -10    9.39    0.90
   4  -3 -10    1.60    0.31
  -4   3  10    1.96    1.50
  -4   3  10    1.01    0.27
  -4   3  10    0.97    0.57
   3  -3 -10   58.61    3.05
  -3   3  10   53.70    4.38
  -3   3  10   47.19    4.28
  -3   3  10   53.58    3.00
  -3   3  10   51.14    3.24
   2  -3 -10    7.13    0.86
  -2   3  10   10.19    1.96
  -2   3  10   10.82    1.00
  -2   3  10    9.90    1.99
  -2   3  10   10.29    0.77
  -2   3  10    9.25    1.00
   1  -3 -10   16.11    1.17
  -1   3  10   17.73    1.43
  -1   3  10   18.47    5.57
  -1   3  10   19.00    1.55
  -1   3  10   21.10    2.96
  -1   3  10   15.18    1.11
   0  -3 -10    3.72    1.46
   0   3  10    2.65    0.79
   0   3  10    2.70    1.47
   0   3  10    2.07    3.38
   0   3  10    3.08    0.82
   0   3  10    3.24    1.50
  -1  -3 -10   14.05    1.91
  -1  -3 -10   12.59    0.95
   1   3  10   14.46    2.22
   1   3  10   10.76    1.41
   1   3  10   14.29    4.29
   1   3  10   11.79    1.42
   1   3  10   15.88    2.24
   1   3  10   12.83    4.50
  -2  -3 -10   76.23    5.92
  -2  -3 -10   67.84    4.76
   2   3  10   65.81    4.97
   2   3  10   86.03    9.86
   2   3  10   66.47    4.26
   2   3  10   84.69    8.44
   2   3  10   74.10    4.64
  -3  -3 -10   17.01    3.19
  -3  -3 -10   18.64    2.51
   3   3  10   20.47    2.16
   3   3  10   28.58    5.05
  -4  -3 -10    3.12    2.60
   4   3  10    2.88    2.69
  -5  -3 -10    0.01    2.03
   5   3  10   -0.12    2.19
   5   3  10    1.12    2.11
  -6  -3 -10    6.58    1.53
   4  -4 -10   24.19    1.48
  -4   4  10   26.36    1.60
  -4   4  10   29.80    4.00
  -4   4  10   26.65    2.44
   3  -4 -10    4.00    0.48
  -3   4  10    4.31    1.54
  -3   4  10    5.58    0.72
   2  -4 -10   25.94    1.54
  -2   4  10   21.45    1.73
  -2   4  10   22.66    3.07
   1  -4 -10   19.07    1.34
  -1   4  10   20.44    1.62
  -1   4  10   22.86    2.78
  -1   4  10   20.61    1.34
   0  -4 -10   33.08    2.18
   0  -4 -10   36.22    3.12
   0   4  10   39.78    6.33
   0   4  10   37.19    2.42
   0   4  10   40.08    3.89
   0   4  10   38.79    2.55
   0   4  10   38.27    3.19
   0   4  10   39.29    2.36
   0   4  10   41.94    7.21
  -1  -4 -10   16.87    2.39
   1   4  10   16.69    1.48
   1   4  10   14.65    2.14
   1   4  10   14.62    1.52
   1   4  10   24.48    5.71
   1   4  10   16.22    2.20
   1   4  10   25.07    5.45
   2   4  10   21.93    5.29
   2   4  10   20.49    1.75
   2   4  10   22.21    2.05
   2   4  10   29.17    5.51
   2   4  10   21.94    1.78
  -3  -4 -10   30.59    4.21
   3   4  10   27.77    5.00
  -4  -4 -10    2.52    2.42
  -4  -4 -10    2.18    1.39
   4   4  10    2.02    2.40
  -5  -4 -10    1.19    2.31
   5   4  10    3.85    2.12
  -6  -4 -10    3.33    1.72
   6   4  10    7.45    0.46
   3  -5 -10   11.06    0.81
  -3   5  10   12.32    2.84
  -3   5  10   10.38    0.95
   2  -5 -10   17.40    1.16
  -2   5  10   15.80    1.29
   1  -5 -10   43.04    2.37
  -1   5  10   37.24    3.10
  -1   5  10   39.88    2.51
  -1   5  10   38.69    4.09
   0   5  10    6.05    0.87
   0   5  10    5.76    1.19
   0   5  10    3.93    3.51
   0   5  10    8.23    2.22
  -1  -5 -10    6.15    1.55
   1   5  10    9.42    1.03
   1   5  10    9.35    1.65
   1   5  10    8.65    4.00
   1   5  10   10.23    1.03
   2   5  10   10.56    3.76
   2   5  10    7.30    0.89
  -3  -5 -10    0.48    2.16
   3   5  10   -0.63    2.23
   3   5  10    0.66    0.68
  -4  -5 -10   26.67    4.07
   4   5  10   37.64    4.71
   4   5  10   27.96    2.10
  -5  -5 -10    1.22    2.16
  -5  -5 -10    1.59    1.11
   5   5  10    0.80    0.23
   5   5  10    0.47    0.20
  -6  -5 -10    6.02    1.88
   2  -6 -10    3.15    0.42
  -2   6  10    3.16    1.64
  -2   6  10    3.82    0.53
   1  -6 -10   26.64    1.72
  -1   6  10   26.95    8.48
  -1   6  10   29.80    1.82
  -1   6  10   29.42    3.51
   0   6  10    1.39    0.63
   0   6  10    4.09    3.30
   0   6  10    2.17    2.11
   1   6  10    5.68    2.27
   1   6  10    7.48    3.39
   1   6  10    6.32    0.86
   2   6  10   75.54    5.63
   2   6  10   85.06    7.67
   2   6  10   74.12    4.26
   2   6  10   72.27    4.38
   3   6  10   14.53    3.29
   3   6  10   12.87    0.80
   3   6  10   11.44    1.24
  -4  -6 -10    1.64    2.08
   4   6  10    2.01    0.20
   4   6  10    4.59    1.85
   4   6  10    2.32    0.65
   4   6  10    2.03    0.22
  -5  -6 -10   40.05    4.12
   5   6  10   40.12    2.50
  -6  -6 -10   -0.08    1.51
   6   6  10    1.08    0.48
   1  -7 -10   16.28    1.11
  -1   7  10   19.38    1.17
  -1   7  10   19.76    2.26
   0   7  10   14.76    1.13
   0   7  10   13.33    2.19
   1   7  10   11.79    2.35
   1   7  10   13.63    1.19
   2   7  10    9.66    0.95
   2   7  10   11.30    2.77
   2   7  10    9.17    0.61
   2   7  10    8.89    2.21
   3   7  10   11.16    2.10
   3   7  10   13.53    0.76
   3   7  10   14.24    0.77
   3   7  10   12.94    0.88
   3   7  10   13.15    1.25
  -4  -7 -10    0.23    1.74
   4   7  10    0.95    1.47
   4   7  10    0.39    0.44
  -5  -7 -10   -0.19    1.61
   5   7  10    0.75    0.46
   6   7  10    6.78    0.66
   0   8  10   30.24    1.71
   0   8  10   30.67    1.77
   0   8  10   29.37    2.90
   0   8  10   30.79    1.68
   1   8  10    3.37    1.55
   1   8  10    4.84    0.34
   1   8  10    5.26    0.34
   1   8  10    5.06    0.59
   2   8  10    0.25    0.47
   2   8  10    0.13    1.58
   3   8  10    2.23    0.54
   3   8  10    2.48    1.49
   3   3 -11   15.38    1.65
  -3  -3  11   14.10    0.89
  -3  -3  11   14.08    2.21
   2   3 -11   10.31    1.38
  -2  -3  11   12.91    1.79
  -2  -3  11    9.60    1.86
  -2  -3  11   11.19    0.75
   1   3 -11    1.55    0.62
   1   3 -11    0.97    0.99
  -1  -3  11    0.08    1.53
  -1  -3  11    0.85    0.29
   0   3 -11   19.96    1.51
   0  -3  11   18.04    2.54
   0  -3  11   21.06    1.23
  -1   3 -11   20.85    1.45
   1  -3  11   17.73    2.49
   1  -3  11   24.55    1.30
  -4  -2  11   14.48    1.55
  -4  -2  11   15.99    0.93
  -4  -2  11   12.21    1.94
   3   2 -11    5.91    1.31
  -3  -2  11    6.06    1.71
  -3  -2  11    6.41    0.58
   2   2 -11    1.15    1.28
  -2  -2  11    0.94    1.67
  -2  -2  11    0.91    0.32
   1   2 -11    3.85    1.36
  -1  -2  11    2.37    1.76
  -1  -2  11    4.28    0.46
   0   2 -11    8.77    1.49
   0  -2  11   12.26    2.35
   0  -2  11   12.18    0.86
  -1   2 -11   13.45    1.33
   1  -2  11    9.38    2.17
   1  -2  11   15.22    0.95
  -2   2 -11    6.38    0.71
  -2   2 -11    4.70    2.05
   2  -2  11    5.58    0.49
   2  -2  11    5.03    1.74
  -4  -1  11    2.82    0.34
  -4  -1  11    2.13    1.16
  -4  -1  11    2.64    0.89
   3   1 -11   25.70    2.58
  -3  -1  11   28.95    1.66
  -3  -1  11   29.17    2.06
  -3  -1  11   29.11    2.93
  -3  -1  11   25.08    3.01
   2   1 -11    3.41    1.42
  -2  -1  11    3.76    0.44
  -2  -1  11    4.57    1.86
   1   1 -11   20.64    2.69
  -1  -1  11   22.69    1.39
  -1  -1  11   21.01    3.07
   0   1 -11   18.71    2.56
   0   1 -11   18.48    1.14
   0  -1  11   17.52    2.67
   0  -1  11   17.71    1.18
  -1   1 -11    6.46    1.51
  -1   1 -11    5.90    0.60
   1  -1  11    5.49    2.07
   1  -1  11    5.80    0.64
  -2   1 -11   13.31    0.96
  -2   1 -11   13.86    1.42
   2  -1  11   15.58    0.93
   2  -1  11   13.52    2.29
  -3   1 -11   10.90    2.63
  -3   1 -11   17.63    1.35
  -3   1 -11   16.61    1.01
   3  -1  11   15.51    2.54
  -4   0  11    1.09    1.26
  -4   0  11    0.84    0.71
  -4   0  11    0.90    0.29
  -3   0  11   23.44    1.39
  -3   0  11   21.39    2.85
  -3   0  11   20.87    1.74
   2   0 -11   22.02    2.66
  -2   0  11   22.07    1.39
   1   0 -11    5.94    0.65
   1   0 -11    9.03    1.82
  -1   0  11    4.60    0.51
   0   0 -11   33.54    3.30
   0   0 -11   33.97    2.09
   0   0  11   38.42    2.09
  -1   0 -11    3.61    2.54
  -1   0 -11    4.31    1.53
  -1   0 -11    1.97    0.41
   1   0  11    3.00    1.53
   1   0  11    1.84    0.37
  -2   0 -11    2.16    2.37
  -2   0 -11    3.93    0.48
   2   0  11    4.78    0.55
   2   0  11    3.05    1.89
   2   0  11    4.50    1.56
  -3   0 -11    8.40    2.41
  -3   0 -11    9.64    0.78
   3   0  11    7.57    1.93
  -4   0 -11   66.09    3.61
  -4   0 -11   64.75    3.44
   4   0  11   52.72    4.17
  -4   1  11    6.77    1.54
  -4   1  11    8.61    0.64
  -3   1  11   32.83    2.41
  -3   1  11   32.37    3.37
  -3   1  11   33.47    1.91
  -3   1  11   31.43    2.17
   2  -1 -11    8.10    1.56
  -2   1  11    5.18    0.52
  -2   1  11    3.48    0.81
   1  -1 -11   15.58    1.10
   1  -1 -11   17.91    2.45
  -1   1  11   15.79    1.65
  -1   1  11   16.38    1.06
  -1   1  11   12.32    1.98
   0  -1 -11   42.20    3.53
   0  -1 -11   41.58    2.38
   0   1  11   40.44    2.34
   0   1  11   39.23    3.70
  -1  -1 -11   88.73    5.01
  -1  -1 -11   94.14    6.65
  -1  -1 -11   93.45    5.79
   1   1  11   89.89    4.97
   1   1  11   85.87    5.91
  -2  -1 -11    9.17    1.65
  -2  -1 -11   10.99    2.73
  -2  -1 -11    9.55    0.85
   2   1  11    9.50    1.69
  -3  -1 -11    9.79    2.64
  -3  -1 -11   11.18    0.88
   3   1  11   10.62    1.83
  -4  -1 -11   11.30    2.38
  -4  -1 -11   15.24    0.98
  -5  -1 -11   13.81    1.11
  -5  -1 -11   13.59    0.87
  -4   2  11    3.37    0.64
  -4   2  11    3.11    1.31
  -4   2  11    4.68    0.44
   3  -2 -11    2.30    0.36
  -3   2  11    1.88    1.63
  -3   2  11    1.88    0.56
  -3   2  11    1.99    0.34
   2  -2 -11    8.81    0.75
  -2   2  11    6.60    0.66
  -2   2  11    6.32    0.84
  -2   2  11    7.30    1.97
  -2   2  11    3.17    1.50
   1  -2 -11   37.59    2.17
   1  -2 -11   33.65    3.22
  -1   2  11   32.65    3.60
  -1   2  11   38.31    2.11
  -1   2  11   36.62    2.47
   0  -2 -11    1.25    0.41
   0  -2 -11    0.44    1.35
   0   2  11    1.78    0.32
   0   2  11    1.53    1.52
   0   2  11    1.80    0.80
  -1  -2 -11   10.67    1.76
  -1  -2 -11   10.73    0.85
  -1  -2 -11   13.01    2.55
   1   2  11    6.91    1.70
  -2  -2 -11   44.11    2.47
  -2  -2 -11   43.84    4.36
  -2  -2 -11   43.41    3.37
   2   2  11   39.12    3.42
  -3  -2 -11    3.82    2.37
  -3  -2 -11    4.06    1.31
  -3  -2 -11    3.57    0.45
   3   2  11    6.18    3.18
   3   2  11    5.03    1.31
  -4  -2 -11    3.85    0.45
  -4  -2 -11    2.35    1.97
  -5  -2 -11    0.27    1.53
  -5  -2 -11    0.37    0.59
  -5  -2 -11    0.55    0.29
  -4   3  11    7.82    1.40
  -4   3  11    9.41    0.89
   3  -3 -11    2.57    0.38
  -3   3  11    2.26    1.49
  -3   3  11    1.97    0.64
  -3   3  11    2.69    0.42
   2  -3 -11    1.32    0.43
  -2   3  11    0.78    1.41
  -2   3  11    1.11    0.70
  -2   3  11    1.76    0.62
  -2   3  11    2.03    1.66
   1  -3 -11   21.31    1.42
  -1   3  11   22.43    1.62
  -1   3  11   20.46    2.82
   0  -3 -11    0.85    0.41
   0  -3 -11    0.61    1.24
   0   3  11    2.62    0.75
   0   3  11    2.36    1.44
  -1  -3 -11    4.55    0.52
  -1  -3 -11    4.94    1.61
   1   3  11    5.66    1.43
   1   3  11    4.45    3.10
   1   3  11    5.00    0.90
  -2  -3 -11   11.32    1.81
  -2  -3 -11    9.02    2.47
  -2  -3 -11   12.85    0.88
   2   3  11    7.51    1.40
   2   3  11   11.07    4.01
  -3  -3 -11   14.78    2.87
  -3  -3 -11   16.90    2.39
  -3  -3 -11   14.67    1.02
   3   3  11   13.18    1.83
   3   3  11   19.37    4.48
  -4  -3 -11    0.78    2.04
   4   3  11    0.45    2.10
  -5  -3 -11    9.17    1.97
   3  -4 -11   27.63    1.58
  -3   4  11   26.95    1.74
  -3   4  11   26.12    2.60
  -3   4  11   21.97    3.22
   2  -4 -11   15.19    1.04
  -2   4  11   11.83    1.97
  -2   4  11   11.31    1.27
   1  -4 -11    6.41    0.59
  -1   4  11    4.16    1.42
  -1   4  11    5.17    0.83
   0  -4 -11   34.40    3.01
   0  -4 -11   36.64    2.13
   0   4  11   35.72    2.35
   0   4  11   36.67    6.36
   0   4  11   35.02    3.03
   0   4  11   35.77    2.29
   0   4  11   37.15    3.87
  -1  -4 -11    2.32    1.49
  -1  -4 -11    2.24    0.43
   1   4  11    2.22    1.12
   1   4  11    2.74    2.96
   1   4  11    2.13    0.71
  -2  -4 -11    4.50    1.56
   2   4  11    5.50    1.04
   2   4  11    8.21    3.79
   2   4  11    8.56    0.98
  -3  -4 -11   15.69    2.84
  -3  -4 -11   17.75    2.46
   3   4  11   15.47    3.92
  -4  -4 -11    5.17    2.32
  -4  -4 -11    5.41    1.40
   4   4  11    6.87    2.70
  -5  -4 -11    6.43    2.02
   3  -5 -11   16.34    1.00
  -3   5  11   16.37    1.09
   2  -5 -11    5.05    0.53
  -2   5  11    6.99    0.73
   1  -5 -11    8.76    0.79
  -1   5  11    7.78    0.86
   0   5  11   16.16    1.37
   0   5  11   14.79    1.80
   0   5  11   15.90    2.36
   0   5  11   17.50    4.55
  -1  -5 -11   19.54    2.50
   1   5  11   21.05    1.48
   1   5  11   20.73    1.63
   1   5  11   20.80    4.74
   1   5  11   22.26    2.65
  -2  -5 -11    7.86    1.64
   2   5  11    9.53    1.12
   2   5  11    9.64    3.49
  -3  -5 -11    9.01    1.67
  -3  -5 -11    8.41    2.47
   3   5  11    9.85    1.19
  -4  -5 -11   12.60    1.65
  -4  -5 -11   10.24    2.53
   4   5  11   11.25    1.28
   4   5  11   10.32    0.79
  -5  -5 -11    0.67    1.88
  -5  -5 -11    2.10    0.98
   5   5  11    1.61    0.19
   5   5  11    1.37    0.17
   2  -6 -11    8.58    0.65
  -2   6  11    8.32    0.74
   1  -6 -11   13.20    0.93
  -1   6  11   13.54    1.10
  -1   6  11    8.75    1.76
   0   6  11   12.61    2.22
   0   6  11   11.54    1.12
  -1  -6 -11    3.75    1.26
   1   6  11    1.27    1.92
   1   6  11    2.99    2.76
   1   6  11    2.15    0.67
  -2  -6 -11   50.29    3.51
   2   6  11   46.62    2.71
   2   6  11   51.46    5.71
   2   6  11   42.92    4.21
   2   6  11   45.66    2.89
  -3  -6 -11    8.56    1.62
   3   6  11    7.19    0.77
   3   6  11    7.64    0.55
  -4  -6 -11   36.78    3.99
  -4  -6 -11   40.42    3.14
   4   6  11   42.46    2.28
   4   6  11   41.05    2.28
   4   6  11   44.16    2.54
  -5  -6 -11    1.02    0.90
  -5  -6 -11    1.10    1.71
   5   6  11    0.88    0.49
  -1   7  11    2.90    0.40
   0   7  11    3.55    0.54
   0   7  11    3.61    1.50
   1   7  11   12.08    1.06
   1   7  11   11.04    2.10
  -2  -7 -11    0.07    1.02
   2   7  11    2.11    0.22
   2   7  11    1.41    1.75
   2   7  11    1.64    0.62
  -3  -7 -11    0.36    1.09
   3   7  11   -0.10    1.46
  -4  -7 -11    1.23    1.04
   4   7  11    1.00    0.31
   4   7  11    0.71    1.21
  -5  -7 -11   24.88    1.90
   5   7  11   22.56    1.39
   1   8  11    1.62    0.37
   1   8  11    0.82    1.15
   2   8  11    7.77    1.48
   2   8  11   10.05    0.85
  -3  -8 -11   11.34    1.46
   3   8  11    7.82    1.45
   3   8  11   10.75    0.92
   2   2 -12    8.35    1.28
  -2  -2  12   12.24    0.73
  -2  -2  12    9.74    1.58
   1   2 -12    2.37    1.05
  -1  -2  12    1.13    1.24
  -1  -2  12    1.29    0.27
   0   2 -12    2.33    0.95
   0   2 -12    3.08    0.64
   0  -2  12    3.27    1.35
  -1   2 -12    4.97    0.60
   1  -2  12    3.74    0.42
   1  -2  12    3.69    1.25
   3   1 -12    7.23    1.18
  -3  -1  12    7.08    1.29
  -3  -1  12   11.13    1.12
  -3  -1  12    9.08    1.10
  -3  -1  12    9.16    0.63
   2   1 -12   14.25    1.97
  -2  -1  12   13.52    1.80
  -2  -1  12   16.68    1.00
   1   1 -12   21.70    2.42
  -1  -1  12   25.23    1.40
  -1  -1  12   19.15    2.61
   0   1 -12    0.08    1.15
   0  -1  12   -1.21    1.34
   0  -1  12    0.12    0.29
  -1   1 -12    4.36    1.09
   1  -1  12    4.57    0.48
   1  -1  12    5.00    1.64
  -2   1 -12    8.79    1.02
   2  -1  12    5.74    1.48
  -3   0  12    8.58    1.07
  -3   0  12    8.96    0.67
  -3   0  12   10.07    1.11
  -3   0  12    7.98    1.48
   2   0 -12   11.82    1.62
  -2   0  12   14.60    0.94
  -2   0  12   14.03    1.91
   1   0 -12   11.52    1.84
  -1   0  12   15.65    0.98
   0   0 -12    1.96    0.35
   0   0 -12    2.42    1.41
   0   0  12    1.61    0.33
  -1   0 -12   10.00    1.59
  -1   0 -12    9.77    0.76
   1   0  12    9.69    0.69
  -2   0 -12    4.18    0.42
  -3   0 -12    0.08    0.25
  -3   0 -12   -0.21    0.54
  -4   1  12   15.77    1.69
  -3   1  12   29.38    2.93
  -3   1  12   30.45    1.74
  -3   1  12   30.73    2.02
   2  -1 -12   11.77    1.56
  -2   1  12    8.11    0.94
  -2   1  12   10.28    0.75
  -2   1  12   10.16    1.86
   1  -1 -12    7.62    0.72
   1  -1 -12    6.70    1.63
  -1   1  12    8.21    0.66
  -1   1  12    8.65    1.03
   0  -1 -12   41.04    2.21
   0  -1 -12   40.02    3.31
   0   1  12   34.66    2.16
  -1  -1 -12   18.74    2.49
  -1  -1 -12   19.40    2.91
  -1  -1 -12   21.06    1.30
  -2  -1 -12    2.96    2.26
  -2  -1 -12    2.73    0.39
  -2  -1 -12    2.14    1.25
  -3  -1 -12    5.52    0.62
  -3  -1 -12    4.69    2.18
  -4  -1 -12    2.35    0.31
  -4  -1 -12    2.80    0.56
  -3   2  12    5.63    0.47
  -3   2  12    6.24    1.42
   2  -2 -12   21.98    1.19
  -2   2  12   17.53    1.13
  -2   2  12   17.11    1.40
  -2   2  12   14.96    2.12
   1  -2 -12   -0.22    0.37
   1  -2 -12   -0.73    1.28
  -1   2  12    0.16    0.27
  -1   2  12   -0.09    0.64
   0  -2 -12    2.22    0.44
   0  -2 -12    3.12    1.51
   0   2  12    4.26    0.83
   0   2  12    3.69    1.45
  -1  -2 -12   14.03    1.01
  -1  -2 -12   14.60    1.91
   1   2  12   12.33    2.15
  -2  -2 -12    4.03    0.47
  -2  -2 -12    3.14    1.38
  -2  -2 -12    5.43    2.23
  -3  -2 -12   27.03    2.47
  -3  -2 -12   28.16    1.64
  -3  -2 -12   24.50    3.66
  -4  -2 -12    2.21    1.75
   3  -3 -12    2.44    0.29
  -3   3  12    1.89    1.10
  -3   3  12    1.75    0.54
   2  -3 -12   26.29    1.56
  -2   3  12   23.67    2.78
   1  -3 -12    5.49    1.38
   1  -3 -12    6.25    0.70
  -1   3  12    2.89    1.61
  -1   3  12    4.00    0.64
   0  -3 -12   16.30    2.27
   0  -3 -12   15.93    1.07
   0   3  12   12.38    1.80
   0   3  12   14.00    1.39
  -1  -3 -12   35.06    3.00
  -1  -3 -12   35.04    2.07
   1   3  12   35.36    2.38
   1   3  12   34.75    2.94
  -2  -3 -12    5.01    1.39
  -2  -3 -12    5.68    2.08
  -2  -3 -12    6.03    0.69
   2   3  12    5.39    3.25
  -3  -3 -12    7.57    1.37
  -3  -3 -12   10.01    0.78
  -3  -3 -12    9.32    2.21
  -4  -3 -12   22.58    1.35
  -4  -3 -12   22.82    3.12
  -5  -3 -12    5.85    1.63
   2  -4 -12    2.44    0.38
  -2   4  12    1.18    0.59
   1  -4 -12   13.56    0.98
  -1   4  12   12.93    1.20
   0  -4 -12   28.29    1.62
   0  -4 -12   25.09    2.49
   0   4  12   24.74    1.72
  -1  -4 -12   23.50    2.39
  -1  -4 -12   22.12    1.34
   1   4  12   15.45    4.09
   1   4  12   18.41    1.58
  -2  -4 -12   28.17    2.80
  -2  -4 -12   28.39    1.78
   2   4  12   39.32    5.61
   2   4  12   31.29    2.05
  -3  -4 -12    2.09    1.85
  -3  -4 -12    2.63    1.29
  -4  -4 -12    2.04    1.79
  -4  -4 -12    3.30    1.01
  -5  -4 -12    9.10    1.59
   2  -5 -12    0.69    0.28
  -2   5  12   -0.19    0.42
   1  -5 -12    7.96    0.71
  -1   5  12    6.28    0.72
   0  -5 -12   15.14    1.01
   0   5  12   13.29    1.26
   0   5  12   13.83    2.05
  -1  -5 -12    5.82    1.33
  -1  -5 -12    7.92    0.74
   1   5  12    9.56    0.82
   1   5  12    4.57    1.81
  -2  -5 -12    8.73    1.53
   2   5  12    5.79    0.73
  -3  -5 -12    6.22    1.43
   3   5  12    7.02    0.77
  -4  -5 -12   12.10    1.77
  -4  -5 -12    8.63    1.96
   4   5  12   12.19    0.73
   4   5  12   13.47    1.14
  -5  -5 -12    3.46    1.35
   5   5  12    4.69    0.55
   1  -6 -12    1.99    0.31
  -1   6  12    1.70    0.42
   0  -6 -12    4.77    0.47
   0   6  12    4.00    1.48
   0   6  12    4.64    0.63
   1   6  12   32.31    3.38
  -2  -6 -12    7.48    1.32
   2   6  12    6.49    1.76
  -3  -6 -12    0.46    1.10
   3   6  12    0.53    0.18
   3   6  12    0.43    0.39
   3   6  12   -0.47    1.43
  -4  -6 -12   15.94    2.43
  -4  -6 -12   16.49    1.86
   4   6  12   20.02    1.23
   1   7  12    5.93    0.39
   1   7  12    5.01    0.58
   1   7  12    4.83    1.42
  -2  -7 -12   11.41    1.51
   2   7  12    9.89    1.66
   2   7  12   11.77    0.98
   2   7  12   12.32    0.69
   2   7  12   12.41    0.69
  -3  -7 -12    1.22    0.88
   3   7  12    2.36    1.21
   1   1 -13   29.79    2.25
   2   0 -13   11.25    1.56
  -2   0  13   15.41    1.17
  -2   0  13   14.83    1.84
  -2   0  13   15.48    0.89
   1   0 -13    1.97    1.03
  -1   0  13    2.88    0.65
  -1   0  13    2.75    0.29
   0   0 -13   12.18    1.74
  -1   0 -13    7.66    0.64
  -1   0 -13    5.62    1.12
   2  -1 -13    6.52    1.05
  -2   1  13    5.84    0.80
  -2   1  13    6.76    0.82
  -2   1  13    5.16    0.45
  -2   1  13    5.28    1.31
   1  -1 -13   37.62    2.25
   1  -1 -13   42.66    3.00
  -1   1  13   38.06    2.26
  -1   1  13   40.62    2.44
   0  -1 -13    3.29    0.37
   0  -1 -13    2.43    1.27
  -1  -1 -13    4.94    0.54
  -1  -1 -13    4.33    1.26
  -2  -1 -13   17.35    1.89
  -2  -1 -13   20.80    1.21
  -2   2  13    3.20    1.21
  -2   2  13    4.93    0.62
   1  -2 -13    2.22    0.33
   1  -2 -13    2.54    1.14
  -1   2  13    1.17    0.54
  -1   2  13    1.49    1.39
   0  -2 -13   12.25    0.90
   0  -2 -13   12.47    1.68
   0   2  13   11.87    1.24
  -1  -2 -13    2.32    1.27
  -1  -2 -13    2.32    0.37
   1   2  13    0.92    0.63
  -2  -2 -13    4.99    1.22
  -2  -2 -13    6.19    0.60
  -2  -2 -13    5.42    1.85
  -3  -2 -13    4.21    1.71
  -3  -2 -13    7.84    0.60
   2  -3 -13   35.74    1.93
  -2   3  13   31.07    2.60
   1  -3 -13    2.73    0.38
  -1   3  13    3.45    0.43
  -1   3  13    3.19    1.31
   0  -3 -13    9.52    0.79
   0  -3 -13    7.07    1.45
   0   3  13   11.10    1.01
  -1  -3 -13   16.09    2.31
  -1  -3 -13   18.39    1.14
   1   3  13   16.44    1.43
  -2  -3 -13    3.18    0.42
  -2  -3 -13    4.35    1.26
   2   3  13    2.30    0.63
  -3  -3 -13    3.52    0.38
  -3  -3 -13    2.65    1.66
  -3  -3 -13    3.75    1.03
   1  -4 -13    6.52    0.63
   0  -4 -13    8.68    0.75
   0  -4 -13    7.14    1.29
   0   4  13    7.82    0.62
  -1  -4 -13    1.48    1.18
  -1  -4 -13    1.98    0.35
   1   4  13    2.15    0.53
  -2  -4 -13   38.23    3.02
   2   4  13   41.68    2.47
  -3  -4 -13   10.64    1.87
  -3  -4 -13   13.60    1.78
   3   4  13   13.31    1.10
   1  -5 -13   38.33    2.17
   0  -5 -13    0.38    0.31
   0   5  13    0.06    0.42
  -1  -5 -13   24.37    2.18
   1   5  13   22.72    2.51
  -2  -5 -13    2.96    1.02
   2   5  13    2.29    1.37
  -3  -5 -13   10.05    1.25
   3   5  13   10.79    0.90
   3   5  13    9.51    1.52
   4   5  13    4.91    0.60
  -2  -6 -13   34.18    2.33
   2   6  13   32.62    2.75
  -3  -6 -13    9.34    1.29
   3   6  13    7.85    1.38
   0  -2 -14    6.81    1.12
   0   2  14    6.36    1.17
   0   2  14    8.86    0.78
  -1  -2 -14    5.67    1.06
   1   2  14    6.76    0.76
   0  -3 -14   20.66    1.26
   0   3  14   20.36    1.24
  -1  -3 -14    1.35    0.25
  -1  -3 -14    1.71    0.87
   1   3  14    1.53    0.41
   2   3  14    1.36    0.41
  -1  -4 -14    0.31    0.38
   2   4  14    2.43    0.38
   0   0   0    0.00    0.00
;
_shelx_hkl_checksum              64701
_shelx_res_file
;
TITL sample2 in P1
CELL 1.54178   7.23670   8.41930  11.75070  73.6170  85.5217  69.4924
ZERR    1.00   0.00060   0.00060   0.00080   0.0049   0.0056   0.0053
LATT -1
SFAC C H O CL
UNIT 27 32 7 2
TEMP -173
SIZE 0.008 0.03 0.05
DFIX 0.84 o2 h2 o7 h7a o7 h7b
REM  DFIX 1.3 h7a h7b
WPDB -2
ACTA 134
L.S. 10
BOND $H
FMAP 2
PLAN 20
EQIV $1 x, y, z+1
EQIV $2 x+1, y-1, z-1
EQIV $3 x-1, y+1, z
EQIV $4 x, y+1, z
HTAB O2 O7_$1
HTAB O7 O5
HTAB O7 O1_$2
REM  HTAB C4 O2_$3
REM  HTAB C25 O4_$4
HTAB
REM  SIMU
REM  RIGU
WGHT    0.058000
FVAR       0.45792
CL1   4    0.388694    0.703093    0.578933    11.00000    0.03350    0.02050 =
         0.02398   -0.00555    0.00695   -0.01166
CL2   4    1.059059   -0.060433    0.309858    11.00000    0.03851    0.04419 =
         0.03624   -0.02017    0.00608   -0.00741
O1    3    0.143609    1.060099    0.847490    11.00000    0.05052    0.03359 =
         0.07169   -0.02998    0.02987   -0.01625
O2    3    0.598606    0.212452    0.785158    11.00000    0.02992    0.02507 =
         0.02273   -0.00536   -0.00087   -0.00298
H2    2    0.666799    0.212430    0.839102    11.00000   -1.50000
O3    3    0.562197    0.403461    0.330760    11.00000    0.03025    0.02764 =
         0.02019   -0.00879    0.00559   -0.01152
O4    3    0.649811   -0.048829    0.377526    11.00000    0.04607    0.03371 =
         0.04035   -0.02025    0.00834   -0.01740
O5    3    0.691594    0.294274    0.176098    11.00000    0.03634    0.03840 =
         0.02127   -0.01160    0.00386   -0.01114
O6    3    0.765647    0.608134    0.071907    11.00000    0.04104    0.04826 =
         0.02388   -0.01047    0.01362   -0.02022
O7    3    0.815529    0.247596   -0.052077    11.00000    0.03439    0.05876 =
         0.03104   -0.02402    0.00093   -0.00128
H7A   2    0.811840    0.249093    0.018954    11.00000   -1.50000
H7B   2    0.926573    0.178943   -0.057908    11.00000   -1.50000
C1    1    0.434239    0.623455    0.846131    11.00000    0.02739    0.02848 =
         0.02258   -0.01122    0.00860   -0.00866
AFIX  43
H1    2    0.566574    0.545861    0.863493    11.00000   -1.20000
AFIX   0
C2    1    0.386340    0.783510    0.862256    11.00000    0.03554    0.03729 =
         0.03321   -0.01730    0.01226   -0.02006
AFIX  43
H2A   2    0.482986    0.814385    0.892601    11.00000   -1.20000
AFIX   0
C3    1    0.187432    0.912062    0.833940    11.00000    0.04113    0.02836 =
         0.03484   -0.01445    0.01967   -0.01301
C4    1    0.043575    0.855774    0.790257    11.00000    0.02972    0.02391 =
         0.02954   -0.00468    0.01167   -0.00209
AFIX  43
H4    2   -0.087063    0.936715    0.771769    11.00000   -1.20000
AFIX   0
C5    1    0.088665    0.694751    0.775293    11.00000    0.02369    0.02308 =
         0.02100   -0.00300    0.00767   -0.00447
C6    1   -0.059656    0.635491    0.731996    11.00000    0.02241    0.02900 =
         0.02854   -0.00478    0.00486   -0.00295
AFIX  23
H6A   2   -0.188944    0.732180    0.717481    11.00000   -1.20000
H6B   2   -0.076394    0.533626    0.793330    11.00000   -1.20000
AFIX   0
C7    1    0.009877    0.583176    0.617546    11.00000    0.02303    0.03210 =
         0.02665   -0.00776   -0.00003   -0.00845
AFIX  23
H7C   2    0.008787    0.689144    0.553463    11.00000   -1.20000
H7D   2   -0.082481    0.534337    0.593796    11.00000   -1.20000
AFIX   0
C8    1    0.218364    0.445871    0.632970    11.00000    0.02142    0.02462 =
         0.02278   -0.00793    0.00339   -0.00950
AFIX  13
H8    2    0.211738    0.334625    0.689894    11.00000   -1.20000
AFIX   0
C9    1    0.367513    0.502431    0.684392    11.00000    0.02543    0.01839 =
         0.01957   -0.00415    0.00368   -0.00982
C10   1    0.293105    0.557679    0.802395    11.00000    0.02533    0.02075 =
         0.02361   -0.00814    0.00230   -0.00687
C11   1    0.581505    0.366309    0.692204    11.00000    0.02311    0.02390 =
         0.02177   -0.00918    0.00211   -0.00865
AFIX  13
H11   2    0.674035    0.420831    0.710625    11.00000   -1.20000
AFIX   0
C12   1    0.645782    0.315059    0.575526    11.00000    0.02255    0.02105 =
         0.02295   -0.00952    0.00281   -0.00616
AFIX  23
H12A  2    0.664789    0.416878    0.515273    11.00000   -1.20000
H12B  2    0.774119    0.217144    0.589224    11.00000   -1.20000
AFIX   0
C13   1    0.495396    0.258478    0.527322    11.00000    0.02789    0.02158 =
         0.01977   -0.00815    0.00296   -0.01247
C14   1    0.291918    0.405533    0.515592    11.00000    0.02279    0.02632 =
         0.01919   -0.00416    0.00078   -0.01236
AFIX  13
H14   2    0.307951    0.515150    0.461710    11.00000   -1.20000
AFIX   0
C15   1    0.164636    0.348895    0.447994    11.00000    0.02509    0.03968 =
         0.02760   -0.01360    0.00206   -0.01384
AFIX  23
H15A  2    0.055886    0.452325    0.403270    11.00000   -1.20000
H15B  2    0.107774    0.266011    0.503083    11.00000   -1.20000
AFIX   0
C16   1    0.310179    0.256907    0.361754    11.00000    0.03325    0.04349 =
         0.02566   -0.01592    0.00116   -0.01721
AFIX  13
H16   2    0.310522    0.133333    0.380482    11.00000   -1.20000
AFIX   0
C17   1    0.518451    0.246882    0.395801    11.00000    0.03201    0.02572 =
         0.02187   -0.00839    0.00315   -0.01448
C18   1    0.272534    0.401582    0.906956    11.00000    0.02613    0.02962 =
         0.01914   -0.00480    0.00468   -0.00834
AFIX 137
H18A  2    0.400173    0.335025    0.948653    11.00000   -1.50000
H18B  2    0.230214    0.323571    0.875279    11.00000   -1.50000
H18C  2    0.174354    0.448551    0.962314    11.00000   -1.50000
AFIX   0
C19   1    0.488753    0.079969    0.606460    11.00000    0.03069    0.02297 =
         0.02512   -0.00568    0.00153   -0.01139
AFIX 137
H19A  2    0.620341   -0.009819    0.611797    11.00000   -1.50000
H19B  2    0.395037    0.045213    0.571837    11.00000   -1.50000
H19C  2    0.446662    0.091144    0.686005    11.00000   -1.50000
AFIX   0
C20   1    0.684254    0.078261    0.384080    11.00000    0.03972    0.03073 =
         0.02043   -0.01046    0.00403   -0.01415
C21   1    0.896671    0.067437    0.398389    11.00000    0.03466    0.03233 =
         0.02728   -0.01552    0.00107   -0.00971
AFIX  23
H21A  2    0.939172    0.013559    0.482791    11.00000   -1.20000
H21B  2    0.903464    0.187778    0.374674    11.00000   -1.20000
AFIX   0
C22   1    0.248393    0.344355    0.232347    11.00000    0.03351    0.06144 =
         0.02707   -0.01199   -0.00290   -0.01566
AFIX 137
H22A  2    0.239121    0.468095    0.212297    11.00000   -1.50000
H22B  2    0.119621    0.337968    0.218686    11.00000   -1.50000
H22C  2    0.346495    0.283530    0.182405    11.00000   -1.50000
AFIX   0
C23   1    0.644249    0.412895    0.223561    11.00000    0.02205    0.03405 =
         0.02143   -0.00843    0.00234   -0.00506
C24   1    0.668698    0.582595    0.176931    11.00000    0.02777    0.03952 =
         0.01721   -0.00718    0.00341   -0.01217
C25   1    0.622415    0.725663    0.219355    11.00000    0.04856    0.04485 =
         0.02338   -0.01155    0.01084   -0.02501
AFIX  43
H25   2    0.556236    0.740169    0.290766    11.00000   -1.20000
AFIX   0
C26   1    0.691721    0.848380    0.136767    11.00000    0.06317    0.04714 =
         0.03680   -0.01018    0.00559   -0.03394
AFIX  43
H26   2    0.680462    0.962444    0.140950    11.00000   -1.20000
AFIX   0
C27   1    0.777039    0.771854    0.050780    11.00000    0.05783    0.06111 =
         0.02618   -0.00596    0.01258   -0.03681
AFIX  43
H27   2    0.837713    0.825419   -0.016358    11.00000   -1.20000
AFIX   0
HKLF 4
REM  sample2 in P1
REM R1 =  0.0412 for    3309 Fo > 4sig(Fo)  and  0.0473 for all    3691 data
REM    337 parameters refined using      6 restraints
END
WGHT      0.0580      0.0000
REM Instructions for potential hydrogen bonds
HTAB O2 O7_$1
HTAB O7 O5
HTAB O7 O1_$2
HTAB C4 O2_$3
HTAB C25 O4_$4
REM Highest difference peak  0.249,  deepest hole -0.272,  1-sigma level  0.055
Q1    1   0.3397  0.5274  0.7446  11.00000  0.05    0.25
Q2    1   0.2510  0.4222  0.5797  11.00000  0.05    0.23
Q3    1   0.4440  0.6658  0.5207  11.00000  0.05    0.22
Q4    1  -0.0347  0.6183  0.6719  11.00000  0.05    0.21
Q5    1   1.0246  0.0308  0.2396  11.00000  0.05    0.21
Q6    1   0.9910 -0.0195  0.3753  11.00000  0.05    0.21
Q7    1   1.1833 -0.0910  0.3550  11.00000  0.05    0.21
Q8    1   0.2772  0.7512  0.5405  11.00000  0.05    0.20
Q9    1   0.5994  0.3420  0.6340  11.00000  0.05    0.19
Q10   1   0.3156  0.8747  0.1023  11.00000  0.05    0.19
Q11   1   0.7756  0.2804  0.5810  11.00000  0.05    0.19
Q12   1  -0.0112  1.1187  0.8321  11.00000  0.05    0.19
Q13   1   0.5328  0.2459  0.4740  11.00000  0.05    0.19
Q14   1   0.2246  0.6169  0.7868  11.00000  0.05    0.18
Q15   1   0.2282  0.3813  0.4840  11.00000  0.05    0.18
Q16   1   0.5881  0.2845  0.5467  11.00000  0.05    0.18
Q17   1   1.1286 -0.1257  0.6038  11.00000  0.05    0.18
Q18   1   0.6639  0.4186  0.3246  11.00000  0.05    0.18
Q19   1   1.0843 -0.2409  0.2165  11.00000  0.05    0.18
Q20   1   0.2406  0.2964  0.4005  11.00000  0.05    0.18
;
_shelx_res_checksum              29415
_shelxl_version_number           2014/6
loop_
_space_group_symop_operation_xyz
'x, y, z'
loop_
_atom_site_type_symbol
_atom_site_label
_atom_site_fract_x
_atom_site_fract_y
_atom_site_fract_z
_atom_site_U_iso_or_equiv
_atom_site_adp_type
_atom_site_calc_flag
_atom_site_occupancy
Cl Cl1 0.38869(12) 0.70309(11) 0.57893(8) 0.0258(2) Uani d 1
Cl Cl2 1.05906(15) -0.06043(14) 0.30986(10) 0.0398(3) Uani d 1
O O1 0.1436(6) 1.0601(5) 0.8475(4) 0.0497(10) Uani d 1
O O2 0.5986(4) 0.2125(4) 0.7852(2) 0.0279(6) Uani d 1
H H2 0.667(7) 0.212(8) 0.839(4) 0.042 Uiso d 1
O O3 0.5622(4) 0.4035(4) 0.3308(2) 0.0254(6) Uani d 1
O O4 0.6498(5) -0.0488(4) 0.3775(3) 0.0372(8) Uani d 1
O O5 0.6916(5) 0.2943(4) 0.1761(2) 0.0319(7) Uani d 1
O O6 0.7656(5) 0.6081(5) 0.0719(3) 0.0370(7) Uani d 1
O O7 0.8155(5) 0.2476(5) -0.0521(3) 0.0429(9) Uani d 1
H H7A 0.812(11) 0.249(10) 0.019(3) 0.064 Uiso d 1
H H7B 0.927(5) 0.179(8) -0.058(6) 0.064 Uiso d 1
C C1 0.4342(6) 0.6235(6) 0.8461(3) 0.0259(9) Uani d 1
H H1 0.5666 0.5459 0.8635 0.031 Uiso calc 1
C C2 0.3863(7) 0.7835(6) 0.8623(4) 0.0322(10) Uani d 1
H H2A 0.4830 0.8144 0.8926 0.039 Uiso calc 1
C C3 0.1874(7) 0.9121(6) 0.8339(4) 0.0343(10) Uani d 1
C C4 0.0436(7) 0.8558(6) 0.7903(4) 0.0309(10) Uani d 1
H H4 -0.0871 0.9367 0.7718 0.037 Uiso calc 1
C C5 0.0887(6) 0.6948(5) 0.7753(3) 0.0246(9) Uani d 1
C C6 -0.0597(6) 0.6355(6) 0.7320(4) 0.0292(9) Uani d 1
H H6A -0.1889 0.7322 0.7175 0.035 Uiso calc 1
H H6B -0.0764 0.5336 0.7933 0.035 Uiso calc 1
C C7 0.0099(6) 0.5832(6) 0.6175(4) 0.0276(9) Uani d 1
H H7C 0.0088 0.6891 0.5535 0.033 Uiso calc 1
H H7D -0.0825 0.5343 0.5938 0.033 Uiso calc 1
C C8 0.2184(6) 0.4459(5) 0.6330(3) 0.0223(8) Uani d 1
H H8 0.2117 0.3346 0.6899 0.027 Uiso calc 1
C C9 0.3675(6) 0.5024(5) 0.6844(3) 0.0209(8) Uani d 1
C C10 0.2931(6) 0.5577(5) 0.8024(3) 0.0232(8) Uani d 1
C C11 0.5815(6) 0.3663(5) 0.6922(3) 0.0222(8) Uani d 1
H H11 0.6740 0.4208 0.7106 0.027 Uiso calc 1
C C12 0.6458(6) 0.3151(5) 0.5755(3) 0.0219(8) Uani d 1
H H12A 0.6648 0.4169 0.5153 0.026 Uiso calc 1
H H12B 0.7741 0.2171 0.5892 0.026 Uiso calc 1
C C13 0.4954(6) 0.2585(5) 0.5273(3) 0.0216(8) Uani d 1
C C14 0.2919(6) 0.4055(5) 0.5156(3) 0.0221(8) Uani d 1
H H14 0.3080 0.5151 0.4617 0.027 Uiso calc 1
C C15 0.1646(6) 0.3489(6) 0.4480(4) 0.0292(9) Uani d 1
H H15A 0.0559 0.4523 0.4033 0.035 Uiso calc 1
H H15B 0.1078 0.2660 0.5031 0.035 Uiso calc 1
C C16 0.3102(7) 0.2569(7) 0.3618(4) 0.0316(10) Uani d 1
H H16 0.3105 0.1333 0.3805 0.038 Uiso calc 1
C C17 0.5185(6) 0.2469(5) 0.3958(3) 0.0250(8) Uani d 1
C C18 0.2725(6) 0.4016(6) 0.9070(3) 0.0259(9) Uani d 1
H H18A 0.4002 0.3350 0.9487 0.039 Uiso calc 1
H H18B 0.2302 0.3236 0.8753 0.039 Uiso calc 1
H H18C 0.1744 0.4486 0.9623 0.039 Uiso calc 1
C C19 0.4888(6) 0.0800(5) 0.6065(4) 0.0259(8) Uani d 1
H H19A 0.6203 -0.0098 0.6118 0.039 Uiso calc 1
H H19B 0.3950 0.0452 0.5718 0.039 Uiso calc 1
H H19C 0.4467 0.0911 0.6860 0.039 Uiso calc 1
C C20 0.6843(7) 0.0783(6) 0.3841(3) 0.0292(9) Uani d 1
C C21 0.8967(7) 0.0674(6) 0.3984(4) 0.0303(9) Uani d 1
H H21A 0.9392 0.0136 0.4828 0.036 Uiso calc 1
H H21B 0.9035 0.1878 0.3747 0.036 Uiso calc 1
C C22 0.2484(7) 0.3444(8) 0.2323(4) 0.0407(12) Uani d 1
H H22A 0.2391 0.4681 0.2123 0.061 Uiso calc 1
H H22B 0.1196 0.3380 0.2187 0.061 Uiso calc 1
H H22C 0.3465 0.2835 0.1824 0.061 Uiso calc 1
C C23 0.6442(6) 0.4129(6) 0.2236(4) 0.0270(9) Uani d 1
C C24 0.6687(6) 0.5826(6) 0.1769(3) 0.0283(9) Uani d 1
C C25 0.6224(8) 0.7257(7) 0.2194(4) 0.0365(11) Uani d 1
H H25 0.5562 0.7402 0.2908 0.044 Uiso calc 1
C C26 0.6917(9) 0.8484(8) 0.1368(5) 0.0454(12) Uani d 1
H H26 0.6805 0.9624 0.1410 0.054 Uiso calc 1
C C27 0.7770(9) 0.7719(8) 0.0508(4) 0.0458(13) Uani d 1
H H27 0.8377 0.8254 -0.0164 0.055 Uiso calc 1
loop_
_atom_site_aniso_label
_atom_site_aniso_U_11
_atom_site_aniso_U_22
_atom_site_aniso_U_33
_atom_site_aniso_U_12
_atom_site_aniso_U_13
_atom_site_aniso_U_23
Cl1 0.0335(5) 0.0205(4) 0.0240(4) -0.0117(4) 0.0070(4) -0.0055(3)
Cl2 0.0385(6) 0.0442(7) 0.0362(5) -0.0074(5) 0.0061(4) -0.0202(5)
O1 0.051(2) 0.034(2) 0.072(3) -0.0163(17) 0.0299(19) -0.0300(17)
O2 0.0299(16) 0.0251(15) 0.0227(14) -0.0030(12) -0.0009(11) -0.0054(11)
O3 0.0302(15) 0.0276(15) 0.0202(13) -0.0115(12) 0.0056(11) -0.0088(11)
O4 0.0461(19) 0.0337(18) 0.0404(17) -0.0174(15) 0.0083(14) -0.0203(14)
O5 0.0363(17) 0.0384(18) 0.0213(13) -0.0111(14) 0.0039(12) -0.0116(12)
O6 0.0410(18) 0.048(2) 0.0239(14) -0.0202(15) 0.0136(13) -0.0105(13)
O7 0.0344(17) 0.059(2) 0.0310(16) -0.0013(16) 0.0009(14) -0.0240(16)
C1 0.027(2) 0.028(2) 0.0226(18) -0.0087(18) 0.0086(16) -0.0112(16)
C2 0.036(2) 0.037(3) 0.033(2) -0.020(2) 0.0123(18) -0.0173(19)
C3 0.041(3) 0.028(2) 0.035(2) -0.013(2) 0.0197(19) -0.0144(18)
C4 0.030(2) 0.024(2) 0.030(2) -0.0021(18) 0.0117(17) -0.0047(16)
C5 0.024(2) 0.023(2) 0.0210(17) -0.0045(16) 0.0077(15) -0.0030(15)
C6 0.022(2) 0.029(2) 0.029(2) -0.0030(17) 0.0049(16) -0.0048(16)
C7 0.023(2) 0.032(2) 0.0266(19) -0.0084(17) 0.0000(15) -0.0078(16)
C8 0.0214(19) 0.025(2) 0.0228(18) -0.0095(16) 0.0034(15) -0.0079(15)
C9 0.025(2) 0.0184(19) 0.0196(17) -0.0098(16) 0.0037(15) -0.0042(14)
C10 0.025(2) 0.021(2) 0.0236(19) -0.0069(16) 0.0023(15) -0.0081(15)
C11 0.023(2) 0.024(2) 0.0218(19) -0.0087(17) 0.0021(15) -0.0092(15)
C12 0.023(2) 0.021(2) 0.0230(18) -0.0062(16) 0.0028(15) -0.0095(15)
C13 0.028(2) 0.022(2) 0.0198(17) -0.0125(16) 0.0030(15) -0.0081(14)
C14 0.023(2) 0.026(2) 0.0192(18) -0.0124(17) 0.0008(15) -0.0042(15)
C15 0.025(2) 0.040(2) 0.0276(19) -0.014(2) 0.0021(17) -0.0136(17)
C16 0.033(2) 0.043(3) 0.026(2) -0.017(2) 0.0012(18) -0.0159(18)
C17 0.032(2) 0.026(2) 0.0219(18) -0.0145(18) 0.0032(15) -0.0084(15)
C18 0.026(2) 0.030(2) 0.0191(18) -0.0083(17) 0.0047(15) -0.0048(15)
C19 0.031(2) 0.023(2) 0.0251(19) -0.0114(17) 0.0015(16) -0.0057(15)
C20 0.040(2) 0.031(2) 0.0204(18) -0.0141(19) 0.0040(17) -0.0105(16)
C21 0.035(2) 0.032(2) 0.0273(19) -0.010(2) 0.0011(18) -0.0155(17)
C22 0.034(2) 0.061(3) 0.027(2) -0.016(2) -0.0029(19) -0.012(2)
C23 0.0220(19) 0.034(2) 0.0214(18) -0.0051(17) 0.0023(15) -0.0084(17)
C24 0.028(2) 0.040(2) 0.0172(18) -0.0122(19) 0.0034(15) -0.0072(16)
C25 0.049(3) 0.045(3) 0.023(2) -0.025(2) 0.0108(19) -0.0115(18)
C26 0.063(4) 0.047(3) 0.037(2) -0.034(3) 0.006(2) -0.010(2)
C27 0.058(3) 0.061(3) 0.026(2) -0.037(3) 0.013(2) -0.006(2)
loop_
_atom_type_symbol
_atom_type_description
_atom_type_scat_dispersion_real
_atom_type_scat_dispersion_imag
_atom_type_scat_source
C C 0.0181 0.0091 'International Tables Vol C Tables 4.2.6.8 and 6.1.1.4'
H H 0.0000 0.0000 'International Tables Vol C Tables 4.2.6.8 and 6.1.1.4'
O O 0.0492 0.0322 'International Tables Vol C Tables 4.2.6.8 and 6.1.1.4'
Cl Cl 0.3639 0.7018 'International Tables Vol C Tables 4.2.6.8 and 6.1.1.4'
loop_
_geom_angle_atom_site_label_1
_geom_angle_atom_site_label_2
_geom_angle_atom_site_label_3
_geom_angle
C11 O2 H2 107(4)
C23 O3 C17 120.4(3)
C27 O6 C24 105.2(4)
H7A O7 H7B 104(7)
C2 C1 C10 124.4(4)
C2 C1 H1 117.8
C10 C1 H1 117.8
C1 C2 C3 121.0(4)
C1 C2 H2A 119.5
C3 C2 H2A 119.5
O1 C3 C2 121.1(5)
O1 C3 C4 121.8(4)
C2 C3 C4 117.1(4)
C5 C4 C3 122.6(4)
C5 C4 H4 118.7
C3 C4 H4 118.7
C4 C5 C6 122.8(4)
C4 C5 C10 122.2(4)
C6 C5 C10 115.0(3)
C5 C6 C7 110.0(3)
C5 C6 H6A 109.7
C7 C6 H6A 109.7
C5 C6 H6B 109.7
C7 C6 H6B 109.7
H6A C6 H6B 108.2
C6 C7 C8 111.4(3)
C6 C7 H7C 109.4
C8 C7 H7C 109.4
C6 C7 H7D 109.4
C8 C7 H7D 109.4
H7C C7 H7D 108.0
C14 C8 C7 110.8(3)
C14 C8 C9 109.7(3)
C7 C8 C9 112.8(3)
C14 C8 H8 107.8
C7 C8 H8 107.8
C9 C8 H8 107.8
C8 C9 C11 112.0(3)
C8 C9 C10 112.2(3)
C11 C9 C10 115.0(3)
C8 C9 Cl1 108.7(3)
C11 C9 Cl1 103.3(3)
C10 C9 Cl1 104.8(3)
C1 C10 C5 112.7(3)
C1 C10 C18 106.1(3)
C5 C10 C18 106.8(3)
C1 C10 C9 111.1(3)
C5 C10 C9 106.9(3)
C18 C10 C9 113.2(3)
O2 C11 C12 109.2(3)
O2 C11 C9 110.4(3)
C12 C11 C9 112.9(3)
O2 C11 H11 108.0
C12 C11 H11 108.0
C9 C11 H11 108.0
C13 C12 C11 112.7(3)
C13 C12 H12A 109.0
C11 C12 H12A 109.0
C13 C12 H12B 109.0
C11 C12 H12B 109.0
H12A C12 H12B 107.8
C12 C13 C14 108.8(3)
C12 C13 C19 111.4(3)
C14 C13 C19 111.9(3)
C12 C13 C17 117.2(3)
C14 C13 C17 99.3(3)
C19 C13 C17 107.7(3)
C8 C14 C15 118.6(3)
C8 C14 C13 113.1(3)
C15 C14 C13 103.8(3)
C8 C14 H14 106.9
C15 C14 H14 106.9
C13 C14 H14 106.9
C14 C15 C16 104.4(3)
C14 C15 H15A 110.9
C16 C15 H15A 110.9
C14 C15 H15B 110.9
C16 C15 H15B 110.9
H15A C15 H15B 108.9
C22 C16 C17 115.5(4)
C22 C16 C15 113.0(4)
C17 C16 C15 105.7(3)
C22 C16 H16 107.4
C17 C16 H16 107.4
C15 C16 H16 107.4
O3 C17 C20 111.3(3)
O3 C17 C16 111.6(3)
C20 C17 C16 113.4(3)
O3 C17 C13 104.5(3)
C20 C17 C13 112.0(3)
C16 C17 C13 103.4(3)
C10 C18 H18A 109.5
C10 C18 H18B 109.5
H18A C18 H18B 109.5
C10 C18 H18C 109.5
H18A C18 H18C 109.5
H18B C18 H18C 109.5
C13 C19 H19A 109.5
C13 C19 H19B 109.5
H19A C19 H19B 109.5
C13 C19 H19C 109.5
H19A C19 H19C 109.5
H19B C19 H19C 109.5
O4 C20 C21 120.3(4)
O4 C20 C17 121.7(4)
C21 C20 C17 117.5(4)
C20 C21 Cl2 111.1(3)
C20 C21 H21A 109.4
Cl2 C21 H21A 109.4
C20 C21 H21B 109.4
Cl2 C21 H21B 109.4
H21A C21 H21B 108.0
C16 C22 H22A 109.5
C16 C22 H22B 109.5
H22A C22 H22B 109.5
C16 C22 H22C 109.5
H22A C22 H22C 109.5
H22B C22 H22C 109.5
O5 C23 O3 124.0(4)
O5 C23 C24 126.5(4)
O3 C23 C24 109.5(4)
C25 C24 O6 110.4(4)
C25 C24 C23 132.7(4)
O6 C24 C23 116.8(4)
C24 C25 C26 106.5(4)
C24 C25 H25 126.7
C26 C25 H25 126.7
C27 C26 C25 106.3(5)
C27 C26 H26 126.9
C25 C26 H26 126.9
C26 C27 O6 111.6(4)
C26 C27 H27 124.2
O6 C27 H27 124.2
loop_
_geom_bond_atom_site_label_1
_geom_bond_atom_site_label_2
_geom_bond_distance
Cl1 C9 1.840(4)
Cl2 C21 1.782(4)
O1 C3 1.227(6)
O2 C11 1.413(5)
O2 H2 0.83(3)
O3 C23 1.344(5)
O3 C17 1.452(5)
O4 C20 1.204(6)
O5 C23 1.213(5)
O6 C27 1.361(7)
O6 C24 1.372(5)
O7 H7A 0.84(3)
O7 H7B 0.82(3)
C1 C2 1.334(6)
C1 C10 1.501(6)
C1 H1 0.9500
C2 C3 1.461(7)
C2 H2A 0.9500
C3 C4 1.462(7)
C4 C5 1.338(7)
C4 H4 0.9500
C5 C6 1.505(7)
C5 C10 1.514(6)
C6 C7 1.526(6)
C6 H6A 0.9900
C6 H6B 0.9900
C7 C8 1.532(6)
C7 H7C 0.9900
C7 H7D 0.9900
C8 C14 1.524(5)
C8 C9 1.543(6)
C8 H8 1.0000
C9 C11 1.562(5)
C9 C10 1.581(5)
C10 C18 1.567(6)
C11 C12 1.541(5)
C11 H11 1.0000
C12 C13 1.531(5)
C12 H12A 0.9900
C12 H12B 0.9900
C13 C14 1.542(6)
C13 C19 1.543(5)
C13 C17 1.568(5)
C14 C15 1.531(6)
C14 H14 1.0000
C15 C16 1.562(6)
C15 H15A 0.9900
C15 H15B 0.9900
C16 C22 1.516(6)
C16 C17 1.557(6)
C16 H16 1.0000
C17 C20 1.538(6)
C18 H18A 0.9800
C18 H18B 0.9800
C18 H18C 0.9800
C19 H19A 0.9800
C19 H19B 0.9800
C19 H19C 0.9800
C20 C21 1.527(6)
C21 H21A 0.9900
C21 H21B 0.9900
C22 H22A 0.9800
C22 H22B 0.9800
C22 H22C 0.9800
C23 C24 1.447(6)
C24 C25 1.357(7)
C25 C26 1.408(7)
C25 H25 0.9500
C26 C27 1.345(8)
C26 H26 0.9500
C27 H27 0.9500
loop_
_geom_hbond_atom_site_label_D
_geom_hbond_atom_site_label_H
_geom_hbond_atom_site_label_A
_geom_hbond_site_symmetry_A
_geom_hbond_distance_DH
_geom_hbond_distance_HA
_geom_hbond_distance_DA
_geom_hbond_angle_DHA
O2 H2 O7 1_556 0.83(3) 1.88(3) 2.706(4) 171(6)
O7 H7A O5 . 0.84(3) 2.06(4) 2.850(4) 158(7)
O7 H7B O1 1_644 0.82(3) 1.99(4) 2.740(5) 152(7)

_cod_database_fobs_code 2020298
