#------------------------------------------------------------------------------
#$Date: 2016-02-17 15:54:38 +0200 (Wed, 17 Feb 2016) $
#$Revision: 176620 $
#$URL: svn://www.crystallography.net/cod/cif/2/02/03/2020321.cif $
#------------------------------------------------------------------------------
#
# This file is available in the Crystallography Open Database (COD),
# http://www.crystallography.net/. The original data for this entry
# were provided by IUCr Journals, http://journals.iucr.org/.
#
# The file may be used within the scientific community so long as
# proper attribution is given to the journal article from which the
# data were obtained.
#
data_2020321
loop_
_publ_author_name
'Acosta Quintero, Lina M.'
'Burgos, Isidro'
'Palma, Alirio'
'Cobo, Justo'
'Glidewell, Christopher'
_publ_section_title
;
 Similar molecular constitutions but different conformations and different
 supramolecular assemblies in two related fused tetracyclic
 benzo[<i>b</i>]pyrimido[5,4-<i>f</i>]azepine derivatives
;
_journal_coeditor_code           SK3612
_journal_issue                   1
_journal_name_full               'Acta Crystallographica Section C'
_journal_page_first              52
_journal_page_last               56
_journal_paper_doi               10.1107/S2053229615023876
_journal_volume                  72
_journal_year                    2016
_chemical_formula_iupac          'C16 H16 Cl N3'
_chemical_formula_moiety         'C16 H16 Cl N3'
_chemical_formula_sum            'C16 H16 Cl N3'
_chemical_formula_weight         285.77
_chemical_name_systematic
(RS)-9-chloro-7-methyl-2,3,7,8-tetrahydro-1H-pyrimido[5',4':6,7]azepino[3,2,1-ij]-quinoline
_space_group_crystal_system      triclinic
_space_group_IT_number           2
_space_group_name_Hall           '-P 1'
_space_group_name_H-M_alt        'P -1'
_symmetry_space_group_name_Hall  '-P 1'
_symmetry_space_group_name_H-M   'P -1'
_atom_sites_solution_hydrogens   geom
_audit_creation_method           SHELXL2014
_cell_angle_alpha                104.471(7)
_cell_angle_beta                 101.049(6)
_cell_angle_gamma                111.324(5)
_cell_formula_units_Z            2
_cell_length_a                   8.1840(10)
_cell_length_b                   9.5399(12)
_cell_length_c                   10.2185(19)
_cell_measurement_reflns_used    4161
_cell_measurement_temperature    100(2)
_cell_measurement_theta_max      30.553
_cell_measurement_theta_min      2.167
_cell_volume                     683.40(18)
_computing_cell_refinement
;
SAINT (Bruker, 2007)
;
_computing_data_collection
;
APEX2 (Bruker, 2007)
;
_computing_data_reduction
;
SAINT (Bruker, 2012)
;
_computing_molecular_graphics
;
PLATON (Spek, 2009)
;
_computing_publication_material
;
SHELXL2014 (Sheldrick, 2015) and PLATON (Spek, 2009)
;
_computing_structure_refinement
;
SHELXL2014 (Sheldrick, 2015)
;
_computing_structure_solution
;
SHELXS97 (Sheldrick, 2008)
;
_diffrn_ambient_temperature      100(2)
_diffrn_measured_fraction_theta_full 1.000
_diffrn_measured_fraction_theta_max 0.998
_diffrn_measurement_device_type  'Bruker D8 Venture'
_diffrn_measurement_method       '\f and \w scans'
_diffrn_radiation_monochromator  multilayer
_diffrn_radiation_type           MoK\a
_diffrn_radiation_wavelength     0.71073
_diffrn_reflns_av_R_equivalents  0.0332
_diffrn_reflns_limit_h_max       10
_diffrn_reflns_limit_h_min       -10
_diffrn_reflns_limit_k_max       12
_diffrn_reflns_limit_k_min       -12
_diffrn_reflns_limit_l_max       12
_diffrn_reflns_limit_l_min       -13
_diffrn_reflns_number            15418
_diffrn_reflns_theta_full        25.242
_diffrn_reflns_theta_max         27.549
_diffrn_reflns_theta_min         2.167
_diffrn_standards_decay_%        0
_diffrn_standards_interval_count 0
_diffrn_standards_interval_time  0
_diffrn_standards_number         0
_exptl_absorpt_coefficient_mu    0.272
_exptl_absorpt_correction_T_max  0.968
_exptl_absorpt_correction_T_min  0.854
_exptl_absorpt_correction_type   multi-scan
_exptl_absorpt_process_details
;
(SADABS; Sheldrick, 2003)
;
_exptl_crystal_colour            colourless
_exptl_crystal_density_diffrn    1.389
_exptl_crystal_description       block
_exptl_crystal_F_000             300
_exptl_crystal_size_max          0.140
_exptl_crystal_size_mid          0.140
_exptl_crystal_size_min          0.120
_refine_diff_density_max         0.645
_refine_diff_density_min         -0.271
_refine_ls_extinction_method     none
_refine_ls_goodness_of_fit_ref   1.037
_refine_ls_hydrogen_treatment    constr
_refine_ls_matrix_type           full
_refine_ls_number_parameters     182
_refine_ls_number_reflns         3157
_refine_ls_number_restraints     0
_refine_ls_restrained_S_all      1.037
_refine_ls_R_factor_all          0.0446
_refine_ls_R_factor_gt           0.0384
_refine_ls_shift/su_max          0.000
_refine_ls_shift/su_mean         0.000
_refine_ls_structure_factor_coef Fsqd
_refine_ls_weighting_details
'w = 1/[\s^2^(Fo^2^)+(0.0445P)^2^+0.4707P] where P=(Fo^2^+2Fc^2^)/3'
_refine_ls_weighting_scheme      calc
_refine_ls_wR_factor_gt          0.0949
_refine_ls_wR_factor_ref         0.0978
_reflns_number_gt                2784
_reflns_number_total             3157
_reflns_threshold_expression     I>2\s(I)
_cod_data_source_file            sk3612sup1.cif
_cod_data_source_block           II
_cod_depositor_comments
;Adding full bibliography for 2020320--2020321.cif.

 Adding full bibliography for 2020320--2020321.cif.
;
_cod_database_code               2020321
_cod_database_fobs_code          2020321
_shelx_space_group_comment
;
The symmetry employed for this shelxl refinement is uniquely defined
by the following loop, which should always be used as a source of
symmetry information in preference to the above space-group names.
They are only intended as comments.
;
_shelx_estimated_absorpt_t_min   0.963
_shelx_estimated_absorpt_t_max   0.968
_shelx_hkl_file
;
  -1   0   0 810.088 20.3971   3
   1   0   0 832.746 20.3511   5
   1   0   0 798.301 21.7826   1
  -2   0   0 8359.65 207.176   1
   2   0   0 8410.46 207.261   1
  -3   0   0 991.263 25.1805   5
  -3   0   0 951.905 27.8102   1
   3   0   0 990.509 25.5706   3
   3   0   0 986.989 25.1925   5
   3   0   0 978.307 27.7721   1
  -4   0   0 1134.49 33.1088   1
   4   0   0 1109.09 32.8358   1
   4   0   0 1172.45 30.0096   3
   4   0   0 1123.76 29.3930   5
  -5   0   0 1226.13 36.6803   1
   5   0   0 1277.86 32.7161   5
   5   0   0 1234.78 36.8552   1
   5   0   0 1263.59 31.8514   4
  -6   0   0 924.799 30.9405   1
   6   0   0 969.615 25.6779   5
   6   0   0 893.124 30.1062   1
   6   0   0 946.528 24.6317   4
   6   0   0 970.847 26.6755   3
  -7   0   0 283.891 17.7143   1
   7   0   0 274.050 16.4618   1
   7   0   0 306.762 10.2516   5
   7   0   0 299.305 9.47943   4
   7   0   0 297.637 11.8634   3
   8   0   0 436.910 13.4112   4
   8   0   0 420.611 13.9123   5
   8   0   0 422.525 16.6015   3
   9   0   0 218.617 9.44214   5
   9   0   0 226.412 10.2645   4
  10   0   0 88.3219 7.48421   5
  10  -1   0 4.08459 3.37046   5
   9  -1   0 86.3509 6.36004   4
   9  -1   0 79.6522 6.09575   5
   8  -1   0 13.6739 2.50908   4
   8  -1   0 13.2874 3.02230   5
   8  -1   0 9.31954 6.48396   1
   8  -1   0 9.78552 4.15062   3
  -8   1   0 14.7134 9.02247   1
   7  -1   0 281.021 11.2027   3
   7  -1   0 263.183 9.45612   5
   7  -1   0 281.697 8.47091   4
   7  -1   0 265.613 13.2479   1
  -7   1   0 269.221 15.7415   1
   6  -1   0 97.3344 7.80297   1
   6  -1   0 99.0984 3.82871   4
   6  -1   0 104.099 4.72643   5
   6  -1   0 105.682 5.92658   3
  -6   1   0 96.2499 9.90824   1
   5  -1   0 183.699 8.35124   1
   5  -1   0 168.487 6.71679   3
   5  -1   0 161.478 5.95115   5
  -5   1   0 164.035 9.79317   1
  -5   1   0 165.321 6.41238   3
   4  -1   0 2931.52 74.8065   1
   4  -1   0 2956.60 73.4672   3
   4  -1   0 2871.50 72.8966   5
  -4   1   0 3008.04 75.5775   1
  -4   1   0 2851.34 73.3572   3
   3  -1   0 1330.22 33.9827   3
   3  -1   0 1337.63 33.5978   5
   3  -1   0 1342.48 34.8852   1
  -3   1   0 1332.13 34.0292   3
  -3   1   0 1314.31 35.3302   1
  -3   1   0 1323.13 32.8923   6
   2  -1   0 3725.86 91.7437   1
  -2   1   0 3697.67 92.0944   1
   1  -1   0 4.11494 0.44258   3
   1  -1   0 3.46842 0.45104   1
   1  -1   0 3.31834 0.23833   4
   1  -1   0 3.92769 0.35736   6
  -1   1   0 3.82026 0.54166   1
  -1   1   0 3.73054 0.46253   3
   0  -1   0 72.4785 2.09868   4
   0  -1   0 72.2418 2.05044   5
   0  -1   0 79.2039 2.50041   6
   0   1   0 72.9862 3.12211   1
   0   1   0 80.1134 2.18889   5
   0   1   0 71.4140 2.11743   6
  -1  -1   0 4719.80 117.788   1
  -2  -1   0 927.930 23.8617   5
   2   1   0 972.716 27.0886   1
   2   1   0 946.866 24.0310   3
   2   1   0 912.054 23.7702   5
   2   1   0 923.266 23.1138   6
  -3  -1   0 20.1566 1.93173   5
   3   1   0 18.4129 2.05447   3
   3   1   0 23.4207 4.60652   1
   3   1   0 21.4399 1.55951   5
  -4  -1   0 108.780 8.98588   1
  -4  -1   0 107.854 4.59326   5
   4   1   0 101.634 4.83221   3
   4   1   0 101.873 4.09073   5
   4   1   0 120.656 8.77394   1
   4   1   0 99.2712 3.80212   4
  -5  -1   0 11.9541 2.00157   5
  -5  -1   0 11.9334 6.44432   1
   5   1   0 13.6755 5.19004   1
   5   1   0 11.5205 1.58486   5
   5   1   0 15.3772 2.73850   3
   5   1   0 17.2678 1.85423   4
  -6  -1   0 10.7295 7.05375   1
   6   1   0 13.2762 2.02841   5
   6   1   0 19.7942 3.49597   3
   6   1   0 18.3059 6.85460   1
   6   1   0 14.4958 2.16458   4
   7   1   0 26.0909 8.06076   1
   7   1   0 54.5041 4.67219   4
   7   1   0 53.4088 6.71263   3
   7   1   0 49.8164 3.96872   5
   8   1   0 20.5541 3.12901   5
   8   1   0 23.6032 4.42509   4
   9   1   0 27.2849 3.62015   5
   9   1   0 43.4931 5.59001   4
  10  -2   0 17.8244 3.63597   5
  10  -2   0 26.6754 4.62723   4
   9  -2   0 3.84718 2.52393   4
   9  -2   0 3.99695 2.65535   5
   8  -2   0 130.454 5.54872   4
   8  -2   0 127.744 8.87861   1
   8  -2   0 132.204 6.45551   5
  -8   2   0 137.725 14.0261   1
   7  -2   0 18.4921 2.14530   4
   7  -2   0 19.1024 2.34321   5
   7  -2   0 24.8529 3.89918   1
   7  -2   0 22.8986 3.93477   3
  -7   2   0 21.0350 6.88193   1
   6  -2   0 106.058 2.98481   6
   6  -2   0 120.357 6.08257   3
   6  -2   0 111.246 4.86291   5
   6  -2   0 116.020 6.24222   1
  -6   2   0 99.3749 8.86937   1
  -6   2   0 107.855 5.30164   3
   5  -2   0 136.321 5.82525   1
   5  -2   0 131.103 5.65073   3
   5  -2   0 132.722 3.62114   6
   5  -2   0 129.711 4.93494   5
  -5   2   0 126.490 8.01368   1
  -5   2   0 125.088 5.33294   3
   4  -2   0 741.515 19.8915   3
   4  -2   0 728.782 18.4662   6
   4  -2   0 733.941 19.8640   1
  -4   2   0 754.373 20.0282   3
  -4   2   0 712.983 21.2415   1
  -4   2   0 742.406 18.8129   6
   3  -2   0 884.506 23.2309   1
   3  -2   0 888.348 22.6544   6
   3  -2   0 956.431 23.5452   3
  -3   2   0 909.360 22.8646   6
  -3   2   0 905.895 24.0736   1
  -3   2   0 881.260 23.5535   3
   2  -2   0 1273.94 31.2890   4
   2  -2   0 1251.17 32.0737   1
   2  -2   0 1263.38 31.9094   3
   2  -2   0 1256.32 31.6855   6
  -2   2   0 1301.75 31.7513   6
  -2   2   0 1275.33 32.0011   3
  -2   2   0 1280.06 32.0357   1
   1  -2   0 352.103 10.2136   1
   1  -2   0 340.671 8.44043   2
   1  -2   0 338.066 8.70078   4
  -1   2   0 344.904 8.99361   6
  -1   2   0 331.623 8.44428   2
  -1   2   0 339.713 8.72931   4
   0  -2   0 1291.05 31.6341   5
   0  -2   0 1269.32 31.7555   4
   0   2   0 1337.05 33.8959   1
   0   2   0 1240.84 31.7758   6
   0   2   0 1384.16 34.2981   1
   0   2   0 1207.68 31.5969   5
   0   2   0 1216.13 31.7283   4
  -1  -2   0 2.63696 0.51475   5
  -1  -2   0 3.13917 0.50813   6
   1   2   0 2.13898 0.41671   5
   1   2   0 5.60201 2.70698   1
   1   2   0 3.46555 0.61405   4
  -2  -2   0 340.876 8.60274   6
  -2  -2   0 326.742 12.6260   1
  -2  -2   0 339.072 9.49358   5
   2   2   0 332.948 9.30262   5
   2   2   0 330.609 13.7919   1
   2   2   0 338.804 8.90293   6
   2   2   0 352.219 9.36155   4
  -3  -2   0 78.9132 2.10873   6
  -3  -2   0 81.3325 6.52848   1
  -3  -2   0 79.2107 3.63998   5
   3   2   0 85.4780 8.79495   1
   3   2   0 71.0809 3.33681   4
   3   2   0 77.2731 3.17387   5
   3   2   0 74.0103 3.72361   3
  -4  -2   0 76.7190 4.22799   5
   4   2   0 73.2906 3.45518   4
   4   2   0 73.6332 3.48487   5
   4   2   0 81.4464 9.76659   1
  -5  -2   0 23.1700 3.01192   5
   5   2   0 17.8075 2.89265   3
   5   2   0 16.8712 2.10033   4
   5   2   0 18.3497 2.30217   5
   5   2   0 21.6973 7.06143   1
  -6  -2   0 188.976 8.77012   5
   6   2   0 201.888 9.25955   3
   6   2   0 203.867 7.64141   4
   6   2   0 176.928 14.9775   1
   6   2   0 203.186 7.44890   5
   7   2   0 24.1733 6.12025   3
   7   2   0 27.9774 3.81884   4
   7   2   0 27.5173 3.19450   5
   8   2   0 115.057 6.44352   5
   8   2   0 122.009 9.07365   4
   9   2   0 8.37247 3.10209   5
  11  -3   0 44.2069 5.49708   5
  10  -3   0 14.3402 3.07057   4
  10  -3   0 14.1954 3.28363   5
   9  -3   0 95.0247 7.13417   1
   9  -3   0 101.334 4.98598   4
   9  -3   0 104.896 6.34655   5
  -9   3   0 100.048 14.1539   1
   8  -3   0 23.5004 2.96720   5
   8  -3   0 36.8411 5.06835   3
   8  -3   0 27.5428 2.65509   4
   8  -3   0 29.2466 3.75997   1
  -8   3   0 27.3458 9.53305   1
   7  -3   0 106.920 3.06450   6
   7  -3   0 106.620 5.24849   5
   7  -3   0 104.825 6.54104   3
   7  -3   0 108.624 5.65199   1
   7  -3   0 112.272 3.71070   4
  -7   3   0 106.871 5.86098   3
  -7   3   0 108.894 10.3647   1
   6  -3   0 9.87322 1.60962   5
   6  -3   0 9.23521 2.39151   3
   6  -3   0 4.86381 1.63541   1
   6  -3   0 5.61351 0.75103   6
  -6   3   0 4.61444 4.57474   1
  -6   3   0 8.84412 1.80247   3
   5  -3   0 87.7307 2.79842   6
   5  -3   0 85.2799 2.56832   4
   5  -3   0 82.3778 3.74532   1
   5  -3   0 85.2563 4.39318   3
  -5   3   0 87.7296 3.50922   6
  -5   3   0 87.5128 4.23947   3
  -5   3   0 79.5539 6.29232   1
   4  -3   0 3.41890 0.57680   6
   4  -3   0 3.94005 1.02708   1
   4  -3   0 3.48799 0.45602   4
   4  -3   0 3.83801 1.20138   3
  -4   3   0 3.80937 0.95689   6
  -4   3   0 3.09415 0.86825   3
  -4   3   0 3.56760 1.96775   1
   3  -3   0 215.685 6.54302   3
   3  -3   0 211.948 6.92023   1
   3  -3   0 219.836 5.68627   4
   3  -3   0 218.245 6.12690   6
  -3   3   0 211.664 6.69077   3
  -3   3   0 213.021 6.84257   1
  -3   3   0 228.673 6.47468   6
   2  -3   0 430.641 11.4993   6
   2  -3   0 438.159 11.1236   4
   2  -3   0 445.233 10.8766   2
   2  -3   0 422.002 12.7989   1
  -2   3   0 424.852 11.5670   3
  -2   3   0 433.020 12.3439   1
  -2   3   0 447.647 11.6888   6
  -2   3   0 441.259 11.1844   4
   1  -3   0 1.00512 0.31032   4
   1  -3   0 0.78544 0.32301   6
   1  -3   0 1.41505 0.42224   5
  -1   3   0 1.61002 0.23067   2
  -1   3   0 1.62225 0.47775   4
  -1   3   0 0.33579 1.09852   1
   0  -3   0 311.112 8.31573   6
   0  -3   0 317.570 8.28468   5
   0   3   0 314.153 8.53530   6
   0   3   0 314.611 11.9807   1
   0   3   0 293.930 8.18400   5
   0   3   0 309.457 8.45557   4
   0   3   0 293.557 8.04835   2
   0   3   0 316.770 11.0161   1
  -1  -3   0 5.94646 0.97091   5
  -1  -3   0 6.00621 0.69090   6
   1   3   0 7.59769 0.96759   6
   1   3   0 3.71951 3.44863   1
   1   3   0 5.72122 0.97210   4
   1   3   0 3.95787 0.59198   5
  -2  -3   0 25.8104 2.13085   5
  -2  -3   0 23.8759 1.10774   6
   2   3   0 23.4261 1.92515   4
   2   3   0 23.3339 1.56690   5
   2   3   0 22.8830 1.69011   6
   2   3   0 24.7007 5.88868   1
  -3  -3   0 22.2843 2.58786   5
  -3  -3   0 17.1950 0.85453   6
   3   3   0 18.6853 7.01752   1
   3   3   0 19.9250 2.16901   4
   3   3   0 26.2718 2.82179   3
  -4  -3   0 25.3128 2.87347   5
   4   3   0 26.7239 2.88229   4
   4   3   0 21.8918 8.93941   1
  -5  -3   0 44.0170 4.80426   5
   5   3   0 39.8121 3.94994   4
   5   3   0 42.7125 3.07325   5
   5   3   0 35.2164 11.3094   1
   5   3   0 34.3461 4.30863   3
  -6  -3   0 36.3740 4.98603   5
   6   3   0 38.3805 8.43671   1
   6   3   0 36.7835 5.12483   4
   6   3   0 50.9958 5.72022   3
   6   3   0 43.5598 3.63404   5
   6   3   0 31.9572 12.4695   1
   7   3   0 91.3838 7.68043   4
   7   3   0 94.0169 5.46284   5
   7   3   0 99.1746 9.76739   3
   8   3   0 113.229 6.61501   5
  11  -4   0 -0.1969 3.78200   5
  10  -4   0 5.66818 3.07711   5
  10  -4   0 8.98219 1.49093   4
  10  -4   0 8.16528 2.21104   4
   9  -4   0 12.3015 2.73663   5
   9  -4   0 13.1535 1.67077   4
   9  -4   0 9.69703 1.65758   4
   9  -4   0 4.87535 2.99676   1
  -9   4   0 16.1210 7.87714   1
   8  -4   0 110.376 7.33630   3
   8  -4   0 98.9619 3.57122   4
   8  -4   0 101.577 5.64511   5
   8  -4   0 97.2203 3.05423   6
   8  -4   0 102.634 3.31813   4
  -8   4   0 100.633 6.27755   3
  -8   4   0 109.350 10.9987   1
   7  -4   0 40.4571 3.50290   1
   7  -4   0 36.7445 1.67749   6
   7  -4   0 34.9426 1.68081   4
   7  -4   0 39.6412 4.52735   3
  -7   4   0 39.0818 6.57342   1
  -7   4   0 40.0842 3.83511   3
   6  -4   0 31.4956 2.91296   1
   6  -4   0 31.8142 1.41822   4
   6  -4   0 32.3716 1.66215   6
   6  -4   0 32.2270 3.59174   3
  -6   4   0 31.3616 3.05909   3
  -6   4   0 34.0226 5.09492   1
  -6   4   0 30.9603 2.83063   6
   5  -4   0 26.1700 2.54958   1
   5  -4   0 24.4123 1.51602   6
   5  -4   0 25.7331 1.16866   4
   5  -4   0 24.8834 2.75305   3
  -5   4   0 24.0288 3.59160   1
  -5   4   0 25.9681 2.40489   6
  -5   4   0 26.3036 2.42868   3
   4  -4   0 13.2064 1.90811   3
   4  -4   0 14.7928 0.90479   4
   4  -4   0 17.2268 2.19399   1
   4  -4   0 14.5352 1.20782   6
  -4   4   0 15.4467 1.71399   3
  -4   4   0 15.0299 2.21542   1
  -4   4   0 15.7428 1.98070   6
   3  -4   0 37.4368 1.88426   6
   3  -4   0 39.4969 1.39299   2
   3  -4   0 38.4794 3.19498   1
  -3   4   0 37.7927 3.05131   1
  -3   4   0 39.0256 2.16069   3
  -3   4   0 38.7582 2.36800   6
  -3   4   0 37.9782 1.61836   4
   2  -4   0 71.6418 4.82661   1
   2  -4   0 66.5058 1.84732   2
   2  -4   0 62.2830 2.54902   6
   2  -4   0 65.1675 2.27594   4
  -2   4   0 64.5485 1.90124   2
  -2   4   0 68.4043 3.01059   6
  -2   4   0 67.0421 2.53426   3
  -2   4   0 66.8432 2.49136   4
   1  -4   0 1.80854 0.45887   4
   1  -4   0 0.56073 0.46620   5
   1  -4   0 1.13027 0.57332   6
  -1   4   0 1.12139 0.28521   2
  -1   4   0 3.38746 1.75818   1
  -1   4   0 3.72239 0.79543   4
  -1   4   0 0.92200 0.91957   6
   0  -4   0 9.18970 0.97207   6
   0  -4   0 11.3795 1.26634   5
   0   4   0 7.69583 4.32268   1
   0   4   0 10.6567 0.96737   5
   0   4   0 10.9787 2.77488   1
   0   4   0 10.7204 0.81410   2
   0   4   0 11.0141 1.30496   4
   0   4   0 12.1927 1.46380   6
  -1  -4   0 229.538 6.48117   6
  -1  -4   0 225.407 6.93426   5
   1   4   0 227.283 6.68190   5
   1   4   0 223.206 12.7260   1
   1   4   0 226.566 10.6855   1
   1   4   0 232.380 7.11013   4
   1   4   0 229.286 6.99011   6
  -2  -4   0 7.66884 1.53520   5
  -2  -4   0 7.31996 0.84532   6
   2   4   0 8.65738 3.76240   1
   2   4   0 7.21446 1.34808   6
   2   4   0 2.63113 6.40955   1
   2   4   0 6.87759 1.03798   5
   2   4   0 7.53417 1.41748   4
  -3  -4   0 15.2683 0.95067   6
  -3  -4   0 13.0031 2.04430   5
   3   4   0 14.5517 2.05902   4
   3   4   0 17.6900 1.88547   6
   3   4   0 14.8696 1.74860   5
   3   4   0 16.7966 8.62234   1
  -4  -4   0 134.389 6.51286   5
  -4  -4   0 125.835 3.59210   6
   4   4   0 105.536 14.4246   1
   4   4   0 135.951 5.96022   4
   4   4   0 128.463 11.3931   1
   4   4   0 137.131 5.28477   5
  -5  -4   0 46.9806 5.99039   5
   5   4   0 42.0911 8.56158   1
   5   4   0 56.1806 5.92101   4
   5   4   0 37.3104 17.2301   1
   5   4   0 46.4375 4.89994   3
   5   4   0 40.4867 3.28072   5
   6   4   0 64.0318 4.45142   5
   6   4   0 81.2229 6.99920   4
   6   4   0 76.9556 10.4487   3
   7   4   0 195.707 8.27944   5
   8   4   0 58.0674 6.03559   5
  11  -5   0 8.59729 4.17987   5
  10  -5   0 65.0558 6.28657   1
  10  -5   0 80.7972 6.55349   5
   9  -5   0 4.53408 2.57001   5
   9  -5   0 -2.0245 4.38403   3
   9  -5   0 3.53400 0.77025   6
   9  -5   0 0.30700 2.96336   1
  -9   5   0 3.24870 2.50412   3
  -9   5   0 12.7682 7.38039   1
   8  -5   0 446.929 14.9266   3
   8  -5   0 441.803 11.6052   6
   8  -5   0 452.608 14.1743   5
   8  -5   0 436.917 13.6911   1
  -8   5   0 437.299 17.8430   1
  -8   5   0 411.903 14.8031   3
   7  -5   0 183.715 7.47055   1
   7  -5   0 184.200 7.80239   3
   7  -5   0 175.799 5.37413   6
  -7   5   0 166.511 7.63384   3
  -7   5   0 179.973 11.1583   1
   6  -5   0 471.675 12.5879   6
   6  -5   0 467.774 14.0130   3
   6  -5   0 447.874 14.3158   1
  -6   5   0 460.634 14.4409   3
  -6   5   0 480.063 13.6469   6
  -6   5   0 461.537 16.1099   1
   5  -5   0 35.5660 1.45030   4
   5  -5   0 34.5363 2.86922   3
   5  -5   0 36.7400 3.67056   1
   5  -5   0 39.9468 2.07537   6
  -5   5   0 34.6833 4.23116   1
  -5   5   0 36.2977 3.58906   6
   4  -5   0 978.463 25.1636   6
   4  -5   0 987.980 24.3244   2
   4  -5   0 961.564 24.3929   4
   4  -5   0 961.032 27.5394   1
  -4   5   0 1000.06 25.8173   6
  -4   5   0 979.339 24.4117   4
  -4   5   0 965.820 26.3960   1
  -4   5   0 959.299 25.8409   3
   3  -5   0 3.40688 0.38101   2
   3  -5   0 2.71065 0.55604   4
   3  -5   0 2.45963 0.59313   6
   3  -5   0 7.51186 2.60782   1
  -3   5   0 3.61631 1.25669   6
  -3   5   0 3.06801 0.79545   4
  -3   5   0 5.13602 2.17371   1
  -3   5   0 3.10004 0.77845   3
   2  -5   0 947.321 24.4619   4
   2  -5   0 980.409 24.9048   6
   2  -5   0 986.601 24.5747   5
  -2   5   0 940.693 23.8003   2
  -2   5   0 951.074 27.3771   1
  -2   5   0 960.895 25.7507   6
  -2   5   0 975.093 24.7294   4
   1  -5   0 297.991 8.29576   5
  -1   5   0 284.974 8.60424   4
  -1   5   0 286.432 13.5007   1
  -1   5   0 300.569 11.6600   1
  -1   5   0 300.766 8.99186   6
  -1   5   0 292.394 7.66134   2
   0  -5   0 823.547 20.8711   6
   0  -5   0 818.419 20.9176   5
   0   5   0 776.771 20.7593   5
   0   5   0 801.408 27.7236   1
   0   5   0 782.115 25.1771   1
   0   5   0 805.759 21.2728   4
   0   5   0 791.660 20.3501   2
   0   5   0 814.041 21.4018   6
  -1  -5   0 3.97795 1.30247   5
  -1  -5   0 1.95515 0.67925   6
   1   5   0 2.74237 0.72445   2
   1   5   0 3.69940 6.47121   1
   1   5   0 2.12191 0.68691   5
   1   5   0 1.69607 1.30362   6
   1   5   0 3.41366 1.42689   4
  -2  -5   0 130.133 5.44765   5
  -2  -5   0 124.185 4.01468   6
   2   5   0 126.511 5.15177   6
   2   5   0 135.658 18.6129   1
   2   5   0 133.369 9.99931   1
   2   5   0 129.228 5.49500   4
   2   5   0 127.072 4.66248   5
  -3  -5   0 269.735 7.38951   6
  -3  -5   0 280.309 9.68704   5
   3   5   0 265.338 20.6473   1
   3   5   0 278.111 9.51210   4
   3   5   0 260.971 14.7854   1
   3   5   0 267.938 8.58018   5
  -4  -5   0 706.939 20.3207   5
  -4  -5   0 693.086 17.1859   6
   4   5   0 647.407 26.6470   1
   4   5   0 671.329 20.2788   3
   4   5   0 688.925 34.6453   1
   4   5   0 659.913 18.8968   5
   4   5   0 693.547 19.9330   4
  -5  -5   0 25.7127 4.59464   5
   5   5   0 33.3336 4.52698   4
   5   5   0 23.4195 3.12040   5
   5   5   0 22.4973 9.53793   1
   5   5   0 25.1483 4.89021   3
   6   5   0 233.199 13.6134   3
   6   5   0 222.172 8.63468   5
   7   5   0 3.63015 2.53828   5
  11  -6   0 203.260 10.8624   5
  10  -6   0 2.05009 1.02076   6
  10  -6   0 -1.3775 2.58000   5
 -10   6   0 5.68882 3.40621   3
   9  -6   0 176.206 8.34734   1
   9  -6   0 198.317 8.39863   5
   9  -6   0 180.374 5.39386   6
  -9   6   0 160.468 8.78996   3
  -9   6   0 163.527 13.1792   1
   8  -6   0 23.2592 3.74278   1
   8  -6   0 23.8475 1.81907   6
   8  -6   0 21.9159 3.93320   3
  -8   6   0 21.4553 7.29387   1
  -8   6   0 17.8744 3.26118   3
   7  -6   0 25.7434 1.97237   6
   7  -6   0 23.3637 3.67336   1
   7  -6   0 32.6923 3.71665   3
  -7   6   0 27.2389 3.66679   3
  -7   6   0 28.7202 3.39190   6
  -7   6   0 21.0827 5.95727   1
   6  -6   0 107.987 6.81868   1
   6  -6   0 114.920 4.18257   6
   6  -6   0 120.946 4.08154   2
  -6   6   0 108.463 5.45749   3
  -6   6   0 114.726 5.75977   6
  -6   6   0 105.434 7.66530   1
   5  -6   0 0.89293 0.70999   6
   5  -6   0 0.24041 0.61511   2
   5  -6   0 -0.1372 0.42062   4
   5  -6   0 -1.9887 2.68824   1
  -5   6   0 0.70014 0.99213   3
  -5   6   0 0.02091 0.52296   4
  -5   6   0 -2.1443 2.34461   1
   4  -6   0 157.934 4.52967   4
   4  -6   0 149.667 8.48863   1
   4  -6   0 151.843 4.07233   2
   4  -6   0 149.342 5.19485   6
  -4   6   0 140.848 6.73526   6
  -4   6   0 151.964 4.78899   4
  -4   6   0 153.224 7.36919   1
  -4   6   0 148.842 5.65033   3
   3  -6   0 12.2494 1.61226   5
  -3   6   0 11.7121 1.47640   4
  -3   6   0 15.3130 2.15456   6
  -3   6   0 13.0616 1.58529   3
   2  -6   0 92.0706 3.58004   5
   2  -6   0 92.9741 3.68562   6
  -2   6   0 93.9185 3.93517   4
  -2   6   0 98.1505 4.54071   6
  -2   6   0 87.9771 2.90764   2
  -2   6   0 86.3149 6.11951   1
   1  -6   0 247.795 7.48236   6
   1  -6   0 248.148 7.40356   5
  -1   6   0 240.943 6.59656   2
  -1   6   0 241.217 8.22402   6
  -1   6   0 236.894 14.6094   1
  -1   6   0 249.135 7.89253   4
  -1   6   0 244.000 11.1897   1
   0  -6   0 35.2725 2.05263   6
   0  -6   0 35.0132 2.60339   5
   0   6   0 37.3502 3.34576   6
   0   6   0 32.2422 5.43358   1
   0   6   0 33.4840 1.69504   2
   0   6   0 30.2375 3.03305   4
   0   6   0 45.1235 9.14394   1
  -1  -6   0 26.3967 1.78630   6
  -1  -6   0 30.0710 3.05920   5
   1   6   0 27.2125 2.02611   5
   1   6   0 29.9556 3.31824   4
   1   6   0 31.0021 3.37282   6
   1   6   0 28.1484 1.83186   2
   1   6   0 21.0896 9.96617   1
   1   6   0 33.4001 6.12834   1
  -2  -6   0 178.127 7.13759   5
  -2  -6   0 178.642 5.36336   6
   2   6   0 168.716 6.01524   5
   2   6   0 182.124 5.88105   2
   2   6   0 171.274 20.5213   1
   2   6   0 146.937 14.4167   1
   2   6   0 180.822 6.90833   6
   2   6   0 169.921 7.19483   4
  -3  -6   0 44.4431 5.34869   5
  -3  -6   0 40.9683 1.96862   6
   3   6   0 45.1756 3.10857   5
   3   6   0 56.7952 9.17854   1
   3   6   0 51.1241 15.3227   1
   3   6   0 44.1790 2.98998   2
   3   6   0 34.8433 4.87387   4
  -4  -6   0 2.02475 0.72340   6
  -4  -6   0 2.17203 3.44981   5
   4   6   0 3.56085 1.62515   2
   4   6   0 12.9621 8.90102   1
   4   6   0 5.21999 3.23969   4
   4   6   0 -1.6488 1.29358   5
   5   6   0 11.2830 2.36577   2
   5   6   0 9.99511 6.13226   3
   5   6   0 11.8820 2.43091   5
   6   6   0 3.76339 2.33981   5
   6   6   0 -0.9748 2.39827   2
  11  -7   0 3.62351 2.11087   6
  11  -7   0 0.79829 3.79883   5
  10  -7   0 28.2148 2.20904   6
  10  -7   0 33.5181 4.69114   2
  10  -7   0 36.3376 4.59435   5
 -10   7   0 35.3608 5.27654   3
   9  -7   0 36.5031 3.99976   2
   9  -7   0 33.3963 2.30559   6
   9  -7   0 51.4603 7.02901   1
  -9   7   0 26.4456 8.81823   1
  -9   7   0 34.2576 4.77593   3
   8  -7   0 32.3143 5.16263   1
   8  -7   0 29.0804 3.15002   2
   8  -7   0 30.8219 2.28205   6
  -8   7   0 30.1765 3.78598   3
  -8   7   0 38.5767 8.28906   1
   7  -7   0 32.3294 2.37569   6
   7  -7   0 31.1077 2.50288   2
   7  -7   0 38.5616 5.36647   1
  -7   7   0 35.9636 4.14363   6
  -7   7   0 36.9963 6.36321   1
  -7   7   0 35.8057 4.06484   3
   6  -7   0 103.932 3.40728   2
   6  -7   0 104.410 4.14325   6
   6  -7   0 93.3070 7.92186   1
  -6   7   0 91.9691 5.13230   3
  -6   7   0 109.723 7.76241   1
  -6   7   0 105.077 7.98356   6
   5  -7   0 28.6528 2.22723   6
   5  -7   0 28.7990 5.23189   1
   5  -7   0 29.3888 1.29383   2
  -5   7   0 23.2096 1.93916   4
  -5   7   0 34.0113 3.84133   6
  -5   7   0 26.8116 2.84940   3
  -5   7   0 27.3178 4.25736   1
   4  -7   0 396.937 11.7325   6
  -4   7   0 428.905 13.0232   6
  -4   7   0 400.115 11.4225   4
  -4   7   0 410.610 14.6691   1
  -4   7   0 405.397 12.2179   3
   3  -7   0 12.5873 1.61945   6
   3  -7   0 10.5445 1.49837   5
  -3   7   0 15.3429 1.91990   4
  -3   7   0 12.2241 1.76550   3
  -3   7   0 10.6556 2.26215   6
   2  -7   0 170.516 6.00379   6
   2  -7   0 182.601 5.98951   5
  -2   7   0 188.243 6.54913   4
  -2   7   0 184.964 7.38535   6
  -2   7   0 181.599 4.92094   2
  -2   7   0 175.788 9.80825   1
  -2   7   0 172.336 14.2748   1
   1  -7   0 7.58955 1.56694   5
   1  -7   0 8.63285 1.37109   6
  -1   7   0 11.4893 2.46377   6
  -1   7   0 9.65279 2.07511   4
  -1   7   0 4.52548 7.86148   1
  -1   7   0 8.36320 0.95334   2
  -1   7   0 10.4621 4.24145   1
   0  -7   0 51.6652 3.58944   5
   0  -7   0 51.1401 2.61743   6
   0   7   0 45.8403 3.97043   4
   0   7   0 50.8431 7.27425   1
   0   7   0 51.4983 2.76068   5
   0   7   0 52.9975 2.30167   2
   0   7   0 53.9904 4.52956   6
   0   7   0 59.2290 13.6219   1
  -1  -7   0 11.7626 1.55611   6
  -1  -7   0 10.5983 2.33188   5
   1   7   0 12.7625 11.9874   1
   1   7   0 12.6706 2.76296   6
   1   7   0 10.5751 2.44023   4
   1   7   0 8.63414 1.33537   5
   1   7   0 12.2977 1.45944   2
   1   7   0 11.1776 6.19128   1
  -2  -7   0 164.046 5.32746   6
  -2  -7   0 175.581 7.94380   5
   2   7   0 168.386 23.3099   1
   2   7   0 168.291 5.88480   2
   2   7   0 175.587 7.75698   6
   2   7   0 144.241 13.7501   1
   2   7   0 168.943 8.05768   4
   2   7   0 169.755 6.27522   5
  -3  -7   0 0.76554 0.78902   6
  -3  -7   0 -1.7655 3.30571   5
   3   7   0 -0.9682 2.97570   4
   3   7   0 -5.6864 3.06284   3
   3   7   0 -7.3590 8.46042   1
   3   7   0 -0.7146 1.24878   5
   3   7   0 -0.2742 1.44089   2
   3   7   0 -27.754 17.0896   1
  -4  -7   0 163.238 4.89304   6
   4   7   0 168.207 6.71228   2
   4   7   0 168.250 6.95144   5
   4   7   0 122.209 17.7261   1
   4   7   0 159.227 10.2339   3
   5   7   0 4.38255 2.35613   5
   5   7   0 0.06086 2.39984   2
   5   7   0 7.91812 6.27261   3
   6   7   0 37.2919 4.34982   5
   6   7   0 33.3656 4.32092   2
  11  -8   0 29.7925 2.82188   6
  11  -8   0 27.6814 4.93475   5
 -11   8   0 25.7822 5.72252   3
  10  -8   0 26.2490 3.95499   2
  10  -8   0 22.7258 2.51028   6
 -10   8   0 25.4829 4.75058   3
   9  -8   0 12.1656 2.57472   2
   9  -8   0 11.6488 1.75644   6
  -9   8   0 16.7719 9.76629   1
  -9   8   0 9.73124 3.52772   3
   8  -8   0 8.68119 5.20919   1
   8  -8   0 4.41284 1.69355   2
   8  -8   0 6.18771 1.37006   6
  -8   8   0 1.16746 2.48433   3
  -8   8   0 8.90482 7.62060   1
   7  -8   0 75.9607 2.98378   2
   7  -8   0 66.4389 9.22241   1
   7  -8   0 71.2721 3.60528   6
  -7   8   0 72.7543 7.00262   6
  -7   8   0 79.6459 5.46996   3
  -7   8   0 68.2441 7.70331   1
   6  -8   0 12.1182 1.72526   6
   6  -8   0 11.4755 1.14873   2
  -6   8   0 13.8395 1.31579   4
  -6   8   0 12.6501 2.26026   3
  -6   8   0 16.0107 3.69244   6
  -6   8   0 20.8452 4.75721   1
   5  -8   0 41.9613 2.91267   6
  -5   8   0 45.8615 3.68667   3
  -5   8   0 45.8657 5.35189   6
  -5   8   0 47.4392 2.99961   4
  -5   8   0 49.9136 7.02635   1
   4  -8   0 8.14020 1.59474   5
   4  -8   0 9.07561 1.50365   6
  -4   8   0 5.22668 7.48818   1
  -4   8   0 8.22370 1.64072   3
  -4   8   0 9.78521 1.86618   4
  -4   8   0 9.29491 3.16689   6
  -4   8   0 6.58871 4.56051   1
   3  -8   0 142.334 5.40408   6
   3  -8   0 152.685 5.58725   5
  -3   8   0 147.319 9.42784   1
  -3   8   0 133.878 6.66043   4
  -3   8   0 136.323 5.33308   3
  -3   8   0 156.627 7.34710   6
  -3   8   0 132.976 15.4734   1
   2  -8   0 2.50824 1.08264   6
   2  -8   0 1.89716 1.44026   5
  -2   8   0 0.81583 0.47708   2
  -2   8   0 -1.1366 2.01863   4
  -2   8   0 -19.184 8.53862   1
  -2   8   0 1.88058 4.42719   1
  -2   8   0 2.93312 2.50772   6
   1  -8   0 219.379 7.36608   6
   1  -8   0 243.038 8.05743   5
  -1   8   0 210.734 20.2278   1
  -1   8   0 238.921 8.74490   4
  -1   8   0 236.534 6.57952   2
  -1   8   0 226.580 12.9922   1
  -1   8   0 235.855 9.44716   6
   0  -8   0 2.45504 1.10111   6
   0  -8   0 5.69099 2.14658   5
   0   8   0 -2.1745 2.59571   6
   0   8   0 3.79687 1.24192   5
   0   8   0 3.04266 0.89155   2
   0   8   0 4.38542 6.24686   1
   0   8   0 4.57650 2.59732   4
   0   8   0 12.1429 13.1418   1
  -1  -8   0 41.4536 2.56351   6
  -1  -8   0 51.8708 5.54098   5
   1   8   0 56.5779 17.7016   1
   1   8   0 44.7866 2.63888   2
   1   8   0 32.7965 4.46128   4
   1   8   0 43.2019 5.95593   6
   1   8   0 39.1468 3.08772   5
   1   8   0 41.3234 8.88649   1
  -2  -8   0 0.63195 0.95461   6
  -2  -8   0 2.06999 3.26324   5
   2   8   0 0.16389 1.29743   2
   2   8   0 5.39722 19.7522   1
   2   8   0 2.34617 1.41637   5
   2   8   0 4.25107 3.72255   4
   2   8   0 -3.0097 8.74104   1
  -3  -8   0 8.83097 1.33349   6
   3   8   0 17.7823 11.5848   1
   3   8   0 9.51976 4.72850   3
   3   8   0 2.44134 1.79449   5
  -4  -8   0 18.8395 1.94940   6
   4   8   0 19.9025 6.67155   3
   4   8   0 13.7011 2.58602   2
   4   8   0 10.0788 2.43270   5
   5   8   0 -4.4502 2.70491   5
   5   8   0 -5.6546 2.70285   2
  10  -9   0 92.7022 4.39582   6
 -10   9   0 98.3189 8.74139   3
   9  -9   0 5.49978 2.04777   2
   9  -9   0 -0.1161 1.39590   6
  -9   9   0 -0.5911 3.44026   3
   8  -9   0 95.6653 3.53411   2
  -8   9   0 76.2108 9.93285   3
   7  -9   0 6.30646 1.64328   6
  -7   9   0 9.91298 2.66193   3
  -7   9   0 4.85731 7.26589   1
   6  -9   0 0.51976 1.34921   6
  -6   9   0 3.79223 5.28499   1
  -6   9   0 -1.5069 1.70641   3
  -6   9   0 -0.7520 1.39481   4
  -6   9   0 -1.8631 3.47710   6
   5  -9   0 200.112 6.97593   6
   5  -9   0 196.689 7.20538   5
  -5   9   0 202.638 7.06226   4
  -5   9   0 194.675 11.7917   1
  -5   9   0 183.111 7.61939   3
  -5   9   0 198.698 9.66587   6
  -5   9   0 185.542 17.1197   1
   4  -9   0 343.432 10.5086   5
   4  -9   0 319.804 10.2322   6
  -4   9   0 343.113 12.7547   6
  -4   9   0 330.417 10.7679   3
  -4   9   0 326.890 10.6905   4
  -4   9   0 339.638 33.9438   1
   3  -9   0 35.3396 3.65315   5
   3  -9   0 31.5703 2.67130   6
  -3   9   0 43.7105 12.8079   1
  -3   9   0 30.3827 3.30815   4
  -3   9   0 27.7050 5.81276   1
  -3   9   0 33.4885 4.45454   6
  -3   9   0 31.5481 2.79188   3
   2  -9   0 56.4018 3.40194   6
   2  -9   0 65.0502 4.56991   5
  -2   9   0 84.6559 9.65450   1
  -2   9   0 59.6725 5.26813   4
  -2   9   0 65.3338 6.52952   6
  -2   9   0 61.9081 2.28105   2
  -2   9   0 69.2360 15.1847   1
   1  -9   0 108.600 4.70682   6
   1  -9   0 131.169 6.31484   5
  -1   9   0 113.870 7.06326   4
  -1   9   0 110.403 3.88014   2
  -1   9   0 136.898 12.2721   1
  -1   9   0 117.757 7.78740   6
  -1   9   0 137.359 19.1904   1
   0  -9   0 1.14630 1.16909   6
   0  -9   0 -2.6303 2.96356   5
   0   9   0 -6.0014 23.2726   1
   0   9   0 7.76415 3.43997   4
   0   9   0 2.69748 7.54029   1
   0   9   0 -5.9785 3.63612   6
   0   9   0 -0.9846 0.91327   2
  -1  -9   0 0.82360 1.26047   6
   1   9   0 0.37565 9.30935   1
   1   9   0 -7.1689 20.2827   1
   1   9   0 -0.5701 1.48904   5
   1   9   0 -0.2561 4.33947   6
   1   9   0 3.11946 1.43523   2
  -2  -9   0 10.6857 1.62310   6
   2   9   0 9.44541 1.90600   2
   2   9   0 9.12842 2.12543   5
  -3  -9   0 -0.2987 1.37939   6
   3   9   0 8.14184 6.08542   3
   3   9   0 -2.3444 2.19138   5
   3   9   0 -2.2340 2.06878   2
   4   9   0 18.3504 3.27217   2
   4   9   0 12.6902 3.27938   5
  10 -10   0 36.7064 3.67614   6
 -10  10   0 43.3240 6.07942   3
   9 -10   0 15.2668 2.33720   6
   9 -10   0 14.9286 1.97290   2
  -9  10   0 8.33915 3.82049   3
   8 -10   0 1.57991 1.57063   6
  -8  10   0 3.71863 3.16956   3
   7 -10   0 33.3158 3.21773   6
  -7  10   0 22.3378 3.46744   3
   6 -10   0 18.9535 2.35644   6
   6 -10   0 17.9595 2.93753   5
  -6  10   0 19.8393 3.33346   3
  -6  10   0 26.3360 2.83566   4
  -6  10   0 23.7992 5.33680   6
   5 -10   0 395.520 12.1495   6
  -5  10   0 411.596 12.5085   4
  -5  10   0 389.716 13.0171   3
  -5  10   0 392.076 15.3908   6
   4 -10   0 275.245 9.18132   6
   4 -10   0 272.811 10.7468   5
  -4  10   0 287.546 10.3318   4
  -4  10   0 276.654 12.4190   6
  -4  10   0 281.472 9.75230   3
   3 -10   0 18.6574 2.51542   6
  -3  10   0 29.8008 5.30405   6
  -3  10   0 23.7076 3.84738   4
  -3  10   0 26.1242 3.12261   3
  -3  10   0 23.8184 15.1087   1
   2 -10   0 -3.4407 2.54036   5
   2 -10   0 -1.3317 1.18498   6
  -2  10   0 7.04244 17.0853   1
  -2  10   0 0.66883 0.73867   2
  -2  10   0 4.35854 4.55540   6
  -2  10   0 -1.9141 3.32310   4
   1 -10   0 5.93825 1.61738   6
   1 -10   0 6.71466 3.21162   5
  -1  10   0 7.78824 1.25202   2
  -1  10   0 9.10035 4.89539   6
  -1  10   0 9.93553 4.50853   4
  -1  10   0 11.6705 19.7387   1
   0 -10   0 9.48532 1.68951   6
   0  10   0 14.5699 5.79673   6
   0  10   0 20.3110 27.4610   1
   0  10   0 10.6901 1.51460   2
  -1 -10   0 21.0477 2.74808   6
   1  10   0 17.8295 2.90545   2
  -2 -10   0 2.62375 1.63302   6
   2  10   0 2.38841 2.36989   5
   2  10   0 1.46774 2.12245   2
   9 -11   0 23.8592 2.94828   6
  -9  11   0 30.8462 5.35000   3
   8 -11   0 35.3082 3.59549   6
  -8  11   0 35.8702 5.08135   3
   7 -11   0 35.4854 3.51373   6
  -7  11   0 28.1967 3.91897   4
   6 -11   0 -1.6294 1.73113   6
  -6  11   0 -2.4773 2.58701   3
  -6  11   0 1.67932 3.01547   4
   5 -11   0 178.797 6.96926   6
  -5  11   0 188.778 8.50014   4
  -5  11   0 161.434 7.84446   3
   4 -11   0 61.5538 4.04253   6
  -4  11   0 61.5509 4.70107   3
  -4  11   0 66.3734 7.29402   4
   3 -11   0 5.88400 1.84023   6
  -3  11   0 10.5174 4.97395   4
  -3  11   0 8.72448 2.34318   3
   2 -11   0 12.1072 2.00021   6
   1 -11   0 26.0893 3.10766   6
  -1  11   0 20.7917 2.47077   2
   0 -11   0 8.19226 1.98812   6
   0  11   0 7.83999 1.92692   2
  -1 -11   0 33.0005 3.44981   6
   1  11   0 31.7124 3.96499   2
   8 -12   0 53.9229 4.54632   6
  -8  12   0 53.3579 6.45016   3
   7 -12   0 29.2785 3.68285   6
  -7  12   0 28.4319 4.59080   3
   6 -12   0 16.3971 2.47175   6
  -6  12   0 19.9075 4.09141   3
   5 -12   0 13.2209 2.27531   6
  -5  12   0 22.9176 5.03467   4
  -5  12   0 19.5348 3.78624   3
   4 -12   0 5.74308 1.88368   6
  -4  12   0 12.1330 5.48558   4
  -4  12   0 6.47862 3.04737   3
   3 -12   0 5.55523 2.17328   6
  -3  12   0 9.03386 2.98316   3
   2 -12   0 6.35787 2.08542   6
  -2  12   0 5.46262 2.88971   3
   1 -12   0 15.6054 2.37593   6
   6 -13   0 7.77612 2.77847   6
  -6  13   0 11.1075 4.56341   3
   5 -13   0 17.3762 3.06978   6
   4 -13   0 4.50511 2.51451   6
  -4  13   0 0.80283 4.06814   3
  -3  13  -1 6.84351 3.93271   3
   3 -13   1 2.31890 2.13013   6
  -4  13  -1 2.10852 3.72578   3
   4 -13   1 7.78628 2.43819   6
  -5  13  -1 36.8090 5.27418   3
   5 -13   1 35.8939 3.98167   6
  -6  13  -1 -5.8601 4.15849   3
   6 -13   1 -0.9380 2.12010   6
  -7  13  -1 15.2113 4.94560   3
   7 -13   1 11.1089 2.37944   6
   0 -12   1 3.54879 2.01806   6
  -2  12  -1 1.30453 1.45841   2
   2 -12   1 2.20203 1.61593   6
  -3  12  -1 10.7785 6.98602   4
  -3  12  -1 5.49395 2.94699   3
   3 -12   1 8.63427 2.12759   6
  -4  12  -1 18.0725 3.41751   3
  -4  12  -1 8.76765 9.05946   4
   4 -12   1 11.9569 2.31253   6
  -5  12  -1 8.54586 3.50409   3
  -5  12  -1 17.5273 4.40842   4
   5 -12   1 6.49580 1.82246   6
  -6  12  -1 7.77397 3.75177   3
   6 -12   1 1.86301 1.78452   6
  -7  12  -1 -3.7960 3.65172   3
   7 -12   1 2.26937 1.69966   6
  -8  12  -1 47.9003 6.13034   3
   8 -12   1 54.8536 4.20248   6
   2  11  -1 49.1508 4.85120   2
  -2 -11   1 55.8992 3.74682   6
   1  11  -1 42.0082 3.95412   2
  -1 -11   1 46.3215 3.33712   6
   0  11  -1 -0.3748 1.62651   2
   0 -11   1 0.43721 1.52078   6
  -1  11  -1 50.1395 2.93377   2
   1 -11   1 43.1956 3.22848   6
  -2  11  -1 6.14192 4.41422   4
  -2  11  -1 1.78774 1.09824   2
   2 -11   1 -0.2371 1.50360   6
  -3  11  -1 26.0613 3.25656   3
  -3  11  -1 28.4535 4.57747   4
   3 -11   1 23.3977 2.79460   6
  -4  11  -1 18.9489 3.84717   4
  -4  11  -1 18.4701 2.97579   3
   4 -11   1 10.2663 1.86603   6
  -5  11  -1 144.617 7.24112   4
  -5  11  -1 128.116 7.06996   3
   5 -11   1 132.636 5.62063   6
  -6  11  -1 10.5934 3.35557   3
  -6  11  -1 13.4328 2.78195   4
   6 -11   1 9.66652 1.95307   6
  -7  11  -1 143.405 8.56438   3
   7 -11   1 154.924 6.10570   6
  -8  11  -1 2.00381 3.49194   3
   8 -11   1 2.53659 1.55323   6
  -9  11  -1 8.46470 4.70886   3
   9 -11   1 8.17482 1.93311   6
   3  10  -1 11.1883 2.80397   5
   3  10  -1 13.6173 2.88498   2
  -3 -10   1 14.2824 1.97368   6
   2  10  -1 0.67092 1.97458   2
   2  10  -1 1.00378 1.89506   5
  -2 -10   1 0.63606 1.47388   6
   1  10  -1 24.5504 3.04519   2
   1  10  -1 20.1718 6.17854   6
  -1 -10   1 27.6589 2.59848   6
   0  10  -1 31.7944 2.57946   2
   0  10  -1 20.8078 5.26471   6
   0  10  -1 32.3385 21.5797   1
   0 -10   1 24.6849 2.50456   6
  -1  10  -1 21.5733 17.8421   1
  -1  10  -1 9.34521 4.71481   6
  -1  10  -1 11.5252 1.39242   2
  -1  10  -1 13.3275 4.88665   4
   1 -10   1 8.35656 1.83247   6
   1 -10   1 11.0914 3.09490   5
  -2  10  -1 110.239 36.3431   1
  -2  10  -1 74.9430 2.84046   2
  -2  10  -1 55.3892 6.24523   4
  -2  10  -1 73.1474 8.13969   6
   2 -10   1 73.1691 5.60598   5
  -3  10  -1 -0.3161 2.82481   4
  -3  10  -1 -1.6837 4.19547   6
  -3  10  -1 2.71520 13.9309   1
  -3  10  -1 1.18786 1.49717   3
  -3  10  -1 2.32266 0.80243   2
   3 -10   1 2.90815 1.79762   6
  -4  10  -1 43.0405 5.60981   6
  -4  10  -1 37.6728 4.79127   4
  -4  10  -1 47.6485 12.7192   1
  -4  10  -1 42.2358 3.85437   3
  -5  10  -1 14.6537 2.62540   4
  -5  10  -1 20.5035 4.93233   6
  -5  10  -1 9.14200 2.41112   3
   5 -10   1 7.84755 2.94876   5
   5 -10   1 8.86532 1.60885   6
  -6  10  -1 15.3404 2.17203   4
  -6  10  -1 13.5680 3.02216   3
  -6  10  -1 18.9873 5.31243   6
   6 -10   1 18.0921 3.14166   5
  -7  10  -1 41.7034 6.89704   6
  -7  10  -1 34.5816 6.84421   3
   7 -10   1 36.3537 2.97031   6
   7 -10   1 39.0264 2.02468   2
  -8  10  -1 33.7168 4.58620   3
   8 -10   1 42.2250 3.06350   6
   8 -10   1 43.3556 2.90506   2
  -9  10  -1 36.4832 5.31612   3
   9 -10   1 43.7606 3.30513   6
 -10  10  -1 65.3197 8.46629   3
  10 -10   1 66.1148 3.88389   6
   4   9  -1 0.41763 2.42399   2
   4   9  -1 3.52140 2.36104   5
  -4  -9   1 -0.9019 2.45676   6
   3   9  -1 76.6140 4.82340   2
   3   9  -1 82.2579 5.32148   5
  -3  -9   1 81.4954 3.57368   6
   2   9  -1 7.89656 4.92851   6
   2   9  -1 4.96783 1.82626   5
   2   9  -1 7.80392 9.99271   1
   2   9  -1 5.08168 1.73517   2
  -2  -9   1 3.99137 1.26224   6
   1   9  -1 60.2331 6.99523   4
   1   9  -1 60.4525 10.0393   1
   1   9  -1 57.7043 3.78974   5
   1   9  -1 59.9144 7.30887   6
   1   9  -1 56.3116 21.2173   1
   1   9  -1 56.5244 3.23668   2
  -1  -9   1 52.1621 6.25803   5
  -1  -9   1 55.7822 2.95451   6
   0   9  -1 0.70971 0.93748   2
   0   9  -1 -0.3338 2.85268   4
   0   9  -1 10.6497 15.0732   1
   0   9  -1 -1.0032 3.51380   6
   0   9  -1 -0.7569 6.95959   1
   0  -9   1 -0.9387 0.93139   6
   0  -9   1 6.00962 5.71720   5
  -1   9  -1 0.39684 2.52405   4
  -1   9  -1 0.44841 0.81791   2
  -1   9  -1 8.83529 14.1451   1
  -1   9  -1 -1.4739 5.68571   1
  -1   9  -1 3.05031 3.20581   6
   1  -9   1 2.01592 2.25859   5
   1  -9   1 1.96191 1.04628   6
  -2   9  -1 18.0081 12.1591   1
  -2   9  -1 1.34603 0.67156   2
  -2   9  -1 2.46910 2.21848   4
  -2   9  -1 8.44948 3.29148   6
  -2   9  -1 2.12039 4.89283   1
   2  -9   1 -0.2973 1.89300   5
   2  -9   1 0.74927 0.90403   6
  -3   9  -1 -3.0754 4.01280   1
  -3   9  -1 4.93825 3.31419   6
  -3   9  -1 -0.0298 2.10828   4
  -3   9  -1 0.99688 0.65034   2
   3  -9   1 1.01017 0.94255   6
   3  -9   1 2.58162 1.85373   5
  -4   9  -1 117.417 7.19908   6
  -4   9  -1 112.213 5.36412   3
  -4   9  -1 98.2695 12.5145   1
  -4   9  -1 119.293 5.39910   4
   4  -9   1 112.369 5.27543   5
   4  -9   1 111.383 4.60769   6
  -5   9  -1 307.168 9.19610   4
  -5   9  -1 303.774 14.2819   1
  -5   9  -1 296.591 10.5588   3
  -5   9  -1 300.230 11.8210   6
   5  -9   1 319.009 10.1719   5
   5  -9   1 317.552 16.9723   1
   5  -9   1 298.558 8.00074   2
   5  -9   1 298.098 9.31046   6
  -6   9  -1 4.99507 5.79356   1
  -6   9  -1 2.52269 1.07149   4
  -6   9  -1 1.17213 2.00368   3
  -6   9  -1 -0.3643 3.22682   6
   6  -9   1 7.03883 6.33184   1
   6  -9   1 1.81399 0.91041   2
   6  -9   1 2.97956 1.10746   6
  -7   9  -1 6.32856 4.06075   6
  -7   9  -1 6.48083 2.61155   3
   7  -9   1 4.40440 1.27354   6
   7  -9   1 6.52300 1.34501   2
  -8   9  -1 5.96374 5.78168   6
  -8   9  -1 3.49059 2.73777   3
   8  -9   1 4.03508 1.70028   2
   8  -9   1 4.32610 1.27570   6
  -9   9  -1 107.793 8.21253   3
   9  -9   1 112.557 6.92948   2
 -10   9  -1 3.64319 4.23475   3
  10  -9   1 7.61603 1.71150   6
   5   8  -1 11.4920 2.83080   2
   5   8  -1 10.2948 2.79873   5
   4   8  -1 0.06160 2.15994   5
   4   8  -1 -0.6730 2.02885   2
   4   8  -1 0.11661 6.08608   3
  -4  -8   1 1.37090 1.05088   6
   3   8  -1 89.7450 5.03802   5
   3   8  -1 80.3061 12.1884   1
   3   8  -1 92.2890 4.61039   2
   3   8  -1 94.0511 7.66043   6
  -3  -8   1 88.9048 3.36196   6
   2   8  -1 -11.523 6.84673   1
   2   8  -1 27.2169 18.1239   1
   2   8  -1 3.16599 1.32753   2
   2   8  -1 3.71913 3.23396   4
   2   8  -1 2.69492 1.56001   5
   2   8  -1 -3.3179 3.00070   6
  -2  -8   1 -3.1040 2.77714   5
  -2  -8   1 3.35667 1.01273   6
   1   8  -1 223.772 9.14434   6
   1   8  -1 234.464 7.70637   5
   1   8  -1 226.134 9.21929   4
   1   8  -1 223.071 14.5950   1
   1   8  -1 198.758 23.3774   1
   1   8  -1 221.634 6.96826   2
  -1  -8   1 226.980 8.78518   5
  -1  -8   1 216.688 6.78310   6
   0   8  -1 7.70092 2.77576   6
   0   8  -1 5.40566 2.56867   4
   0   8  -1 1.36985 5.33885   1
   0   8  -1 22.8458 12.3133   1
   0   8  -1 5.50964 0.96954   2
   0  -8   1 6.66665 1.18668   6
   0  -8   1 5.89587 2.19361   5
  -1   8  -1 0.09729 2.23219   6
  -1   8  -1 2.48726 9.91625   1
  -1   8  -1 4.13700 4.70095   1
  -1   8  -1 0.86506 0.63490   2
  -1   8  -1 0.80041 1.82394   4
   1  -8   1 0.29957 0.74531   6
   1  -8   1 -1.8853 1.52734   5
  -2   8  -1 68.9260 4.93186   6
  -2   8  -1 63.2840 2.34627   2
  -2   8  -1 63.5269 4.05340   4
  -2   8  -1 67.7607 7.37006   1
   2  -8   1 62.4096 3.04126   6
   2  -8   1 66.0415 3.71397   5
  -3   8  -1 36.3958 3.21712   4
  -3   8  -1 40.2652 5.62053   1
  -3   8  -1 37.6553 1.68901   2
  -3   8  -1 38.3797 4.31134   6
   3  -8   1 36.7944 2.38173   6
   3  -8   1 40.2150 3.01769   5
  -4   8  -1 335.731 10.8105   3
  -4   8  -1 339.053 11.5137   6
  -4   8  -1 337.678 9.89710   4
   4  -8   1 349.572 10.1818   5
   4  -8   1 317.481 9.82122   6
   4  -8   1 333.781 8.77702   2
   4  -8   1 335.227 19.8056   1
  -5   8  -1 1276.16 32.2615   4
  -5   8  -1 1244.61 36.2495   1
  -5   8  -1 1262.65 34.3516   3
  -5   8  -1 1295.29 34.5523   6
   5  -8   1 1285.67 32.9916   6
   5  -8   1 1304.17 31.8215   2
  -6   8  -1 76.4295 6.10406   6
  -6   8  -1 65.7513 4.70822   3
  -6   8  -1 80.1256 8.52938   1
   6  -8   1 68.7047 3.29199   6
   6  -8   1 81.9358 8.84395   1
   6  -8   1 69.9087 2.82186   2
  -7   8  -1 203.469 13.9137   1
  -7   8  -1 188.815 9.16727   6
  -7   8  -1 198.254 8.78150   3
   7  -8   1 205.749 12.1005   1
   7  -8   1 190.492 6.38228   6
   7  -8   1 201.384 6.22150   2
  -8   8  -1 48.6788 5.49687   6
  -8   8  -1 33.3881 4.63873   3
  -8   8  -1 25.7061 15.8640   1
   8  -8   1 47.1421 7.01410   1
   8  -8   1 40.7258 2.55087   6
   8  -8   1 37.6219 3.67992   2
  -9   8  -1 35.2496 4.96911   3
   9  -8   1 41.9639 3.70074   2
   9  -8   1 35.6602 2.72020   6
 -10   8  -1 187.193 10.8762   3
  10  -8   1 185.746 5.98360   6
  10  -8   1 190.505 9.00809   2
 -11   8  -1 36.9177 6.37195   3
  11  -8   1 47.0476 6.14041   5
   6   7  -1 45.1514 5.30953   5
   6   7  -1 32.8945 3.84111   2
   5   7  -1 -1.1112 2.10893   2
   5   7  -1 0.93001 1.95641   5
   5   7  -1 17.9519 6.08810   3
   4   7  -1 5.85801 9.10386   1
   4   7  -1 2.67749 1.96356   2
   4   7  -1 2.97665 4.43775   3
   4   7  -1 0.40857 1.70010   5
  -4  -7   1 2.35660 0.91287   6
   3   7  -1 31.4688 17.3081   1
   3   7  -1 19.4153 3.71898   4
   3   7  -1 5.84126 7.46762   1
   3   7  -1 12.5417 1.97685   2
   3   7  -1 15.6174 3.31188   6
  -3  -7   1 12.0666 3.75294   5
  -3  -7   1 12.5988 1.35660   6
   2   7  -1 21.6540 2.14069   2
   2   7  -1 16.7528 2.24641   5
   2   7  -1 30.9821 6.99369   1
   2   7  -1 22.5115 3.19328   6
   2   7  -1 30.1429 14.0911   1
   2   7  -1 13.9836 2.91738   4
  -2  -7   1 24.5622 1.61234   6
  -2  -7   1 20.6589 2.99111   5
   1   7  -1 6.62921 4.97222   1
   1   7  -1 24.6140 10.9590   1
   1   7  -1 1.30972 2.36989   6
   0   7  -1 -0.1209 3.67553   1
   0   7  -1 3.13496 1.74948   4
   0   7  -1 1.91169 0.69458   2
   0   7  -1 5.16396 1.08568   5
   0   7  -1 -7.1424 8.29013   1
   0   7  -1 5.49924 1.93506   6
   0  -7   1 2.07341 0.75730   6
   0  -7   1 2.95136 1.50189   5
  -1   7  -1 278.569 12.5145   1
  -1   7  -1 279.048 7.60678   2
  -1   7  -1 281.730 9.33693   6
  -1   7  -1 284.372 16.4822   1
   1  -7   1 274.762 8.45713   5
   1  -7   1 269.671 8.16776   6
  -2   7  -1 245.179 7.77053   4
  -2   7  -1 239.526 10.8276   1
  -2   7  -1 240.226 6.55980   2
  -2   7  -1 237.498 8.42196   6
   2  -7   1 242.376 7.38406   6
   2  -7   1 245.013 7.51423   5
  -3   7  -1 64.1997 5.34014   1
  -3   7  -1 63.9870 4.15405   6
  -3   7  -1 57.4920 3.07884   3
  -3   7  -1 61.2621 2.17953   2
  -3   7  -1 58.6083 3.13139   4
   3  -7   1 47.3535 7.27141   1
   3  -7   1 62.7885 3.09166   5
   3  -7   1 61.0492 2.80898   6
   3  -7   1 55.5075 2.12261   2
  -4   7  -1 250.163 7.30420   4
  -4   7  -1 251.573 10.6948   1
  -4   7  -1 246.428 8.32372   3
  -4   7  -1 259.362 8.84163   6
   4  -7   1 251.351 6.64943   2
   4  -7   1 243.724 7.53236   6
   4  -7   1 223.935 11.6907   1
  -5   7  -1 118.769 3.65080   4
  -5   7  -1 125.865 7.71436   1
  -5   7  -1 117.717 5.51491   3
  -5   7  -1 121.913 5.97981   6
   5  -7   1 123.079 3.83394   2
   5  -7   1 122.360 4.41708   6
   5  -7   1 126.672 8.67136   1
  -6   7  -1 87.6423 8.36748   1
  -6   7  -1 87.8911 5.07017   3
  -6   7  -1 97.1136 5.72078   6
   6  -7   1 84.2058 3.50327   6
   6  -7   1 86.6343 3.39139   2
   6  -7   1 98.9606 7.59572   1
  -7   7  -1 30.1836 7.45300   1
  -7   7  -1 29.4331 4.05745   3
  -7   7  -1 38.2541 5.02155   6
   7  -7   1 35.5768 2.77641   2
   7  -7   1 36.8588 5.07643   1
   7  -7   1 35.1448 2.17038   6
  -8   7  -1 11.1512 3.06203   3
  -8   7  -1 19.2616 3.90665   6
   8  -7   1 14.6567 2.40724   2
   8  -7   1 13.9437 4.42393   1
   8  -7   1 11.3347 1.55312   6
  -9   7  -1 -2.8988 3.02469   3
   9  -7   1 -2.2972 2.74306   2
   9  -7   1 0.60307 0.96556   6
 -10   7  -1 8.82601 3.66050   3
  10  -7   1 10.2592 1.36047   6
  10  -7   1 6.68869 3.28214   5
  10  -7   1 12.6366 4.27711   2
 -11   7  -1 3.46662 5.02762   3
  11  -7   1 -4.2742 3.86927   5
   7   6  -1 45.4541 5.83692   5
   7   6  -1 62.4198 6.05888   2
   6   6  -1 -1.2955 2.21144   2
   6   6  -1 4.70630 2.15499   5
   5   6  -1 53.8590 11.0024   3
   5   6  -1 67.5427 4.36126   2
   5   6  -1 58.2278 4.20089   5
   4   6  -1 140.834 13.7987   1
   4   6  -1 129.405 7.18110   5
   4   6  -1 157.560 8.61217   3
   4   6  -1 174.286 22.6806   1
   4   6  -1 157.904 6.07055   2
   4   6  -1 162.288 8.40913   4
  -4  -6   1 158.100 4.52013   6
  -4  -6   1 167.752 8.75768   5
   3   6  -1 380.309 12.2275   4
   3   6  -1 377.949 11.2539   5
   3   6  -1 387.787 18.3891   1
   3   6  -1 369.560 11.5087   6
   3   6  -1 354.521 25.8185   1
   3   6  -1 359.628 10.9403   2
  -3  -6   1 387.176 12.4763   5
  -3  -6   1 366.680 9.91334   6
   2   6  -1 37.2507 2.29325   2
   2   6  -1 36.8274 3.76590   4
   2   6  -1 38.5858 3.45805   6
   2   6  -1 37.0088 2.51296   5
   2   6  -1 51.2933 11.5180   1
  -2  -6   1 35.3832 1.75053   6
  -2  -6   1 40.1640 3.76967   5
   1   6  -1 226.311 11.9371   1
   1   6  -1 217.523 7.52140   6
   1   6  -1 229.129 7.72677   4
   1   6  -1 217.640 6.94325   5
   1   6  -1 218.810 6.57510   2
   1   6  -1 199.937 16.4694   1
  -1  -6   1 227.561 7.46905   5
  -1  -6   1 222.161 6.43640   6
   0   6  -1 249.641 7.81724   4
   0   6  -1 233.721 11.2118   1
   0   6  -1 252.100 8.05461   6
   0   6  -1 255.898 14.9899   1
   0   6  -1 237.161 6.83657   2
   0   6  -1 231.896 7.25568   5
   0  -6   1 240.017 9.21824   5
   0  -6   1 250.480 7.11160   6
  -1   6  -1 770.856 23.6535   1
  -1   6  -1 754.199 19.9739   4
  -1   6  -1 738.071 19.0412   2
  -1   6  -1 743.587 20.3277   6
   1  -6   1 744.554 19.6131   6
   1  -6   1 762.733 19.7397   5
  -2   6  -1 82.9697 5.66688   1
  -2   6  -1 77.8130 2.52393   2
  -2   6  -1 79.7246 3.89804   6
  -2   6  -1 80.3379 3.37647   4
   2  -6   1 81.9546 3.14445   6
   2  -6   1 77.9440 2.60442   2
   2  -6   1 85.8097 8.45958   1
   2  -6   1 82.1332 3.28475   5
  -3   6  -1 321.248 9.67605   6
  -3   6  -1 300.705 9.23400   3
  -3   6  -1 311.794 8.69390   4
   3  -6   1 311.055 8.05491   2
   3  -6   1 295.436 8.77271   6
   3  -6   1 311.534 12.9453   1
  -4   6  -1 126.160 3.88276   4
  -4   6  -1 123.974 6.84357   1
  -4   6  -1 120.081 5.08140   3
  -4   6  -1 133.051 5.39848   6
   4  -6   1 131.949 4.36996   6
   4  -6   1 117.556 7.26329   1
   4  -6   1 127.591 3.76986   2
  -5   6  -1 89.7780 4.52859   3
  -5   6  -1 89.9884 5.27666   6
  -5   6  -1 89.8882 6.56865   1
   5  -6   1 86.8937 3.31398   6
   5  -6   1 79.5298 5.95815   1
   5  -6   1 90.1887 3.18326   2
  -6   6  -1 170.727 10.2291   1
  -6   6  -1 161.788 7.04752   3
   6  -6   1 167.279 5.52041   2
   6  -6   1 166.844 8.18995   1
   6  -6   1 166.012 5.23302   6
  -7   6  -1 70.2760 5.01653   3
  -7   6  -1 61.0596 8.45417   1
  -7   6  -1 73.7091 5.68408   6
   7  -6   1 68.7844 2.71355   6
   7  -6   1 64.5239 5.91104   1
  -8   6  -1 48.2250 5.02320   3
  -8   6  -1 55.2350 5.19821   6
   8  -6   1 37.8362 4.68244   1
   8  -6   1 45.4270 2.10858   6
  -9   6  -1 14.3310 3.67909   3
  -9   6  -1 15.2173 10.6418   1
   9  -6   1 9.12895 4.23110   1
   9  -6   1 12.1072 1.37117   6
   9  -6   1 18.1178 3.24749   5
 -10   6  -1 57.1320 7.38462   3
  10  -6   1 47.1813 6.25227   5
  10  -6   1 57.9402 2.41121   6
  11  -6   1 43.8576 5.76234   5
   7   5  -1 43.3043 4.96567   2
   7   5  -1 41.7449 4.54600   5
   6   5  -1 3.73980 2.13052   2
   6   5  -1 -0.9669 1.56650   5
   6   5  -1 0.99024 5.09652   3
   5   5  -1 2.83660 1.62435   2
   5   5  -1 5.13746 3.77485   4
   5   5  -1 6.44840 7.47292   1
   5   5  -1 16.7451 22.8393   1
   5   5  -1 -1.5093 3.55495   3
  -5  -5   1 0.44339 3.46725   5
   4   5  -1 8.94902 1.56775   2
   4   5  -1 2.33928 11.4644   1
   4   5  -1 14.0117 2.23565   6
   4   5  -1 4.72245 5.84494   1
   4   5  -1 9.70406 1.59849   5
   4   5  -1 11.9099 2.52956   4
  -4  -5   1 11.6601 2.82054   5
  -4  -5   1 9.95164 0.93000   6
   3   5  -1 4.30034 1.09663   2
   3   5  -1 9.17310 4.71804   1
   3   5  -1 6.87508 9.53596   1
   3   5  -1 6.37746 1.88225   4
   3   5  -1 6.17251 1.27148   5
   3   5  -1 5.18552 1.76123   6
  -3  -5   1 3.68269 1.71225   5
  -3  -5   1 6.16124 0.72317   6
   2   5  -1 10.1810 1.75685   6
   2   5  -1 3.04939 4.09183   1
   2   5  -1 8.68892 1.13077   2
   2   5  -1 11.2316 7.22263   1
   2   5  -1 12.0845 1.83066   4
   2   5  -1 10.4911 1.33436   5
  -2  -5   1 10.7594 0.94068   6
  -2  -5   1 13.6197 2.02617   5
   1   5  -1 0.75237 0.98886   4
   1   5  -1 0.43031 0.97933   6
   1   5  -1 2.19916 2.95423   1
   1   5  -1 -6.4304 5.58713   1
   1   5  -1 0.89981 0.61771   5
   1   5  -1 0.04258 0.51195   2
  -1  -5   1 0.68120 0.46447   6
  -1  -5   1 1.60749 1.03648   5
   0   5  -1 58.0710 2.43847   5
   0   5  -1 57.2350 2.95578   6
   0   5  -1 52.6743 5.04759   1
   0   5  -1 56.3937 2.10557   2
   0   5  -1 62.9107 8.25289   1
   0   5  -1 54.5779 2.76789   4
   0  -5   1 58.1017 2.66484   5
   0  -5   1 58.4974 2.28580   6
  -1   5  -1 237.678 9.64296   1
  -1   5  -1 243.550 7.09160   4
  -1   5  -1 237.479 6.45756   2
  -1   5  -1 245.112 7.46941   6
   1  -5   1 232.140 6.87320   6
   1  -5   1 242.569 11.4269   1
   1  -5   1 249.801 7.01924   5
  -2   5  -1 125.448 3.55023   2
  -2   5  -1 124.892 4.04788   4
  -2   5  -1 118.258 5.81945   1
   2  -5   1 121.381 7.59252   1
   2  -5   1 126.762 3.52807   2
  -3   5  -1 706.167 18.1234   4
  -3   5  -1 752.137 19.1798   6
  -3   5  -1 712.821 19.1035   3
   3  -5   1 716.849 17.9346   2
   3  -5   1 708.105 18.4970   6
   3  -5   1 683.480 21.4830   1
  -4   5  -1 4.38956 1.24785   6
  -4   5  -1 8.54544 2.43875   1
  -4   5  -1 10.8484 1.62263   3
  -4   5  -1 7.31887 0.57852   4
   4  -5   1 5.53996 2.04529   1
   4  -5   1 5.27183 0.74566   6
   4  -5   1 10.0914 1.12670   2
  -5   5  -1 402.872 12.7648   3
  -5   5  -1 426.405 12.0657   6
  -5   5  -1 386.004 15.0769   1
   5  -5   1 409.246 11.1103   6
   5  -5   1 439.025 13.3768   1
   5  -5   1 420.860 11.3140   2
  -6   5  -1 33.3787 3.28996   6
  -6   5  -1 31.9178 3.25031   3
  -6   5  -1 31.3615 5.97957   1
   6  -5   1 33.1920 3.59762   3
   6  -5   1 33.8860 1.69936   6
   6  -5   1 30.8590 3.81843   1
  -7   5  -1 124.053 12.3690   1
  -7   5  -1 128.325 5.71802   6
  -7   5  -1 125.339 6.53146   3
   7  -5   1 137.213 6.70375   3
   7  -5   1 128.320 6.56666   1
   7  -5   1 131.428 3.98749   6
  -8   5  -1 60.1623 12.0144   1
   8  -5   1 48.3417 1.96340   6
   8  -5   1 45.1965 7.04919   3
   8  -5   1 53.5466 4.53519   5
   8  -5   1 48.9188 5.20580   1
  -9   5  -1 45.3105 5.60739   3
  -9   5  -1 25.6076 10.7342   1
   9  -5   1 39.1594 4.80510   1
   9  -5   1 39.2479 1.75538   6
   9  -5   1 41.7790 4.85691   5
 -10   5  -1 56.7181 7.25791   3
  10  -5   1 61.8200 6.32833   5
  11  -5   1 47.0017 6.34405   5
   8   4  -1 22.6638 3.89228   2
   8   4  -1 22.1481 3.24201   5
   7   4  -1 40.2249 4.27780   5
   6   4  -1 10.2608 4.43579   3
   6   4  -1 7.92212 3.99608   4
   6   4  -1 7.34216 1.88877   5
  -6  -4   1 2.06416 3.46693   5
   5   4  -1 32.5974 2.95251   5
   5   4  -1 44.5215 7.69776   1
   5   4  -1 40.6808 4.30308   4
   5   4  -1 37.0028 12.2203   1
  -5  -4   1 39.1756 5.23466   5
   4   4  -1 14.3026 2.86212   3
   4   4  -1 22.7246 9.56931   1
   4   4  -1 10.3816 1.94184   4
   4   4  -1 13.2321 1.67976   6
   4   4  -1 13.3139 1.79086   5
  -4  -4   1 11.7634 2.31467   5
  -4  -4   1 11.8825 0.82660   6
   3   4  -1 453.986 12.8004   5
   3   4  -1 460.119 21.6458   1
   3   4  -1 442.504 17.9459   1
   3   4  -1 452.247 13.1046   4
   3   4  -1 458.870 12.4630   6
  -3  -4   1 462.725 11.6876   6
  -3  -4   1 477.132 13.4774   5
   2   4  -1 644.511 17.0308   5
   2   4  -1 639.618 16.9273   2
   2   4  -1 642.159 16.9339   6
   2   4  -1 635.548 18.1034   4
   2   4  -1 645.232 24.0309   1
   2   4  -1 655.591 21.5819   1
  -2  -4   1 629.794 16.2763   6
  -2  -4   1 653.639 17.7454   5
   1   4  -1 931.617 28.5692   1
   1   4  -1 881.586 22.8693   5
   1   4  -1 874.433 22.6867   2
   1   4  -1 889.953 23.0798   4
   1   4  -1 921.788 27.3168   1
   1   4  -1 900.498 22.9991   6
  -1  -4   1 875.768 22.4760   6
  -1  -4   1 878.737 22.9858   5
   0   4  -1 640.974 16.8217   5
   0   4  -1 648.921 16.9442   4
   0   4  -1 660.184 19.7950   1
   0   4  -1 662.147 17.0831   6
   0   4  -1 658.893 16.5198   2
   0  -4   1 646.533 16.6648   6
   0  -4   1 635.275 20.9286   1
   0  -4   1 654.674 16.8337   5
  -1   4  -1 2559.55 66.6531   6
  -1   4  -1 2748.07 68.2028   1
  -1   4  -1 2582.43 65.7090   4
   1  -4   1 2677.62 65.9697   5
   1  -4   1 2735.09 69.0972   1
  -2   4  -1 60.8287 2.17908   4
  -2   4  -1 63.8388 2.66371   6
   2  -4   1 62.7233 1.96550   2
   2  -4   1 60.0173 2.27106   6
   2  -4   1 66.7856 4.45568   1
  -3   4  -1 1488.56 37.3124   6
  -3   4  -1 1459.21 37.7181   3
  -3   4  -1 1444.65 38.3647   1
  -3   4  -1 1492.31 36.3653   4
   3  -4   1 1492.17 38.8075   1
   3  -4   1 1471.98 36.8896   6
   3  -4   1 1486.84 36.6554   2
  -4   4  -1 51.0919 2.64290   6
  -4   4  -1 52.3795 2.96388   3
  -4   4  -1 50.9197 4.58485   1
   4  -4   1 54.3907 2.94072   3
   4  -4   1 50.4977 3.38866   1
   4  -4   1 50.2804 1.97799   6
  -5   4  -1 811.886 24.4686   1
  -5   4  -1 817.900 21.0221   6
  -5   4  -1 804.359 22.2840   3
   5  -4   1 777.919 22.1196   1
   5  -4   1 774.494 20.2140   6
   5  -4   1 809.494 21.8684   3
  -6   4  -1 0.17110 1.50565   3
  -6   4  -1 1.45501 1.34999   6
  -6   4  -1 4.67720 5.06149   1
   6  -4   1 3.22673 1.89621   1
   6  -4   1 -2.2634 1.43574   3
   6  -4   1 0.23561 0.41380   6
  -7   4  -1 220.479 9.16678   3
  -7   4  -1 217.050 14.7109   1
   7  -4   1 233.462 9.20874   3
   7  -4   1 236.174 8.85812   1
   7  -4   1 234.039 8.58639   5
   7  -4   1 221.161 6.09916   6
  -8   4  -1 34.4482 4.57272   3
  -8   4  -1 52.3785 9.71294   1
   8  -4   1 49.0857 7.90425   3
   8  -4   1 53.7820 5.24851   1
   8  -4   1 42.9656 2.14784   4
   8  -4   1 45.4940 4.31882   5
   8  -4   1 41.4632 1.63233   6
  -9   4  -1 484.553 16.8199   3
   9  -4   1 465.770 15.4814   5
   9  -4   1 419.550 19.6605   1
   9  -4   1 500.370 12.4963   4
   9  -4   1 461.977 12.3227   4
  10  -4   1 19.0393 3.97698   5
  11  -4   1 237.677 12.1131   5
   9   3  -1 88.8559 7.15627   5
   9   3  -1 71.8583 6.87192   2
   8   3  -1 8.92877 2.75299   5
   7   3  -1 0.81053 1.67108   5
   7   3  -1 0.40322 3.61034   4
   7   3  -1 -0.8682 4.70392   3
   6   3  -1 422.884 22.7218   1
   6   3  -1 439.167 19.1768   1
   6   3  -1 438.305 13.4817   4
   6   3  -1 428.265 15.2695   3
   6   3  -1 423.965 13.0902   5
  -6  -3   1 424.892 14.4795   5
   5   3  -1 88.6775 11.4573   1
   5   3  -1 123.082 8.04351   3
   5   3  -1 118.359 4.84837   5
   5   3  -1 101.780 9.32373   1
   5   3  -1 114.306 5.10955   4
  -5  -3   1 107.976 6.02854   5
   4   3  -1 869.962 21.6142   6
   4   3  -1 837.659 22.5855   5
   4   3  -1 805.488 24.6569   3
   4   3  -1 823.915 30.1219   1
   4   3  -1 862.614 22.5970   4
   4   3  -1 878.618 27.7062   1
  -4  -3   1 869.428 23.1915   5
   3   3  -1 392.717 10.2401   6
   3   3  -1 379.888 14.5958   1
   3   3  -1 372.824 17.1590   1
   3   3  -1 382.206 10.7906   5
  -3  -3   1 388.925 11.2574   5
  -3  -3   1 378.223 9.68809   6
   2   3  -1 174.940 5.43315   5
   2   3  -1 180.297 5.21406   6
   2   3  -1 187.218 10.5228   1
  -2  -3   1 178.318 5.74628   5
  -2  -3   1 180.591 4.79170   6
   1   3  -1 29.2163 3.22081   1
   1   3  -1 28.3006 1.34363   2
   1   3  -1 32.2539 4.52947   1
   1   3  -1 29.7370 1.42763   5
   1   3  -1 29.0454 1.45140   6
  -1  -3   1 29.2927 1.59535   5
  -1  -3   1 30.9138 1.18392   6
   0   3  -1 93.8323 3.04423   6
   0   3  -1 98.9306 4.72350   1
   0   3  -1 95.5103 2.79184   2
   0  -3   1 94.5003 2.84004   6
   0  -3   1 96.7333 2.99964   5
   0  -3   1 92.3146 2.83985   2
  -1   3  -1 16.8443 1.09933   6
  -1   3  -1 17.5633 0.78142   2
  -1   3  -1 17.0971 0.87121   4
  -1   3  -1 17.5275 1.86108   1
   1  -3   1 17.5227 0.88932   6
   1  -3   1 19.2929 2.58856   1
   1  -3   1 17.7642 0.78723   2
  -2   3  -1 260.926 7.00389   6
  -2   3  -1 256.366 7.23809   3
  -2   3  -1 258.962 6.49347   4
   2  -3   1 258.833 6.65882   2
   2  -3   1 222.543 8.62422   1
   2  -3   1 257.824 6.77647   6
  -3   3  -1 34.5985 3.30254   1
  -3   3  -1 39.7601 2.24215   3
  -3   3  -1 36.3079 1.78196   6
   3  -3   1 37.9208 2.16471   3
   3  -3   1 36.7260 1.43724   6
   3  -3   1 39.3046 2.51253   1
  -4   3  -1 622.154 15.9355   6
  -4   3  -1 596.764 18.8436   1
  -4   3  -1 601.836 17.0565   3
   4  -3   1 634.774 16.8414   3
   4  -3   1 595.212 15.4007   6
   4  -3   1 603.460 17.1275   1
  -5   3  -1 35.2688 5.44714   1
  -5   3  -1 44.8862 3.21913   3
  -5   3  -1 45.1874 2.36423   6
   5  -3   1 41.4551 1.48965   6
   5  -3   1 41.9202 3.23407   3
   5  -3   1 43.4705 1.57927   4
   5  -3   1 42.2058 3.52775   1
  -6   3  -1 167.716 7.04867   3
  -6   3  -1 175.750 11.8964   1
  -6   3  -1 173.260 5.48861   6
   6  -3   1 167.420 4.58116   6
   6  -3   1 168.218 7.24091   3
   6  -3   1 176.912 6.58810   5
   6  -3   1 172.335 4.96689   4
   6  -3   1 174.093 7.65363   1
  -7   3  -1 72.9853 10.0427   1
  -7   3  -1 71.9845 4.97679   3
   7  -3   1 80.0868 5.96981   3
   7  -3   1 76.7982 3.12848   4
   7  -3   1 73.0655 5.98311   1
   7  -3   1 75.3885 4.56213   5
  -8   3  -1 173.995 8.30265   3
  -8   3  -1 174.683 17.1364   1
   8  -3   1 174.177 13.7888   3
   8  -3   1 167.145 5.72935   4
   8  -3   1 177.810 7.62313   5
   8  -3   1 156.460 9.29238   1
   9  -3   1 57.4385 4.41079   4
   9  -3   1 55.7061 5.54907   5
  10  -3   1 6.09757 3.06949   5
   9   2  -1 6.29840 2.87474   5
   8   2  -1 67.0634 7.05489   4
   8   2  -1 63.7664 5.05860   5
   7   2  -1 283.103 9.99983   4
   7   2  -1 271.790 19.3426   1
   6   2  -1 165.420 14.2426   1
   6   2  -1 192.570 11.6886   1
   6   2  -1 187.833 8.85657   3
   6   2  -1 192.924 6.98654   4
   6   2  -1 177.033 6.85332   5
  -6  -2   1 186.913 8.17893   5
   5   2  -1 3.77595 3.85143   1
   5   2  -1 3.67196 1.37106   4
   5   2  -1 4.10597 1.99442   3
   5   2  -1 6.61121 5.10294   1
   5   2  -1 3.06053 1.13924   5
  -5  -2   1 4.20322 2.12808   5
   4   2  -1 311.053 9.47055   5
   4   2  -1 315.500 14.5294   1
   4   2  -1 319.704 10.4446   3
   4   2  -1 325.514 8.33567   6
  -4  -2   1 335.781 10.0164   5
   3   2  -1 0.70862 0.53293   5
   3   2  -1 1.74966 2.28765   1
   3   2  -1 1.05138 0.45196   6
  -3  -2   1 4.58671 1.05922   5
   2   2  -1 321.622 11.0877   1
   2   2  -1 332.918 8.17588   6
   2   2  -1 314.340 8.62373   5
   2   2  -1 334.720 12.3039   1
  -2  -2   1 279.322 8.02793   6
   1   2  -1 535.770 13.7652   5
   1   2  -1 527.540 13.7341   2
   1   2  -1 577.611 15.9569   1
   1   2  -1 528.562 13.5388   6
  -1  -2   1 527.423 13.8173   5
   0   2  -1 0.38449 0.17301   5
   0   2  -1 0.04399 0.18003   6
   0   2  -1 0.53803 0.20181   2
   0   2  -1 1.57481 0.75567   1
   0  -2   1 0.23125 0.21079   5
   0  -2   1 0.12955 0.21256   2
   0  -2   1 1.76278 1.12451   1
  -1   2  -1 1674.83 41.8924   1
   1  -2   1 1635.01 41.8267   1
  -2   2  -1 167.022 5.24983   3
  -2   2  -1 183.088 4.75106   6
   2  -2   1 176.898 5.70166   1
   2  -2   1 177.906 5.18045   3
   2  -2   1 160.757 4.70415   6
  -3   2  -1 901.118 25.5566   1
  -3   2  -1 890.308 22.7943   6
  -3   2  -1 945.470 23.9828   3
   3  -2   1 855.152 22.5539   6
   3  -2   1 921.155 23.6862   3
   3  -2   1 927.399 22.4778   4
   3  -2   1 934.347 24.4975   1
  -4   2  -1 98.1098 3.07089   6
  -4   2  -1 92.2040 4.18377   3
  -4   2  -1 84.8735 6.94401   1
   4  -2   1 97.6213 4.33273   3
   4  -2   1 95.4038 2.65487   6
   4  -2   1 93.8930 4.99903   1
   4  -2   1 99.5059 2.90182   4
  -5   2  -1 3.88242 4.92407   1
  -5   2  -1 9.94586 1.73798   3
  -5   2  -1 9.30770 1.25711   6
   5  -2   1 10.6181 2.94081   1
   5  -2   1 8.14594 1.72589   3
   5  -2   1 8.72054 1.49981   5
   5  -2   1 8.87767 0.96372   4
  -6   2  -1 29.1229 7.30181   1
  -6   2  -1 18.4892 2.68653   3
   6  -2   1 16.1175 2.04198   5
   6  -2   1 12.5605 2.80844   3
   6  -2   1 15.3816 1.79384   4
   6  -2   1 13.8185 3.65282   1
  -7   2  -1 177.520 14.9781   1
  -7   2  -1 151.994 7.28129   3
   7  -2   1 154.524 5.44874   4
   7  -2   1 147.408 6.57827   5
   7  -2   1 149.581 7.99165   3
   7  -2   1 157.999 9.76389   1
  -8   2  -1 97.2744 13.0552   1
   8  -2   1 108.472 4.93736   4
   8  -2   1 80.8368 9.43849   1
   8  -2   1 91.7896 8.35190   3
   9  -2   1 18.4929 3.20367   4
   9  -2   1 16.0209 3.41726   5
  10  -2   1 0.10363 3.28646   5
  10   1  -1 50.6155 5.52378   5
   9   1  -1 210.410 9.20953   5
   9   1  -1 217.664 10.9462   4
   8   1  -1 378.901 12.7644   5
   8   1  -1 370.773 12.5249   4
   8   1  -1 400.788 17.6269   3
   7   1  -1 660.609 17.9052   4
   7   1  -1 649.108 20.3787   3
   7   1  -1 606.794 25.1193   1
   7   1  -1 614.365 22.7448   1
   7   1  -1 635.013 18.4122   5
   6   1  -1 408.315 13.6400   3
   6   1  -1 391.578 17.6907   1
   6   1  -1 386.208 11.9932   5
   5   1  -1 238.579 8.80819   3
   5   1  -1 231.708 7.71847   5
   5   1  -1 233.879 12.4559   1
  -5  -1   1 250.124 8.28996   5
   4   1  -1 873.535 26.8045   1
   4   1  -1 850.231 22.6264   5
  -4  -1   1 863.894 22.8857   5
   3   1  -1 8.23506 0.44475   6
   3   1  -1 8.26398 2.41235   1
   3   1  -1 7.85870 1.36942   3
   3   1  -1 8.39128 1.06052   5
  -3  -1   1 7.92909 1.10689   5
   2   1  -1 1211.08 31.1570   5
   2   1  -1 1268.07 32.9550   1
   2   1  -1 1259.55 33.4202   1
  -2  -1   1 1243.20 31.2947   5
   1   1  -1 593.388 14.6533   5
   1   1  -1 628.129 15.7832   1
   1   1  -1 506.249 14.7878   2
  -1  -1   1 606.737 14.7056   5
   0   1  -1 3700.66 91.2259   1
  -1   1  -1 326.275 8.48973   3
  -1   1  -1 309.225 8.07350   6
  -1   1  -1 320.970 8.08073   4
   1  -1   1 328.306 8.05806   4
   1  -1   1 335.065 8.45705   3
   1  -1   1 309.220 8.06111   6
   1  -1   1 340.979 9.26398   1
  -2   1  -1 1098.39 28.0876   3
   2  -1   1 1122.66 28.0078   3
   2  -1   1 1089.54 27.2708   4
  -3   1  -1 100.360 2.74312   6
  -3   1  -1 98.8045 6.60126   1
  -3   1  -1 95.2429 3.84036   3
   3  -1   1 98.0322 3.88473   3
   3  -1   1 96.3621 5.48928   1
   3  -1   1 101.666 3.02750   4
  -4   1  -1 61.5501 7.33801   1
  -4   1  -1 59.8687 3.25161   3
  -4   1  -1 61.5249 1.88337   6
   4  -1   1 58.2675 5.02198   1
   4  -1   1 59.2790 2.34680   4
   4  -1   1 61.1122 3.45985   3
   4  -1   1 61.5755 2.93405   5
  -5   1  -1 41.6435 3.05880   3
  -5   1  -1 42.9747 6.85262   1
   5  -1   1 39.4385 4.69510   3
   5  -1   1 44.5424 2.37323   4
   5  -1   1 47.9876 6.13677   1
   5  -1   1 46.4543 2.96521   5
  -6   1  -1 110.079 12.3334   1
   6  -1   1 97.2965 4.74399   5
   6  -1   1 103.075 4.14528   4
   6  -1   1 103.464 9.25305   1
   6  -1   1 98.6404 5.97439   3
  -7   1  -1 2.07488 8.61881   1
   7  -1   1 4.16567 1.79796   4
   7  -1   1 0.28749 1.46638   5
   7  -1   1 4.12969 3.03397   3
   7  -1   1 5.57382 6.05259   1
   8  -1   1 2.27841 4.03439   3
   8  -1   1 -2.1450 2.18883   4
   8  -1   1 5.13197 2.25144   5
   9  -1   1 15.4375 3.67956   4
   9  -1   1 8.59189 2.77795   5
  10  -1   1 1.13553 3.44303   5
  10   0  -1 35.2093 4.44172   5
  10   0  -1 54.2396 6.53882   4
   9   0  -1 67.2416 5.49726   5
   9   0  -1 60.9573 6.55651   4
   8   0  -1 49.0036 4.42007   4
   8   0  -1 42.5649 7.90224   1
   8   0  -1 42.4771 5.82711   3
   7   0  -1 -0.6123 2.98652   3
   7   0  -1 2.43923 1.43496   4
   7   0  -1 2.16792 1.45795   5
   7   0  -1 7.73287 5.40840   1
   6   0  -1 121.735 8.95065   1
   6   0  -1 145.470 6.92076   3
   6   0  -1 138.379 5.51642   5
   5   0  -1 49.2218 2.90089   5
   5   0  -1 53.1113 4.07896   3
   5   0  -1 55.0367 5.91138   1
   5   0  -1 55.2876 5.92439   1
  -5   0   1 52.6306 6.33542   1
   4   0  -1 546.667 17.6978   1
   4   0  -1 561.987 15.2865   5
   4   0  -1 573.041 15.9761   3
  -4   0   1 582.176 17.5005   1
   3   0  -1 157.788 6.48063   1
   3   0  -1 164.251 5.05034   5
   3   0  -1 166.407 5.55503   3
  -3   0   1 168.150 5.15211   5
  -3   0   1 159.255 6.33160   1
   2   0  -1 485.073 12.7093   3
   2   0  -1 480.327 13.2213   1
   2   0  -1 474.357 12.8817   1
   2   0  -1 464.030 12.3886   5
  -2   0   1 489.813 12.4002   5
   1   0  -1 793.425 20.1737   1
  -1   0   1 792.734 20.0799   2
  -1   0   1 816.844 20.1991   1
  -1   0   1 844.984 20.0918   5
   0   0  -1 0.69035 0.20697   2
   0   0   1 0.41397 0.18497   4
   0   0   1 0.28731 0.68755   1
  -1   0  -1 1747.57 44.1194   1
  -1   0  -1 1692.21 41.9107   5
   1   0   1 1731.95 43.9802   1
   1   0   1 1609.78 41.9356   3
  -2   0  -1 73.7383 2.84375   3
  -2   0  -1 70.5232 2.76285   5
   2   0   1 70.9669 5.12378   1
   2   0   1 74.6475 2.45553   4
   2   0   1 76.7139 2.89534   3
   2   0   1 73.8755 2.69608   5
  -3   0  -1 296.138 9.03866   3
   3   0   1 299.212 8.34500   4
   3   0   1 313.352 9.21941   3
   3   0   1 318.067 8.89381   5
  -4   0  -1 439.395 17.7162   1
  -4   0  -1 462.674 13.4895   3
   4   0   1 480.902 13.6857   3
   4   0   1 458.552 13.1286   5
   4   0   1 464.505 12.4950   4
   4   0   1 475.796 17.2784   1
  -5   0  -1 164.011 12.6803   1
   5   0   1 148.267 9.91738   1
   5   0   1 140.275 6.39585   3
   5   0   1 133.681 5.44139   5
   5   0   1 144.661 5.43975   4
  -6   0  -1 229.485 16.2677   1
   6   0   1 257.954 14.9692   1
   6   0   1 255.077 9.95968   3
   6   0   1 265.963 8.26887   4
   6   0   1 252.290 8.80141   5
  -7   0  -1 39.9357 11.4455   1
   7   0   1 52.5371 5.11366   5
   7   0   1 46.1444 6.43516   3
   7   0   1 56.2043 9.48430   1
   7   0   1 46.2989 4.29533   4
   8   0   1 101.718 6.11919   5
   8   0   1 98.6602 6.51592   4
   8   0   1 122.042 10.0735   3
   9   0   1 14.2667 3.09631   5
   9   0   1 12.5327 4.54269   4
  10   0   1 38.9821 5.08069   5
  10  -1  -1 13.7763 4.34412   4
  10  -1  -1 13.8082 3.52048   5
   9  -1  -1 138.772 7.07757   5
   9  -1  -1 129.889 6.60117   4
   8  -1  -1 43.8894 3.64119   4
   8  -1  -1 44.6875 4.22092   5
   8  -1  -1 33.1084 5.41673   1
   8  -1  -1 31.7780 6.84010   3
   8  -1  -1 37.2242 5.96749   1
   7  -1  -1 187.753 7.08887   5
   7  -1  -1 185.456 8.75995   3
   7  -1  -1 169.208 9.85018   1
   6  -1  -1 34.5173 2.69188   5
   6  -1  -1 30.0015 3.95091   3
   6  -1  -1 37.9487 5.20839   1
  -6   1   1 30.9007 4.95360   1
   5  -1  -1 1096.46 30.2395   1
   5  -1  -1 1058.37 27.2985   6
   5  -1  -1 1111.77 29.5751   3
   5  -1  -1 1117.70 28.7818   5
  -5   1   1 1129.94 30.5355   1
   4  -1  -1 65.1173 3.50124   3
   4  -1  -1 66.5973 2.22691   6
   4  -1  -1 63.6295 2.81872   5
   4  -1  -1 67.9027 3.68500   1
  -4   1   1 66.7253 4.18951   1
   3  -1  -1 2505.48 62.8739   3
   3  -1  -1 2520.86 62.4139   5
   3  -1  -1 2518.71 62.4388   1
  -3   1   1 2542.34 62.5852   1
  -3   1   1 2499.46 62.7935   3
   2  -1  -1 94.9296 2.97412   6
   2  -1  -1 90.7045 3.18901   3
  -2   1   1 105.039 3.29629   3
   1  -1  -1 472.110 12.1289   4
   1  -1  -1 481.140 12.0680   3
   1  -1  -1 493.539 12.9520   1
  -1   1   1 484.397 13.0364   1
  -1   1   1 476.399 12.1033   4
  -1   1   1 465.702 11.8174   2
  -1   1   1 485.552 12.0754   3
   0  -1  -1 2640.95 64.2715   1
   0   1   1 2412.40 64.2195   1
  -1  -1  -1 5486.51 138.098   1
   1   1   1 5522.69 138.391   1
  -2  -1  -1 85.3938 3.32539   5
  -2  -1  -1 86.8213 5.93809   1
  -2  -1  -1 94.5241 2.64918   6
   2   1   1 82.5465 7.07593   1
   2   1   1 87.3206 3.10436   4
   2   1   1 86.1097 3.36387   3
   2   1   1 89.1876 3.17817   5
  -3  -1  -1 1767.54 44.4494   5
  -3  -1  -1 1667.39 42.9417   6
  -3  -1  -1 1751.07 49.3010   1
   3   1   1 1906.82 50.1169   1
   3   1   1 1721.58 43.9801   4
   3   1   1 1686.65 44.2105   5
   3   1   1 1772.77 44.6495   3
  -4  -1  -1 63.9065 3.76368   5
   4   1   1 56.9448 3.03483   5
   4   1   1 59.8293 3.10053   4
   4   1   1 61.4213 7.88067   1
   4   1   1 59.6078 3.81701   3
  -5  -1  -1 227.556 15.0350   1
   5   1   1 256.103 9.38003   3
   5   1   1 235.253 8.13305   5
   5   1   1 250.974 7.97813   4
   5   1   1 245.292 15.6380   1
  -6  -1  -1 68.2329 11.7006   1
   6   1   1 68.2171 4.11645   5
   6   1   1 68.8755 4.31616   4
   6   1   1 58.6466 9.46157   1
   6   1   1 59.8380 5.80306   3
   7   1   1 167.207 7.56656   4
   7   1   1 166.763 9.75536   3
   7   1   1 167.557 7.55155   5
   8   1   1 120.384 8.14926   4
   8   1   1 134.221 6.95430   5
   9   1   1 113.379 11.5157   4
   9   1   1 93.6419 7.01201   5
  11  -2  -1 1.04092 4.13125   5
  10  -2  -1 43.6689 4.88882   5
  10  -2  -1 49.6414 4.59052   4
   9  -2  -1 19.0621 4.08033   1
   9  -2  -1 17.5457 3.05412   5
   9  -2  -1 16.9967 2.66932   4
   8  -2  -1 66.1904 9.34313   1
   8  -2  -1 85.6016 3.93374   4
   8  -2  -1 88.3163 5.08975   5
   8  -2  -1 90.2209 7.57065   3
   7  -2  -1 15.7870 2.83488   1
   7  -2  -1 15.2705 2.10473   5
   7  -2  -1 21.7201 3.76166   3
  -7   2   1 31.8476 4.93665   1
   6  -2  -1 238.716 8.01203   1
   6  -2  -1 235.342 7.83402   5
   6  -2  -1 235.831 6.36166   6
   6  -2  -1 233.417 8.86362   3
  -6   2   1 235.745 9.66232   1
   5  -2  -1 220.735 6.77114   1
   5  -2  -1 222.765 6.18645   6
   5  -2  -1 221.072 7.83263   3
   5  -2  -1 224.197 7.07224   5
  -5   2   1 216.432 7.62198   3
  -5   2   1 218.229 8.18030   1
   4  -2  -1 78.5005 3.68684   3
   4  -2  -1 82.1625 2.68127   1
   4  -2  -1 78.9087 2.77507   6
  -4   2   1 77.8396 3.51465   3
  -4   2   1 75.5568 3.78998   1
   3  -2  -1 12.1863 0.90792   4
   3  -2  -1 12.3602 0.99165   1
   3  -2  -1 11.3557 1.38114   3
   3  -2  -1 12.0887 1.02209   6
  -3   2   1 10.5716 1.18458   3
  -3   2   1 10.9399 1.22096   1
   2  -2  -1 962.666 24.8778   4
   2  -2  -1 1010.53 25.1183   3
   2  -2  -1 992.313 25.2377   6
  -2   2   1 989.827 25.4510   1
  -2   2   1 1047.11 25.3195   6
  -2   2   1 974.159 24.8008   4
  -2   2   1 996.483 25.9216   1
   1  -2  -1 203.883 7.15611   1
   1  -2  -1 193.140 5.74492   6
   1  -2  -1 198.796 5.65880   4
   1  -2  -1 205.026 5.30417   5
  -1   2   1 203.702 5.62980   4
  -1   2   1 188.203 7.38738   1
  -1   2   1 202.252 5.27831   3
  -1   2   1 215.497 5.90356   6
   0  -2  -1 9648.00 243.443   1
   0   2   1 9999.99 243.938   1
  -1  -2  -1 1291.28 32.9483   5
  -1  -2  -1 1476.13 37.2776   1
  -1  -2  -1 1240.28 32.7079   6
   1   2   1 1234.86 32.7668   5
   1   2   1 1302.48 33.0814   4
   1   2   1 1335.33 37.5721   1
  -2  -2  -1 63.7650 5.69738   1
  -2  -2  -1 45.8524 2.53067   5
  -2  -2  -1 45.8228 1.80367   6
   2   2   1 46.5012 2.17170   5
   2   2   1 53.1123 7.55472   1
   2   2   1 48.4564 2.43587   4
   2   2   1 45.0944 2.47493   3
  -3  -2  -1 50.2961 1.91721   6
  -3  -2  -1 60.7372 6.98436   1
  -3  -2  -1 59.3256 3.34924   5
   3   2   1 56.1806 2.77840   5
   3   2   1 59.7533 3.40613   3
   3   2   1 57.4062 3.00114   4
   3   2   1 46.6209 7.93754   1
  -4  -2  -1 14.5358 2.24756   5
  -4  -2  -1 7.57213 5.20885   1
   4   2   1 9.47134 1.76005   4
   4   2   1 8.19862 1.95220   3
   4   2   1 11.6308 7.65796   1
   4   2   1 8.32092 1.43653   5
  -5  -2  -1 160.226 7.15360   5
   5   2   1 160.946 16.4282   1
   5   2   1 161.709 6.45534   4
   5   2   1 168.479 7.59086   3
   5   2   1 154.378 6.20365   5
  -6  -2  -1 61.2162 12.2498   1
   6   2   1 69.0587 5.31856   4
   6   2   1 79.0348 15.8426   1
   6   2   1 67.2172 4.23779   5
   6   2   1 73.6497 6.52058   3
   7   2   1 19.3784 3.87155   4
   7   2   1 13.9344 2.38503   5
   7   2   1 16.4377 4.85436   3
   8   2   1 118.133 6.86815   5
   8   2   1 127.186 9.48713   4
   9   2   1 -0.1580 3.39045   5
  11  -3  -1 72.0504 7.68335   5
  10  -3  -1 11.3336 3.16479   5
   9  -3  -1 26.0094 5.96458   1
   9  -3  -1 10.2656 5.26041   3
   9  -3  -1 17.6155 3.21556   5
   9  -3  -1 18.2093 2.24837   4
   9  -3  -1 20.2419 2.87071   1
   8  -3  -1 1.36055 0.49547   6
   8  -3  -1 2.12027 1.78141   1
   8  -3  -1 0.19243 3.04384   3
   8  -3  -1 0.25235 1.82268   5
   7  -3  -1 360.145 12.3364   3
   7  -3  -1 361.307 11.0769   1
   7  -3  -1 346.024 9.31678   6
   7  -3  -1 352.398 11.2345   5
  -7   3   1 337.856 11.8584   3
   6  -3  -1 66.1762 2.99918   1
   6  -3  -1 66.8278 2.56692   6
   6  -3  -1 66.8108 4.60455   3
   6  -3  -1 66.4580 2.39371   4
   6  -3  -1 65.7023 3.49794   5
  -6   3   1 68.2487 4.29419   3
  -6   3   1 63.4224 5.04454   1
   5  -3  -1 288.529 7.86163   4
   5  -3  -1 300.154 8.37065   1
   5  -3  -1 299.839 9.52763   3
   5  -3  -1 296.888 8.29206   6
  -5   3   1 293.978 9.50742   3
  -5   3   1 287.274 9.53097   1
   4  -3  -1 751.300 19.8163   3
   4  -3  -1 735.705 18.6891   4
   4  -3  -1 735.959 19.1774   6
   4  -3  -1 744.738 19.4473   1
  -4   3   1 724.253 19.8413   3
  -4   3   1 735.077 19.4110   1
   3  -3  -1 2429.45 61.5136   1
   3  -3  -1 2384.46 60.5550   6
   3  -3  -1 2464.92 60.6185   3
   3  -3  -1 2348.94 60.0871   4
  -3   3   1 2547.97 61.5488   1
  -3   3   1 2404.78 60.7731   3
  -3   3   1 2452.77 60.7475   6
   2  -3  -1 49.5543 2.17610   6
   2  -3  -1 49.3110 1.93046   4
  -2   3   1 45.3460 4.13590   1
  -2   3   1 49.4594 3.47849   1
  -2   3   1 47.6447 2.39818   6
  -2   3   1 49.3918 1.98368   4
  -2   3   1 47.7482 2.00848   3
   1  -3  -1 432.175 11.1960   5
   1  -3  -1 444.282 11.5821   4
   1  -3  -1 433.868 11.7008   6
  -1   3   1 423.095 11.5917   4
  -1   3   1 446.650 11.9223   6
  -1   3   1 425.330 14.7166   1
   0  -3  -1 521.812 14.0834   4
   0  -3  -1 533.675 13.8580   5
   0  -3  -1 540.535 17.6615   1
   0  -3  -1 542.934 14.1583   6
   0   3   1 544.719 14.3286   6
   0   3   1 511.977 13.7509   5
   0   3   1 550.362 18.8662   1
   0   3   1 534.432 14.2693   4
  -1  -3  -1 160.567 8.85957   1
  -1  -3  -1 162.020 5.19420   5
  -1  -3  -1 160.239 4.93391   6
   1   3   1 156.101 4.93129   5
   1   3   1 181.937 10.8233   1
   1   3   1 163.689 5.69520   4
  -2  -3  -1 20.1065 4.56735   1
  -2  -3  -1 20.3706 2.24000   5
  -2  -3  -1 21.1665 1.23196   6
   2   3   1 20.7739 2.14585   4
   2   3   1 18.9838 1.51105   5
   2   3   1 23.1881 6.73952   1
   2   3   1 20.1655 2.12864   3
  -3  -3  -1 261.750 7.03405   6
  -3  -3  -1 267.698 8.70762   5
  -3  -3  -1 278.505 13.9483   1
   3   3   1 261.542 8.06853   5
   3   3   1 256.354 8.69275   3
   3   3   1 249.719 16.8528   1
  -4  -3  -1 0.11397 5.52886   1
  -4  -3  -1 0.24442 0.34073   6
  -4  -3  -1 -2.4829 2.70186   5
   4   3   1 -0.3664 9.43306   1
   4   3   1 0.61120 1.63825   4
   4   3   1 1.66645 0.93465   5
  -5  -3  -1 179.905 8.26284   5
  -5  -3  -1 172.476 14.2867   1
   5   3   1 176.713 8.19276   3
   5   3   1 147.166 20.8363   1
   5   3   1 178.643 7.54384   4
   5   3   1 175.083 6.66790   5
  -6  -3  -1 4.33097 3.66012   5
   6   3   1 7.22967 3.07694   4
   6   3   1 9.89573 3.87904   3
   6   3   1 8.04318 2.06924   5
   7   3   1 103.865 6.05887   5
   7   3   1 119.348 8.70023   4
   7   3   1 126.170 11.1324   3
   8   3   1 12.1413 3.22009   5
  11  -4  -1 18.6031 4.21573   5
  10  -4  -1 56.0387 3.10373   4
  10  -4  -1 47.7018 4.11630   4
  10  -4  -1 46.0081 5.80400   5
   9  -4  -1 -1.6939 1.33266   4
   9  -4  -1 -0.1466 0.61258   6
   9  -4  -1 -0.4217 2.42339   5
   9  -4  -1 -0.4347 3.83482   3
   9  -4  -1 0.94419 1.13520   4
   8  -4  -1 298.194 8.60109   1
   8  -4  -1 286.297 11.6105   3
   8  -4  -1 292.941 8.02415   6
   8  -4  -1 296.833 8.20099   4
   8  -4  -1 291.808 10.2173   5
  -8   4   1 288.637 11.0644   3
   7  -4  -1 87.1967 3.07204   4
   7  -4  -1 89.3474 5.73094   3
   7  -4  -1 88.2717 3.24824   6
  -7   4   1 84.4109 5.73824   1
  -7   4   1 83.1330 4.94382   3
   6  -4  -1 55.3799 4.16306   3
   6  -4  -1 57.0611 2.58785   6
   6  -4  -1 53.3276 2.16137   4
   6  -4  -1 59.9569 3.29442   1
  -6   4   1 52.0599 3.68087   3
   5  -4  -1 130.169 5.27184   3
   5  -4  -1 129.015 3.95926   4
   5  -4  -1 125.128 4.44734   6
   5  -4  -1 134.460 5.27672   1
  -5   4   1 128.768 5.24918   3
  -5   4   1 126.581 5.62625   1
   4  -4  -1 440.756 11.5515   4
   4  -4  -1 439.112 12.2886   3
   4  -4  -1 433.426 12.1035   6
  -4   4   1 453.293 12.5817   6
  -4   4   1 443.430 12.5744   3
  -4   4   1 444.201 11.3317   4
  -4   4   1 416.140 12.3265   1
   3  -4  -1 829.603 21.1013   4
   3  -4  -1 822.534 21.6349   6
  -3   4   1 835.674 21.9573   6
  -3   4   1 833.618 21.0903   4
  -3   4   1 827.596 21.5978   3
  -3   4   1 811.790 22.6245   1
   2  -4  -1 487.805 13.2969   6
   2  -4  -1 491.846 12.9617   4
   2  -4  -1 496.206 12.6838   5
  -2   4   1 479.841 16.6711   1
  -2   4   1 477.174 12.7574   3
  -2   4   1 485.629 13.0248   4
  -2   4   1 487.557 13.5957   6
   1  -4  -1 255.052 6.90276   5
   1  -4  -1 248.706 7.16042   4
   1  -4  -1 238.790 7.32408   6
  -1   4   1 243.096 11.6346   1
  -1   4   1 236.828 10.0980   1
  -1   4   1 244.008 6.82640   5
  -1   4   1 248.093 7.68179   6
  -1   4   1 252.672 6.40724   2
  -1   4   1 247.295 7.37925   4
   0  -4  -1 548.815 15.2703   4
   0  -4  -1 575.962 15.1141   5
   0  -4  -1 574.877 15.3172   6
   0   4   1 596.966 15.6920   6
   0   4   1 562.005 21.5390   1
   0   4   1 599.650 15.6664   4
   0   4   1 555.824 14.9586   5
  -1  -4  -1 9.66204 3.92006   1
  -1  -4  -1 10.6076 1.21201   6
  -1  -4  -1 11.5909 1.46841   5
   1   4   1 9.68238 1.52392   6
   1   4   1 9.94368 1.14742   5
   1   4   1 5.81139 6.27806   1
   1   4   1 8.50182 1.36801   4
  -2  -4  -1 212.173 6.28865   6
   2   4   1 216.278 6.73291   5
   2   4   1 206.827 15.7067   1
   2   4   1 221.160 7.48960   4
   2   4   1 219.404 7.28206   3
  -3  -4  -1 12.6504 2.14062   5
  -3  -4  -1 16.6223 6.18458   1
  -3  -4  -1 10.7678 1.05695   6
   3   4   1 3.59866 9.32485   1
   3   4   1 10.2959 2.07345   3
   3   4   1 9.79442 1.33461   5
   3   4   1 12.8280 2.11884   4
  -4  -4  -1 66.0908 2.14514   6
  -4  -4  -1 63.4334 5.38784   5
   4   4   1 64.5944 4.96014   4
   4   4   1 68.7007 3.70011   5
   4   4   1 60.6117 14.5002   1
   4   4   1 62.7168 5.36496   3
  -5  -4  -1 5.27995 3.85208   5
   5   4   1 0.07380 1.29249   5
   5   4   1 -1.4928 15.1391   1
   5   4   1 -3.1995 3.40758   3
   5   4   1 0.41529 2.80197   4
   6   4   1 76.2973 4.96750   5
   6   4   1 78.1951 7.57222   4
   7   4   1 14.7425 2.87870   5
   8   4   1 9.91459 3.32923   5
  11  -5  -1 116.862 8.66609   5
  10  -5  -1 10.1162 3.16003   5
  10  -5  -1 14.0647 1.47063   6
   9  -5  -1 162.521 9.68674   3
   9  -5  -1 165.045 7.99179   5
   9  -5  -1 157.772 4.89856   4
   9  -5  -1 159.814 4.84026   4
   9  -5  -1 160.229 4.94860   6
  -9   5   1 154.755 8.32034   3
   8  -5  -1 72.7910 2.77887   4
   8  -5  -1 66.5367 4.77500   5
   8  -5  -1 78.4929 6.34875   3
   8  -5  -1 70.8680 3.04939   6
  -8   5   1 70.3245 4.31254   1
  -8   5   1 69.8646 5.17472   3
   7  -5  -1 160.414 4.84800   4
   7  -5  -1 168.905 5.45868   6
   7  -5  -1 170.102 7.42207   3
  -7   5   1 153.631 8.37452   1
  -7   5   1 158.914 7.19690   3
   6  -5  -1 1.31849 0.67975   4
   6  -5  -1 0.38333 2.04634   1
   6  -5  -1 0.95646 1.64181   3
   6  -5  -1 1.14806 0.84537   6
  -6   5   1 1.12329 2.79745   1
  -6   5   1 1.49232 1.30092   3
   5  -5  -1 396.319 12.8936   1
   5  -5  -1 376.694 11.2292   3
   5  -5  -1 373.703 10.1625   4
   5  -5  -1 383.328 10.9249   6
  -5   5   1 362.352 11.5203   3
  -5   5   1 376.206 11.5524   1
  -5   5   1 387.615 11.6481   6
   4  -5  -1 0.90085 0.55165   4
   4  -5  -1 1.40826 0.77039   6
  -4   5   1 2.19088 1.85162   1
  -4   5   1 1.14023 0.76225   4
  -4   5   1 1.08293 0.83045   3
  -4   5   1 1.67991 1.41186   6
   3  -5  -1 187.315 6.10967   6
   3  -5  -1 188.214 5.60718   4
  -3   5   1 179.459 8.04738   1
  -3   5   1 187.805 6.65680   6
  -3   5   1 176.978 5.82210   3
  -3   5   1 175.263 9.56756   1
  -3   5   1 185.921 5.77093   4
   2  -5  -1 19.0903 1.52369   4
   2  -5  -1 18.4419 1.51599   5
   2  -5  -1 20.1410 1.69075   6
  -2   5   1 19.8572 5.33137   1
  -2   5   1 20.2330 2.42396   6
  -2   5   1 20.1935 1.95941   4
  -2   5   1 16.8886 1.28958   3
   1  -5  -1 8.50446 1.08959   5
   1  -5  -1 7.75663 1.03281   4
   1  -5  -1 8.02771 1.14677   6
  -1   5   1 9.26497 0.74168   2
  -1   5   1 8.20522 1.43818   4
  -1   5   1 6.98473 7.55626   1
  -1   5   1 9.02365 1.80400   6
  -1   5   1 10.2277 1.07848   5
  -1   5   1 7.40924 3.17215   1
   0  -5  -1 20.0491 1.70131   6
   0  -5  -1 20.0916 2.00545   5
   0   5   1 17.3083 7.38424   1
   0   5   1 20.2015 1.49688   5
   0   5   1 21.9433 2.69266   6
   0   5   1 23.5077 2.44240   4
  -1  -5  -1 28.2640 1.83121   6
   1   5   1 27.3317 2.99262   6
   1   5   1 27.4937 1.87769   5
   1   5   1 31.1652 3.00443   4
   1   5   1 33.6166 9.46578   1
  -2  -5  -1 10.4102 2.16613   5
  -2  -5  -1 14.9807 1.43985   6
   2   5   1 17.2913 1.83572   5
   2   5   1 15.2223 2.35617   4
   2   5   1 16.1832 5.72413   1
   2   5   1 13.7436 10.0372   1
  -3  -5  -1 75.4899 2.80671   6
  -3  -5  -1 76.5595 5.57522   5
   3   5   1 70.4750 5.71255   3
   3   5   1 77.7062 3.78735   5
   3   5   1 79.0220 5.29889   4
   3   5   1 76.4045 10.9431   1
   3   5   1 79.1595 15.2927   1
  -4  -5  -1 17.8666 1.24642   6
  -4  -5  -1 14.9772 3.54005   5
   4   5   1 27.3833 16.4374   1
   4   5   1 12.6741 3.04724   4
   4   5   1 19.4858 2.45003   5
   4   5   1 29.0375 8.53236   1
   4   5   1 16.8714 3.53411   3
  -5  -5  -1 43.9233 1.54666   6
   5   5   1 33.1914 4.65170   4
   5   5   1 48.3241 5.92558   3
   5   5   1 41.5858 3.78258   5
   6   5   1 12.7820 2.60304   5
   6   5   1 10.9348 6.11362   3
   7   5   1 25.8466 3.67253   5
  11  -6  -1 -0.5275 3.71209   5
  10  -6  -1 40.9729 2.36184   6
  10  -6  -1 44.3883 6.76490   5
   9  -6  -1 2.98594 4.07907   3
   9  -6  -1 4.18246 2.60338   5
   9  -6  -1 1.25772 1.02835   6
  -9   6   1 1.00569 2.49020   3
   8  -6  -1 90.8915 3.69550   6
   8  -6  -1 80.2578 6.48777   3
  -8   6   1 78.4288 7.35748   1
  -8   6   1 91.2006 5.94926   3
  -8   6   1 72.1453 7.40393   1
   7  -6  -1 65.1231 3.22377   6
   7  -6  -1 62.0752 2.43046   4
   7  -6  -1 67.2840 4.94954   3
  -7   6   1 57.3856 4.47657   3
  -7   6   1 65.8355 7.39184   1
   6  -6  -1 56.4793 2.34960   4
   6  -6  -1 56.1774 2.45639   2
   6  -6  -1 55.6163 3.94790   3
   6  -6  -1 59.4405 3.05886   6
  -6   6   1 57.4646 3.95415   3
  -6   6   1 58.4780 5.43282   1
   5  -6  -1 87.7232 3.87083   6
   5  -6  -1 93.2114 2.69172   2
   5  -6  -1 97.7041 3.36246   4
  -5   6   1 84.1391 4.28395   3
  -5   6   1 95.3932 3.32356   4
  -5   6   1 104.302 5.37637   6
  -5   6   1 91.0249 5.53198   1
   4  -6  -1 26.1128 2.12855   6
   4  -6  -1 26.4102 1.81204   4
  -4   6   1 30.4899 2.22018   4
  -4   6   1 26.4428 2.28018   3
  -4   6   1 22.6577 3.63475   1
  -4   6   1 32.4007 3.52716   6
  -4   6   1 35.1052 6.12121   1
   3  -6  -1 9.23427 1.16934   4
   3  -6  -1 12.7101 1.62122   5
   3  -6  -1 7.70535 1.31378   6
  -3   6   1 10.0102 1.50350   4
  -3   6   1 10.5429 3.64581   1
  -3   6   1 5.58827 5.41243   1
  -3   6   1 8.42961 1.21752   3
  -3   6   1 9.13307 2.52683   6
   2  -6  -1 16.6607 1.79293   6
   2  -6  -1 16.9533 1.55628   4
   2  -6  -1 18.0672 1.80180   5
  -2   6   1 18.3166 3.90640   1
  -2   6   1 18.6943 2.40234   4
  -2   6   1 17.4982 0.80471   2
  -2   6   1 23.9027 8.14517   1
   1  -6  -1 30.5817 2.13822   6
   1  -6  -1 30.8398 2.32365   5
  -1   6   1 29.9535 1.36675   2
  -1   6   1 31.6192 5.17017   1
  -1   6   1 34.5411 8.32065   1
  -1   6   1 31.1450 2.98686   4
   0  -6  -1 98.0165 3.96127   6
   0  -6  -1 102.566 4.39978   5
   0   6   1 111.636 9.42019   1
   0   6   1 92.6177 3.74703   5
   0   6   1 100.238 4.89234   4
   0   6   1 98.6084 14.1587   1
   0   6   1 97.8059 3.39481   2
  -1  -6  -1 28.2453 2.02555   6
  -1  -6  -1 34.4519 3.46802   5
   1   6   1 28.6933 2.13639   5
   1   6   1 26.2318 3.55361   4
   1   6   1 28.6152 6.68813   1
   1   6   1 21.8436 10.4498   1
  -2  -6  -1 1.88259 2.17688   5
  -2  -6  -1 0.99167 0.79203   6
   2   6   1 -2.5308 2.17610   4
   2   6   1 -17.950 11.6810   1
   2   6   1 1.53592 1.01476   5
   2   6   1 -3.0547 6.48169   1
  -3  -6  -1 4.31560 3.20314   5
  -3  -6  -1 3.15809 0.91894   6
   3   6   1 5.47834 1.56772   5
   3   6   1 6.10801 8.17493   1
   3   6   1 3.17919 16.0196   1
   3   6   1 11.1250 3.03495   3
   3   6   1 8.65681 3.86943   4
  -4  -6  -1 34.4876 5.52312   5
  -4  -6  -1 28.2295 1.67605   6
   4   6   1 30.0894 4.86992   3
   4   6   1 24.3790 2.85978   5
   4   6   1 18.5487 10.5774   1
   4   6   1 31.1880 7.03963   4
   5   6   1 14.6224 2.77544   5
   5   6   1 12.5031 6.61126   3
   6   6   1 1.88215 2.74356   5
  11  -7  -1 93.3181 8.10030   5
  11  -7  -1 84.3032 3.66294   6
  10  -7  -1 31.1391 2.60348   6
  10  -7  -1 38.9492 4.49880   5
 -10   7   1 27.5519 4.44929   3
   9  -7  -1 16.2984 4.26038   3
   9  -7  -1 10.1003 1.62466   6
  -9   7   1 9.15044 2.96124   3
   8  -7  -1 55.2725 3.52455   2
   8  -7  -1 55.5055 3.21578   6
  -8   7   1 54.0368 7.09894   1
   7  -7  -1 56.9639 2.29978   4
   7  -7  -1 55.7436 2.63423   2
   7  -7  -1 56.7656 3.26407   6
  -7   7   1 54.6156 4.46158   3
  -7   7   1 58.9368 7.38755   1
   6  -7  -1 21.8430 1.72857   4
   6  -7  -1 17.8656 2.20169   6
   6  -7  -1 19.7902 1.22794   2
  -6   7   1 24.9981 6.37211   1
  -6   7   1 27.5645 3.86202   6
  -6   7   1 25.1148 3.06782   3
  -6   7   1 22.9000 3.86429   1
   5  -7  -1 123.504 4.28431   4
   5  -7  -1 127.148 5.06263   6
  -5   7   1 131.798 6.70514   6
  -5   7   1 126.431 5.47315   3
  -5   7   1 124.116 7.43645   1
  -5   7   1 125.940 4.63303   4
  -5   7   1 121.041 11.3802   1
   4  -7  -1 17.3584 2.12021   5
   4  -7  -1 16.1926 2.00349   6
   4  -7  -1 17.9693 1.66343   4
  -4   7   1 18.1762 2.93813   6
  -4   7   1 18.2302 2.02560   4
  -4   7   1 7.15361 6.47202   1
  -4   7   1 18.6112 2.19747   3
  -4   7   1 18.4046 4.39390   1
   3  -7  -1 8.58261 1.48646   6
   3  -7  -1 5.99515 1.24602   5
   3  -7  -1 4.48797 0.96396   4
  -3   7   1 6.40949 1.22148   3
  -3   7   1 10.3032 2.69365   6
  -3   7   1 7.62121 1.71253   4
  -3   7   1 3.55017 7.18061   1
   2  -7  -1 157.329 5.44809   5
   2  -7  -1 160.632 5.75885   6
  -2   7   1 149.200 9.70827   1
  -2   7   1 158.667 6.98855   6
  -2   7   1 153.062 6.18069   4
  -2   7   1 143.925 4.36999   2
  -2   7   1 142.625 14.3888   1
   1  -7  -1 16.9040 1.93929   6
   1  -7  -1 21.6111 2.68194   5
  -1   7   1 21.5266 3.02118   6
  -1   7   1 12.4770 4.88121   1
  -1   7   1 20.0330 1.25208   2
  -1   7   1 9.33951 9.46152   1
  -1   7   1 22.4849 2.89012   4
   0  -7  -1 398.953 11.8370   5
   0  -7  -1 373.884 11.2642   6
   0   7   1 371.083 11.1560   5
   0   7   1 381.751 10.5235   2
   0   7   1 393.014 18.0026   1
   0   7   1 395.400 12.5261   4
   0   7   1 376.836 24.6410   1
   0   7   1 397.364 12.7315   6
  -1  -7  -1 46.6844 4.58802   5
  -1  -7  -1 43.2159 2.60150   6
   1   7   1 44.7926 8.72413   1
   1   7   1 42.9141 2.89951   5
   1   7   1 43.7357 4.94366   4
   1   7   1 42.2759 2.56019   2
   1   7   1 32.8406 14.0305   1
  -2  -7  -1 83.0460 3.56201   6
  -2  -7  -1 89.2287 6.84578   5
   2   7   1 94.7532 12.2068   1
   2   7   1 86.0974 3.98829   2
   2   7   1 86.5387 4.32127   5
   2   7   1 90.1121 6.86235   3
   2   7   1 95.4686 7.70203   4
  -3  -7  -1 23.2289 5.22287   5
  -3  -7  -1 21.0217 1.82545   6
   3   7   1 23.2421 4.11980   3
   3   7   1 23.2842 3.01198   5
   3   7   1 27.2901 10.5271   1
   3   7   1 21.4115 2.52319   2
  -4  -7  -1 455.383 11.9148   6
   4   7   1 453.130 13.9079   2
   4   7   1 433.498 16.6154   3
   4   7   1 451.776 14.0433   5
   5   7   1 3.13086 2.65204   2
   5   7   1 14.9744 6.80541   3
   5   7   1 4.89132 2.48026   5
  11  -8  -1 186.743 7.48292   2
  11  -8  -1 174.427 6.22274   6
  11  -8  -1 174.175 10.0619   5
  10  -8  -1 40.6434 3.28203   6
  10  -8  -1 44.7728 5.88500   2
 -10   8   1 59.7207 7.26643   3
   9  -8  -1 149.527 5.78818   6
   9  -8  -1 152.395 5.80560   2
  -9   8   1 152.078 8.53272   3
  -9   8   1 156.161 11.5482   1
   8  -8  -1 9.78035 1.82592   6
   8  -8  -1 7.31479 1.47557   2
  -8   8   1 8.50402 2.93030   3
  -8   8   1 6.46125 6.57255   1
   7  -8  -1 131.264 5.35794   6
  -7   8   1 131.907 9.18979   1
  -7   8   1 125.366 6.75871   3
   6  -8  -1 -0.7323 0.78968   4
   6  -8  -1 -0.6820 1.22726   6
  -6   8   1 1.30917 1.26462   4
  -6   8   1 -2.8197 3.89091   1
  -6   8   1 3.15757 7.64436   1
  -6   8   1 -0.5096 3.07533   6
  -6   8   1 1.39417 1.76076   3
   5  -8  -1 6.55423 1.59612   6
   5  -8  -1 7.74540 1.21452   4
   5  -8  -1 6.30836 1.63117   5
  -5   8   1 7.86839 1.81175   3
  -5   8   1 8.28639 1.83458   4
  -5   8   1 22.4127 9.69033   1
  -5   8   1 12.7112 3.26037   6
  -5   8   1 8.06890 4.44460   1
   4  -8  -1 164.437 5.87164   5
   4  -8  -1 148.213 5.33134   4
  -4   8   1 158.227 6.31358   4
  -4   8   1 157.066 6.03084   3
  -4   8   1 151.266 16.3484   1
  -4   8   1 156.945 10.7696   1
  -4   8   1 162.589 8.03264   6
   3  -8  -1 241.673 7.79347   5
   3  -8  -1 236.175 8.10014   6
  -3   8   1 237.697 9.80799   6
  -3   8   1 241.674 8.59902   4
  -3   8   1 231.740 12.0702   1
  -3   8   1 274.798 18.4122   1
  -3   8   1 236.669 7.62699   3
   2  -8  -1 14.4348 1.95946   6
   2  -8  -1 15.5080 2.21341   5
  -2   8   1 15.2851 2.77572   4
  -2   8   1 13.9812 5.31913   1
  -2   8   1 17.3697 1.04549   2
  -2   8   1 18.3940 3.50213   6
  -2   8   1 22.5565 11.2594   1
   1  -8  -1 373.044 11.5146   6
   1  -8  -1 378.929 12.2364   5
  -1   8   1 391.613 13.3954   6
  -1   8   1 383.681 10.2481   2
  -1   8   1 397.841 26.7262   1
  -1   8   1 387.546 18.1473   1
  -1   8   1 388.886 12.7515   4
   0  -8  -1 -1.7750 1.02916   6
   0  -8  -1 -4.4357 2.35271   5
   0   8   1 3.38759 6.98757   1
   0   8   1 -13.713 13.7885   1
   0   8   1 0.93239 0.92662   2
   0   8   1 -0.3009 1.02078   5
   0   8   1 2.83008 2.93683   4
  -1  -8  -1 58.1632 3.26147   6
   1   8   1 65.7283 10.9246   1
   1   8   1 77.2537 19.8282   1
   1   8   1 56.2427 3.16468   2
   1   8   1 66.6452 7.04970   4
   1   8   1 57.6206 3.61865   5
  -2  -8  -1 136.265 5.01212   6
   2   8   1 117.943 27.3740   1
   2   8   1 136.994 8.12044   3
   2   8   1 129.094 6.93401   2
   2   8   1 142.775 17.9318   1
   2   8   1 145.027 6.10138   5
  -3  -8  -1 44.4270 2.71241   6
   3   8   1 47.7746 4.16544   5
   3   8   1 48.1810 5.86862   3
   3   8   1 35.6659 14.3459   1
   3   8   1 47.8311 4.05212   2
  -4  -8  -1 10.6120 1.51497   6
   4   8   1 18.5091 3.05645   2
   4   8   1 18.9818 3.30241   5
  11  -9  -1 -1.2715 4.29737   5
 -11   9   1 -1.7487 4.78000   3
  10  -9  -1 11.8761 1.91646   2
  10  -9  -1 8.34739 2.05733   6
 -10   9   1 11.8325 4.25951   3
   9  -9  -1 14.3606 1.72563   2
   9  -9  -1 15.2100 2.28155   6
   9  -9  -1 11.6490 1.41199   2
  -9   9   1 12.6238 3.61341   3
   8  -9  -1 1.04572 1.51970   6
  -8   9   1 -1.5635 2.44770   3
  -7   9   1 5.22740 2.59494   3
  -7   9   1 8.03495 7.16082   1
   6  -9  -1 23.7268 2.76470   5
   6  -9  -1 25.1764 2.77434   6
  -6   9   1 26.3631 2.60088   4
  -6   9   1 24.3911 3.57466   3
  -6   9   1 20.1513 5.88874   1
  -6   9   1 34.1676 6.95285   6
   5  -9  -1 83.7008 4.76571   5
   5  -9  -1 86.0148 4.46879   6
  -5   9   1 89.8335 13.0530   1
  -5   9   1 70.4740 12.5686   1
  -5   9   1 78.8149 4.61424   3
  -5   9   1 80.6741 4.98895   4
  -5   9   1 81.6564 8.74654   6
   4  -9  -1 374.861 11.9998   6
   4  -9  -1 396.412 11.7606   5
  -4   9   1 373.427 11.8532   3
  -4   9   1 390.261 18.0913   1
  -4   9   1 411.894 24.8104   1
  -4   9   1 388.756 14.3804   6
  -4   9   1 396.598 12.3773   4
   3  -9  -1 -2.9472 1.84680   5
   3  -9  -1 -0.9063 1.09547   6
  -3   9   1 -2.7092 2.30138   4
  -3   9   1 1.04603 1.30188   3
  -3   9   1 -3.8094 5.09958   1
  -3   9   1 -11.819 13.8264   1
  -3   9   1 2.62829 3.54616   6
   2  -9  -1 49.3172 4.55336   5
   2  -9  -1 52.3602 3.50909   6
  -2   9   1 42.8340 7.70957   1
  -2   9   1 43.5683 15.4886   1
  -2   9   1 45.7560 5.55216   4
  -2   9   1 50.2381 1.89329   2
  -2   9   1 60.9221 7.28898   6
   1  -9  -1 2.75262 2.70406   5
   1  -9  -1 -1.2222 1.20793   6
  -1   9   1 5.31465 7.44834   1
  -1   9   1 0.69024 0.77667   2
  -1   9   1 13.9958 17.3611   1
  -1   9   1 1.73508 3.80602   4
   0  -9  -1 3.34739 3.34837   5
   0  -9  -1 0.74002 1.41105   6
   0   9   1 3.63121 18.9916   1
   0   9   1 0.63055 1.04847   2
   0   9   1 2.53053 3.93700   4
   0   9   1 22.5547 13.8319   1
  -1  -9  -1 0.60418 1.34634   6
   1   9   1 2.31604 1.58927   5
   1   9   1 -26.870 23.5894   1
   1   9   1 1.66121 1.36448   2
  -2  -9  -1 40.4189 3.13595   6
   2   9   1 29.4442 3.95896   5
   2   9   1 43.4049 3.92805   2
  -3  -9  -1 4.45771 1.62817   6
   3   9   1 4.93748 2.48082   2
   3   9   1 -1.0297 2.11498   5
  10 -10  -1 35.3801 3.96850   6
 -10  10   1 35.3057 5.50345   3
   9 -10  -1 61.2844 4.25475   6
  -9  10   1 55.7768 7.51292   3
   8 -10  -1 8.48952 2.12633   6
   7 -10  -1 134.315 7.03663   5
   7 -10  -1 136.081 5.99952   6
  -7  10   1 130.362 5.37254   4
  -7  10   1 133.196 7.41214   3
   6 -10  -1 1.63059 1.73068   6
   6 -10  -1 2.54061 2.84783   5
  -6  10   1 1.63986 2.08854   3
  -6  10   1 2.79682 2.74148   4
   5 -10  -1 95.0092 4.98562   6
   5 -10  -1 105.087 6.77570   5
  -5  10   1 99.2343 6.24632   4
  -5  10   1 93.7117 5.43157   3
   4 -10  -1 31.7293 3.63876   5
   4 -10  -1 29.1331 3.22624   6
  -4  10   1 29.9820 6.36842   6
  -4  10   1 31.8257 3.58036   3
  -4  10   1 27.9764 4.09553   4
   3 -10  -1 93.8034 8.11478   5
   3 -10  -1 95.5427 4.90079   6
  -3  10   1 89.8304 4.60805   3
  -3  10   1 105.824 9.20180   6
  -3  10   1 97.2374 7.36879   4
   2 -10  -1 -1.7422 2.81253   5
   2 -10  -1 3.22989 1.68253   6
  -2  10   1 -16.838 18.1102   1
  -2  10   1 0.48512 0.67601   2
  -2  10   1 4.21921 4.14650   4
  -2  10   1 1.11114 1.51666   3
   1 -10  -1 162.659 6.54007   6
  -1  10   1 160.909 26.4327   1
  -1  10   1 175.138 5.30948   2
   0 -10  -1 2.55044 1.67497   6
   0  10   1 3.31389 1.39217   2
   0  10   1 8.92148 24.8331   1
  -1 -10  -1 57.8977 3.82997   6
   1  10   1 57.0603 3.89559   2
   1  10   1 53.3508 4.80702   5
  -2 -10  -1 4.01447 1.82164   6
   2  10   1 4.64549 2.47853   5
   2  10   1 2.89253 2.50832   2
   9 -11  -1 13.3658 2.52327   6
  -9  11   1 9.89035 4.84557   3
   8 -11  -1 23.6597 2.89554   6
  -8  11   1 39.4573 4.94471   3
   7 -11  -1 27.1305 3.31259   6
  -7  11   1 31.0978 4.43059   3
  -7  11   1 40.6099 3.69119   4
   6 -11  -1 3.54296 1.85205   6
  -6  11   1 5.91344 2.78601   3
  -6  11   1 3.50969 3.49006   4
   5 -11  -1 226.255 8.37917   6
  -5  11   1 229.236 10.1578   4
  -5  11   1 224.690 9.06393   3
   4 -11  -1 84.5577 4.83524   6
  -4  11   1 77.3931 5.38120   3
   3 -11  -1 7.37385 1.96308   6
  -3  11   1 4.75446 4.71119   4
  -3  11   1 3.29519 2.05029   3
   2 -11  -1 4.94283 1.94485   6
  -2  11   1 6.06679 2.19838   3
   1 -11  -1 0.41433 1.84036   6
  -1  11   1 -0.2809 1.29095   2
   8 -12  -1 1.86047 2.27210   6
  -8  12   1 0.31750 4.47275   3
   7 -12  -1 0.88773 2.21514   6
   6 -12  -1 56.0690 4.66991   6
  -6  12   1 49.8018 6.39949   3
   5 -12  -1 44.4920 4.39495   6
  -5  12   1 51.9536 5.86718   3
  -5  12   1 64.7703 6.80094   4
   4 -12  -1 335.314 10.7598   6
  -4  12   1 275.947 10.8652   3
   3 -12  -1 15.5741 2.57371   6
  -3  12   1 0.34565 2.71560   3
   2 -12  -1 29.6316 4.03600   6
   1 -12  -1 0.95827 2.45991   6
   2 -13   2 4.26993 2.21161   6
  -3  13  -2 14.3036 3.96964   3
   3 -13   2 14.4237 2.37374   6
  -4  13  -2 6.37593 3.61437   3
   4 -13   2 3.79429 1.99981   6
  -5  13  -2 -5.0653 3.61390   3
   5 -13   2 1.83569 1.79740   6
  -6  13  -2 13.3838 4.53034   3
   6 -13   2 5.87890 2.33004   6
  -7  13  -2 34.0224 5.83817   3
   7 -13   2 29.8906 4.00859   6
   0  12  -2 5.36286 2.19657   2
   0 -12   2 7.54742 1.99798   6
  -1  12  -2 39.6914 3.38746   2
   1 -12   2 48.3631 3.51989   6
  -3  12  -2 2.28561 3.41324   3
  -3  12  -2 3.73615 5.19858   4
  -3  12  -2 -0.2780 1.37984   2
   3 -12   2 1.01639 1.55718   6
  -4  12  -2 11.9703 5.01198   4
   4 -12   2 10.2225 1.86595   6
  -5  12  -2 12.0314 4.10847   4
  -5  12  -2 9.19753 3.22019   3
   5 -12   2 10.5651 2.11078   6
  -6  12  -2 19.9244 4.42353   3
   6 -12   2 22.1766 2.67951   6
  -7  12  -2 -1.1565 3.69086   3
   7 -12   2 1.31665 1.69102   6
  -8  12  -2 60.1474 8.39177   3
   8 -12   2 68.8772 4.23157   6
   2  11  -2 19.7839 3.01211   2
  -2 -11   2 31.3304 3.62108   6
   1  11  -2 21.5131 2.66993   2
  -1 -11   2 20.9637 2.25500   6
   0  11  -2 14.5679 1.98822   2
   0 -11   2 11.2837 1.86886   6
  -1  11  -2 71.9471 3.43411   2
  -1  11  -2 69.6122 23.7554   1
   1 -11   2 67.1702 3.66036   6
  -2  11  -2 84.5134 21.6498   1
  -2  11  -2 70.0020 3.15070   2
  -2  11  -2 61.2902 9.77493   4
   2 -11   2 68.2167 3.66494   6
  -3  11  -2 10.2113 3.85847   4
  -3  11  -2 13.0229 1.53772   2
   3 -11   2 13.0032 1.91494   6
  -4  11  -2 2.79749 3.11641   4
  -4  11  -2 6.18185 2.54152   3
   4 -11   2 0.74578 1.19663   6
  -5  11  -2 4.94988 2.44429   3
  -5  11  -2 14.1741 3.99980   4
   5 -11   2 6.81433 1.69598   6
  -6  11  -2 0.34496 2.71074   3
  -6  11  -2 0.69642 2.05146   4
   6 -11   2 -0.5139 1.22799   6
  -7  11  -2 7.52354 3.26553   3
   7 -11   2 3.77224 1.61434   6
   7 -11   2 4.88271 1.56034   2
  -8  11  -2 -0.6805 3.21454   3
   8 -11   2 2.65470 1.54119   6
  -9  11  -2 28.5860 5.42512   3
   9 -11   2 28.2972 3.26570   6
   3  10  -2 60.2431 5.37900   5
   3  10  -2 65.0488 4.84909   2
  -3 -10   2 62.1174 3.53555   6
   2  10  -2 132.367 5.76179   2
   2  10  -2 138.459 6.66427   5
   2  10  -2 147.579 12.2739   6
  -2 -10   2 136.612 5.06908   6
   1  10  -2 25.6072 2.85573   2
   1  10  -2 38.1411 6.31178   6
  -1 -10   2 21.6536 2.29063   6
   0  10  -2 -0.8651 8.00800   1
   0  10  -2 2.69334 4.40569   6
   0  10  -2 -5.1478 19.2432   1
   0  10  -2 4.37235 1.35634   2
   0  10  -2 6.24150 3.78492   4
  -1  10  -2 19.6714 3.80007   4
  -1  10  -2 22.8398 7.74899   1
  -1  10  -2 25.2905 5.14356   6
  -1  10  -2 21.2029 2.04869   2
  -1  10  -2 13.3328 17.3736   1
   1 -10   2 15.3499 3.02157   5
  -2  10  -2 3.38585 3.62488   6
  -2  10  -2 2.23721 0.97622   2
  -2  10  -2 10.9907 14.1861   1
  -2  10  -2 1.32552 4.22001   4
   2 -10   2 5.96278 4.00171   5
  -3  10  -2 24.1809 1.89518   2
  -3  10  -2 29.7817 6.23630   1
  -3  10  -2 25.2433 4.17317   6
  -3  10  -2 27.6277 3.42290   4
   3 -10   2 24.3993 3.45436   5
  -4  10  -2 6.61804 2.05029   3
  -4  10  -2 10.6589 4.28312   6
  -4  10  -2 6.52998 2.82742   4
   4 -10   2 4.19500 2.67626   5
  -5  10  -2 4.21490 2.07895   3
  -5  10  -2 2.59714 3.87393   6
  -5  10  -2 2.74658 2.09007   4
   5 -10   2 5.45067 1.46962   6
   5 -10   2 4.25477 2.32374   5
   5 -10   2 6.82503 1.36490   2
  -6  10  -2 123.876 9.13521   6
  -6  10  -2 121.038 4.17841   4
  -6  10  -2 120.472 7.10245   3
   6 -10   2 123.718 4.21414   2
   6 -10   2 120.741 4.79935   6
  -7  10  -2 0.97888 2.58899   3
  -7  10  -2 -3.4920 4.27493   6
   7 -10   2 0.61038 1.54482   2
   7 -10   2 0.56824 1.14882   6
  -8  10  -2 157.831 9.30873   3
   8 -10   2 167.314 5.95305   6
   8 -10   2 178.340 6.32998   2
  -9  10  -2 29.1603 5.41493   3
   9 -10   2 25.8059 2.84626   6
 -10  10  -2 35.0319 6.48424   3
  10 -10   2 21.9221 2.44357   6
   4   9  -2 38.7562 4.45093   2
   4   9  -2 39.9477 4.75775   5
  -4  -9   2 33.1840 2.76478   6
   3   9  -2 226.646 8.83970   5
   3   9  -2 238.745 8.24175   2
   3   9  -2 242.717 11.8990   6
  -3  -9   2 229.641 6.97843   6
   2   9  -2 207.193 7.76358   5
   2   9  -2 204.342 7.16047   2
   2   9  -2 213.938 17.2764   1
   2   9  -2 197.316 11.6752   6
  -2  -9   2 201.630 6.32515   6
   1   9  -2 221.803 27.9354   1
   1   9  -2 177.973 6.16812   2
   1   9  -2 170.034 6.81104   5
   1   9  -2 171.273 8.85187   4
   1   9  -2 193.076 14.6249   1
   1   9  -2 184.934 9.36122   6
  -1  -9   2 176.353 5.80775   6
  -1  -9   2 189.171 8.61082   5
   0   9  -2 29.9096 15.5434   1
   0   9  -2 36.8816 7.52030   1
   0   9  -2 49.0004 5.82343   6
   0   9  -2 45.7238 5.34566   4
   0   9  -2 46.0717 2.51125   2
   0  -9   2 43.8679 2.53363   6
  -1   9  -2 210.051 6.32720   2
  -1   9  -2 216.708 21.6249   1
  -1   9  -2 200.946 12.9951   1
  -1   9  -2 208.830 9.13735   6
  -1   9  -2 201.255 8.33937   4
   1  -9   2 208.636 6.65924   6
   1  -9   2 214.367 7.90734   5
  -2   9  -2 -0.2232 2.55725   6
  -2   9  -2 1.36890 2.07931   4
  -2   9  -2 -2.2305 4.38644   1
  -2   9  -2 2.98658 0.77894   2
   2  -9   2 3.53889 1.85171   5
   2  -9   2 2.00486 1.00963   6
  -3   9  -2 148.592 9.66492   1
  -3   9  -2 131.698 4.31158   2
  -3   9  -2 133.989 7.19498   6
   3  -9   2 115.265 15.9968   1
   3  -9   2 133.086 5.78541   5
   3  -9   2 135.424 4.91114   6
  -4   9  -2 76.8153 4.50354   3
  -4   9  -2 76.3734 7.19130   1
  -4   9  -2 63.9548 5.80866   6
  -4   9  -2 78.1901 4.20567   4
   4  -9   2 71.6504 2.96077   2
   4  -9   2 69.7339 3.33625   6
   4  -9   2 76.2943 4.37662   5
   4  -9   2 81.3742 11.5595   1
  -5   9  -2 616.919 19.1394   3
  -5   9  -2 674.176 19.8370   6
  -5   9  -2 663.285 17.2065   4
  -5   9  -2 649.672 22.4638   1
   5  -9   2 646.774 17.5815   6
   5  -9   2 660.007 16.7466   2
   5  -9   2 629.845 25.0598   1
  -6   9  -2 4.40795 2.11163   3
  -6   9  -2 8.69797 3.75042   6
  -6   9  -2 10.5524 6.76592   1
   6  -9   2 -4.4429 5.56606   1
   6  -9   2 4.63092 1.29402   2
   6  -9   2 7.23778 1.34736   6
  -7   9  -2 249.492 11.1098   6
  -7   9  -2 236.491 11.5441   3
   7  -9   2 222.095 7.30596   6
   7  -9   2 234.276 7.15690   2
  -8   9  -2 1.58838 2.81774   3
   8  -9   2 7.15192 2.22645   2
   8  -9   2 5.73204 1.30202   6
  -9   9  -2 26.2431 5.04998   3
  -9   9  -2 31.9143 6.91933   6
   9  -9   2 34.1170 3.63697   2
 -10   9  -2 80.3957 9.33616   3
  10  -9   2 95.5743 4.13128   6
   5   8  -2 19.7148 3.01671   5
   5   8  -2 18.0829 2.93886   2
   4   8  -2 28.7805 5.13579   6
   4   8  -2 31.5584 3.81901   5
   4   8  -2 33.1933 3.69027   2
  -4  -8   2 35.1611 2.22034   6
   3   8  -2 11.5870 1.99910   5
   3   8  -2 11.1617 1.91139   2
   3   8  -2 0.51199 8.17831   1
   3   8  -2 16.4037 4.04385   6
  -3  -8   2 13.0750 1.61234   6
   2   8  -2 2.97155 1.28271   2
   2   8  -2 3.05985 2.20386   5
   2   8  -2 -12.747 6.65732   1
   2   8  -2 0.54928 3.19051   4
   2   8  -2 2.14317 2.98810   6
   2   8  -2 -2.2191 14.3816   1
  -2  -8   2 3.66206 3.26711   5
  -2  -8   2 3.37425 0.91865   6
   1   8  -2 23.5820 6.49623   1
   1   8  -2 19.4422 1.93633   2
   1   8  -2 22.0037 13.6063   1
   1   8  -2 22.5003 3.20308   4
   1   8  -2 21.9689 3.38439   6
   1   8  -2 25.2860 2.42097   5
  -1  -8   2 20.1221 1.66707   6
  -1  -8   2 21.5462 3.07285   5
   0   8  -2 -3.5884 4.63015   1
   0   8  -2 0.29297 0.70451   2
   0   8  -2 -0.8240 2.16650   6
   0   8  -2 1.39016 2.00359   4
   0  -8   2 0.26837 1.49092   5
   0  -8   2 0.61624 0.71458   6
  -1   8  -2 28.2788 5.37570   1
  -1   8  -2 38.3695 1.94043   2
  -1   8  -2 36.4613 3.62539   4
  -1   8  -2 40.9310 4.05349   6
   1  -8   2 38.0884 2.17088   6
   1  -8   2 42.8525 3.27066   5
  -2   8  -2 38.4280 5.20805   1
  -2   8  -2 33.7129 1.76149   2
  -2   8  -2 36.1978 3.93202   6
  -2   8  -2 43.4488 3.44816   4
   2  -8   2 38.1614 2.98574   5
   2  -8   2 34.9773 2.13228   6
  -3   8  -2 28.2304 1.70710   2
  -3   8  -2 34.0071 3.85963   6
  -3   8  -2 28.8801 2.77167   4
  -3   8  -2 29.0687 4.62114   1
   3  -8   2 29.1779 1.98700   6
   3  -8   2 28.3329 1.90047   2
   3  -8   2 33.7552 2.92061   5
  -4   8  -2 5.69442 1.56515   3
  -4   8  -2 5.01828 2.15468   6
  -4   8  -2 7.28537 1.42875   4
   4  -8   2 6.37144 0.99395   2
   4  -8   2 7.78614 1.25964   6
   4  -8   2 10.7417 6.21030   1
  -5   8  -2 3.71044 1.73138   3
  -5   8  -2 3.60959 2.50902   6
  -5   8  -2 7.69447 4.68469   1
  -5   8  -2 4.07779 0.93907   4
   5  -8   2 -1.2907 4.46373   1
   5  -8   2 4.45241 1.03528   2
   5  -8   2 2.90891 0.90009   6
  -6   8  -2 79.4986 9.88798   1
  -6   8  -2 78.9046 6.26580   6
  -6   8  -2 75.1917 5.32999   3
   6  -8   2 95.1573 8.99645   1
   6  -8   2 84.9608 3.44560   2
   6  -8   2 80.5637 3.40161   6
  -7   8  -2 11.8641 7.82473   1
  -7   8  -2 3.17734 3.30703   6
  -7   8  -2 1.06585 2.03134   3
   7  -8   2 1.54189 4.71089   1
   7  -8   2 1.35737 0.87894   6
   7  -8   2 1.39560 1.74879   2
  -8   8  -2 -0.5168 2.48453   3
  -8   8  -2 4.31771 3.92842   6
   8  -8   2 3.70228 1.11272   6
   8  -8   2 6.16264 2.20745   2
  -9   8  -2 68.0064 7.04655   3
  -9   8  -2 68.6653 6.86828   6
   9  -8   2 63.8489 5.70142   2
   9  -8   2 65.3530 3.11955   6
  10  -8   2 12.1663 4.33170   2
   6   7  -2 79.4323 5.74369   2
   6   7  -2 86.4413 5.89728   5
   5   7  -2 13.3975 2.40728   2
   5   7  -2 12.4357 2.26624   5
   5   7  -2 23.8795 7.25360   3
   4   7  -2 88.5026 6.04603   6
   4   7  -2 93.9708 4.78669   5
   4   7  -2 68.3359 10.5005   1
  -4  -7   2 87.1133 3.10324   6
   3   7  -2 117.874 19.0440   1
   3   7  -2 114.559 6.06953   6
   3   7  -2 104.364 4.59944   2
   3   7  -2 107.347 11.7120   1
   3   7  -2 106.766 4.90393   5
   3   7  -2 95.1448 10.3767   4
  -3  -7   2 110.026 3.59625   6
   2   7  -2 29.5202 6.64266   1
   2   7  -2 35.2588 12.8260   1
   2   7  -2 28.6777 2.50379   5
   2   7  -2 32.9265 3.94127   6
   2   7  -2 29.4436 4.03258   4
   2   7  -2 32.8943 2.31359   2
  -2  -7   2 27.8148 1.68035   6
  -2  -7   2 28.2464 3.18416   5
   1   7  -2 235.528 19.1206   1
   1   7  -2 246.228 12.7623   1
   1   7  -2 230.777 7.10168   2
   1   7  -2 234.945 8.26870   4
   1   7  -2 221.800 7.50527   5
   1   7  -2 247.426 8.45653   6
  -1  -7   2 234.618 6.83848   6
  -1  -7   2 247.858 8.19357   5
   0   7  -2 149.304 4.77511   2
   0   7  -2 150.451 14.7518   1
   0   7  -2 160.678 9.62922   1
   0   7  -2 156.012 5.93792   4
   0   7  -2 149.922 14.6902   1
   0   7  -2 155.366 6.15230   6
   0  -7   2 144.036 5.51955   5
   0  -7   2 147.761 4.81841   6
  -1   7  -2 35.7597 1.75931   2
  -1   7  -2 34.4243 2.91098   4
  -1   7  -2 40.9605 3.31011   6
  -1   7  -2 39.5629 5.64407   1
   1  -7   2 39.1266 2.72262   5
   1  -7   2 34.8646 1.96007   6
  -2   7  -2 219.651 7.64059   6
  -2   7  -2 216.909 6.97040   4
  -2   7  -2 203.340 9.67735   1
  -2   7  -2 219.940 6.21631   2
   2  -7   2 216.083 6.60268   6
   2  -7   2 231.143 7.05626   5
   2  -7   2 222.387 6.28183   2
   2  -7   2 232.294 13.5304   1
  -3   7  -2 122.998 6.84839   1
  -3   7  -2 112.030 4.16910   4
  -3   7  -2 115.062 3.75514   2
  -3   7  -2 120.063 5.20303   6
   3  -7   2 113.255 4.01479   6
   3  -7   2 112.544 3.62983   2
   3  -7   2 114.012 10.0614   1
  -4   7  -2 39.3037 2.12120   4
  -4   7  -2 39.2221 3.50128   6
  -4   7  -2 40.2895 3.05900   3
   4  -7   2 49.3952 7.25309   1
   4  -7   2 38.5638 2.08718   6
   4  -7   2 40.7630 1.95526   2
  -5   7  -2 874.132 23.3700   6
  -5   7  -2 829.470 26.0090   1
  -5   7  -2 854.410 23.8815   3
   5  -7   2 858.604 26.5623   1
   5  -7   2 820.059 21.9012   6
   5  -7   2 848.286 21.7002   2
  -6   7  -2 234.261 16.3739   1
  -6   7  -2 220.414 8.98107   3
  -6   7  -2 242.946 8.76231   6
   6  -7   2 227.199 6.84951   6
   6  -7   2 223.506 11.0057   1
   6  -7   2 239.274 7.12087   2
  -7   7  -2 212.098 9.20391   3
  -7   7  -2 205.617 8.57875   6
  -7   7  -2 211.856 16.0279   1
   7  -7   2 219.322 7.11806   2
   7  -7   2 210.299 10.7424   1
   7  -7   2 201.486 6.22713   6
  -8   7  -2 55.5335 5.63291   3
  -8   7  -2 62.5280 12.6338   1
  -8   7  -2 59.2270 6.13700   6
   8  -7   2 53.2953 2.43187   6
   8  -7   2 53.5757 7.61707   1
   8  -7   2 51.9775 4.50939   2
  -9   7  -2 1.44923 3.21155   3
  -9   7  -2 -4.2790 3.97258   6
   9  -7   2 1.01504 0.93993   6
   9  -7   2 -2.0415 3.10988   2
 -10   7  -2 5.28231 3.99095   3
  10  -7   2 10.5918 3.70909   5
 -11   7  -2 14.0131 5.72994   3
  11  -7   2 20.3216 5.15500   5
   7   6  -2 5.42564 2.69131   5
   7   6  -2 4.76884 2.75498   2
   6   6  -2 -1.1822 2.14738   2
   6   6  -2 0.98713 1.85449   5
   5   6  -2 0.87278 1.59926   2
   5   6  -2 0.04402 2.61057   6
   5   6  -2 -1.7702 5.51050   3
   5   6  -2 -0.5735 1.42307   5
   4   6  -2 20.8803 3.70247   4
   4   6  -2 16.9789 2.17021   2
   4   6  -2 -1.1937 14.2124   1
   4   6  -2 18.4394 2.85327   6
   4   6  -2 20.0927 2.55938   5
   4   6  -2 23.1570 6.81402   1
  -4  -6   2 21.4208 4.40737   5
  -4  -6   2 16.3228 1.26149   6
   3   6  -2 48.9270 3.74742   6
   3   6  -2 47.9896 12.6705   1
   3   6  -2 46.0299 4.06794   4
   3   6  -2 42.0321 7.05356   1
   3   6  -2 46.2619 2.91770   5
   3   6  -2 47.6174 2.86011   2
  -3  -6   2 48.4459 1.95573   6
  -3  -6   2 53.3637 4.64221   5
   2   6  -2 1.28985 0.88018   2
   2   6  -2 2.06990 0.93924   5
   2   6  -2 6.66937 8.90658   1
   2   6  -2 4.62285 7.28314   1
   2   6  -2 1.69372 1.40006   6
   2   6  -2 1.90978 1.47987   4
  -2  -6   2 1.55462 0.55450   6
  -2  -6   2 2.32917 1.49366   5
   1   6  -2 384.800 10.7799   2
   1   6  -2 410.822 11.6033   4
   1   6  -2 389.893 11.4625   6
   1   6  -2 385.646 11.1411   5
   1   6  -2 409.025 19.4907   1
   1   6  -2 380.904 15.3588   1
  -1  -6   2 393.105 11.4101   5
  -1  -6   2 390.726 10.4864   6
   0   6  -2 27.3599 4.11430   1
   0   6  -2 22.2532 2.25290   6
   0   6  -2 20.4169 1.30441   2
   0   6  -2 21.5126 2.10225   4
   0  -6   2 20.2225 1.30875   6
   0  -6   2 11.9659 5.78449   1
  -1   6  -2 16.7530 1.13150   2
  -1   6  -2 18.9079 2.02343   6
  -1   6  -2 17.1516 3.14987   1
  -1   6  -2 19.6085 1.82498   4
   1  -6   2 17.3544 1.26962   6
   1  -6   2 18.4859 1.45331   2
   1  -6   2 17.1873 1.78582   5
   1  -6   2 17.0435 5.36101   1
  -2   6  -2 250.012 7.04422   2
  -2   6  -2 253.756 7.45616   4
  -2   6  -2 275.375 8.15898   6
  -2   6  -2 252.528 10.0168   1
   2  -6   2 258.803 7.05575   2
   2  -6   2 263.345 12.3273   1
   2  -6   2 254.863 7.33004   6
   2  -6   2 254.659 7.59788   5
  -3   6  -2 42.8899 4.09420   1
  -3   6  -2 40.2107 1.92948   2
  -3   6  -2 45.3048 2.88974   6
  -3   6  -2 44.4888 2.64854   3
  -3   6  -2 43.1621 2.06838   4
   3  -6   2 43.0083 1.85713   2
   3  -6   2 45.9308 6.05067   1
   3  -6   2 43.2410 1.99973   6
  -4   6  -2 178.967 6.65114   3
  -4   6  -2 182.141 6.41684   6
  -4   6  -2 181.158 4.91856   4
  -4   6  -2 179.765 8.65763   1
   4  -6   2 181.932 8.67998   1
   4  -6   2 181.333 5.47788   6
   4  -6   2 185.461 5.36954   2
  -5   6  -2 848.676 24.3543   3
  -5   6  -2 901.688 24.5524   6
  -5   6  -2 853.267 26.6038   1
   5  -6   2 876.466 22.5212   6
   5  -6   2 890.123 22.6366   2
   5  -6   2 895.116 25.8640   1
  -6   6  -2 225.809 9.10361   3
  -6   6  -2 250.892 13.7124   1
   6  -6   2 236.960 6.85185   6
   6  -6   2 248.564 7.51519   2
   6  -6   2 249.487 10.1938   1
  -7   6  -2 33.9908 4.15055   3
  -7   6  -2 34.9678 4.78106   6
  -7   6  -2 37.7158 9.11027   1
   7  -6   2 40.7304 1.91177   6
   7  -6   2 35.2586 4.40017   1
   7  -6   2 41.7589 3.54382   2
  -8   6  -2 3.20754 10.7683   1
  -8   6  -2 8.27476 3.10541   3
   8  -6   2 14.2677 1.34364   6
   8  -6   2 12.0462 4.14397   1
   8  -6   2 18.1613 3.03689   2
   9  -6   2 11.3897 2.89885   5
   9  -6   2 12.1868 1.49416   6
 -10   6  -2 121.560 8.89831   3
  10  -6   2 107.950 7.99239   5
  11  -6   2 8.29599 4.89143   5
   8   5  -2 196.375 9.23519   5
   8   5  -2 197.275 9.42405   2
   7   5  -2 10.9307 2.67790   5
   7   5  -2 11.8987 2.53542   2
   6   5  -2 297.556 10.2531   2
   6   5  -2 319.184 14.2403   3
   6   5  -2 304.641 10.3560   5
   5   5  -2 94.5987 4.58577   5
   5   5  -2 87.6427 4.38849   2
   5   5  -2 84.8758 4.36648   6
   5   5  -2 75.2240 10.4106   1
   5   5  -2 86.6987 5.82874   4
   5   5  -2 89.7053 16.5034   1
   5   5  -2 83.7405 7.66381   3
   4   5  -2 87.5239 4.06290   2
   4   5  -2 86.4129 4.07036   5
   4   5  -2 112.480 15.1165   1
   4   5  -2 80.1443 8.80336   1
   4   5  -2 91.7876 4.95950   4
   4   5  -2 89.9111 4.16517   6
  -4  -5   2 90.2008 5.63542   5
   3   5  -2 757.682 29.0467   1
   3   5  -2 723.255 19.4581   2
   3   5  -2 755.040 19.6719   5
   3   5  -2 741.414 19.9782   4
   3   5  -2 748.975 24.7669   1
   3   5  -2 719.353 19.3335   6
  -3  -5   2 721.859 20.1974   5
  -3  -5   2 678.268 18.3659   6
   2   5  -2 270.457 8.00459   2
   2   5  -2 269.568 16.0900   1
   2   5  -2 275.804 8.33390   5
   2   5  -2 274.354 8.21655   6
   2   5  -2 285.749 12.3192   1
  -2  -5   2 273.983 7.40356   6
  -2  -5   2 280.849 8.62959   5
   1   5  -2 330.581 9.05742   2
   1   5  -2 331.824 9.39103   6
   1   5  -2 335.484 12.8675   1
   1   5  -2 321.563 9.26278   5
  -1  -5   2 321.435 8.72181   6
  -1  -5   2 330.674 9.49396   5
   0   5  -2 43.7851 1.81547   2
   0   5  -2 38.5633 4.19586   1
   0   5  -2 43.8612 2.04609   5
   0  -5   2 46.0133 2.27951   5
   0  -5   2 42.6579 1.77408   6
   0  -5   2 43.4953 2.06470   2
   0  -5   2 41.9910 5.83035   1
  -1   5  -2 1571.62 40.7602   1
  -1   5  -2 1509.19 38.2388   6
  -1   5  -2 1472.76 37.5938   2
   1  -5   2 1452.05 37.6978   6
   1  -5   2 1485.84 38.3919   5
   1  -5   2 1610.18 42.4165   1
   1  -5   2 1491.28 37.5909   2
  -2   5  -2 1385.52 34.7869   1
  -2   5  -2 1266.33 31.9788   2
  -2   5  -2 1234.48 31.9716   4
   2  -5   2 1257.44 35.6072   1
   2  -5   2 1261.71 31.8902   2
  -3   5  -2 361.206 10.1553   6
  -3   5  -2 355.253 9.25658   4
  -3   5  -2 357.037 10.4871   3
   3  -5   2 362.183 9.57317   6
   3  -5   2 346.067 12.4309   1
   3  -5   2 357.905 9.47708   2
  -4   5  -2 174.343 8.29798   1
  -4   5  -2 167.718 6.33952   3
  -4   5  -2 168.453 5.73965   6
   4  -5   2 166.693 4.98514   6
   4  -5   2 174.252 5.18610   2
   4  -5   2 170.091 7.40886   1
  -5   5  -2 80.9855 3.77796   6
  -5   5  -2 77.9084 4.29200   3
  -5   5  -2 71.1877 7.76617   1
   5  -5   2 75.4781 2.65577   6
   5  -5   2 75.4137 4.99845   1
   5  -5   2 79.7815 3.40963   2
  -6   5  -2 109.855 5.74331   3
  -6   5  -2 99.1555 10.6377   1
  -6   5  -2 116.383 4.89710   6
   6  -5   2 116.584 5.61416   3
   6  -5   2 109.736 6.25537   1
   6  -5   2 115.578 3.52931   6
   6  -5   2 108.747 5.33711   2
  -7   5  -2 224.235 9.33615   3
  -7   5  -2 215.535 7.75483   6
  -7   5  -2 236.435 16.7015   1
   7  -5   2 228.592 9.20732   3
   7  -5   2 212.876 6.09749   6
   7  -5   2 224.151 9.47079   1
  -8   5  -2 0.24197 2.35719   6
  -8   5  -2 -2.5699 10.2253   1
   8  -5   2 4.72012 3.20325   3
   8  -5   2 2.26782 0.66382   6
   8  -5   2 2.64195 3.14196   5
   8  -5   2 4.23604 3.50926   1
   9  -5   2 15.4905 3.40203   5
 -10   5  -2 -3.3530 3.83196   3
  10  -5   2 7.84723 3.53261   5
  11  -5   2 9.66352 5.10288   5
   8   4  -2 9.21641 2.55523   5
   8   4  -2 8.36537 2.69118   2
   7   4  -2 59.8897 4.63481   2
   7   4  -2 57.2763 4.53141   5
   6   4  -2 26.4177 3.95707   4
   6   4  -2 20.0000 6.59651   1
   6   4  -2 33.2431 5.25695   3
  -6  -4   2 29.8741 4.36456   5
   5   4  -2 4.12589 4.65361   1
   5   4  -2 2.27248 1.22581   5
   5   4  -2 5.82540 3.18593   3
   5   4  -2 0.92925 1.06737   2
   5   4  -2 2.34590 1.44450   6
   5   4  -2 5.17787 1.86469   4
  -5  -4   2 3.06836 2.82052   5
   4   4  -2 83.8801 3.76464   5
   4   4  -2 101.916 13.8324   1
   4   4  -2 82.3904 3.72012   2
   4   4  -2 87.7429 7.72918   1
   4   4  -2 82.3083 3.41791   6
  -4  -4   2 89.0808 5.11235   5
   3   4  -2 326.635 9.46839   5
   3   4  -2 321.596 17.0225   1
   3   4  -2 326.875 9.07557   6
   3   4  -2 311.967 9.33942   2
   3   4  -2 332.318 13.6396   1
  -3  -4   2 312.479 8.43052   6
  -3  -4   2 350.564 10.1432   5
   2   4  -2 164.794 5.08755   6
   2   4  -2 174.286 11.1468   1
   2   4  -2 168.099 5.19232   2
   2   4  -2 161.417 8.25304   1
   2   4  -2 161.075 5.23598   5
  -2  -4   2 163.882 4.58979   6
  -2  -4   2 175.342 5.63185   5
   1   4  -2 1.62244 0.62647   6
   1   4  -2 0.39741 1.75905   1
   1   4  -2 1.74147 0.46655   5
   1   4  -2 0.59771 0.39328   2
  -1  -4   2 1.62565 0.34853   6
  -1  -4   2 2.32506 0.76235   5
  -1  -4   2 1.69056 3.51124   1
   0   4  -2 15.3237 0.93911   2
   0   4  -2 14.7574 1.07520   5
   0   4  -2 16.4805 2.52968   1
   0   4  -2 15.3537 1.22343   6
   0  -4   2 14.6411 3.37153   1
   0  -4   2 16.2508 1.12790   2
   0  -4   2 14.3846 0.86828   6
   0  -4   2 15.5143 1.25681   5
  -1   4  -2 102.658 3.13058   2
  -1   4  -2 103.993 3.45627   6
  -1   4  -2 101.262 4.90953   1
   1  -4   2 100.033 5.78684   1
   1  -4   2 106.685 3.41235   5
   1  -4   2 105.731 3.14093   2
   1  -4   2 103.802 3.16306   6
  -2   4  -2 269.634 7.57652   6
  -2   4  -2 264.493 7.21913   2
  -2   4  -2 257.787 8.95198   1
   2  -4   2 274.709 7.14151   2
   2  -4   2 268.722 7.16878   6
   2  -4   2 255.940 9.28448   1
  -3   4  -2 18.0382 1.65823   3
  -3   4  -2 15.2537 1.36744   6
   3  -4   2 17.2960 2.49786   1
   3  -4   2 14.9426 0.92727   6
   3  -4   2 13.1680 1.18862   2
  -4   4  -2 142.935 5.50970   3
  -4   4  -2 139.731 8.31280   1
  -4   4  -2 138.473 4.57632   6
   4  -4   2 136.299 3.99021   6
   4  -4   2 138.939 6.06854   1
   4  -4   2 137.650 4.57921   2
  -5   4  -2 115.503 5.25169   3
  -5   4  -2 115.064 9.58880   1
  -5   4  -2 115.634 4.15475   6
   5  -4   2 100.999 5.46811   1
   5  -4   2 113.739 5.05299   3
   5  -4   2 110.019 3.30488   6
  -6   4  -2 27.5703 2.53682   6
  -6   4  -2 33.8237 3.31220   3
  -6   4  -2 28.5811 7.61443   1
   6  -4   2 29.5031 1.28684   6
   6  -4   2 27.3515 3.63399   1
   6  -4   2 30.9711 3.66132   3
  -7   4  -2 106.596 4.59688   6
  -7   4  -2 99.1015 12.3233   1
  -7   4  -2 108.215 6.10165   3
   7  -4   2 101.975 6.31633   3
   7  -4   2 103.928 5.45380   5
   7  -4   2 106.326 7.01802   1
  -8   4  -2 5.63866 10.7300   1
   8  -4   2 -0.6194 3.04955   3
   8  -4   2 0.19079 3.79298   1
  -9   4  -2 65.8948 6.73465   3
   9  -4   2 82.4421 6.43555   5
  10  -4   2 9.51070 3.61569   5
   9   3  -2 0.86238 3.01355   2
   9   3  -2 10.1415 3.25893   5
   8   3  -2 2.76208 2.32869   5
   8   3  -2 5.73601 2.25675   2
   7   3  -2 92.9729 5.10426   5
   7   3  -2 95.9136 9.29963   3
   7   3  -2 101.537 5.18441   2
  -7  -3   2 100.023 8.33641   5
   6   3  -2 285.060 18.4576   1
   6   3  -2 283.304 14.0982   1
   6   3  -2 282.915 11.6143   3
   6   3  -2 284.243 9.50619   4
   6   3  -2 267.398 9.13762   5
  -6  -3   2 278.766 10.7163   5
   5   3  -2 0.49080 2.37955   3
   5   3  -2 8.03226 6.14948   1
   5   3  -2 1.95618 1.07329   5
   5   3  -2 -0.1918 0.89992   6
   5   3  -2 3.69170 3.67193   1
  -5  -3   2 -2.1455 2.05150   5
   4   3  -2 298.234 8.16701   6
   4   3  -2 304.014 9.02511   2
   4   3  -2 292.862 8.99025   5
   4   3  -2 304.616 12.7153   1
   4   3  -2 309.814 15.3369   1
  -4  -3   2 310.102 9.68248   5
   3   3  -2 24.0434 1.66856   2
   3   3  -2 23.4139 1.37347   6
   3   3  -2 24.9656 5.56531   1
   3   3  -2 26.4197 1.71281   5
   3   3  -2 22.5969 3.66096   1
  -3  -3   2 28.2774 2.41033   5
   2   3  -2 119.737 3.90920   5
   2   3  -2 118.038 6.04630   1
   2   3  -2 122.774 3.56543   6
   2   3  -2 119.438 3.88147   2
  -2  -3   2 119.413 4.13811   5
  -2  -3   2 116.982 3.30499   6
   1   3  -2 113.407 3.28176   6
   1   3  -2 112.641 5.28524   1
   1   3  -2 109.760 3.46458   5
   1   3  -2 105.162 3.36204   2
  -1  -3   2 110.188 3.51262   2
  -1  -3   2 110.427 3.52769   5
  -1  -3   2 111.073 6.30098   1
  -1  -3   2 108.495 3.09972   6
   0   3  -2 915.826 23.3301   6
   0   3  -2 920.950 23.3603   2
   0   3  -2 990.100 25.4170   1
   0  -3   2 937.267 23.4669   5
   0  -3   2 877.789 23.1878   6
   0  -3   2 971.195 25.8822   1
   0  -3   2 923.804 23.3444   2
  -1   3  -2 24.2540 1.13544   6
  -1   3  -2 24.4878 2.08917   1
  -1   3  -2 22.0895 1.04163   2
   1  -3   2 26.8055 2.67728   1
   1  -3   2 24.5553 1.10644   2
   1  -3   2 22.8730 0.97067   6
  -2   3  -2 367.856 10.0202   3
  -2   3  -2 352.679 9.41568   6
  -2   3  -2 368.229 11.3310   1
   2  -3   2 362.700 9.46774   2
   2  -3   2 362.248 11.0596   1
   2  -3   2 348.040 9.22877   6
  -3   3  -2 23.0934 1.28003   6
   3  -3   2 21.7622 1.54897   2
   3  -3   2 22.6592 0.97175   6
  -4   3  -2 64.8673 6.86333   1
  -4   3  -2 70.8946 3.66246   3
  -4   3  -2 75.5650 2.68595   6
   4  -3   2 74.4915 3.57480   3
   4  -3   2 70.4039 4.48795   1
   4  -3   2 74.6051 2.23948   6
  -5   3  -2 4.95221 1.36468   3
  -5   3  -2 4.24171 0.97553   6
  -5   3  -2 6.38047 5.09521   1
   5  -3   2 3.80107 2.13618   1
   5  -3   2 4.00069 0.54476   6
   5  -3   2 6.24056 1.85938   3
   5  -3   2 4.38989 0.64615   4
  -6   3  -2 139.266 13.2675   1
  -6   3  -2 145.374 6.55398   3
  -6   3  -2 145.032 4.74401   6
   6  -3   2 135.477 6.51269   3
   6  -3   2 151.267 6.11525   5
   6  -3   2 144.646 4.42731   4
   6  -3   2 134.234 7.96269   1
  -7   3  -2 -0.6674 1.65353   3
  -7   3  -2 6.10571 9.12620   1
   7  -3   2 1.19651 1.16758   4
   7  -3   2 0.21198 1.50166   5
   7  -3   2 -4.5686 3.50861   1
   7  -3   2 -0.9826 2.19465   3
  -8   3  -2 122.870 10.8318   3
  -8   3  -2 142.484 19.9612   1
   8  -3   2 132.010 5.16687   4
   8  -3   2 125.286 7.22715   5
   8  -3   2 124.159 9.73483   1
   8  -3   2 144.592 8.79185   3
   9  -3   2 1.61693 2.27513   4
   9  -3   2 0.26517 2.75320   5
  10  -3   2 53.8919 7.25769   5
   9   2  -2 52.6365 5.18965   2
   9   2  -2 39.5278 5.23059   5
   8   2  -2 20.1132 4.27976   4
   8   2  -2 15.0047 2.59351   5
   7   2  -2 48.8781 6.94391   3
   7   2  -2 64.5595 4.60917   4
   7   2  -2 42.2970 6.51760   1
   7   2  -2 47.1150 9.28459   1
   7   2  -2 60.7286 4.04286   5
  -7  -2   2 59.2765 6.90582   5
   6   2  -2 6.72273 3.83916   1
   6   2  -2 3.68789 1.28690   5
   6   2  -2 10.5239 6.25317   1
   6   2  -2 7.31764 2.93754   3
  -6  -2   2 10.6983 2.87771   5
   5   2  -2 73.0560 4.98353   3
   5   2  -2 69.9182 2.27430   6
   5   2  -2 73.3552 8.82586   1
   5   2  -2 58.3108 6.21241   1
   5   2  -2 78.0355 3.55739   5
  -5  -2   2 75.7102 4.53527   5
   4   2  -2 1.83719 3.53511   1
   4   2  -2 0.35624 2.25897   1
   4   2  -2 0.67336 0.70711   5
   4   2  -2 1.36217 0.45092   6
  -4  -2   2 -0.0784 1.18365   5
   3   2  -2 423.069 11.6504   2
   3   2  -2 433.951 10.9477   6
   3   2  -2 432.580 11.6768   5
   3   2  -2 432.753 13.9901   1
  -3  -2   2 432.459 11.9537   5
   2   2  -2 654.049 16.7728   6
   2   2  -2 688.619 17.3278   2
   2   2  -2 681.008 19.3906   1
   2   2  -2 669.012 17.2623   5
  -2  -2   2 684.865 17.4295   5
  -2  -2   2 666.269 20.0657   1
   1   2  -2 638.103 16.4222   6
   1   2  -2 644.689 16.6460   5
   1   2  -2 655.189 16.7112   2
   1   2  -2 688.634 18.1924   1
  -1  -2   2 639.205 16.4291   6
  -1  -2   2 664.281 16.7068   5
  -1  -2   2 684.285 18.6349   1
  -1  -2   2 669.758 16.7563   2
   0   2  -2 2266.82 56.6894   1
   0  -2   2 2230.31 56.7113   1
  -1   2  -2 643.516 17.2036   1
  -1   2  -2 616.968 15.6591   2
  -1   2  -2 601.703 15.4249   6
   1  -2   2 606.649 15.6002   2
   1  -2   2 641.416 16.9398   1
   1  -2   2 603.147 15.4009   6
  -2   2  -2 15.7073 0.76040   4
  -2   2  -2 16.5195 0.76917   6
  -2   2  -2 16.1016 1.25356   3
  -2   2  -2 15.9316 2.45765   1
   2  -2   2 15.1115 0.66038   4
   2  -2   2 14.4225 2.07885   1
   2  -2   2 15.7872 1.13073   2
  -3   2  -2 802.230 20.5803   6
  -3   2  -2 824.524 21.9447   3
   3  -2   2 867.805 25.2734   1
   3  -2   2 849.858 21.6974   3
   3  -2   2 789.686 20.4629   6
   3  -2   2 822.262 20.5932   4
  -4   2  -2 23.3078 1.21866   6
  -4   2  -2 23.1413 2.18303   3
  -4   2  -2 24.6357 5.52945   1
   4  -2   2 20.9882 3.46080   1
   4  -2   2 22.8564 2.42189   3
   4  -2   2 24.2364 1.39112   4
  -5   2  -2 506.623 12.8630   6
  -5   2  -2 527.583 20.5209   1
  -5   2  -2 502.711 15.0323   3
   5  -2   2 487.216 17.2966   1
   5  -2   2 489.739 14.3575   5
   5  -2   2 476.201 15.5289   3
   5  -2   2 500.339 13.1661   4
  -6   2  -2 12.4735 7.78526   1
  -6   2  -2 9.03669 1.90787   3
   6  -2   2 12.4717 1.58140   4
   6  -2   2 10.6047 1.82407   5
   6  -2   2 11.0840 2.77143   3
   6  -2   2 13.4482 4.48887   1
  -7   2  -2 72.3224 5.30835   3
  -7   2  -2 60.4972 11.6292   1
   7  -2   2 69.8839 9.17775   1
   7  -2   2 63.2221 6.17546   3
   7  -2   2 66.0067 4.54366   5
   7  -2   2 73.1539 3.86372   4
   8  -2   2 3.82901 2.18307   5
   8  -2   2 3.83585 2.27155   4
   8  -2   2 4.36300 3.84384   3
   9  -2   2 198.345 8.35956   4
   9  -2   2 200.945 9.39371   5
  10  -2   2 4.40707 3.80251   5
  10   1  -2 8.48882 3.21314   5
  10   1  -2 3.79860 3.06415   2
   9   1  -2 26.1533 4.50309   4
   9   1  -2 24.9415 3.30430   5
   8   1  -2 13.4250 4.68897   3
   8   1  -2 14.1284 2.82979   4
   8   1  -2 12.0376 2.24738   5
   7   1  -2 0.15086 5.91639   1
   7   1  -2 0.35478 3.88917   1
   7   1  -2 1.07420 1.49722   5
   7   1  -2 2.16906 3.06960   3
   6   1  -2 472.718 15.2515   3
   6   1  -2 461.590 13.7047   5
   6   1  -2 450.938 18.6151   1
   6   1  -2 490.231 16.3819   1
  -6  -1   2 477.094 14.3885   5
   5   1  -2 387.776 15.3950   1
   5   1  -2 412.637 13.6780   1
   5   1  -2 393.694 11.4719   5
   5   1  -2 402.552 9.93236   6
  -5  -1   2 389.617 12.6745   5
   4   1  -2 950.235 27.3042   1
   4   1  -2 944.690 24.7669   3
   4   1  -2 858.047 22.5526   6
   4   1  -2 881.885 23.7176   5
   4   1  -2 915.102 25.6393   1
  -4  -1   2 947.310 24.0722   5
   3   1  -2 733.952 19.4449   2
   3   1  -2 754.004 20.8582   1
   3   1  -2 764.272 19.5317   5
  -3  -1   2 776.478 19.7227   5
   2   1  -2 606.407 15.6514   5
   2   1  -2 612.786 16.6482   1
   2   1  -2 601.812 15.6948   2
  -2  -1   2 634.399 15.8071   5
  -2  -1   2 622.949 17.2128   1
   1   1  -2 226.089 5.90702   2
   1   1  -2 217.944 5.75356   5
   1   1  -2 233.826 6.67197   1
  -1  -1   2 219.145 5.78508   5
  -1  -1   2 225.872 6.74270   1
  -1  -1   2 213.134 5.88967   2
   0   1  -2 73.5869 3.17323   1
   0  -1   2 72.9263 2.17077   2
   0  -1   2 71.6044 3.12630   1
  -1   1  -2 297.244 10.0994   1
  -1   1  -2 307.103 7.96633   4
  -1   1  -2 306.239 8.27073   3
   1  -1   2 318.996 10.0050   1
   1  -1   2 306.806 8.09306   2
   1  -1   2 302.476 7.88782   4
  -2   1  -2 711.970 20.4339   1
  -2   1  -2 626.097 16.7071   4
  -2   1  -2 676.538 17.3753   3
  -2   1  -2 616.405 16.3335   6
   2  -1   2 658.454 19.7028   1
   2  -1   2 669.661 16.7371   4
   2  -1   2 668.334 17.2346   3
  -3   1  -2 61.1506 3.00668   3
  -3   1  -2 61.5550 1.78829   6
  -3   1  -2 63.5688 2.12849   4
   3  -1   2 62.0315 3.07424   3
   3  -1   2 62.4517 2.39512   4
   3  -1   2 64.8102 5.80049   1
   3  -1   2 59.7495 2.75588   5
  -4   1  -2 709.526 19.6195   3
  -4   1  -2 709.357 17.6552   6
   4  -1   2 714.344 19.2076   5
   4  -1   2 640.247 25.3025   1
   4  -1   2 739.966 19.6250   3
   4  -1   2 732.444 18.4455   4
  -5   1  -2 124.558 5.64635   3
  -5   1  -2 139.494 12.5553   1
   5  -1   2 129.467 5.95609   3
   5  -1   2 128.646 4.56341   4
   5  -1   2 125.143 5.19231   5
   5  -1   2 121.609 9.56461   1
  -6   1  -2 145.696 6.69260   3
  -6   1  -2 135.879 15.1180   1
   6  -1   2 153.141 5.55618   4
   6  -1   2 149.979 6.22008   5
   6  -1   2 158.102 7.43598   3
   6  -1   2 137.091 11.2611   1
  -7   1  -2 52.0087 12.8467   1
   7  -1   2 39.0339 3.83603   5
   7  -1   2 38.6034 4.86110   3
   7  -1   2 37.4614 8.05964   1
   7  -1   2 42.5321 3.91154   4
   8  -1   2 176.847 7.72661   4
   8  -1   2 178.142 10.5488   3
   8  -1   2 163.468 7.93564   5
   9  -1   2 18.7203 3.41222   5
  10  -1   2 -1.1110 4.14213   5
  10   0  -2 29.2005 5.31417   4
  10   0  -2 36.8666 4.52608   5
  10   0  -2 31.7998 3.70964   2
   9   0  -2 169.248 7.70185   5
   9   0  -2 159.318 7.75886   4
   8   0  -2 10.6560 6.23781   1
   8   0  -2 -0.0573 3.93850   1
   8   0  -2 1.90644 1.65593   5
   8   0  -2 0.28814 3.58443   3
   7   0  -2 663.578 18.5555   5
   7   0  -2 596.509 20.0031   1
   7   0  -2 678.693 20.3690   3
   7   0  -2 659.554 22.2869   1
   6   0  -2 251.192 9.68250   1
   6   0  -2 259.229 8.37364   5
   6   0  -2 257.413 9.76154   3
   5   0  -2 34.6969 2.26713   5
   5   0  -2 36.0231 4.72374   1
   5   0  -2 35.6353 3.34255   1
   5   0  -2 31.2405 1.61906   6
   5   0  -2 30.4370 3.45471   3
   4   0  -2 213.507 7.14874   1
   4   0  -2 210.371 7.25914   3
   4   0  -2 221.043 6.52347   5
   4   0  -2 211.466 8.09805   1
  -4   0   2 214.365 6.66696   5
   3   0  -2 6.83601 0.97456   1
   3   0  -2 7.94907 0.82819   2
   3   0  -2 7.52560 1.42668   1
   3   0  -2 7.21013 0.91481   5
  -3   0   2 7.24462 0.95352   5
   2   0  -2 953.197 23.6029   5
   2   0  -2 931.622 23.6117   2
   2   0  -2 985.396 23.8505   1
  -2   0   2 931.448 23.6310   5
  -2   0   2 931.163 23.9491   1
   1   0  -2 149.791 3.75403   5
   1   0  -2 147.523 5.01537   1
   1   0  -2 150.273 4.01060   2
  -1   0   2 151.112 4.00125   2
  -1   0   2 148.477 4.80769   1
   0   0  -2 79.0614 2.33550   2
   0   0  -2 74.7293 3.94995   1
   0   0  -2 69.3588 2.64470   4
   0   0   2 76.7767 2.29745   2
   0   0   2 79.7527 2.42867   4
   0   0   2 75.9224 4.13982   1
   0   0   2 80.9813 2.20149   5
  -1   0  -2 3760.45 95.9793   1
   1   0   2 3766.80 95.6921   1
  -2   0  -2 11.0029 1.22085   3
  -2   0  -2 9.39604 2.78477   1
  -2   0  -2 12.3561 0.93177   4
   2   0   2 11.4155 1.33832   3
   2   0   2 12.0479 1.16691   5
   2   0   2 13.8640 3.66536   1
   2   0   2 11.4898 1.16403   4
  -3   0  -2 475.504 18.1498   1
  -3   0  -2 477.359 13.7706   3
   3   0   2 495.113 13.1498   4
   3   0   2 505.656 13.7588   3
   3   0   2 499.413 13.5478   5
   3   0   2 488.383 18.1421   1
  -4   0  -2 126.137 5.19547   3
   4   0   2 130.267 4.68146   4
   4   0   2 126.828 4.94696   5
   4   0   2 134.770 5.55784   3
   4   0   2 135.766 10.6192   1
  -5   0  -2 1.73661 7.10666   1
   5   0   2 7.76557 2.24551   3
   5   0   2 7.11744 1.55266   4
   5   0   2 4.82256 1.28803   5
  -6   0  -2 16.1590 17.2262   1
   6   0   2 -6.9799 6.46930   1
   6   0   2 6.86688 3.47081   4
   6   0   2 11.1591 3.42794   3
   6   0   2 8.33103 1.84629   5
  -7   0  -2 48.0771 21.0611   1
   7   0   2 67.7966 7.44717   3
   7   0   2 58.3964 10.2578   1
   7   0   2 60.4584 4.94239   4
   8   0   2 62.3725 5.41914   5
   8   0   2 75.6296 6.76627   4
   9   0   2 8.27023 6.12945   4
   9   0   2 12.0586 3.44249   5
  11  -1  -2 4.70560 3.50308   2
  11  -1  -2 2.95011 3.80468   5
  10  -1  -2 19.8635 3.31175   5
  10  -1  -2 26.5586 4.27421   4
   9  -1  -2 74.3665 7.86897   1
   9  -1  -2 76.5433 5.16332   4
   9  -1  -2 80.9646 5.46901   5
   8  -1  -2 67.4196 9.24275   3
   8  -1  -2 62.1787 6.65314   1
   8  -1  -2 69.9297 4.57513   5
   8  -1  -2 64.0995 5.58993   1
   7  -1  -2 434.181 14.5181   1
   7  -1  -2 450.727 13.4289   5
   7  -1  -2 430.364 13.7044   1
   7  -1  -2 449.153 14.8825   3
   6  -1  -2 128.484 6.42999   3
   6  -1  -2 127.405 5.38203   1
   6  -1  -2 131.050 6.27499   1
   6  -1  -2 129.582 5.11761   5
   6  -1  -2 126.392 3.90941   6
   5  -1  -2 272.219 8.22095   1
   5  -1  -2 284.312 7.82751   6
   5  -1  -2 271.834 8.66569   1
   5  -1  -2 285.007 9.43921   3
   5  -1  -2 288.491 8.51563   5
   4  -1  -2 323.061 8.67583   1
   4  -1  -2 322.964 9.04878   5
   4  -1  -2 328.198 9.84558   3
   4  -1  -2 317.413 8.31504   1
   3  -1  -2 0.12276 0.40750   5
   3  -1  -2 0.14728 0.62974   3
   3  -1  -2 0.97371 0.34247   2
   2  -1  -2 419.682 11.6697   1
   2  -1  -2 413.931 10.7643   2
   2  -1  -2 427.252 11.2318   3
   2  -1  -2 429.026 11.0476   4
  -2   1   2 426.247 10.8159   2
  -2   1   2 442.668 11.4273   1
   1  -1  -2 808.156 21.7463   1
   1  -1  -2 767.388 19.7858   4
   1  -1  -2 774.623 19.1806   5
   1  -1  -2 788.687 19.3651   2
  -1   1   2 763.700 19.3234   2
  -1   1   2 785.786 19.7308   4
  -1   1   2 778.333 21.5879   1
   0  -1  -2 3416.76 88.0031   1
   0   1   2 3474.54 87.9691   1
  -1  -1  -2 2443.80 62.0554   4
  -1  -1  -2 2623.98 66.6685   1
  -1  -1  -2 2567.04 62.0025   5
   1   1   2 2493.51 61.8487   3
   1   1   2 2481.60 62.1078   4
   1   1   2 2476.66 66.2479   1
   1   1   2 2441.08 61.8877   5
  -2  -1  -2 82.0092 6.97064   1
  -2  -1  -2 93.4706 3.55511   5
  -2  -1  -2 88.1330 3.15126   4
  -2  -1  -2 91.5559 3.34660   3
   2   1   2 85.1399 3.42805   3
   2   1   2 84.9353 8.19656   1
   2   1   2 86.2481 3.37121   4
   2   1   2 90.8343 3.31458   5
  -3  -1  -2 213.502 11.6109   1
  -3  -1  -2 218.230 6.99086   5
  -3  -1  -2 197.419 6.10817   6
   3   1   2 212.466 7.05589   3
   3   1   2 212.062 13.1371   1
   3   1   2 213.483 6.70786   4
   3   1   2 213.829 6.73665   5
  -4  -1  -2 104.262 5.03624   5
  -4  -1  -2 117.379 10.5615   1
   4   1   2 105.456 4.39907   5
   4   1   2 118.305 12.6476   1
   4   1   2 100.655 4.41417   4
   4   1   2 99.6473 4.99658   3
  -5  -1  -2 5.67725 6.82038   1
   5   1   2 7.33406 1.55015   5
   5   1   2 11.4689 8.11536   1
   5   1   2 5.59498 1.79742   4
   5   1   2 4.36554 2.29579   3
   6   1   2 196.821 7.64576   4
   6   1   2 185.373 7.46979   5
   6   1   2 197.293 9.10981   3
   7   1   2 5.23086 1.98678   5
   7   1   2 2.32354 3.12485   4
   7   1   2 -0.4204 9.04825   3
   8   1   2 15.3224 2.98726   5
   9   1   2 11.9738 3.98313   5
  11  -2  -2 71.8224 6.25022   2
  11  -2  -2 83.6896 7.60461   5
  10  -2  -2 48.9801 5.73962   5
  10  -2  -2 60.0535 5.67568   4
   9  -2  -2 88.3527 4.18847   1
   9  -2  -2 92.6781 4.01647   1
   8  -2  -2 30.9509 2.69610   1
   8  -2  -2 33.3696 2.82326   1
   8  -2  -2 32.4331 3.54391   5
   8  -2  -2 35.3360 1.46283   6
   8  -2  -2 44.0679 6.32582   3
   7  -2  -2 19.9053 1.40062   6
   7  -2  -2 20.1827 2.03561   1
   7  -2  -2 24.6890 3.42431   3
   7  -2  -2 17.4232 2.04446   1
   7  -2  -2 21.3514 2.49994   5
   6  -2  -2 10.0524 1.45512   5
   6  -2  -2 8.98153 1.92130   3
   6  -2  -2 10.4996 1.28894   6
   5  -2  -2 5.51523 1.69120   3
   5  -2  -2 -0.0317 0.77825   5
   5  -2  -2 0.30958 0.65042   6
   4  -2  -2 8.73644 0.84100   4
   4  -2  -2 8.60095 1.14273   6
   4  -2  -2 10.0358 1.43639   3
   3  -2  -2 501.180 13.7207   6
   3  -2  -2 504.603 13.2852   4
   3  -2  -2 532.370 13.8500   3
  -3   2   2 519.862 13.1807   1
  -3   2   2 507.018 13.7174   3
  -3   2   2 512.962 13.6562   1
   2  -2  -2 339.942 9.15432   4
   2  -2  -2 345.272 9.00368   3
   2  -2  -2 339.754 8.51387   2
   2  -2  -2 338.678 9.45024   6
   2  -2  -2 334.996 10.4901   1
  -2   2   2 326.703 10.8812   1
  -2   2   2 332.699 8.51238   2
  -2   2   2 350.082 9.08328   4
  -2   2   2 341.686 8.98442   3
   1  -2  -2 514.515 12.5522   5
   1  -2  -2 507.196 13.1652   4
   1  -2  -2 499.567 15.7990   1
  -1   2   2 504.724 16.1300   1
  -1   2   2 488.072 12.4425   2
  -1   2   2 476.217 12.5049   5
   0  -2  -2 345.015 9.16460   4
   0  -2  -2 317.954 12.4660   1
   0  -2  -2 318.078 9.11660   6
   0  -2  -2 331.843 8.71605   5
   0   2   2 319.463 8.57997   5
   0   2   2 334.164 13.2338   1
   0   2   2 329.699 8.35607   3
   0   2   2 330.718 9.19512   4
  -1  -2  -2 54.8739 2.37712   4
  -1  -2  -2 53.1210 2.29678   6
  -1  -2  -2 44.1533 5.49679   1
   1   2   2 56.2354 2.65672   4
   1   2   2 54.3887 2.24304   3
   1   2   2 55.9080 2.18911   5
   1   2   2 57.1935 7.39929   1
  -2  -2  -2 4.97215 0.80292   6
  -2  -2  -2 2.45736 0.58263   4
  -2  -2  -2 4.21391 1.24572   5
  -2  -2  -2 5.31446 3.70477   1
   2   2   2 6.36383 5.31256   1
   2   2   2 3.16509 1.00422   3
   2   2   2 3.95093 1.16777   4
  -3  -2  -2 6.93168 4.71302   1
  -3  -2  -2 2.16290 1.48878   5
  -3  -2  -2 2.32685 0.62020   6
   3   2   2 2.52249 0.82467   5
   3   2   2 4.57210 7.00260   1
   3   2   2 0.75201 1.23030   3
   3   2   2 4.12103 1.41539   4
  -4  -2  -2 94.1892 10.3638   1
  -4  -2  -2 101.512 5.31487   5
   4   2   2 102.312 12.8269   1
   4   2   2 99.9180 5.18537   3
   4   2   2 98.7608 4.36089   5
   4   2   2 97.0832 4.79097   4
  -5  -2  -2 8.88855 2.82414   5
  -5  -2  -2 9.42046 7.66720   1
   5   2   2 3.91239 1.44883   5
   5   2   2 1.54398 11.3288   1
   5   2   2 2.34810 2.08203   4
   5   2   2 3.80720 2.38441   3
   6   2   2 67.6367 7.06074   3
   6   2   2 59.8683 17.4587   1
   6   2   2 85.8409 5.99819   4
   7   2   2 3.77869 6.57774   4
   7   2   2 1.66336 5.12442   3
   7   2   2 3.72989 2.32010   5
   8   2   2 0.36042 2.93052   5
  11  -3  -2 19.7834 4.08659   5
  11  -3  -2 34.8661 3.92947   4
  10  -3  -2 -1.4369 1.47760   4
  10  -3  -2 -1.6492 2.35901   4
  10  -3  -2 -0.3504 3.09193   5
   9  -3  -2 54.1647 1.92541   6
   9  -3  -2 67.8527 7.16276   3
   9  -3  -2 51.4963 4.71199   5
   9  -3  -2 54.3554 2.98616   4
   8  -3  -2 0.18759 1.59194   5
   8  -3  -2 2.07080 0.91059   4
   8  -3  -2 -0.3582 0.73583   6
   8  -3  -2 -0.9138 3.42116   3
   7  -3  -2 41.6550 3.12504   5
   7  -3  -2 39.4459 2.14915   4
   7  -3  -2 46.8333 4.82213   3
   7  -3  -2 38.0171 2.19471   6
   6  -3  -2 87.9436 3.15547   4
   6  -3  -2 92.4364 5.09764   3
   6  -3  -2 85.1499 3.94430   5
   6  -3  -2 84.6456 3.46693   6
   5  -3  -2 319.334 8.75313   4
   5  -3  -2 317.222 9.21429   6
   5  -3  -2 317.066 10.0467   3
  -5   3   2 320.708  9.9999   3
   4  -3  -2 9.89435 1.34995   6
   4  -3  -2 10.0956 0.79517   2
   4  -3  -2 8.71100 1.00854   4
   4  -3  -2 10.0950 1.50767   3
  -4   3   2 8.73180 1.24778   1
  -4   3   2 8.47398 1.25397   3
  -4   3   2 9.62996 1.83527   1
   3  -3  -2 154.378 3.96372   2
   3  -3  -2 150.966 5.09157   6
   3  -3  -2 148.880 4.69347   4
   3  -3  -2 153.394 4.81721   3
  -3   3   2 151.116 4.83577   3
  -3   3   2 147.587 6.63483   1
  -3   3   2 151.325 4.56160   4
  -3   3   2 151.156 5.74867   1
   2  -3  -2 -1.2107 1.53399   1
   2  -3  -2 1.70627 0.40078   5
   2  -3  -2 1.02931 0.49369   4
   2  -3  -2 0.47899 0.62873   6
  -2   3   2 1.17659 0.61320   4
  -2   3   2 1.43473 2.75265   1
  -2   3   2 0.74044 0.47096   3
   1  -3  -2 15.5506 1.03676   5
   1  -3  -2 18.6906 1.52624   6
   1  -3  -2 16.8884 1.33278   4
  -1   3   2 16.4012 1.57652   4
  -1   3   2 17.1783 0.75802   3
  -1   3   2 17.1946 0.93040   5
  -1   3   2 12.6669 4.04892   1
   0  -3  -2 424.634 12.0077   6
   0  -3  -2 434.009 16.2207   1
   0  -3  -2 457.375 11.6414   5
   0  -3  -2 415.697 11.9217   4
   0   3   2 426.629 11.4004   5
   0   3   2 444.673 17.5187   1
   0   3   2 447.101 12.1754   4
  -1  -3  -2 762.521 20.2701   4
  -1  -3  -2 789.163 20.2376   5
  -1  -3  -2 750.819 20.0629   6
  -1  -3  -2 731.949 25.4141   1
   1   3   2 806.753 20.6365   4
   1   3   2 786.270 27.3099   1
   1   3   2 759.275 19.8766   5
  -2  -3  -2 13.6964 1.90107   5
  -2  -3  -2 14.2687 1.34004   6
  -2  -3  -2 12.8060 4.99057   1
  -2  -3  -2 14.4926 1.52749   4
   2   3   2 10.2106 6.94849   1
   2   3   2 12.2582 1.64818   4
   2   3   2 13.4172 1.42641   5
   2   3   2 13.2411 1.67543   3
  -3  -3  -2 189.513 5.59541   6
  -3  -3  -2 190.739 7.18122   5
  -3  -3  -2 194.719 13.1859   1
   3   3   2 207.854 17.5271   1
   3   3   2 183.287 6.94598   3
   3   3   2 199.231 7.10719   4
   3   3   2 182.402 6.32326   5
  -4  -3  -2 45.0614 4.58647   5
  -4  -3  -2 48.6855 1.79971   6
   4   3   2 53.9280 4.32403   4
   4   3   2 52.6860 12.9282   1
   4   3   2 42.9920 5.05978   3
   4   3   2 45.7249 3.08583   5
  -5  -3  -2 15.9279 3.66695   5
  -5  -3  -2 32.8052 9.44303   1
   5   3   2 11.0357 3.20258   3
   5   3   2 12.8895 3.07985   4
   5   3   2 8.39938 1.74173   5
   5   3   2 13.6805 14.3358   1
   6   3   2 2.72164 1.88195   5
   6   3   2 2.16549 4.09698   3
   6   3   2 8.26146 4.43910   4
   7   3   2 40.5282 4.74786   5
   8   3   2 21.6739 3.75729   5
  11  -4  -2 -0.5225 3.41555   5
  11  -4  -2 -0.4936 2.40143   4
  10  -4  -2 49.7031 5.98695   4
  10  -4  -2 39.8966 4.45641   5
  10  -4  -2 41.1890 1.82055   6
  10  -4  -2 42.3391 3.27040   4
   9  -4  -2 5.54630 1.48647   4
   9  -4  -2 4.58651 2.44846   5
   9  -4  -2 4.31953 1.02717   6
   9  -4  -2 2.48948 4.20944   3
   8  -4  -2 66.9270 4.41316   5
   8  -4  -2 68.6087 2.99723   6
   8  -4  -2 64.8547 3.02363   4
   8  -4  -2 64.4251 6.59247   3
   7  -4  -2 20.3950 2.70371   5
   7  -4  -2 16.9712 3.07087   3
   7  -4  -2 18.2652 1.75499   4
   7  -4  -2 15.6457 1.83535   6
  -7   4   2 13.1178 2.20070   3
   6  -4  -2 275.858 7.89142   4
   6  -4  -2 275.245 10.6221   3
   6  -4  -2 285.693 8.46660   6
  -6   4   2 264.147 9.19600   3
   5  -4  -2 119.163 4.98470   3
   5  -4  -2 115.517 4.43513   6
   5  -4  -2 119.900 3.96086   4
  -5   4   2 106.555 4.74287   3
  -5   4   2 114.947 4.26822   1
   4  -4  -2 3.30448 1.02302   3
   4  -4  -2 3.24932 1.01201   6
   4  -4  -2 3.80447 0.44172   2
   4  -4  -2 2.66085 0.69649   4
  -4   4   2 3.20177 1.54080   1
  -4   4   2 5.14831 2.81391   1
  -4   4   2 3.62187 0.97038   3
  -4   4   2 3.26073 0.76136   4
   3  -4  -2 75.4467 2.99589   4
   3  -4  -2 75.9670 3.35751   6
  -3   4   2 76.4219 3.04272   4
  -3   4   2 82.3773 6.73755   1
  -3   4   2 74.9463 2.94821   3
  -3   4   2 71.0045 5.09544   1
   2  -4  -2 916.309 24.0015   6
   2  -4  -2 879.180 23.6053   4
   2  -4  -2 910.396 23.0536   5
  -2   4   2 947.231 23.7885   4
  -2   4   2 897.685 23.1135   3
  -2   4   2 930.326 28.4193   1
   1  -4  -2 45.3460 2.30885   4
   1  -4  -2 45.3504 2.04200   5
   1  -4  -2 40.6373 2.37875   6
  -1   4   2 43.4440 1.82742   5
  -1   4   2 64.9199 8.13440   1
  -1   4   2 43.5843 2.64216   4
   0  -4  -2 1627.67 41.8055   4
   0  -4  -2 1632.86 41.8137   6
   0  -4  -2 1624.89 41.4326   5
   0  -4  -2 1642.78 47.4313   1
   0   4   2 1625.20 41.2243   5
   0   4   2 1702.95 49.2509   1
   0   4   2 1683.12 42.1368   4
  -1  -4  -2 584.684 15.9080   6
  -1  -4  -2 612.042 22.5621   1
  -1  -4  -2 624.485 16.2111   5
   1   4   2 572.858 15.6238   3
   1   4   2 583.952 15.6721   5
   1   4   2 566.944 17.3771   4
   1   4   2 578.730 24.6063   1
  -2  -4  -2 53.1811 3.80087   5
  -2  -4  -2 53.7908 2.54206   6
  -2  -4  -2 65.4603 9.37617   1
   2   4   2 51.4683 3.82575   4
   2   4   2 51.8514 3.34078   3
   2   4   2 45.0415 10.7161   1
   2   4   2 53.0812 2.72296   5
  -3  -4  -2 9.36286 1.32695   6
  -3  -4  -2 10.9579 6.86663   1
  -3  -4  -2 16.2687 2.75200   5
   3   4   2 8.94563 11.2722   1
   3   4   2 9.85391 2.20388   3
   3   4   2 11.8077 2.34134   4
   3   4   2 12.3832 1.68353   5
  -4  -4  -2 85.6870 6.54637   5
  -4  -4  -2 75.5215 2.67854   6
  -4  -4  -2 79.8302 11.5083   1
   4   4   2 83.6344 5.90323   3
   4   4   2 96.1803 17.1154   1
   4   4   2 75.4503 5.73261   4
   4   4   2 80.7486 4.22521   5
  -5  -4  -2 80.7795 7.99920   5
   5   4   2 68.6645 4.43231   5
   5   4   2 76.7806 7.00247   4
   5   4   2 79.3637 7.15751   3
   6   4   2 91.0512 5.53540   5
   6   4   2 79.9406 11.0446   3
   7   4   2 14.7483 3.41968   5
  11  -5  -2 -5.4839 3.27443   5
  11  -5  -2 6.28198 2.71164   2
  10  -5  -2 6.11600 3.02701   5
  10  -5  -2 9.80654 1.30773   6
  10  -5  -2 8.94856 1.71719   4
   9  -5  -2 11.3582 2.74791   5
   9  -5  -2 6.51205 1.38813   6
   9  -5  -2 8.33049 1.47789   4
   9  -5  -2 13.3755 4.39251   3
   8  -5  -2 34.3184 3.71836   5
   8  -5  -2 35.2455 2.56303   6
   8  -5  -2 34.0138 2.34269   4
   8  -5  -2 42.4960 4.74120   3
  -8   5   2 33.5247 4.20728   3
   7  -5  -2 76.6059 3.11364   4
   7  -5  -2 77.5952 7.20241   3
   7  -5  -2 76.0800 3.60133   6
  -7   5   2 68.8028 4.49881   3
   6  -5  -2 43.0091 2.74112   6
   6  -5  -2 46.0644 2.31294   4
   6  -5  -2 45.2565 4.73136   3
  -6   5   2 40.7198 3.25359   3
  -6   5   2 49.9686 3.80072   1
  -6   5   2 46.2056 5.12921   1
   5  -5  -2 19.6637 2.49120   3
   5  -5  -2 18.8356 1.40858   2
   5  -5  -2 19.7751 2.02935   6
   5  -5  -2 23.9621 1.71965   4
  -5   5   2 22.2866 4.34339   1
  -5   5   2 22.3630 2.99004   1
  -5   5   2 20.5400 2.25269   3
   4  -5  -2 46.4389 2.41471   4
   4  -5  -2 50.7274 2.85024   6
  -4   5   2 49.3861 2.61948   4
  -4   5   2 54.3992 6.89205   1
  -4   5   2 50.3273 4.45437   1
  -4   5   2 49.0020 2.67908   3
   3  -5  -2 425.436 11.0814   5
   3  -5  -2 417.506 12.0511   6
   3  -5  -2 421.476 11.5614   4
  -3   5   2 419.140 11.6281   4
  -3   5   2 417.763 11.3397   3
  -3   5   2 415.747 14.6773   1
  -3   5   2 343.009 18.1977   1
   2  -5  -2 45.1599 2.40476   4
   2  -5  -2 44.7295 2.15988   5
   2  -5  -2 42.1465 2.60167   6
  -2   5   2 43.0380 1.87114   3
  -2   5   2 45.4341 2.83811   4
  -2   5   2 44.6353 7.23429   1
   1  -5  -2 0.35309 0.71850   4
   1  -5  -2 0.31303 0.76889   5
   1  -5  -2 0.10050 0.72324   6
  -1   5   2 1.47139 0.53957   5
  -1   5   2 -4.3185 5.91587   1
  -1   5   2 -0.3046 1.20964   4
   0  -5  -2 22.6543 1.90544   4
   0  -5  -2 18.3898 1.87601   6
   0  -5  -2 28.1773 2.35790   5
   0   5   2 35.7934 8.62943   1
   0   5   2 24.2696 2.87145   4
   0   5   2 22.0905 1.58251   5
  -1  -5  -2 48.7143 8.10379   1
  -1  -5  -2 51.5740 2.75737   6
  -1  -5  -2 57.1900 3.61497   5
   1   5   2 46.6804 10.9848   1
   1   5   2 60.7521 4.09385   4
   1   5   2 48.5499 3.04292   3
   1   5   2 50.9146 2.63066   5
  -2  -5  -2 -4.3089 6.56886   1
  -2  -5  -2 -0.7378 1.91844   5
  -2  -5  -2 2.82978 1.00010   6
   2   5   2 2.86501 2.04729   4
   2   5   2 12.1473 11.0866   1
   2   5   2 3.29828 1.14855   5
   2   5   2 3.71709 1.76988   3
  -3  -5  -2 4.76290 8.72317   1
  -3  -5  -2 22.7650 3.69139   5
  -3  -5  -2 21.3180 1.77788   6
   3   5   2 30.7007 14.9107   1
   3   5   2 25.0044 3.20167   3
   3   5   2 21.4114 3.34125   4
   3   5   2 18.7136 2.48338   5
  -4  -5  -2 18.9982 1.48375   6
  -4  -5  -2 25.7784 4.70097   5
   4   5   2 22.9939 4.38989   4
   4   5   2 15.4480 18.2618   1
   4   5   2 18.3217 3.74096   3
  -5  -5  -2 37.1619 1.52947   6
   5   5   2 57.3426 8.07493   3
   6   5   2 1.07402 6.17797   3
   6   5   2 -0.7174 2.33770   5
  11  -6  -2 57.0937 4.89221   2
  11  -6  -2 59.4047 3.01163   6
  11  -6  -2 60.7820 7.53090   5
  10  -6  -2 92.0210 6.46660   5
  10  -6  -2 93.0948 4.88276   2
  10  -6  -2 86.0575 3.45828   4
  10  -6  -2 88.8149 3.81904   6
   9  -6  -2 168.965 5.43088   4
   9  -6  -2 170.585 9.79378   3
   9  -6  -2 176.787 6.11969   6
   9  -6  -2 168.868 7.76792   5
   8  -6  -2 541.690 14.4333   4
   8  -6  -2 540.187 15.2484   6
   8  -6  -2 560.468 17.1286   3
  -8   6   2 520.537 17.1106   3
   7  -6  -2 695.264 19.7129   3
   7  -6  -2 713.188 17.7807   2
   7  -6  -2 676.621 18.8844   6
   7  -6  -2 675.377 18.0443   4
  -7   6   2 690.568 20.1974   3
  -7   6   2 674.143 19.9786   1
  -7   6   2 686.844 19.4091   1
   6  -6  -2 158.672 7.04291   3
   6  -6  -2 160.383 5.30948   4
   6  -6  -2 164.180 6.06696   6
   6  -6  -2 162.080 4.65024   2
   6  -6  -2 163.612 4.51005   2
  -6   6   2 160.793 6.53146   3
  -6   6   2 168.658 6.89800   1
  -6   6   2 159.081 10.2028   1
   5  -6  -2 402.046 11.4764   4
   5  -6  -2 403.611 12.2490   6
  -5   6   2 415.035 16.4874   1
  -5   6   2 425.038 11.3917   4
  -5   6   2 414.030 12.3701   3
  -5   6   2 412.282 13.3218   1
   4  -6  -2 594.181 15.7420   4
   4  -6  -2 582.029 15.4725   5
   4  -6  -2 549.322 16.3128   6
  -4   6   2 578.122 18.6166   1
  -4   6   2 576.638 15.9612   3
  -4   6   2 595.494 21.6828   1
  -4   6   2 581.258 15.7489   4
   3  -6  -2 767.490 20.1547   4
   3  -6  -2 765.121 19.6553   5
   3  -6  -2 739.334 20.6667   6
  -3   6   2 750.345 19.7604   3
  -3   6   2 710.764 23.8872   1
  -3   6   2 774.476 27.4923   1
  -3   6   2 772.863 20.4001   4
   2  -6  -2 768.129 21.9400   6
   2  -6  -2 856.459 21.2310   5
   2  -6  -2 804.740 21.6357   4
  -2   6   2 815.823 22.2187   4
  -2   6   2 795.760 20.8024   3
  -2   6   2 832.844 30.0777   1
  -2   6   2 819.324 26.4880   1
   1  -6  -2 300.309 8.78665   5
   1  -6  -2 284.720 9.15093   6
   1  -6  -2 293.340 8.97440   4
  -1   6   2 294.588 14.2022   1
  -1   6   2 303.554 9.68771   4
  -1   6   2 288.742 18.2457   1
  -1   6   2 280.883 8.42051   5
  -1   6   2 285.035 7.82697   2
  -1   6   2 295.926 14.2314   1
   0  -6  -2 1320.88 35.6785   6
   0  -6  -2 1406.62 35.8648   4
   0  -6  -2 1442.50 35.7595   5
   0   6   2 1344.08 35.2229   5
   0   6   2 1257.77 51.4264   1
   0   6   2 1430.96 43.4666   1
   0   6   2 1434.52 36.5643   4
  -1  -6  -2 39.0972 3.95131   5
  -1  -6  -2 37.6680 2.52555   6
   1   6   2 34.8038 3.22652   3
   1   6   2 22.0120 12.5376   1
   1   6   2 37.8759 4.44403   4
   1   6   2 36.5922 2.47987   5
  -2  -6  -2 613.510 16.3920   6
  -2  -6  -2 602.723 17.9357   5
   2   6   2 608.313 33.1538   1
   2   6   2 586.777 16.7443   5
   2   6   2 604.147 17.2546   3
   2   6   2 596.842 18.3563   4
  -3  -6  -2 52.0656 6.78220   5
  -3  -6  -2 44.8388 2.49351   6
   3   6   2 43.7294 3.56190   5
   3   6   2 46.9494 5.74750   3
   3   6   2 30.1791 10.2260   1
   3   6   2 22.1326 18.4728   1
   3   6   2 50.3647 6.76306   4
  -4  -6  -2 379.063 10.0558   6
   4   6   2 372.980 13.8295   3
   4   6   2 364.938 11.9234   5
   5   6   2 11.7974 2.74767   5
   5   6   2 8.47731 6.05279   3
   6   6   2 157.260 8.29172   5
  11  -7  -2 466.598 13.0895   6
  11  -7  -2 483.034 14.0522   2
  11  -7  -2 461.435 16.4413   5
  10  -7  -2 3.91483 1.70134   6
  10  -7  -2 2.32651 1.79693   2
  10  -7  -2 -1.4449 2.83682   5
   9  -7  -2 329.206 13.1565   3
   9  -7  -2 324.438 8.88288   4
   9  -7  -2 331.706 9.46564   2
   9  -7  -2 322.674 10.1153   6
  -9   7   2 319.271 12.5977   3
   8  -7  -2 0.39631 0.96379   2
   8  -7  -2 -0.0124 1.48429   2
   8  -7  -2 -1.9290 2.65464   3
   8  -7  -2 0.73996 1.03474   4
   8  -7  -2 1.77366 1.38435   6
  -8   7   2 2.79689 3.75329   1
  -8   7   2 -1.9489 2.01969   3
  -8   7   2 2.49286 3.24215   1
   7  -7  -2 262.808 7.83579   4
   7  -7  -2 261.452 8.77962   6
   7  -7  -2 272.099 7.01553   2
   7  -7  -2 253.889 7.06639   2
  -7   7   2 262.916 9.86911   3
  -7   7   2 256.720 13.5929   1
  -7   7   2 276.377 10.2995   1
   6  -7  -2 207.167 6.50396   4
   6  -7  -2 204.915 7.32498   6
  -6   7   2 178.241 13.5120   1
  -6   7   2 205.003 6.31326   4
  -6   7   2 199.383 8.81588   1
  -6   7   2 202.749 7.65988   3
   5  -7  -2 537.153 14.5688   4
   5  -7  -2 519.689 15.4073   6
  -5   7   2 541.642 14.6164   4
  -5   7   2 538.317 17.3217   1
  -5   7   2 494.406 21.3895   1
  -5   7   2 530.398 15.2664   3
   4  -7  -2 301.337 9.26662   4
   4  -7  -2 303.232 9.67015   5
   4  -7  -2 307.813 9.95972   6
  -4   7   2 318.660 9.76706   4
  -4   7   2 321.441 9.54783   3
  -4   7   2 296.990 17.5684   1
  -4   7   2 318.239 13.4710   1
   3  -7  -2 129.840 5.48077   6
   3  -7  -2 132.550 5.21762   5
   3  -7  -2 133.536 5.08597   4
  -3   7   2 143.876 15.1757   1
  -3   7   2 142.630 5.90761   4
  -3   7   2 131.709 4.74101   3
   2  -7  -2 454.087 13.6106   6
   2  -7  -2 462.820 13.2697   4
   2  -7  -2 480.078 13.1020   5
  -2   7   2 462.016 24.3228   1
  -2   7   2 450.778 11.5372   2
  -2   7   2 461.592 13.8687   4
  -2   7   2 446.510 12.3428   3
  -2   7   2 460.290 18.7029   1
   1  -7  -2 13.1014 1.75348   4
   1  -7  -2 16.1318 2.24794   6
   1  -7  -2 14.9390 2.17166   5
  -1   7   2 16.1425 2.77333   4
  -1   7   2 17.0771 1.34233   2
  -1   7   2 21.7945 11.2642   1
   0  -7  -2 273.939 8.97744   6
   0  -7  -2 282.293 9.59281   5
   0   7   2 297.113 24.4886   1
   0   7   2 293.115 10.5331   4
   0   7   2 280.926 8.11627   2
   0   7   2 269.266 8.64298   5
   0   7   2 288.765 16.8248   1
  -1  -7  -2 48.6524 3.13480   6
  -1  -7  -2 53.3117 5.35886   5
   1   7   2 43.2886 9.46329   1
   1   7   2 50.3817 3.20664   5
   1   7   2 54.0510 4.20945   3
   1   7   2 69.0346 17.6271   1
   1   7   2 50.4487 5.95381   4
  -2  -7  -2 103.369 8.23904   5
  -2  -7  -2 87.5488 3.94819   6
   2   7   2 89.7463 6.12984   3
   2   7   2 88.3999 23.9871   1
   2   7   2 87.0281 5.27316   5
   2   7   2 95.0150 7.81159   4
   2   7   2 124.712 16.9883   1
  -3  -7  -2 9.46886 1.52159   6
   3   7   2 18.0942 4.27563   3
   3   7   2 3.28475 12.0505   1
   3   7   2 11.6942 2.15751   5
  -4  -7  -2 12.3664 1.46989   6
   4   7   2 12.7780 2.71004   5
   4   7   2 10.6729 5.35471   3
   5   7   2 35.5120 3.93646   5
  11  -8  -2 -3.2494 3.08366   2
  11  -8  -2 7.17823 2.05047   6
  11  -8  -2 -3.6646 4.01322   5
  10  -8  -2 3.52324 3.09770   6
  10  -8  -2 5.75625 1.76899   2
   9  -8  -2 2.70445 1.20427   2
   9  -8  -2 -0.4902 1.70641   2
   9  -8  -2 0.74194 1.75913   6
   9  -8  -2 -1.0090 0.97205   4
  -9   8   2 2.03049 2.76562   3
   8  -8  -2 0.57490 1.26077   4
   8  -8  -2 2.79967 1.68330   6
  -8   8   2 1.24699 2.42327   3
  -8   8   2 1.76074 5.49294   1
   7  -8  -2 24.7181 3.00107   6
   7  -8  -2 20.6765 2.30419   4
  -7   8   2 26.2659 3.82756   3
  -7   8   2 23.8791 5.04381   1
   6  -8  -2 20.2690 2.76986   6
   6  -8  -2 18.9626 2.32800   4
  -6   8   2 21.1181 2.75773   3
  -6   8   2 10.9085 8.71662   1
  -6   8   2 21.2978 2.90519   4
  -6   8   2 15.3126 4.93372   1
   5  -8  -2 129.207 5.16097   5
   5  -8  -2 125.258 4.85600   4
  -5   8   2 122.246 9.41417   1
  -5   8   2 129.198 16.4079   1
  -5   8   2 122.604 5.38577   3
   4  -8  -2 65.2867 3.48104   4
   4  -8  -2 70.7154 3.86641   5
  -4   8   2 61.2327 3.55648   3
  -4   8   2 75.7345 9.91296   1
  -4   8   2 65.2326 4.61501   4
  -4   8   2 72.9850 13.0497   1
   3  -8  -2 97.9606 4.55629   5
   3  -8  -2 93.0329 4.60584   6
   3  -8  -2 92.4480 4.23921   4
  -3   8   2 96.8283 4.03049   3
  -3   8   2 92.6725 6.73772   4
  -3   8   2 122.490 15.8001   1
  -3   8   2 91.7231 9.37255   1
   2  -8  -2 -1.2979 1.57952   5
   2  -8  -2 0.58373 1.31980   6
  -2   8   2 1.67122 1.01069   3
  -2   8   2 6.61396 5.46059   1
  -2   8   2 -2.4177 2.41933   4
  -2   8   2 -1.3639 11.6032   1
   1  -8  -2 92.8883 5.33730   5
   1  -8  -2 78.5813 4.29398   6
  -1   8   2 77.4557 16.7805   1
  -1   8   2 87.9017 3.07758   2
  -1   8   2 93.0046 6.40613   4
  -1   8   2 107.101 12.1382   1
   0  -8  -2 39.7037 4.24514   5
   0  -8  -2 36.9153 3.14880   6
   0   8   2 26.7899 9.88877   1
   0   8   2 32.9768 17.5662   1
   0   8   2 40.4692 2.42588   2
   0   8   2 38.6998 2.96135   5
   0   8   2 53.6959 7.21580   4
  -1  -8  -2 190.187 9.50543   5
  -1  -8  -2 182.393 6.64390   6
   1   8   2 182.008 18.9894   1
   1   8   2 181.486 6.28540   2
   1   8   2 232.911 42.7283   1
   1   8   2 181.402 9.16784   5
  -2  -8  -2 -0.8380 1.39270   6
   2   8   2 -1.0639 1.78809   2
   2   8   2 -3.4852 3.39797   3
   2   8   2 -1.4587 1.66331   5
  -3  -8  -2 74.5357 3.65571   6
   3   8   2 70.1050 9.21868   3
   3   8   2 80.8344 5.16431   2
   3   8   2 65.0812 4.89277   5
   4   8   2 27.1813 3.83410   5
   4   8   2 25.5851 3.70601   2
  10  -9  -2 89.1167 5.09909   6
 -10   9   2 96.7469 8.58336   3
   9  -9  -2 8.76902 2.27435   6
  -9   9   2 8.15129 3.42770   3
   8  -9  -2 55.1521 4.07593   6
   8  -9  -2 53.0465 2.88228   4
  -8   9   2 51.2958 5.65282   3
   7  -9  -2 -0.9263 1.51701   6
   7  -9  -2 3.15002 1.28463   4
  -7   9   2 1.90671 2.27106   3
   6  -9  -2 22.8222 3.38201   6
   6  -9  -2 23.7515 2.89671   5
   6  -9  -2 21.7997 2.41526   4
  -6   9   2 27.1054 3.01577   4
  -6   9   2 23.6576 3.01570   3
   5  -9  -2 9.12075 2.18261   5
   5  -9  -2 3.97153 1.37551   4
  -5   9   2 5.09777 2.41636   4
  -5   9   2 6.59569 1.86592   3
  -5   9   2 6.47722 7.59400   1
   4  -9  -2 8.79208 2.18595   5
   4  -9  -2 5.33215 1.38782   4
   4  -9  -2 4.26564 1.82640   6
  -4   9   2 -5.6980 12.5239   1
  -4   9   2 6.37576 7.62605   1
  -4   9   2 9.74678 2.75207   4
  -4   9   2 9.92334 1.90642   3
   3  -9  -2 37.8682 4.08358   5
   3  -9  -2 41.4731 3.58603   6
  -3   9   2 48.2092 12.6931   1
  -3   9   2 40.1845 2.97759   3
  -3   9   2 42.0328 5.53824   4
  -3   9   2 35.5848 15.4452   1
   2  -9  -2 46.8596 3.72418   6
   2  -9  -2 48.0989 4.86950   5
  -2   9   2 38.0643 4.47531   4
  -2   9   2 44.0177 2.87184   3
  -2   9   2 57.2167 17.3746   1
   1  -9  -2 19.8792 3.33927   6
   1  -9  -2 16.4029 5.17165   5
  -1   9   2 16.9198 4.38049   4
  -1   9   2 21.0508 1.72590   2
  -1   9   2 28.8937 19.5227   1
   0  -9  -2 113.649 8.16980   5
   0   9   2 108.016 6.15113   3
   0   9   2 107.596 25.9608   1
   0   9   2 113.580 4.27352   2
  -1  -9  -2 -2.1582 2.72883   6
   1   9   2 1.25418 1.71293   5
   1   9   2 -0.3637 3.57414   3
   1   9   2 3.88082 1.72037   2
  -2  -9  -2 3.50752 2.19835   6
   2   9   2 4.88832 2.40677   5
   2   9   2 4.69462 4.27236   2
   3   9   2 14.0524 3.11661   2
   3   9   2 12.9679 2.83079   5
  10 -10  -2 7.95483 2.53236   6
 -10  10   2 12.3830 4.72215   3
   9 -10  -2 3.15359 2.32234   6
  -9  10   2 2.34950 3.81429   3
   8 -10  -2 6.40872 3.60512   5
   8 -10  -2 1.96026 2.15136   6
   7 -10  -2 9.02714 2.43041   6
   7 -10  -2 12.0740 3.34365   5
  -7  10   2 15.7417 3.02478   4
  -7  10   2 6.20249 3.01626   3
   6 -10  -2 4.43772 1.95412   6
  -6  10   2 3.88850 2.42157   3
  -6  10   2 7.16662 3.06972   4
   5 -10  -2 16.7289 2.46034   6
   5 -10  -2 31.4032 3.52667   5
  -5  10   2 19.9807 2.80510   3
  -5  10   2 21.6355 3.80021   4
   4 -10  -2 145.725 7.49884   5
   4 -10  -2 141.265 6.50146   6
  -4  10   2 140.042 5.94394   3
  -4  10   2 143.562 8.21424   4
   3 -10  -2 123.847 5.91162   6
   3 -10  -2 123.150 8.00353   5
  -3  10   2 121.060 5.24514   3
  -3  10   2 115.745 8.72070   4
   2 -10  -2 -0.8305 3.39729   5
   2 -10  -2 4.38402 1.96993   6
  -2  10   2 0.47956 1.52402   3
   1 -10  -2 68.0653 4.48028   6
  -1  10   2 54.5178 3.51910   3
  -1  10   2 69.0249 2.90428   2
   0 -10  -2 18.0026 2.69493   6
   0  10   2 19.6488 2.08395   2
  -1 -10  -2 2.79280 2.10588   6
   1  10   2 6.11510 2.28321   2
   1  10   2 6.33720 2.64356   5
   9 -11  -2 73.2649 5.49929   6
  -9  11   2 61.7767 8.11479   3
   8 -11  -2 8.24247 2.55412   6
   7 -11  -2 30.3636 4.28573   6
  -7  11   2 41.7268 4.23748   4
  -7  11   2 38.1298 4.56315   3
   6 -11  -2 58.8489 4.78420   6
  -6  11   2 71.9921 6.03760   4
  -6  11   2 54.2920 5.71878   3
   5 -11  -2 11.4814 2.61896   6
  -5  11   2 8.20930 2.65957   3
   4 -11  -2 524.391 15.8099   6
  -4  11   2 478.799 14.8601   3
  -4  11   2 527.020 17.7373   4
   1 -11  -2 1.85113 2.18828   6
   0 -11  -2 10.3457 2.57871   6
   8 -12  -2 115.457 7.06153   6
  -8  12   2 129.244 9.50171   3
   7 -12  -2 45.5122 5.15881   6
  -7  12   2 51.4094 7.45121   3
   5 -12  -2 12.8775 2.76499   6
   4 -12  -2 6.66789 2.72311   6
   3 -12  -2 2.07636 2.57653   6
   2 -12  -2 33.2778 3.82656   6
   2 -13   3 276.062 9.23524   6
  -3  13  -3 70.0501 6.80947   3
   3 -13   3 67.9483 4.28113   6
  -4  13  -3 168.093 9.45388   3
   4 -13   3 187.717 6.94906   6
  -5  13  -3 3.73480 3.79633   3
   5 -13   3 0.71242 1.74724   6
  -6  13  -3 466.974 17.1920   3
   6 -13   3 433.282 13.4463   6
  -7  13  -3 27.1863 5.53704   3
   7 -13   3 16.9252 2.55008   6
   1  12  -3 29.3027 3.24518   2
  -1 -12   3 24.9776 3.37014   6
   0  12  -3 14.2942 2.50576   2
   0 -12   3 11.7662 2.00487   6
  -1  12  -3 54.6508 3.74627   2
   1 -12   3 57.3834 3.67954   6
  -2  12  -3 15.5265 2.05506   2
   2 -12   3 24.0743 2.74813   6
  -3  12  -3 18.9135 9.14468   4
  -3  12  -3 5.58332 1.60931   2
   3 -12   3 5.28868 1.51171   6
  -4  12  -3 25.7752 3.77060   3
  -4  12  -3 38.7712 5.04755   4
   4 -12   3 32.6203 2.99589   6
  -5  12  -3 11.5186 3.75996   4
  -5  12  -3 6.29686 3.18549   3
   5 -12   3 7.33909 1.82616   6
  -6  12  -3 -0.1762 3.34577   3
   6 -12   3 0.64599 1.42455   6
  -7  12  -3 56.7222 6.31927   3
   7 -12   3 44.0062 3.51774   6
  -8  12  -3 14.5632 4.89664   3
   8 -12   3 10.0985 1.99639   6
   2  11  -3 166.563 7.04713   2
  -2 -11   3 148.539 5.73637   6
  -1 -11   3 81.6379 3.90108   6
   0  11  -3 23.8345 3.02339   2
   0 -11   3 25.2560 2.57548   6
  -1  11  -3 62.2931 23.4602   1
  -1  11  -3 39.2672 2.94038   2
  -1  11  -3 34.4172 5.14493   4
   1 -11   3 46.3658 2.88818   6
  -2  11  -3 5.04889 3.64263   4
  -2  11  -3 0.73424 1.34878   2
  -2  11  -3 25.5907 19.5350   1
   2 -11   3 2.12406 1.30480   6
  -3  11  -3 8.44436 1.52335   2
  -3  11  -3 15.0638 3.60155   4
   3 -11   3 6.84527 1.34326   6
  -4  11  -3 83.6706 5.64442   3
  -4  11  -3 86.0152 6.34232   4
   4 -11   3 78.9702 3.85815   6
  -5  11  -3 91.4389 7.40854   3
  -5  11  -3 106.887 5.88573   4
   5 -11   3 104.065 4.44391   6
   5 -11   3 106.325 4.49445   2
  -6  11  -3 24.0981 3.94620   3
   6 -11   3 27.5943 2.68889   6
   6 -11   3 31.5826 2.79521   2
  -7  11  -3 0.89939 3.34148   3
   7 -11   3 4.25460 1.41984   6
   7 -11   3 4.31939 1.95531   2
  -8  11  -3 76.3274 8.09098   3
   8 -11   3 72.2047 3.85597   6
  -9  11  -3 -2.8307 4.33149   3
   9 -11   3 2.97119 1.82885   6
   3  10  -3 16.1757 2.74500   2
   3  10  -3 14.5288 3.10336   5
   3  10  -3 10.1707 6.55142   6
  -3 -10   3 18.5085 2.59100   6
   2  10  -3 30.1012 3.40072   2
   2  10  -3 39.4665 6.60956   6
  -2 -10   3 31.4372 2.58043   6
   1  10  -3 -8.6328 8.76091   1
   1  10  -3 3.65063 4.77428   6
   0  10  -3 5.96481 7.35228   1
   0  10  -3 27.4120 19.0060   1
   0  10  -3 16.1383 4.61717   6
   0  10  -3 14.2291 4.24610   4
   0  10  -3 11.7947 1.65345   2
  -1  10  -3 108.989 11.8228   1
  -1  10  -3 114.861 4.32282   2
  -1  10  -3 117.010 6.96075   4
  -1  10  -3 117.102 8.21589   6
   1 -10   3 118.866 6.54796   5
  -2  10  -3 15.7072 1.90157   2
  -2  10  -3 13.7606 3.15212   4
  -2  10  -3 17.5182 6.17557   1
  -2  10  -3 17.9701 4.30352   6
   2 -10   3 15.6353 2.82665   5
   2 -10   3 15.6386 2.40694   6
  -3  10  -3 15.4885 2.78445   4
  -3  10  -3 15.4939 3.97501   6
  -3  10  -3 15.6108 1.67444   2
  -3  10  -3 12.6147 5.36565   1
   3 -10   3 10.0292 2.53533   5
  -4  10  -3 1.49753 1.84330   3
  -4  10  -3 4.73939 2.37203   4
  -4  10  -3 0.54449 3.21774   6
   4 -10   3 4.43092 1.54415   2
   4 -10   3 7.71976 2.64013   5
   4 -10   3 15.1584 12.7686   1
  -5  10  -3 12.1648 2.50902   3
  -5  10  -3 13.6252 2.10960   4
  -5  10  -3 16.7732 4.64918   6
   5 -10   3 12.4367 2.59671   5
   5 -10   3 15.8919 1.84084   2
   5 -10   3 11.0603 1.74153   6
  -6  10  -3 21.4808 4.92350   6
   6 -10   3 20.7785 2.69489   2
   6 -10   3 19.5703 2.16669   6
  -7  10  -3 1.44041 4.72901   6
  -7  10  -3 1.11669 2.62713   3
   7 -10   3 -0.5106 1.91864   2
   7 -10   3 2.05243 1.19339   6
  -8  10  -3 15.6093 3.76226   3
   8 -10   3 14.1769 1.76458   6
   8 -10   3 16.2855 2.72820   2
  -9  10  -3 -1.4508 3.83488   3
   9 -10   3 1.91246 1.47736   6
 -10  10  -3 5.76109 5.38996   3
  10 -10   3 13.1988 2.20170   6
   5   9  -3 0.87325 2.78867   2
   5   9  -3 2.76856 3.11802   5
   4   9  -3 2.83335 2.21315   5
   4   9  -3 3.40831 5.83818   6
   4   9  -3 1.67021 2.10891   2
   3   9  -3 53.3093 6.06072   6
   3   9  -3 36.8121 3.47862   2
   3   9  -3 37.9657 3.99403   5
  -3  -9   3 36.7851 2.45056   6
   2   9  -3 57.8855 9.93410   1
   2   9  -3 61.4299 4.04028   5
   2   9  -3 62.4733 3.69317   2
   2   9  -3 52.0697 7.03463   6
  -2  -9   3 57.3575 2.80918   6
   1   9  -3 9.41018 6.52577   1
   1   9  -3 5.54179 1.33856   2
   1   9  -3 6.42009 3.84730   4
   1   9  -3 10.4792 3.66271   6
   1   9  -3 -2.1224 15.6736   1
  -1  -9   3 5.49369 1.18253   6
  -1  -9   3 5.54636 3.06521   5
   0   9  -3 31.8340 2.30471   2
   0   9  -3 29.1726 14.0517   1
   0   9  -3 41.1332 5.20548   6
   0   9  -3 41.7238 4.12402   4
   0  -9   3 37.0081 4.78664   5
   0  -9   3 34.4953 2.17811   6
  -1   9  -3 40.2655 4.20299   4
  -1   9  -3 36.8243 2.20680   2
  -1   9  -3 65.5366 8.34363   1
  -1   9  -3 35.4939 4.79896   6
   1  -9   3 39.8220 4.03533   5
   1  -9   3 35.9344 2.23963   6
  -2   9  -3 146.332 6.21173   4
  -2   9  -3 137.895 9.73059   1
  -2   9  -3 145.651 4.76854   2
  -2   9  -3 153.367 7.27166   6
   2  -9   3 149.629 16.8025   1
   2  -9   3 149.662 6.06425   5
   2  -9   3 133.574 4.88398   6
  -3   9  -3 34.0455 3.48544   4
  -3   9  -3 33.9610 2.12389   2
  -3   9  -3 33.8803 4.62067   6
  -3   9  -3 34.3212 5.34988   1
   3  -9   3 40.8696 10.3465   1
   3  -9   3 40.9877 3.61771   5
   3  -9   3 33.6157 2.50787   2
   3  -9   3 35.4048 2.19696   6
  -4   9  -3 24.9481 5.00153   1
  -4   9  -3 18.8641 2.54107   3
  -4   9  -3 22.3512 3.40016   6
  -4   9  -3 23.3452 2.89977   4
   4  -9   3 22.0599 2.18744   2
   4  -9   3 23.4314 9.01554   1
   4  -9   3 22.0699 1.86632   6
  -5   9  -3 20.2547 3.07885   3
  -5   9  -3 13.3869 3.57711   6
  -5   9  -3 17.6982 2.10643   4
   5  -9   3 18.0043 1.81818   6
   5  -9   3 22.1801 2.30256   2
   5  -9   3 14.0375 7.66613   1
  -6   9  -3 11.5181 10.4155   1
  -6   9  -3 20.7099 4.03137   6
  -6   9  -3 19.9150 3.13564   3
   6  -9   3 23.5672 2.60364   2
   6  -9   3 36.8070 7.47133   1
   6  -9   3 22.1822 1.98476   6
  -7   9  -3 55.6695 5.61252   3
  -7   9  -3 59.7477 7.13678   6
   7  -9   3 64.6481 4.26974   2
   7  -9   3 61.1842 3.00981   6
  -8   9  -3 -2.9332 2.50867   3
  -8   9  -3 9.00479 8.36423   6
   8  -9   3 2.44578 2.36079   2
   8  -9   3 -0.1994 1.11297   6
  -9   9  -3 76.6998 7.94082   6
  -9   9  -3 73.1908 8.01159   3
   9  -9   3 60.4994 6.26919   2
 -10   9  -3 29.0948 6.10827   3
  10  -9   3 34.5970 3.00557   6
   6   8  -3 6.38207 3.19222   2
   6   8  -3 9.66392 3.37077   5
   5   8  -3 7.50008 2.58873   5
   5   8  -3 7.74351 2.42976   2
   4   8  -3 82.9347 7.37973   6
   4   8  -3 80.1940 4.90603   5
   4   8  -3 82.0099 4.68411   2
   3   8  -3 0.42218 1.42456   5
   3   8  -3 14.1085 8.35151   1
   3   8  -3 -3.5766 3.20630   4
   3   8  -3 0.75490 1.37178   2
   3   8  -3 -3.1683 3.15332   6
  -3  -8   3 -0.0639 3.91255   5
  -3  -8   3 1.24636 0.87695   6
   2   8  -3 535.553 14.7893   2
   2   8  -3 481.935 44.2362   1
   2   8  -3 529.922 15.2658   5
   2   8  -3 528.636 17.4432   4
   2   8  -3 544.816 21.8298   1
   2   8  -3 520.841 15.9563   6
  -2  -8   3 519.317 14.0088   6
   1   8  -3 46.0346 7.27700   1
   1   8  -3 46.4807 4.34390   4
   1   8  -3 48.7269 3.05830   5
   1   8  -3 45.1082 4.55346   6
   1   8  -3 47.2376 2.62409   2
   1   8  -3 69.6665 13.3308   1
  -1  -8   3 54.9180 4.44966   5
  -1  -8   3 46.3209 2.28328   6
   0   8  -3 206.019 11.4067   1
   0   8  -3 192.031 7.21144   4
   0   8  -3 200.063 6.18655   2
   0   8  -3 200.909 7.71810   6
   0  -8   3 188.110 7.04138   5
   0  -8   3 197.754 6.02315   6
  -1   8  -3 1.44349 1.56960   4
  -1   8  -3 2.79543 2.06279   6
  -1   8  -3 0.78778 3.56771   1
  -1   8  -3 1.81776 0.73948   2
   1  -8   3 -0.7526 7.93860   1
   1  -8   3 -1.3831 1.39345   5
   1  -8   3 2.80658 0.84782   6
  -2   8  -3 67.9161 4.40458   6
  -2   8  -3 61.5882 3.60734   4
  -2   8  -3 59.1267 6.46985   1
  -2   8  -3 60.1178 2.56618   2
   2  -8   3 64.7820 2.97077   2
   2  -8   3 60.9790 9.75184   1
   2  -8   3 65.2503 3.68977   5
   2  -8   3 61.8837 2.74004   6
  -3   8  -3 1.75852 3.14649   1
  -3   8  -3 1.71412 1.22623   4
  -3   8  -3 3.47838 2.08040   6
  -3   8  -3 1.55466 0.79961   2
   3  -8   3 0.86361 0.70679   6
   3  -8   3 1.91529 1.15807   5
   3  -8   3 -1.5865 6.52706   1
   3  -8   3 1.73455 0.98323   2
  -4   8  -3 10.5638 2.06994   3
  -4   8  -3 9.70123 1.42086   4
  -4   8  -3 12.2083 2.62305   6
  -4   8  -3 1.55903 3.18867   1
   4  -8   3 10.4129 1.41365   2
   4  -8   3 7.76715 1.10581   6
   4  -8   3 14.2287 6.66892   1
  -5   8  -3 116.279 10.3771   1
  -5   8  -3 109.377 5.71175   3
  -5   8  -3 117.165 6.02378   6
   5  -8   3 100.639 10.5838   1
   5  -8   3 107.138 3.91530   6
   5  -8   3 109.604 4.07835   2
  -6   8  -3 437.008 19.3627   1
  -6   8  -3 440.292 14.7180   3
  -6   8  -3 444.700 14.0851   6
   6  -8   3 421.550 17.5304   1
   6  -8   3 445.670 12.8490   2
   6  -8   3 441.392 12.0190   6
  -7   8  -3 1.82165 3.39278   6
  -7   8  -3 1.40565 12.1372   1
   7  -8   3 1.53026 1.80006   2
   7  -8   3 1.55466 0.86483   6
   7  -8   3 4.54636 5.23748   1
  -8   8  -3 218.896 10.4813   3
  -8   8  -3 225.060 10.4278   6
   8  -8   3 223.515 8.19830   2
   8  -8   3 220.357 6.70918   6
  -9   8  -3 1.86633 3.31728   3
  -9   8  -3 4.60481 5.01345   6
   9  -8   3 3.81270 1.17056   6
   9  -8   3 4.32098 3.83408   2
 -10   8  -3 6.15786 5.12141   3
  10  -8   3 3.33975 4.19922   5
   6   7  -3 7.11585 2.49207   2
   6   7  -3 10.2249 2.33238   5
   5   7  -3 48.4282 4.15311   5
   5   7  -3 49.5903 4.14178   2
   4   7  -3 0.37330 1.47016   5
   4   7  -3 2.31104 2.93761   4
   4   7  -3 -0.6038 3.06796   6
   4   7  -3 -1.4924 1.51424   2
   4   7  -3 6.56673 7.24797   1
  -4  -7   3 -2.9077 3.56592   5
   3   7  -3 91.3874 5.65134   4
   3   7  -3 80.8948 4.12908   5
   3   7  -3 78.1507 4.95620   6
   3   7  -3 71.6291 3.75470   2
   3   7  -3 89.4226 16.9773   1
  -3  -7   3 76.2083 2.86323   6
  -3  -7   3 81.9186 5.92748   5
   2   7  -3 42.5302 13.0452   1
   2   7  -3 44.8665 2.61001   2
   2   7  -3 42.8332 2.84009   5
   2   7  -3 47.4200 3.83573   6
   2   7  -3 39.7805 6.63222   1
   2   7  -3 41.0916 3.84289   4
  -2  -7   3 40.6390 1.99604   6
  -2  -7   3 46.7578 4.30665   5
   1   7  -3 30.2021 1.98472   2
   1   7  -3 26.7380 2.99219   4
   1   7  -3 32.3060 2.27769   5
   1   7  -3 29.2207 5.55291   1
  -1  -7   3 31.4921 3.15912   5
  -1  -7   3 29.9197 1.67150   6
   0   7  -3 36.0128 1.96369   2
   0   7  -3 38.3220 3.17952   6
   0   7  -3 34.4400 5.15742   1
   0   7  -3 34.9664 2.80096   4
   0  -7   3 35.0850 1.80560   6
   0  -7   3 38.7420 8.31933   1
   0  -7   3 37.7959 2.89370   5
  -1   7  -3 3.21205 1.52281   6
  -1   7  -3 -0.3606 2.78153   1
  -1   7  -3 2.96687 0.71044   2
  -1   7  -3 3.56750 1.12333   4
   1  -7   3 2.01831 0.58496   6
   1  -7   3 3.66567 1.11146   2
   1  -7   3 3.51190 1.28502   5
   1  -7   3 5.81628 5.86702   1
  -2   7  -3 32.5727 2.28567   4
  -2   7  -3 36.4998 2.98870   6
  -2   7  -3 36.9263 4.65782   1
  -2   7  -3 36.1590 1.81265   2
   2  -7   3 33.8316 2.55568   5
   2  -7   3 33.1198 1.99270   2
   2  -7   3 32.4957 1.78683   6
   2  -7   3 38.1011 6.68466   1
  -3   7  -3 43.0749 3.24672   6
  -3   7  -3 41.3466 5.01059   1
  -3   7  -3 42.8417 2.14849   2
  -3   7  -3 40.6172 2.33733   4
   3  -7   3 46.5924 6.57095   1
   3  -7   3 43.5912 2.04521   6
   3  -7   3 41.3662 2.14748   2
  -4   7  -3 170.996 6.35117   6
  -4   7  -3 146.688 8.39344   1
  -4   7  -3 163.557 4.75995   4
  -4   7  -3 161.032 6.44489   3
   4  -7   3 162.065 5.08705   2
   4  -7   3 169.244 10.1627   1
   4  -7   3 159.643 5.02057   6
  -5   7  -3 649.224 18.0787   6
  -5   7  -3 613.710 21.8110   1
  -5   7  -3 643.952 18.9464   3
   5  -7   3 645.421 21.2894   1
   5  -7   3 646.835 16.8190   2
   5  -7   3 612.483 16.5646   6
  -6   7  -3 150.532 6.53110   6
  -6   7  -3 154.756 13.6183   1
  -6   7  -3 136.763 6.90960   3
   6  -7   3 149.833 8.75513   1
   6  -7   3 150.844 5.43182   2
   6  -7   3 136.359 4.55605   6
  -7   7  -3 4.80990 9.46139   1
  -7   7  -3 1.93225 1.98681   3
  -7   7  -3 5.83310 2.83672   6
   7  -7   3 2.56735 3.74208   1
   7  -7   3 2.96665 0.81955   6
   7  -7   3 1.41343 1.86014   2
  -8   7  -3 2.55834 2.62532   3
  -8   7  -3 8.99463 3.57252   6
   8  -7   3 4.09078 2.58527   2
   8  -7   3 4.33655 0.95996   6
  -9   7  -3 -3.8646 4.89214   6
  -9   7  -3 4.75031 3.70531   3
   9  -7   3 0.30397 3.57708   2
 -10   7  -3 7.37217 4.35303   3
  10  -7   3 6.17101 4.06656   5
   7   6  -3 0.48302 2.59034   5
   7   6  -3 2.36593 2.58398   2
   6   6  -3 116.749 5.85240   2
   6   6  -3 116.620 5.96884   5
   5   6  -3 19.6297 2.92451   6
   5   6  -3 8.71388 2.99799   4
   5   6  -3 12.6320 2.21081   5
   5   6  -3 12.6192 2.07413   2
  -5  -6   3 13.5967 4.31961   5
   4   6  -3 63.0240 3.58794   2
   4   6  -3 75.9481 9.69764   1
   4   6  -3 78.8848 15.6185   1
   4   6  -3 62.5789 3.68913   5
   4   6  -3 69.4791 4.19642   6
   4   6  -3 67.2611 4.97777   4
  -4  -6   3 71.4303 5.97313   5
   3   6  -3 8.68775 1.84496   6
   3   6  -3 8.07177 10.3624   1
   3   6  -3 6.01083 1.21162   2
   3   6  -3 5.65201 4.75707   1
   3   6  -3 5.52334 1.17947   5
  -3  -6   3 8.44393 2.35838   5
  -3  -6   3 6.12936 0.79369   6
   2   6  -3 14.7853 1.55950   2
   2   6  -3 14.8602 1.76924   5
   2   6  -3 18.6964 2.38563   6
   2   6  -3 18.0830 4.46572   1
  -2  -6   3 16.8443 1.15854   6
  -2  -6   3 15.5956 2.06568   5
   1   6  -3 -1.2301 2.91948   1
   1   6  -3 3.98750 1.20018   6
   1   6  -3 5.77752 0.93036   2
   1   6  -3 5.77807 1.02194   5
  -1  -6   3 5.80768 1.45432   5
  -1  -6   3 5.06811 0.69990   6
  -1  -6   3 -2.2363 5.39363   1
   0   6  -3 19.3911 1.36702   2
   0   6  -3 19.2382 2.01625   6
   0   6  -3 14.8095 3.23699   1
   0  -6   3 18.4160 1.19640   6
   0  -6   3 19.0797 1.85032   2
   0  -6   3 19.0622 5.65551   1
  -1   6  -3 5.14274 1.29687   6
  -1   6  -3 4.01595 0.68795   2
  -1   6  -3 5.82748 2.36890   1
   1  -6   3 5.01786 0.99294   2
   1  -6   3 5.23980 0.73808   6
   1  -6   3 7.84075 4.54364   1
   1  -6   3 3.41635 0.89483   5
  -2   6  -3 398.591 10.9738   2
  -2   6  -3 412.328 14.0531   1
  -2   6  -3 411.043 11.6210   6
   2  -6   3 424.409 15.7209   1
   2  -6   3 407.555 10.9323   6
   2  -6   3 408.018 10.9181   2
  -3   6  -3 56.2417 2.54158   2
  -3   6  -3 67.8880 4.90760   1
  -3   6  -3 57.1919 3.07062   6
  -3   6  -3 57.4629 2.24630   4
   3  -6   3 67.8054 6.86192   1
   3  -6   3 61.1016 2.47477   2
   3  -6   3 58.7829 2.28615   6
  -4   6  -3 190.625 7.14338   6
  -4   6  -3 187.152 7.10657   3
   4  -6   3 192.686 6.20336   2
   4  -6   3 197.399 5.66297   6
   4  -6   3 203.968 9.40599   1
  -5   6  -3 163.937 11.1133   1
  -5   6  -3 161.530 6.96736   3
   5  -6   3 172.839 8.46484   1
   5  -6   3 168.817 5.01369   6
   5  -6   3 170.438 5.59681   2
  -6   6  -3 -0.2453 1.52641   3
  -6   6  -3 -0.4919 7.11961   1
  -6   6  -3 1.90419 1.76107   6
   6  -6   3 -0.7595 3.00937   1
   6  -6   3 0.93551 0.61084   6
   6  -6   3 0.70920 1.34631   2
  -7   6  -3 -5.7291 9.43136   1
  -7   6  -3 2.66262 2.33765   6
  -7   6  -3 3.27124 1.94127   3
   7  -6   3 1.38694 1.89730   2
   7  -6   3 1.52070 3.24598   1
   7  -6   3 0.05409 0.66723   6
  -8   6  -3 96.0831 6.89637   3
  -8   6  -3 93.9154 6.87889   6
   8  -6   3 90.3413 6.13568   2
  -9   6  -3 63.5596 6.44674   6
  -9   6  -3 59.4458 7.06454   3
   9  -6   3 63.5529 6.10167   5
   9  -6   3 55.2870 6.98305   2
 -10   6  -3 22.2995 4.55054   3
  10  -6   3 18.5012 3.94381   5
   8   5  -3 17.1128 3.39427   5
   8   5  -3 18.6800 3.24216   2
   7   5  -3 -0.8529 1.99191   2
   7   5  -3 -3.8156 1.90232   5
   6   5  -3 118.570 5.08751   6
   6   5  -3 123.232 10.1669   3
   6   5  -3 128.528 5.85844   5
   6   5  -3 124.117 5.68211   2
   6   5  -3 120.662 7.32354   4
  -6  -5   3 168.498 13.7999   5
   5   5  -3 2.43323 1.83221   6
   5   5  -3 0.71584 1.32486   5
   5   5  -3 -0.3721 5.35439   1
   5   5  -3 -22.901 10.5979   1
   5   5  -3 -0.9405 1.33438   2
  -5  -5   3 -2.3548 2.69846   5
   4   5  -3 132.109 5.12119   5
   4   5  -3 129.790 4.88113   6
   4   5  -3 140.194 17.0417   1
   4   5  -3 130.509 5.05544   2
   4   5  -3 129.795 9.18889   1
  -4  -5   3 133.457 6.44555   5
   3   5  -3 144.998 8.96549   1
   3   5  -3 137.815 4.85978   6
   3   5  -3 130.192 4.89221   5
   3   5  -3 134.812 14.5559   1
   3   5  -3 135.484 4.88153   2
  -3  -5   3 146.846 5.85264   5
  -3  -5   3 136.567 4.08017   6
   2   5  -3 102.532 3.71837   2
   2   5  -3 101.410 7.09757   1
   2   5  -3 98.7927 3.81427   5
   2   5  -3 101.009 3.78642   6
  -2  -5   3 102.527 3.17087   6
  -2  -5   3 105.918 4.55515   5
   1   5  -3 519.561 16.8915   1
   1   5  -3 502.300 13.3263   2
   1   5  -3 496.321 13.3928   6
   1   5  -3 476.998 13.4456   5
  -1  -5   3 488.943 12.8886   6
  -1  -5   3 520.065 13.6476   5
   0   5  -3 145.660 4.68418   6
   0   5  -3 140.475 6.95280   1
   0   5  -3 148.412 4.51452   2
   0  -5   3 150.019 4.60478   2
   0  -5   3 141.433 4.25097   6
   0  -5   3 144.071 8.68995   1
   0  -5   3 149.683 4.77168   5
  -1   5  -3 271.497 7.64847   6
  -1   5  -3 270.575 7.39812   2
  -1   5  -3 256.441 9.73119   1
   1  -5   3 277.799 7.41794   2
   1  -5   3 268.754 7.64962   5
   1  -5   3 265.875 7.25863   6
   1  -5   3 250.454 10.9392   1
  -2   5  -3 212.448 6.30340   6
  -2   5  -3 211.821 8.36082   1
  -2   5  -3 213.308 6.09400   2
   2  -5   3 189.389 8.83760   1
   2  -5   3 208.612 5.85938   6
   2  -5   3 216.361 5.99764   2
  -3   5  -3 227.794 6.99231   6
  -3   5  -3 229.455 7.58180   3
  -3   5  -3 243.688 9.67516   1
   3  -5   3 238.544 9.71772   1
   3  -5   3 232.425 6.47899   6
   3  -5   3 237.922 6.74107   2
  -4   5  -3 25.1111 3.10167   3
  -4   5  -3 20.6173 1.93701   6
   4  -5   3 21.1695 1.88433   2
   4  -5   3 24.2560 3.47468   1
   4  -5   3 20.5618 1.19475   6
  -5   5  -3 699.517 18.5080   6
  -5   5  -3 684.871 24.3150   1
  -5   5  -3 670.359 19.9686   3
   5  -5   3 690.185 20.9486   1
   5  -5   3 695.289 17.6734   6
   5  -5   3 715.297 18.5189   2
  -6   5  -3 111.578 4.69816   6
  -6   5  -3 118.222 6.13782   3
  -6   5  -3 104.219 13.3613   1
   6  -5   3 124.877 7.21321   1
   6  -5   3 114.513 4.94932   2
   6  -5   3 108.275 3.48201   6
  -7   5  -3 166.398 6.35477   6
  -7   5  -3 156.959 7.84946   3
  -7   5  -3 179.708 18.1888   1
   7  -5   3 156.409 8.70608   1
   7  -5   3 174.336 7.05331   2
  -8   5  -3 1.78409 2.51168   3
  -8   5  -3 5.01864 2.62279   6
   8  -5   3 -0.4807 3.10525   3
   8  -5   3 -0.6702 1.96421   5
  -9   5  -3 5.71709 3.43269   3
   9  -5   3 -0.5081 2.38236   5
 -10   5  -3 41.6863 5.92561   3
  10  -5   3 37.4898 5.35740   5
   9   4  -3 80.6100 7.00357   5
   8   4  -3 82.9872 5.73715   2
   8   4  -3 93.6822 5.84597   5
   7   4  -3 32.2408 5.36897   4
   7   4  -3 17.9113 2.76126   2
   7   4  -3 20.4553 2.82340   5
   6   4  -3 124.778 10.1652   1
   6   4  -3 117.755 6.30655   2
   6   4  -3 117.726 14.1537   1
   6   4  -3 129.438 5.49503   5
   6   4  -3 128.882 4.49453   6
   6   4  -3 131.791 10.4480   3
  -6  -4   3 113.410 12.8895   5
   5   4  -3 1.34856 1.08188   5
   5   4  -3 7.90803 7.36765   1
   5   4  -3 4.11430 3.86538   1
   5   4  -3 2.95335 1.21607   6
   5   4  -3 1.85664 1.14938   2
  -5  -4   3 -0.5219 2.14623   5
   4   4  -3 67.6393 2.83687   6
   4   4  -3 92.2528 11.5032   1
   4   4  -3 67.8976 3.23292   2
   4   4  -3 66.4401 3.25080   5
   4   4  -3 74.2841 6.76850   1
  -4  -4   3 68.7602 4.39543   5
   3   4  -3 4.09713 0.93705   2
   3   4  -3 9.12409 5.57267   1
   3   4  -3 2.57746 0.70757   5
   3   4  -3 5.49998 0.92489   6
   2   4  -3 144.706 4.52715   2
   2   4  -3 142.700 7.09597   1
   2   4  -3 136.312 4.23518   6
   2   4  -3 136.661 4.51500   5
  -2  -4   3 137.673 4.79545   5
  -2  -4   3 136.613 3.95256   6
  -2  -4   3 138.600 9.27951   1
   1   4  -3 402.398 10.4379   6
   1   4  -3 381.989 10.5470   2
   1   4  -3 405.550 10.6762   5
   1   4  -3 386.533 12.9602   1
  -1  -4   3 377.929 10.1682   6
  -1  -4   3 404.081 10.7357   5
  -1  -4   3 401.224 14.5778   1
  -1  -4   3 393.283 10.6641   2
   0   4  -3 29.9704 1.50238   6
   0   4  -3 31.2257 3.04199   1
   0  -4   3 32.1721 1.57877   2
   0  -4   3 30.8451 1.65342   5
   0  -4   3 30.1313 1.27761   6
   0  -4   3 32.1380 4.31864   1
  -1   4  -3 55.7541 2.12868   2
  -1   4  -3 62.0353 3.84467   1
  -1   4  -3 56.8158 2.18497   6
   1  -4   3 60.0543 4.47389   1
   1  -4   3 60.3949 2.00051   6
   1  -4   3 56.4410 2.18329   2
  -2   4  -3 705.652 20.3817   1
  -2   4  -3 689.371 17.9316   2
  -2   4  -3 695.428 17.8093   6
   2  -4   3 682.831 17.5557   6
   2  -4   3 703.017 17.8160   2
   2  -4   3 693.783 20.1601   1
  -3   4  -3 65.0905 2.52512   6
  -3   4  -3 64.9211 1.96789   4
  -3   4  -3 60.1786 3.09849   3
  -3   4  -3 70.6749 5.19181   1
   3  -4   3 63.1140 4.58140   1
   3  -4   3 66.1224 2.65945   2
   3  -4   3 64.2832 2.39357   6
  -4   4  -3 51.6407 3.23414   3
  -4   4  -3 52.1858 2.36357   6
   4  -4   3 50.3769 1.81605   6
   4  -4   3 49.8848 2.65597   2
   4  -4   3 49.0303 5.19793   1
  -5   4  -3 229.331 14.4451   1
  -5   4  -3 246.293 8.85706   3
  -5   4  -3 247.885 7.24225   6
   5  -4   3 246.325 6.57971   6
   5  -4   3 237.942 8.56078   2
   5  -4   3 249.750 10.0610   1
  -6   4  -3 181.255 15.5747   1
  -6   4  -3 165.761 7.49114   3
  -6   4  -3 183.542 5.90954   6
   6  -4   3 175.328 8.87886   1
   6  -4   3 172.780 7.29415   3
  -7   4  -3 11.9413 1.97254   6
  -7   4  -3 7.58848 10.3827   1
  -7   4  -3 12.5954 3.06412   3
   7  -4   3 13.2119 3.26422   3
   7  -4   3 10.4292 2.35353   5
   7  -4   3 9.95778 3.98369   1
  -8   4  -3 6.70156 2.88291   3
   8  -4   3 5.78427 3.84462   3
   8  -4   3 2.88033 1.97096   5
  -9   4  -3 25.3420 4.43520   3
   9  -4   3 24.4033 3.76441   5
  10  -4   3 71.8799 7.48985   5
   9   3  -3 -4.1901 2.79240   2
   9   3  -3 1.28939 2.55040   5
   8   3  -3 124.897 6.21136   2
   8   3  -3 122.768 6.30061   5
   7   3  -3 20.4622 5.08259   3
   7   3  -3 26.3794 3.10137   2
  -7  -3   3 25.5393 4.45900   5
   6   3  -3 95.0241 12.6526   1
   6   3  -3 81.6672 7.97526   1
   6   3  -3 94.1657 7.18654   3
   6   3  -3 92.0403 4.42070   5
   6   3  -3 89.6420 3.19983   6
   6   3  -3 95.6930 4.38221   2
  -6  -3   3 91.8339 6.19669   5
   5   3  -3 56.5712 3.06401   2
   5   3  -3 47.9469 7.69230   1
   5   3  -3 58.5666 2.32060   6
   5   3  -3 42.9329 5.84587   1
   5   3  -3 57.0176 3.07946   5
  -5  -3   3 55.2552 4.52606   5
   4   3  -3 32.1427 5.91549   1
   4   3  -3 34.6289 2.15408   2
   4   3  -3 31.6538 1.53388   6
   4   3  -3 31.2473 2.06999   5
   4   3  -3 33.7108 4.51477   1
   3   3  -3 918.783 23.6337   6
   3   3  -3 966.194 27.0981   1
   3   3  -3 945.031 24.3151   5
   3   3  -3 939.764 24.3366   2
  -3  -3   3 959.207 24.6720   5
   2   3  -3 402.392 10.4025   6
   2   3  -3 398.497 10.7969   5
   2   3  -3 397.294 10.8479   2
   2   3  -3 403.061 13.0004   1
  -2  -3   3 407.696 10.9934   5
  -2  -3   3 417.753 14.4985   1
   1   3  -3 30.2124 1.37775   5
   1   3  -3 29.4034 1.21490   6
   1   3  -3 26.8646 1.34638   2
   1   3  -3 29.6577 2.75717   1
  -1  -3   3 27.0417 1.12598   6
  -1  -3   3 28.3621 3.64294   1
  -1  -3   3 27.1750 1.48311   5
  -1  -3   3 26.9088 1.50412   2
   0   3  -3 18.7005 0.95355   6
   0   3  -3 20.8991 1.05924   2
   0   3  -3 18.4183 2.19160   1
   0  -3   3 17.2309 2.46032   1
   0  -3   3 15.4885 0.82824   6
   0  -3   3 17.0881 1.08312   2
   0  -3   3 19.7863 1.12763   5
  -1   3  -3 234.185 6.43445   2
  -1   3  -3 229.092 8.22054   1
  -1   3  -3 236.498 6.18913   6
   1  -3   3 224.585 6.10969   6
   1  -3   3 235.463 8.26213   1
   1  -3   3 228.539 6.35075   2
  -2   3  -3 1388.15 36.9260   1
  -2   3  -3 1343.81 34.4382   3
  -2   3  -3 1316.52 33.5795   6
  -2   3  -3 1361.20 33.5068   4
   2  -3   3 1290.75 33.4859   6
   2  -3   3 1396.70 36.0295   1
   2  -3   3 1379.56 33.9246   2
  -3   3  -3 6.04965 2.83968   1
  -3   3  -3 0.37887 0.45213   6
  -3   3  -3 0.53252 0.76618   3
  -3   3  -3 0.86921 0.41384   4
   3  -3   3 0.19407 0.65777   2
   3  -3   3 2.19727 2.22091   1
   3  -3   3 0.36580 0.27289   6
  -4   3  -3 79.9599 2.72716   6
  -4   3  -3 80.4513 3.98285   3
   4  -3   3 85.0088 5.60167   1
   4  -3   3 74.8332 2.37920   4
   4  -3   3 75.8742 3.75247   3
  -5   3  -3 79.3293 11.1275   1
  -5   3  -3 97.9971 3.33083   6
  -5   3  -3 91.4426 4.91798   3
   5  -3   3 95.7032 4.82822   3
   5  -3   3 93.3872 3.03517   4
   5  -3   3 91.5308 6.75080   1
  -6   3  -3 10.5201 9.02579   1
  -6   3  -3 10.1709 1.33905   6
  -6   3  -3 6.81323 1.86569   3
   6  -3   3 9.76519 4.09122   1
   6  -3   3 7.17652 2.29905   3
   6  -3   3 7.59120 1.16037   4
   6  -3   3 8.71100 1.99251   5
  -7   3  -3 116.307 15.6679   1
  -7   3  -3 97.0178 3.77955   6
   7  -3   3 94.1349 6.65175   3
   7  -3   3 89.7130 5.31938   5
   7  -3   3 110.919 9.65235   1
   7  -3   3 101.268 3.97092   4
  -8   3  -3 10.7515 3.21911   3
   8  -3   3 6.28907 4.01542   3
   8  -3   3 9.88829 2.02972   4
   8  -3   3 9.21904 2.64101   5
   9  -3   3 9.00525 3.97809   4
   9  -3   3 8.57460 3.20398   5
  10  -3   3 12.0862 4.28142   5
  10   2  -3 14.4596 3.66373   2
  10   2  -3 10.4846 3.59931   5
   9   2  -3 104.763 6.10911   2
   9   2  -3 103.139 6.34868   5
   8   2  -3 5.18858 1.96082   2
   8   2  -3 8.84895 2.15851   5
   7   2  -3 90.3791 4.64700   5
   7   2  -3 89.3233 4.59858   2
   7   2  -3 77.0630 10.0932   1
   7   2  -3 90.6812 7.73936   1
   7   2  -3 80.2568 10.6046   3
  -7  -2   3 86.9665 6.84287   5
   6   2  -3 196.686 6.80518   2
   6   2  -3 194.550 6.81302   5
   6   2  -3 175.280 12.7029   1
   6   2  -3 192.397 5.24895   6
   6   2  -3 205.976 9.48764   1
   6   2  -3 195.015 8.83807   3
  -6  -2   3 182.961 7.93402   5
   5   2  -3 61.4236 7.83056   1
   5   2  -3 62.3021 5.32814   1
   5   2  -3 72.4207 3.29443   5
   5   2  -3 67.0793 3.20702   2
   5   2  -3 70.1607 2.20170   6
  -5  -2   3 77.6188 4.30438   5
   4   2  -3 34.7098 2.02684   2
   4   2  -3 28.9397 3.67020   1
   4   2  -3 37.3609 4.90804   1
   4   2  -3 35.7487 1.32534   6
   4   2  -3 32.6114 1.98800   5
  -4  -2   3 33.5773 2.70989   5
   3   2  -3 1393.35 35.9782   1
   3   2  -3 1341.36 34.0204   5
   3   2  -3 1351.83 34.0999   2
   3   2  -3 1321.79 33.3807   6
  -3  -2   3 1305.73 37.1784   1
  -3  -2   3 1395.96 34.3367   5
   2   2  -3 601.498 15.2597   6
   2   2  -3 577.612 15.6885   2
   2   2  -3 622.540 15.5998   5
   2   2  -3 633.739 17.2974   1
  -2  -2   3 608.125 17.9033   1
  -2  -2   3 619.884 15.8475   2
  -2  -2   3 601.461 15.7033   5
   1   2  -3 478.762 12.3729   5
   1   2  -3 486.381 13.8871   1
   1   2  -3 487.203 12.2395   6
   1   2  -3 482.744 12.5283   2
  -1  -2   3 486.058 14.0475   1
  -1  -2   3 482.514 12.3614   5
  -1  -2   3 487.287 12.5185   2
   0   2  -3 95.7632 2.74928   6
   0   2  -3 99.6606 3.01237   2
   0   2  -3 95.6339 4.35283   1
   0  -2   3 94.2942 4.30071   1
   0  -2   3 94.2687 2.95833   2
  -1   2  -3 391.076 12.6344   1
  -1   2  -3 390.830 9.97519   6
  -1   2  -3 389.870 10.2232   4
  -1   2  -3 391.953 10.3766   2
   1  -2   3 390.052 10.3046   2
   1  -2   3 400.874 12.2780   1
  -2   2  -3 66.5789 5.12420   1
  -2   2  -3 70.9171 2.14909   6
  -2   2  -3 69.6980 2.91801   3
   2  -2   3 71.7383 2.70401   2
   2  -2   3 71.2652 5.05574   1
   2  -2   3 71.2798 2.25935   4
  -3   2  -3 146.163 4.02687   6
  -3   2  -3 131.930 8.40775   1
  -3   2  -3 147.968 5.37205   3
  -3   2  -3 145.418 4.24233   4
   3  -2   3 151.218 4.33831   4
   3  -2   3 147.033 7.72641   1
   3  -2   3 149.683 5.14158   3
  -4   2  -3 44.7052 1.68059   6
  -4   2  -3 46.8053 3.01638   3
   4  -2   3 43.5129 2.11586   4
   4  -2   3 46.1944 2.79344   5
   4  -2   3 41.9693 3.07893   3
   4  -2   3 53.1822 6.48973   1
  -5   2  -3 345.670 18.7295   1
  -5   2  -3 386.585 12.5153   3
  -5   2  -3 407.755 10.1926   6
   5  -2   3 386.534 16.2187   1
   5  -2   3 405.247 12.2239   3
   5  -2   3 377.776 11.8364   5
   5  -2   3 393.660 10.7182   4
  -6   2  -3 37.2521 1.93654   6
  -6   2  -3 44.0403 10.9397   1
   6  -2   3 30.4547 5.92469   1
   6  -2   3 38.3334 4.43500   3
   6  -2   3 37.2704 2.83186   4
   6  -2   3 37.0551 3.40377   5
  -7   2  -3 273.956 23.5402   1
  -7   2  -3 249.082 9.92349   3
   7  -2   3 234.810 9.21751   5
   7  -2   3 236.191 7.95553   4
   7  -2   3 237.756 14.5633   1
   7  -2   3 244.245 10.3324   3
   8  -2   3 40.5672 4.68063   5
   8  -2   3 33.0199 4.41051   4
   8  -2   3 22.9106 5.72756   3
   9  -2   3 247.199 10.6819   5
   9  -2   3 239.771 11.6496   4
  10  -2   3 10.3308 4.38689   5
  10   1  -3 5.24067 2.89994   2
  10   1  -3 3.26883 3.18310   5
   9   1  -3 4.31004 2.45601   5
   9   1  -3 7.48914 3.41163   4
   9   1  -3 7.95829 2.38921   2
   8   1  -3 3.84872 1.71472   2
   8   1  -3 0.02678 7.50278   1
   8   1  -3 7.63568 4.80562   3
   8   1  -3 4.32456 1.87853   5
   7   1  -3 165.429 12.0101   1
   7   1  -3 171.260 6.29684   2
   7   1  -3 172.555 6.51753   5
   7   1  -3 160.257 9.04957   3
   7   1  -3 156.955 8.53338   1
   6   1  -3 722.553 18.1897   6
   6   1  -3 717.613 21.4950   1
   6   1  -3 727.551 21.5690   3
   6   1  -3 759.479 20.0961   5
   6   1  -3 721.197 19.7761   2
   6   1  -3 738.149 24.2692   1
  -6  -1   3 743.897 20.5054   5
   5   1  -3 14.1816 2.33140   3
   5   1  -3 13.5110 1.56221   2
   5   1  -3 13.9929 0.81792   6
   5   1  -3 10.6995 2.25394   1
   5   1  -3 14.3024 1.67178   5
   5   1  -3 10.4388 3.28598   1
  -5  -1   3 13.7264 2.02385   5
   4   1  -3 399.391 11.0307   2
   4   1  -3 420.247 12.2114   1
   4   1  -3 399.643 11.0750   5
  -4  -1   3 393.308 11.3006   5
   3   1  -3 74.9653 2.67073   5
   3   1  -3 76.0478 2.74640   2
   3   1  -3 77.9936 3.52165   1
  -3  -1   3 78.5943 2.99176   5
   2   1  -3 3.42240 0.95764   1
   2   1  -3 3.24443 0.49587   2
   2   1  -3 3.50251 0.45320   5
  -2  -1   3 2.76363 0.55935   2
  -2  -1   3 3.92546 1.35412   1
  -2  -1   3 5.00670 0.62957   5
   1   1  -3 73.7766 3.47879   1
   1   1  -3 73.1076 2.37617   2
  -1  -1   3 76.7353 2.40864   2
  -1  -1   3 72.6052 3.31013   1
  -1  -1   3 75.0615 2.13756   5
   0   1  -3 1005.89 26.5503   1
   0   1  -3 931.497 23.9491   4
   0   1  -3 928.892 23.9107   2
   0  -1   3 919.318 23.8664   2
   0  -1   3 988.357 25.8230   1
  -1   1  -3 3.80570 1.95928   1
  -1   1  -3 3.15274 0.56159   4
  -1   1  -3 3.14469 0.54379   3
   1  -1   3 3.56991 0.59811   2
   1  -1   3 2.95626 0.54102   4
   1  -1   3 7.35240 2.55262   1
  -2   1  -3 321.718 9.23523   3
  -2   1  -3 323.782 8.72334   4
  -2   1  -3 303.530 12.6092   1
   2  -1   3 329.934 9.01729   3
   2  -1   3 323.279 8.72908   4
   2  -1   3 321.360 12.5420   1
  -3   1  -3 133.462 4.20531   4
  -3   1  -3 132.993 3.66958   6
  -3   1  -3 136.763 5.10090   3
  -3   1  -3 146.834 9.21886   1
   3  -1   3 142.032 9.38816   1
   3  -1   3 138.332 4.45114   4
   3  -1   3 138.613 4.95607   3
   3  -1   3 128.622 4.74891   5
  -4   1  -3 105.715 2.97392   6
  -4   1  -3 107.819 9.78632   1
  -4   1  -3 103.402 4.68274   3
   4  -1   3 115.554 9.85393   1
   4  -1   3 102.251 4.72122   3
   4  -1   3 108.083 4.05829   4
   4  -1   3 107.921 4.43042   5
  -5   1  -3 61.1485 2.09884   6
  -5   1  -3 68.2758 4.15848   3
   5  -1   3 69.6723 4.86115   3
   5  -1   3 62.1750 3.38669   4
   5  -1   3 62.0296 3.71949   5
   5  -1   3 73.7061 9.39003   1
  -6   1  -3 16.8325 10.4151   1
  -6   1  -3 14.0575 2.74177   3
   6  -1   3 10.9987 3.03026   3
   6  -1   3 15.8388 6.75844   1
   6  -1   3 12.6764 2.15282   4
   6  -1   3 13.6395 2.25682   5
   7  -1   3 38.2390 4.20312   4
   7  -1   3 34.4232 4.58387   3
   7  -1   3 20.7962 11.3540   1
   8  -1   3 26.7691 3.86729   4
   8  -1   3 14.2577 2.93207   5
   9  -1   3 -1.9124 6.73986   4
   9  -1   3 6.81732 3.38628   5
  10   0  -3 3.12662 2.77263   5
  10   0  -3 4.90477 2.45953   2
  10   0  -3 -2.1281 3.86327   4
   9   0  -3 134.663 6.26194   2
   9   0  -3 135.288 11.2995   1
   9   0  -3 132.951 6.69819   5
   8   0  -3 8.10925 1.97446   5
   8   0  -3 5.25902 1.87720   2
   8   0  -3 9.21958 4.47438   3
   8   0  -3 9.05208 2.91515   1
   8   0  -3 6.14796 5.27666   1
   7   0  -3 317.489 11.8811   3
   7   0  -3 293.753 9.66883   5
   7   0  -3 304.813 10.1540   1
   7   0  -3 301.701 7.59895   6
   7   0  -3 294.595 9.35711   2
   7   0  -3 278.796 12.1683   1
   6   0  -3 37.4403 3.22944   1
   6   0  -3 40.1744 5.33061   1
   6   0  -3 40.9826 2.88017   5
   6   0  -3 33.8618 2.39373   2
   6   0  -3 38.6544 4.60573   3
   5   0  -3 359.639 11.3465   3
   5   0  -3 345.418 10.0102   5
   5   0  -3 344.901 10.1207   1
   5   0  -3 347.505 12.2995   1
   5   0  -3 341.424 9.85087   2
   4   0  -3 3.79261 0.79955   5
   4   0  -3 6.87771 1.05956   1
   4   0  -3 3.94583 0.68239   2
   4   0  -3 5.63969 1.46771   3
   4   0  -3 6.10259 1.72464   1
  -4   0   3 6.30063 1.08195   5
   3   0  -3 1194.66 30.9999   1
   3   0  -3 1247.50 30.5878   5
   3   0  -3 1209.57 30.6208   2
  -3   0   3 1230.80 31.2412   1
  -3   0   3 1231.35 30.6547   5
   2   0  -3 107.776 2.92482   5
   2   0  -3 108.835 3.17481   2
   2   0  -3 106.659 4.26355   1
  -2   0   3 101.336 3.73054   1
  -2   0   3 105.667 3.18793   2
  -2   0   3 108.312 3.03065   5
   1   0  -3 1210.78 31.7426   1
   1   0  -3 1175.11 29.3205   2
   1   0  -3 1156.91 29.5732   4
  -1   0   3 1131.28 29.2544   2
  -1   0   3 1168.71 29.4471   4
  -1   0   3 1236.10 31.1919   1
   0   0  -3 294.772 10.9379   1
   0   0  -3 294.659 7.95069   2
   0   0  -3 294.107 8.14084   4
   0   0   3 309.560 10.9561   1
   0   0   3 300.206 8.05836   4
   0   0   3 292.000 7.84516   2
   0   0   3 290.787 7.67473   5
  -1   0  -3 488.965 12.8600   3
  -1   0  -3 472.607 12.8873   4
   1   0   3 472.783 16.7484   1
   1   0   3 507.040 12.9621   4
   1   0   3 492.409 12.8781   2
   1   0   3 492.748 12.8019   5
  -2   0  -3 31.2286 1.90121   3
  -2   0  -3 35.4776 5.18974   1
  -2   0  -3 36.5210 1.80812   4
   2   0   3 35.9378 5.84407   1
   2   0   3 29.6357 1.90818   3
   2   0   3 32.5607 1.85629   5
   2   0   3 33.9451 1.96890   4
  -3   0  -3 576.785 22.0197   1
  -3   0  -3 586.009 16.3360   3
  -3   0  -3 586.728 15.6060   4
   3   0   3 582.978 16.0886   5
   3   0   3 597.261 22.2386   1
   3   0   3 596.930 15.8951   4
   3   0   3 602.911 16.2609   3
  -4   0  -3 11.3873 0.71232   6
  -4   0  -3 18.7144 5.95434   1
  -4   0  -3 8.43793 1.50270   3
   4   0   3 8.86712 1.38237   5
   4   0   3 13.1725 1.71552   4
   4   0   3 7.63441 1.76613   3
   4   0   3 10.1915 7.13211   1
  -5   0  -3 334.610 11.2920   3
  -5   0  -3 342.583 18.9369   1
   5   0   3 350.128 10.5454   4
   5   0   3 344.418 11.4532   3
   5   0   3 339.647 10.9118   5
   5   0   3 342.221 19.2364   1
   6   0   3 1.14124 2.11667   4
   6   0   3 12.0005 9.91943   1
   6   0   3 2.11574 2.83662   3
   6   0   3 -0.6991 1.52690   5
   7   0   3 89.8688 6.37134   4
   7   0   3 88.3804 5.59124   5
   8   0   3 2.91188 2.57453   5
   8   0   3 12.1248 4.30265   4
   9   0   3 107.050 8.56493   5
  11  -1  -3 9.22007 3.30716   2
  11  -1  -3 -4.4503 3.71614   5
  10  -1  -3 10.9161 2.93858   5
  10  -1  -3 16.5534 2.99818   2
   9  -1  -3 8.12152 1.95063   2
   9  -1  -3 3.34065 2.09417   1
   8  -1  -3 -0.2777 1.28279   2
   8  -1  -3 -0.3877 1.43168   1
   8  -1  -3 1.07368 1.58861   5
   8  -1  -3 0.30178 2.04507   1
   8  -1  -3 -0.4236 3.41455   3
   7  -1  -3 48.5829 2.35882   6
   7  -1  -3 48.6755 2.44032   1
   7  -1  -3 44.8861 3.35576   5
   7  -1  -3 50.2189 2.99944   2
   7  -1  -3 40.0660 3.16449   1
   7  -1  -3 54.7312 5.75488   3
   6  -1  -3 109.363 3.93178   6
   6  -1  -3 106.990 3.26663   1
   6  -1  -3 106.910 3.66948   1
   6  -1  -3 103.058 4.37259   5
   6  -1  -3 105.926 4.09210   2
   6  -1  -3 112.138 5.88800   3
   5  -1  -3 73.2627 4.33060   3
   5  -1  -3 82.7967 3.34064   5
   5  -1  -3 76.9124 2.98723   2
   4  -1  -3 52.8870 3.10401   3
   4  -1  -3 54.8733 2.12862   2
   4  -1  -3 51.5242 2.26872   5
   3  -1  -3 176.616 5.60575   3
   3  -1  -3 170.038 5.75165   1
   3  -1  -3 174.910 4.87033   2
   3  -1  -3 178.349 5.15830   4
  -3   1   3 171.223 4.96150   1
   2  -1  -3 23.7285 1.00572   2
   2  -1  -3 24.8897 0.88048   5
   2  -1  -3 22.9066 1.31137   4
   2  -1  -3 23.8533 2.65675   1
  -2   1   3 26.3439 2.83762   1
  -2   1   3 23.5259 1.05171   2
  -2   1   3 24.0682 1.30631   4
   1  -1  -3 56.2366 1.57435   5
   1  -1  -3 54.2032 1.84260   2
   1  -1  -3 49.1218 4.15036   1
  -1   1   3 54.9039 1.79833   2
  -1   1   3 54.9093 1.48116   5
  -1   1   3 53.7391 2.23349   4
  -1   1   3 48.4924 4.55126   1
   0  -1  -3 633.712 16.0665   3
   0  -1  -3 651.079 20.7999   1
   0  -1  -3 640.337 16.8109   4
   0  -1  -3 652.514 16.2672   5
   0   1   3 637.934 16.7742   4
   0   1   3 629.854 16.3187   2
   0   1   3 639.368 20.5021   1
  -1  -1  -3 176.268 9.69075   1
  -1  -1  -3 184.984 5.40568   5
  -1  -1  -3 170.119 5.51701   3
  -1  -1  -3 169.774 5.45291   4
   1   1   3 176.528 5.58099   4
   1   1   3 176.799 10.3269   1
   1   1   3 174.711 5.02955   3
   1   1   3 173.174 5.20160   5
  -2  -1  -3 15.4553 1.96396   5
  -2  -1  -3 14.4538 1.42266   3
  -2  -1  -3 14.7701 1.41610   4
  -2  -1  -3 10.8584 4.23576   1
   2   1   3 13.8292 1.44941   5
   2   1   3 17.7715 1.91791   4
   2   1   3 12.6117 5.55426   1
   2   1   3 13.9919 1.63781   3
  -3  -1  -3 172.208 11.7942   1
  -3  -1  -3 182.376 5.83317   4
  -3  -1  -3 180.177 6.28298   3
   3   1   3 189.272 6.44630   3
   3   1   3 188.483 6.36840   4
   3   1   3 170.870 13.3199   1
   3   1   3 177.474 6.10341   5
  -4  -1  -3 47.3990 8.29813   1
  -4  -1  -3 46.5256 2.07875   6
   4   1   3 45.8414 2.99053   5
   4   1   3 48.5290 3.52942   4
   4   1   3 49.7323 3.92661   3
  -5  -1  -3 275.958 18.0555   1
   5   1   3 260.570 9.13629   5
   5   1   3 284.650 10.1572   3
   5   1   3 264.322 20.4834   1
   5   1   3 267.168 9.31771   4
  -6  -1  -3 6.91447 9.62421   1
   6   1   3 1.60474 1.52610   5
   6   1   3 5.07739 2.82393   4
   6   1   3 -2.1264 13.3740   1
   6   1   3 1.17470 3.20922   3
   7   1   3 13.6646 2.50902   5
   7   1   3 23.9380 4.37613   4
   7   1   3 14.9264 5.04053   3
   8   1   3 29.0394 5.77173   4
   8   1   3 25.6084 3.71356   5
  11  -2  -3 1.58008 2.78201   2
  11  -2  -3 4.46077 3.41357   5
  10  -2  -3 53.0844 4.55466   2
  10  -2  -3 53.7522 5.51626   5
   9  -2  -3 100.859 5.78014   5
   9  -2  -3 96.0803 3.00271   6
   9  -2  -3 110.196 10.0790   3
   9  -2  -3 102.373 5.00127   2
   8  -2  -3 147.213 8.77323   3
   8  -2  -3 155.146 6.48574   5
   8  -2  -3 158.587 4.95451   6
   8  -2  -3 155.722 5.89492   2
   7  -2  -3 271.628 8.51517   2
   7  -2  -3 280.957 8.24632   6
   7  -2  -3 278.352 9.07974   5
   7  -2  -3 292.337 10.9339   3
   6  -2  -3 517.808 14.2393   2
   6  -2  -3 527.097 14.4496   6
   6  -2  -3 526.833 14.7437   5
   6  -2  -3 540.039 16.0281   3
   5  -2  -3 39.1030 2.36717   6
   5  -2  -3 43.2336 3.40973   3
   5  -2  -3 35.7254 2.18384   5
   5  -2  -3 40.7480 1.99171   4
   5  -2  -3 41.4511 1.90326   2
   4  -2  -3 891.059 22.9210   4
   4  -2  -3 893.321 23.6106   3
   4  -2  -3 893.721 22.4784   2
   3  -2  -3 32.5354 1.25405   2
   3  -2  -3 31.9473 2.65570   1
   3  -2  -3 33.2921 1.98188   3
   3  -2  -3 33.0802 1.75540   4
  -3   2   3 31.0322 3.27767   1
   2  -2  -3 1832.60 46.0171   3
   2  -2  -3 2017.25 49.3535   1
   2  -2  -3 1823.49 45.7996   2
   2  -2  -3 1790.05 46.5976   4
  -2   2   3 1843.01 46.4416   4
   1  -2  -3 371.590 9.29844   5
   1  -2  -3 356.136 10.0878   4
   1  -2  -3 358.754 13.4061   1
  -1   2   3 363.094 9.30542   2
  -1   2   3 348.508 9.18293   5
  -1   2   3 365.941 10.0857   4
  -1   2   3 360.646 13.8175   1
   0  -2  -3 43.0785 5.51253   1
   0  -2  -3 48.0931 2.07499   5
   0  -2  -3 48.2011 2.38068   4
   0   2   3 48.6879 1.81576   5
   0   2   3 56.6388 7.26721   1
  -1  -2  -3 4709.78 118.838   4
  -1  -2  -3 4833.75 118.549   5
  -1  -2  -3 4779.34 125.122   1
   1   2   3 4726.61 118.917   4
   1   2   3 4989.19 125.655   1
  -2  -2  -3 691.386 18.8658   6
  -2  -2  -3 730.576 19.3721   5
  -2  -2  -3 709.493 19.1603   4
  -2  -2  -3 700.591 25.7847   1
   2   2   3 711.092 19.0454   5
   2   2   3 756.260 27.4741   1
   2   2   3 726.064 19.0168   3
   2   2   3 737.547 19.5440   4
  -3  -2  -3 764.400 28.5535   1
  -3  -2  -3 799.731 20.8489   5
  -3  -2  -3 757.212 19.5935   6
  -3  -2  -3 741.039 20.0564   4
   3   2   3 768.236 29.8676   1
   3   2   3 762.667 20.5085   3
   3   2   3 679.525 22.7102   4
   3   2   3 744.252 20.2340   5
  -4  -2  -3 124.077 4.00588   6
  -4  -2  -3 146.095 14.0059   1
  -4  -2  -3 129.583 6.36372   5
   4   2   3 129.866 16.9542   1
   4   2   3 128.598 6.10137   4
   4   2   3 124.833 6.32075   3
   4   2   3 126.269 5.23416   5
  -5  -2  -3 102.108 13.0597   1
   5   2   3 105.901 6.27971   4
   5   2   3 96.7080 15.7864   1
   5   2   3 100.034 5.11469   5
   5   2   3 97.4857 6.52412   3
   6   2   3 1.02992 1.71593   5
   6   2   3 -1.0496 3.36967   4
   6   2   3 -3.0640 3.80141   3
   7   2   3 187.445 8.18442   5
   7   2   3 189.821 10.8009   4
   7   2   3 172.062 12.1611   3
   8   2   3 5.41405 3.05671   5
  11  -3  -3 14.7954 3.77114   5
  11  -3  -3 21.6371 3.22311   2
  11  -3  -3 16.7963 2.92358   4
  10  -3  -3 77.1301 5.89396   5
  10  -3  -3 65.7800 4.61706   2
  10  -3  -3 67.8940 2.28349   6
  10  -3  -3 64.8510 4.07647   4
   9  -3  -3 141.681 5.13661   6
   9  -3  -3 148.834 5.43768   4
   9  -3  -3 145.250 6.78676   5
   9  -3  -3 144.703 5.90858   2
   9  -3  -3 140.106 10.0710   3
   8  -3  -3 35.8910 3.52512   5
   8  -3  -3 37.8624 2.44206   6
   8  -3  -3 35.8116 4.64903   3
   8  -3  -3 36.1292 2.53875   4
   8  -3  -3 39.3551 2.80675   2
   7  -3  -3 272.092 10.5149   3
   7  -3  -3 294.886 8.71446   6
   7  -3  -3 282.810 8.34134   4
   7  -3  -3 282.098 8.43274   2
   7  -3  -3 285.914 9.20803   5
   6  -3  -3 326.951 9.08483   2
   6  -3  -3 328.338 9.29741   4
   6  -3  -3 323.747 11.9643   3
   6  -3  -3 316.120 9.69009   5
   6  -3  -3 335.948 9.79062   6
   5  -3  -3 393.301 10.9820   4
   5  -3  -3 393.097 10.5116   2
   5  -3  -3 405.058 12.0572   3
   5  -3  -3 400.514 11.5964   6
   4  -3  -3 289.404 9.02142   6
   4  -3  -3 301.412 7.78403   2
   4  -3  -3 304.482 8.94102   3
   4  -3  -3 294.699 8.53929   4
  -4   3   3 293.904 8.70528   1
  -4   3   3 299.526 9.52231   1
   3  -3  -3 88.9420 3.18300   3
   3  -3  -3 85.6610 3.68396   6
   3  -3  -3 86.4801 3.32076   4
   3  -3  -3 80.4582 4.81342   1
   3  -3  -3 86.8444 2.46298   2
  -3   3   3 85.9431 3.22443   4
  -3   3   3 82.9870 7.14113   1
   2  -3  -3 946.933 24.9785   4
   2  -3  -3 982.053 24.0513   5
   2  -3  -3 943.034 28.0771   1
   2  -3  -3 963.831 25.3353   6
  -2   3   3 968.685 29.0747   1
  -2   3   3 964.090 23.8346   2
  -2   3   3 979.030 24.8871   4
   1  -3  -3 342.010 8.96412   5
   1  -3  -3 330.154 9.89463   6
   1  -3  -3 320.715 9.66180   4
   1  -3  -3 324.938 13.5100   1
  -1   3   3 326.930 8.81814   5
  -1   3   3 347.801 9.81633   4
  -1   3   3 343.181 8.81029   2
  -1   3   3 363.579 15.3938   1
   0  -3  -3 1259.99 32.9403   6
   0  -3  -3 1293.98 32.3723   5
   0  -3  -3 1269.37 38.7147   1
   0  -3  -3 1288.35 32.9231   4
   0   3   3 1339.62 40.0386   1
   0   3   3 1209.79 32.0274   5
   0   3   3 1301.84 33.0627   4
  -1  -3  -3 771.943 20.7807   6
  -1  -3  -3 777.809 20.8381   4
  -1  -3  -3 740.732 27.1302   1
  -1  -3  -3 799.840 20.7044   5
   1   3   3 788.486 29.0623   1
   1   3   3 789.913 20.1137   3
   1   3   3 796.339 21.1931   4
   1   3   3 784.914 20.3005   5
  -2  -3  -3 56.3553 2.80116   6
  -2  -3  -3 57.2922 3.32084   4
  -2  -3  -3 56.7719 8.02957   1
  -2  -3  -3 63.3785 3.73233   5
   2   3   3 60.5691 3.84565   4
   2   3   3 57.1835 3.12260   3
   2   3   3 55.7674 2.76680   5
   2   3   3 44.4801 9.98681   1
  -3  -3  -3 4.74767 1.97637   5
  -3  -3  -3 4.32903 0.97827   6
  -3  -3  -3 -0.4523 6.22898   1
   3   3   3 10.2479 2.00303   3
   3   3   3 3.19049 0.99875   5
   3   3   3 13.1388 10.4355   1
   3   3   3 1.56152 1.77497   4
  -4  -3  -3 14.5835 1.44907   6
  -4  -3  -3 9.27417 8.90571   1
  -4  -3  -3 13.3271 3.03361   5
   4   3   3 14.0773 2.00365   5
   4   3   3 15.4479 2.93936   4
   4   3   3 8.64191 13.0711   1
   4   3   3 15.0187 2.86973   3
  -5  -3  -3 26.2070 4.28191   5
   5   3   3 27.1943 4.23633   3
   5   3   3 18.2291 3.02823   5
   5   3   3 23.9825 3.97225   4
   5   3   3 12.8680 21.3719   1
   6   3   3 48.1691 5.99824   3
   6   3   3 43.4649 4.41170   5
   6   3   3 41.7224 5.39966   4
   7   3   3 8.78814 2.93016   5
  11  -4  -3 44.8465 4.75358   4
  11  -4  -3 44.8263 4.90758   2
  11  -4  -3 58.4077 6.70750   5
  10  -4  -3 41.5957 2.48825   6
  10  -4  -3 43.3245 3.66632   4
  10  -4  -3 40.1085 5.14806   5
  10  -4  -3 41.9970 3.80655   2
   9  -4  -3 80.6539 3.66157   6
   9  -4  -3 76.8405 5.23508   5
   9  -4  -3 84.5396 4.23059   2
   9  -4  -3 94.8842 8.82363   3
   9  -4  -3 77.7190 3.90432   4
   8  -4  -3 0.44903 1.06022   2
   8  -4  -3 -0.3757 2.85921   3
   8  -4  -3 0.96220 1.51781   5
   8  -4  -3 0.01590 1.12005   6
   8  -4  -3 0.31673 1.07966   4
   7  -4  -3 57.3986 2.63668   2
   7  -4  -3 47.9007 5.60722   3
   7  -4  -3 55.6603 3.21813   6
   7  -4  -3 52.4626 2.83188   4
   7  -4  -3 55.0287 3.49465   5
   6  -4  -3 -0.2099 0.79921   4
   6  -4  -3 1.42385 0.61600   2
   6  -4  -3 2.68841 2.10125   3
   6  -4  -3 1.81051 1.12353   6
   5  -4  -3 1.34390 1.03701   6
   5  -4  -3 4.24914 0.93322   4
   5  -4  -3 0.85774 1.90731   3
   5  -4  -3 1.06531 0.39273   2
  -5   4   3 2.73526 1.15552   1
  -5   4   3 2.22572 1.02592   3
  -5   4   3 3.33131 2.41718   1
   4  -4  -3 22.9415 2.15085   6
   4  -4  -3 24.4696 0.98598   2
   4  -4  -3 25.6310 1.88868   4
   4  -4  -3 23.8538 2.05627   3
  -4   4   3 23.3222 2.96496   1
  -4   4   3 23.6331 1.83408   3
  -4   4   3 20.7204 4.29624   1
  -4   4   3 23.4837 1.84505   4
   3  -4  -3 296.165 7.63684   5
   3  -4  -3 266.236 8.76626   6
   3  -4  -3 278.620 8.40834   4
  -3   4   3 269.468 7.76642   3
  -3   4   3 288.240 8.37755   4
  -3   4   3 286.113 12.7629   1
   2  -4  -3 310.085 12.7393   1
   2  -4  -3 291.469 8.97651   4
   2  -4  -3 298.935 9.35157   6
   2  -4  -3 307.586 8.16613   5
  -2   4   3 294.192 14.0792   1
  -2   4   3 295.259 7.63894   2
  -2   4   3 312.548 9.11133   4
   1  -4  -3 143.480 5.40993   6
   1  -4  -3 151.214 5.32855   4
   1  -4  -3 148.939 4.68189   5
  -1   4   3 148.155 5.56065   4
  -1   4   3 147.334 4.46931   5
  -1   4   3 148.356 4.37776   2
  -1   4   3 159.616 11.8587   1
   0  -4  -3 199.335 6.88594   6
   0  -4  -3 207.449 6.92729   4
   0  -4  -3 210.587 12.6117   1
   0  -4  -3 213.881 6.63489   5
   0   4   3 204.437 6.14153   5
   0   4   3 228.545 15.3706   1
   0   4   3 209.737 5.73396   3
   0   4   3 217.928 7.50922   4
  -1  -4  -3 4.26149 1.11081   6
  -1  -4  -3 2.32397 5.46563   1
  -1  -4  -3 8.75692 1.39234   4
  -1  -4  -3 6.90821 1.54252   5
   1   4   3 5.56578 1.88410   4
   1   4   3 6.28886 1.02950   5
   1   4   3 6.10240 1.16494   3
   1   4   3 6.29860 8.86962   1
  -2  -4  -3 4.38101 6.73055   1
  -2  -4  -3 13.3179 1.82443   6
  -2  -4  -3 16.2360 2.54614   5
  -2  -4  -3 14.2026 1.87532   4
   2   4   3 10.4775 1.72987   3
   2   4   3 10.5762 2.29335   4
   2   4   3 13.7243 1.74834   5
   2   4   3 22.8190 11.6497   1
  -3  -4  -3 29.3536 2.07786   6
  -3  -4  -3 19.5561 8.82761   1
  -3  -4  -3 28.2293 3.59129   5
   3   4   3 28.3714 2.58719   5
   3   4   3 33.9823 3.76633   4
   3   4   3 36.1818 14.2489   1
   3   4   3 36.3887 3.94332   3
  -4  -4  -3 54.8209 6.47167   5
  -4  -4  -3 59.3437 11.8674   1
  -4  -4  -3 48.6338 2.34367   6
   4   4   3 57.9054 6.15408   4
   4   4   3 45.3996 6.39711   3
   4   4   3 64.1694 18.6602   1
   4   4   3 49.7974 3.62212   5
  -5  -4  -3 0.88528 0.57272   6
   5   4   3 0.58193 1.85999   5
   5   4   3 4.23396 4.00425   4
   5   4   3 -1.9040 3.76206   3
   6   4   3 44.9907 6.91171   3
   6   4   3 38.2431 4.65689   5
   7   4   3 0.03002 3.12740   5
  11  -5  -3 127.392 8.17443   5
  11  -5  -3 123.396 6.15365   4
  11  -5  -3 130.773 4.51101   6
  11  -5  -3 129.050 6.43995   2
  10  -5  -3 -1.4764 1.69336   4
  10  -5  -3 1.04549 1.83204   2
  10  -5  -3 1.48515 2.53173   5
  10  -5  -3 2.22498 1.44218   6
   9  -5  -3 235.015 7.57661   2
   9  -5  -3 233.084 7.54874   4
   9  -5  -3 229.607 8.91158   5
   9  -5  -3 234.535 11.6549   3
   9  -5  -3 235.769 7.69495   6
   8  -5  -3 28.6866 4.32033   3
   8  -5  -3 25.3531 2.65328   6
   8  -5  -3 26.5205 3.40647   5
   8  -5  -3 29.5659 2.26393   2
   8  -5  -3 26.5103 2.45669   4
   7  -5  -3 383.062 12.6572   3
   7  -5  -3 374.147 12.6956   6
   7  -5  -3 374.079 10.9169   4
   7  -5  -3 389.966 10.3568   2
   6  -5  -3 180.416 5.00254   2
   6  -5  -3 180.524 5.96769   4
   6  -5  -3 172.551 6.51640   6
   6  -5  -3 186.624 6.99143   3
  -6   5   3 162.293 5.87323   1
  -6   5   3 186.074 7.35402   1
  -6   5   3 177.114 6.71798   3
   5  -5  -3 432.785 11.0028   2
   5  -5  -3 441.971 12.4139   4
   5  -5  -3 448.726 12.6028   3
   5  -5  -3 423.464 13.3881   6
  -5   5   3 437.454 13.1796   1
  -5   5   3 432.592 15.7659   1
  -5   5   3 454.543 12.0268   4
  -5   5   3 438.330 12.7126   3
   4  -5  -3 129.049 5.33295   6
   4  -5  -3 131.046 4.85927   4
  -4   5   3 138.322 10.0702   1
  -4   5   3 136.232 4.92033   4
  -4   5   3 138.891 7.60976   1
  -4   5   3 134.297 4.72456   3
   3  -5  -3 210.804 7.08829   4
   3  -5  -3 221.871 7.59435   6
   3  -5  -3 232.985 6.47371   5
  -3   5   3 225.993 6.44450   3
  -3   5   3 226.425 13.2751   1
  -3   5   3 232.859 7.35786   4
  -3   5   3 216.389 11.0553   1
  -3   5   3 215.719 10.9875   1
   2  -5  -3 69.3046 3.58414   5
   2  -5  -3 63.9289 3.24441   4
   2  -5  -3 65.6519 3.47028   6
  -2   5   3 63.9095 9.13062   1
  -2   5   3 65.7341 2.64755   3
  -2   5   3 64.0870 3.62255   4
  -2   5   3 63.6835 1.96156   2
   1  -5  -3 151.802 5.58493   4
   1  -5  -3 151.917 5.70985   6
   1  -5  -3 160.214 10.8913   1
   1  -5  -3 151.472 5.12098   5
  -1   5   3 155.809 6.06909   4
  -1   5   3 116.824 15.5757   1
  -1   5   3 144.267 4.71509   5
   0  -5  -3 116.111 10.5990   1
   0  -5  -3 117.963 4.84805   4
   0  -5  -3 126.456 4.87813   5
   0  -5  -3 114.987 4.87839   6
   0   5   3 116.886 4.18097   5
   0   5   3 112.408 3.99097   3
   0   5   3 129.728 5.70251   4
   0   5   3 126.558 15.6260   1
  -1  -5  -3 310.826 9.80650   4
  -1  -5  -3 309.015 17.9268   1
  -1  -5  -3 314.908 9.61511   6
  -1  -5  -3 280.051 11.2439   5
   1   5   3 317.373 22.3258   1
   1   5   3 310.465 9.04029   3
   1   5   3 340.712 10.8571   4
   1   5   3 308.697 9.18100   5
  -2  -5  -3 6.47585 7.91379   1
  -2  -5  -3 4.00453 1.23271   6
  -2  -5  -3 2.16023 2.24536   5
   2   5   3 4.23808 1.87636   3
   2   5   3 4.15180 1.23297   5
   2   5   3 3.32057 2.60377   4
   2   5   3 9.31660 12.7171   1
  -3  -5  -3 59.8751 6.27008   5
  -3  -5  -3 52.6011 2.84334   6
  -3  -5  -3 46.7030 11.1771   1
   3   5   3 59.3544 5.01994   3
   3   5   3 61.8007 7.49232   4
   3   5   3 68.0255 19.3724   1
   3   5   3 47.5753 3.45729   5
  -4  -5  -3 4.67137 4.04051   5
  -4  -5  -3 0.38181 0.97740   6
   4   5   3 2.43524 1.68103   5
   4   5   3 -1.3623 3.33732   3
   4   5   3 3.17690 4.27031   4
  -5  -5  -3 0.95917 0.73540   6
   5   5   3 -8.2646 4.88688   3
   5   5   3 3.88145 2.19616   5
   6   5   3 20.9347 3.24220   5
  11  -6  -3 140.956 5.30932   6
  11  -6  -3 139.945 6.47186   2
  11  -6  -3 124.655 8.53534   5
  10  -6  -3 56.6736 3.72747   4
  10  -6  -3 61.7027 3.93200   2
  10  -6  -3 52.0926 3.71744   6
  10  -6  -3 63.9320 5.69226   5
   9  -6  -3 107.301 6.12424   5
   9  -6  -3 105.747 4.58368   4
   9  -6  -3 108.246 4.99743   6
   9  -6  -3 106.534 8.73728   3
   9  -6  -3 113.410 4.36605   2
   8  -6  -3 132.178 7.54133   3
   8  -6  -3 127.608 4.96638   4
   8  -6  -3 130.783 4.37629   2
   8  -6  -3 130.650 5.56439   6
   7  -6  -3 62.9116 2.30559   2
   7  -6  -3 65.5369 4.97730   3
   7  -6  -3 57.3273 3.75249   6
   7  -6  -3 60.0292 3.22352   4
  -7   6   3 63.6849 4.32436   3
   6  -6  -3 72.5929 4.08516   6
   6  -6  -3 82.4617 4.32680   3
   6  -6  -3 72.7898 3.53995   4
  -6   6   3 75.8166 4.15068   3
  -6   6   3 72.3319 8.70991   1
  -6   6   3 81.8216 5.03118   1
   5  -6  -3 10.9253 1.61983   4
   5  -6  -3 14.4485 2.18564   6
  -5   6   3 12.7900 1.75685   4
  -5   6   3 12.0984 1.74202   3
  -5   6   3 12.2406 6.05360   1
  -5   6   3 11.7837 3.57167   1
   4  -6  -3 192.145 6.64266   4
   4  -6  -3 206.042 6.11077   5
   4  -6  -3 192.521 7.18226   6
  -4   6   3 200.504 6.82866   4
  -4   6   3 196.422 6.30221   3
  -4   6   3 193.877 6.26000   3
  -4   6   3 192.920 10.3139   1
  -4   6   3 197.996 13.7529   1
   3  -6  -3 1.53223 1.02662   5
   3  -6  -3 1.50532 1.28712   6
   3  -6  -3 0.30661 1.06177   4
  -3   6   3 1.50458 0.79922   3
  -3   6   3 1.96876 1.87987   4
  -3   6   3 -0.3024 6.73484   1
   2  -6  -3 1.50144 1.04767   4
   2  -6  -3 -0.0843 0.98539   6
   2  -6  -3 0.52451 1.08891   5
  -2   6   3 0.23623 0.68710   3
  -2   6   3 -5.5131 10.9353   1
  -2   6   3 2.27295 1.67628   4
  -2   6   3 0.86041 0.47175   2
  -2   6   3 0.80025 0.51035   2
   1  -6  -3 184.136 6.91622   6
   1  -6  -3 196.601 6.84204   4
  -1   6   3 185.864 7.50847   4
  -1   6   3 182.378 5.92233   5
  -1   6   3 229.861 18.4395   1
   0  -6  -3 7.19393 1.99115   5
   0  -6  -3 5.26455 1.34153   6
   0  -6  -3 4.93933 1.39602   4
   0   6   3 2.80402 0.88461   5
   0   6   3 5.65516 10.9895   1
   0   6   3 6.58720 1.20748   3
   0   6   3 3.93035 2.39611   4
  -1  -6  -3 382.120 12.0227   5
  -1  -6  -3 361.081 11.1381   6
   1   6   3 374.855 27.8127   1
   1   6   3 381.840 12.6760   4
   1   6   3 357.182 10.6268   3
   1   6   3 355.167 10.7512   5
  -2  -6  -3 19.4282 3.59784   5
  -2  -6  -3 16.2749 2.03311   6
   2   6   3 13.1938 1.84711   5
   2   6   3 17.7096 2.73085   3
   2   6   3 12.5957 18.0353   1
   2   6   3 18.7527 3.86792   4
  -3  -6  -3 40.6148 5.10765   5
  -3  -6  -3 47.5019 2.89181   6
   3   6   3 46.2132 3.71593   5
  -4  -6  -3 12.2722 1.55353   6
   4   6   3 17.8961 4.68186   3
   4   6   3 15.6840 2.62542   5
   5   6   3 6.97614 2.74461   5
  11  -7  -3 -1.7508 2.05676   6
  11  -7  -3 2.86953 3.76994   5
  11  -7  -3 -0.8227 2.38110   2
  10  -7  -3 140.756 5.25606   4
  10  -7  -3 141.398 6.05800   6
  10  -7  -3 146.159 7.59790   5
  10  -7  -3 140.041 5.34275   2
   9  -7  -3 54.2736 7.49650   3
   9  -7  -3 50.2216 2.67234   2
   9  -7  -3 44.1679 3.20857   4
   9  -7  -3 47.4584 3.84920   6
   8  -7  -3 131.214 7.30211   3
   8  -7  -3 124.754 4.35715   2
   8  -7  -3 124.098 5.68731   6
   8  -7  -3 131.174 5.05202   4
   8  -7  -3 129.333 3.88715   2
  -8   7   3 123.576 6.78727   3
   7  -7  -3 453.026 13.8093   6
   7  -7  -3 448.962 12.7764   4
  -7   7   3 444.172 17.7761   1
  -7   7   3 443.792 14.0605   3
  -7   7   3 455.756 13.9064   1
   6  -7  -3 547.604 16.3501   6
   6  -7  -3 552.376 15.4360   4
  -6   7   3 545.593 17.2945   1
  -6   7   3 565.746 15.1890   4
  -6   7   3 545.568 16.0954   3
  -6   7   3 567.012 22.7391   1
   5  -7  -3 550.361 16.1915   6
   5  -7  -3 553.900 15.3549   4
   5  -7  -3 522.438 15.3518   5
  -5   7   3 538.058 16.1090   4
  -5   7   3 541.852 18.5707   1
  -5   7   3 540.454 23.1293   1
  -5   7   3 554.365 15.4346   3
   4  -7  -3 277.297 8.97117   4
   4  -7  -3 275.308 9.54445   6
  -4   7   3 261.010 13.6014   1
  -4   7   3 286.162 9.28855   4
  -4   7   3 284.548 8.41985   3
  -4   7   3 295.327 18.3453   1
   3  -7  -3 1054.71 29.0238   5
   3  -7  -3 1108.57 29.7583   6
   3  -7  -3 1072.39 29.0283   4
  -3   7   3 1116.67 39.9186   1
  -3   7   3 1109.89 27.9242   3
  -3   7   3 1137.39 29.6853   4
   2  -7  -3 235.374 7.38631   5
   2  -7  -3 222.269 7.65281   4
   2  -7  -3 222.593 7.97315   6
  -2   7   3 222.278 8.52078   4
  -2   7   3 200.355 6.52864   2
  -2   7   3 217.607 13.6798   1
  -2   7   3 206.462 6.47597   3
  -2   7   3 229.123 20.3682   1
   1  -7  -3 459.041 14.2718   6
   1  -7  -3 466.523 14.1670   4
   1  -7  -3 501.392 14.0783   5
  -1   7   3 478.139 12.5249   3
  -1   7   3 488.745 22.1561   1
  -1   7   3 483.622 15.1627   4
  -1   7   3 508.071 29.2581   1
  -1   7   3 472.756 12.6148   2
   0  -7  -3 3.08703 1.56699   6
   0  -7  -3 -0.3193 2.24423   5
   0   7   3 -2.9536 14.9950   1
   0   7   3 0.07971 1.36738   3
   0   7   3 2.19054 1.09261   5
   0   7   3 9.09487 8.13971   1
   0   7   3 1.13617 3.23845   4
  -1  -7  -3 437.462 14.3639   5
  -1  -7  -3 428.495 12.9606   6
   1   7   3 432.642 12.8229   5
   1   7   3 407.315 12.6579   3
   1   7   3 510.096 35.3080   1
   1   7   3 449.248 15.8135   4
  -2  -7  -3 -1.7774 1.38624   6
  -2  -7  -3 -4.4740 3.67873   5
   2   7   3 -31.572 22.0106   1
   2   7   3 -11.597 10.6384   1
   2   7   3 -0.5009 1.53877   5
   2   7   3 3.01938 2.65284   3
  -3  -7  -3 232.133 7.39350   6
   3   7   3 221.232 8.40642   5
   3   7   3 231.855 10.5248   3
   4   7   3 13.2093 2.80281   5
  11  -8  -3 60.7139 7.99331   5
  11  -8  -3 68.4759 4.92292   6
  10  -8  -3 243.978 8.90211   6
  10  -8  -3 249.571 7.27177   2
  10  -8  -3 244.396 7.41397   4
   9  -8  -3 0.64643 1.20817   2
   9  -8  -3 -2.1665 1.54187   4
   9  -8  -3 1.16769 1.91308   6
   8  -8  -3 429.859 12.0774   4
  -8   8   3 410.174 15.8698   1
  -8   8   3 405.451 14.7739   3
   7  -8  -3 25.4440 3.38604   6
   7  -8  -3 31.6825 2.91280   4
  -7   8   3 27.0998 4.95629   1
  -7   8   3 27.3926 3.29073   3
   6  -8  -3 36.7603 3.47327   5
   6  -8  -3 40.0813 3.11927   4
   6  -8  -3 36.0617 3.49569   6
  -6   8   3 33.2242 3.57329   3
  -6   8   3 34.5645 5.69445   1
  -6   8   3 42.6477 3.89170   4
   5  -8  -3 25.9444 3.15532   6
   5  -8  -3 26.4856 3.11625   5
   5  -8  -3 29.0010 2.88748   4
  -5   8   3 24.3265 10.7668   1
  -5   8   3 30.9817 2.87877   3
  -5   8   3 30.1665 3.18180   4
  -5   8   3 27.8342 6.56495   1
   4  -8  -3 15.3774 2.02881   4
   4  -8  -3 18.1211 2.55498   6
   4  -8  -3 17.4349 2.18801   5
  -4   8   3 14.3604 11.0509   1
  -4   8   3 6.15528 6.58698   1
  -4   8   3 16.8839 2.80234   4
  -4   8   3 16.9519 1.89687   3
   3  -8  -3 19.0649 2.35276   5
   3  -8  -3 24.4151 2.99602   6
   3  -8  -3 16.2018 2.09290   4
  -3   8   3 14.7567 2.91006   4
  -3   8   3 17.7320 1.90833   3
  -3   8   3 15.7121 15.3715   1
  -3   8   3 18.9842 6.69291   1
   2  -8  -3 30.4291 3.24106   6
   2  -8  -3 31.7289 2.98061   4
   2  -8  -3 35.9466 4.04175   5
  -2   8   3 31.8330 4.20398   4
  -2   8   3 13.9165 16.6199   1
  -2   8   3 24.6670 7.43639   1
  -2   8   3 31.2700 1.60990   2
   1  -8  -3 8.41604 1.80994   6
   1  -8  -3 10.4568 2.80649   5
  -1   8   3 7.29198 1.06730   2
  -1   8   3 -7.0601 16.2335   1
  -1   8   3 8.77661 1.46765   3
   0  -8  -3 128.090 5.66174   6
   0  -8  -3 127.709 8.00138   5
   0   8   3 107.644 22.9116   1
   0   8   3 118.656 8.87123   4
   0   8   3 122.792 4.97378   3
   0   8   3 124.126 5.19308   5
   0   8   3 122.142 4.54951   2
  -1  -8  -3 -1.6481 4.08879   5
  -1  -8  -3 1.87866 1.72225   6
   1   8   3 -11.229 23.0473   1
   1   8   3 0.92947 2.37125   3
   1   8   3 -0.8553 1.44017   5
   1   8   3 1.79537 1.55424   2
  -2  -8  -3 2.20842 1.76121   6
   2   8   3 1.35785 2.11542   2
   2   8   3 1.87293 1.96312   5
   2   8   3 2.56987 3.43452   3
  -3  -8  -3 72.5358 4.13247   6
   3   8   3 70.7561 5.35849   5
   3   8   3 82.3741 5.68034   2
  10  -9  -3 49.0088 4.86579   6
   9  -9  -3 22.0017 3.00176   6
   9  -9  -3 23.0925 2.97343   4
   8  -9  -3 44.7630 4.27690   6
   8  -9  -3 45.6323 3.41332   4
  -8   9   3 44.7497 5.43029   3
   7  -9  -3 29.0150 3.76223   6
   7  -9  -3 26.6492 3.20147   5
   7  -9  -3 25.2544 2.98591   4
  -7   9   3 29.3887 3.94541   4
   6  -9  -3 1.23468 1.58474   4
   6  -9  -3 2.08030 1.80449   6
   6  -9  -3 1.74394 2.26554   5
  -6   9   3 1.63163 2.50076   4
  -6   9   3 2.55354 2.03896   3
   5  -9  -3 168.018 6.59471   4
   5  -9  -3 178.833 6.80935   5
   5  -9  -3 160.864 7.12232   6
  -5   9   3 184.064 7.93472   4
  -5   9   3 164.662 6.35010   3
   4  -9  -3 1.29675 2.23186   5
   4  -9  -3 3.46392 1.73711   6
   4  -9  -3 4.45808 1.64219   4
  -4   9   3 1.66256 2.92989   4
  -4   9   3 0.20703 1.34260   3
   3  -9  -3 141.219 6.00499   4
   3  -9  -3 132.462 6.22496   6
   3  -9  -3 138.560 6.62053   5
  -3   9   3 135.105 4.66482   3
  -3   9   3 141.661 8.17216   4
   2  -9  -3 7.63953 2.12831   6
   2  -9  -3 10.3011 3.20049   5
  -2   9   3 2.09987 3.68837   4
   1  -9  -3 6.71417 2.12439   6
   1  -9  -3 13.6204 4.07736   5
  -1   9   3 17.7458 20.6201   1
  -1   9   3 7.47468 1.23328   2
   0  -9  -3 -0.0686 1.88339   6
   0   9   3 -0.1389 1.37200   2
   0   9   3 0.93647 1.99086   3
   0   9   3 -37.813 25.2790   1
  -1  -9  -3 0.20731 2.09454   6
   1   9   3 -0.4276 1.94047   2
   1   9   3 -0.3542 1.95012   5
  -2  -9  -3 -0.0947 2.00325   6
   2   9   3 6.70171 2.50171   5
   2   9   3 3.25129 2.73489   2
  10 -10  -3 7.05400 3.05066   6
   9 -10  -3 9.92592 2.68273   6
  -9  10   3 5.18619 3.85422   3
   8 -10  -3 17.7670 3.86914   5
   8 -10  -3 14.9523 2.88576   6
   8 -10  -3 18.5021 2.28846   4
  -8  10   3 21.8797 3.86379   3
   7 -10  -3 6.91264 2.03746   4
   7 -10  -3 6.85010 3.77338   5
   7 -10  -3 8.46006 2.27367   6
  -7  10   3 4.94903 3.14227   4
  -7  10   3 -0.9671 2.62415   3
   6 -10  -3 0.22623 1.84568   6
   6 -10  -3 2.09034 1.82624   4
   6 -10  -3 1.06205 2.81934   5
  -6  10   3 -3.0981 3.39414   4
  -6  10   3 -2.8482 2.19854   3
   5 -10  -3 32.0774 3.98800   6
   5 -10  -3 26.4194 3.58663   5
   5 -10  -3 23.2003 2.67537   4
  -5  10   3 28.9823 2.87986   3
  -5  10   3 31.4999 4.69975   4
   4 -10  -3 2.25672 2.15344   6
   4 -10  -3 6.96612 3.59342   5
  -4  10   3 2.71240 1.62586   3
  -4  10   3 7.06468 4.12816   4
   3 -10  -3 30.2389 3.89312   6
   3 -10  -3 35.2131 4.52128   5
   2 -10  -3 23.0657 4.53028   5
   2 -10  -3 19.1755 3.03438   6
   1 -10  -3 20.1809 2.79969   6
  -1 -10  -3 15.3259 2.89114   6
   1  10   3 8.44941 2.76730   2
   9 -11  -3 12.8039 3.28258   6
   8 -11  -3 0.41324 2.64927   6
  -8  11   3 1.83504 3.77313   3
   7 -11  -3 19.5663 3.06721   6
  -7  11   3 21.6504 3.66221   3
   6 -11  -3 2.65249 2.67726   6
  -6  11   3 14.2997 5.17794   4
  -6  11   3 2.04601 2.60346   3
   5 -11  -3 4.79037 2.69062   6
  -5  11   3 -0.8727 2.17728   3
   4 -11  -3 52.5357 5.09831   6
   3 -11  -3 47.5264 4.84850   6
   2 -11  -3 4.91419 2.53995   6
   1 -11  -3 3.20348 2.57775   6
   7 -12  -3 10.5594 3.29127   6
   6 -12  -3 21.1430 3.53999   6
   5 -12  -3 7.81905 3.34174   6
   4 -12  -3 41.0135 5.64208   6
  -1  13  -4 7.36181 3.55884   2
   1 -13   4 3.85066 2.17296   6
  -2  13  -4 6.17041 2.59728   2
  -4  13  -4 0.97552 3.43073   3
   4 -13   4 -0.7612 1.71814   6
  -5  13  -4 53.7361 7.41104   3
   5 -13   4 57.6976 3.98854   6
  -6  13  -4 -7.6508 3.87332   3
   6 -13   4 -0.0321 1.90147   6
  -7  13  -4 56.9263 7.26213   3
   7 -13   4 44.4682 4.12397   6
   1  12  -4 59.3797 5.09545   2
  -1 -12   4 60.4204 4.37446   6
   0 -12   4 0.66771 1.65162   6
  -1  12  -4 72.2261 4.21513   2
   1 -12   4 63.2503 3.76760   6
  -2  12  -4 2.38021 1.82032   2
  -2  12  -4 0.21076 4.77271   4
   2 -12   4 -0.1432 1.28849   6
  -3  12  -4 34.0655 3.33528   2
  -3  12  -4 31.8478 5.08768   4
   3 -12   4 34.5468 2.90019   6
  -4  12  -4 8.22783 4.11197   4
  -4  12  -4 12.5548 3.42938   3
   4 -12   4 12.6069 1.98958   6
  -5  12  -4 7.75816 3.29268   3
   5 -12   4 7.03525 1.54933   6
  -6  12  -4 1.93998 3.37611   3
   6 -12   4 1.22152 1.50220   6
  -7  12  -4 116.235 9.46842   3
   7 -12   4 119.470 5.20507   6
  -8  12  -4 16.4740 5.18063   3
   8 -12   4 11.3588 2.16141   6
   2  11  -4 17.6033 2.68958   2
  -2 -11   4 22.1249 2.85403   6
   1  11  -4 5.29246 1.93683   2
  -1 -11   4 3.26326 1.47926   6
   0  11  -4 -0.9790 1.62040   2
   0 -11   4 -1.1467 1.23267   6
  -1  11  -4 11.6192 4.30658   4
  -1  11  -4 6.58946 1.58901   2
   1 -11   4 6.78037 1.53094   6
  -2  11  -4 88.9184 7.56173   4
  -2  11  -4 101.319 4.29183   2
   2 -11   4 99.5113 4.19473   6
  -3  11  -4 59.5818 3.47912   2
  -3  11  -4 64.3455 5.95600   4
   3 -11   4 63.9319 3.34823   6
  -4  11  -4 39.8310 3.95047   4
  -4  11  -4 36.5819 4.62213   3
   4 -11   4 34.3049 2.67896   6
   4 -11   4 37.7932 3.77638   2
  -5  11  -4 3.35322 2.82259   3
  -5  11  -4 0.51677 2.29283   4
   5 -11   4 1.26595 1.21871   6
   5 -11   4 1.39308 1.94993   2
  -6  11  -4 71.8901 6.69950   3
   6 -11   4 81.0124 3.83162   6
   6 -11   4 82.7989 4.61949   2
  -7  11  -4 34.3771 4.78939   3
   7 -11   4 38.6116 3.03043   6
   7 -11   4 39.0463 4.43665   2
  -8  11  -4 1.26802 4.03051   3
   8 -11   4 2.53378 1.60592   6
  -9  11  -4 -2.7828 4.90068   3
   9 -11   4 2.40433 1.95948   6
   4  10  -4 67.3189 5.43746   2
   4  10  -4 65.5763 6.06501   5
   3  10  -4 13.4750 6.54297   6
   3  10  -4 1.32423 2.25845   5
   3  10  -4 3.41205 2.23407   2
   2  10  -4 62.2979 6.95722   6
   2  10  -4 51.7844 3.88120   2
   2  10  -4 30.6613 9.98483   1
  -2 -10   4 53.1134 2.99059   6
   1  10  -4 227.086 7.55769   2
   1  10  -4 190.288 15.7877   1
   1  10  -4 222.934 10.8842   6
  -1 -10   4 219.755 6.96088   6
   0  10  -4 22.1473 4.18071   4
   0  10  -4 25.3824 8.06697   1
   0  10  -4 20.8290 2.52196   2
   0  10  -4 34.3215 4.61732   6
   0 -10   4 22.7344 2.49825   6
  -1  10  -4 122.237 6.87792   4
  -1  10  -4 143.726 12.3777   1
  -1  10  -4 119.584 4.65076   2
  -1  10  -4 121.373 7.83624   6
   1 -10   4 122.082 6.64010   5
  -2  10  -4 161.065 8.42556   6
  -2  10  -4 143.236 11.4944   1
  -2  10  -4 173.194 7.28113   4
  -2  10  -4 166.624 5.61698   2
   2 -10   4 168.853 19.7491   1
   2 -10   4 159.213 7.21010   5
  -3  10  -4 1.22586 3.00906   6
  -3  10  -4 1.67291 1.20159   2
  -3  10  -4 3.39367 2.36887   4
  -3  10  -4 -0.3054 5.37392   1
   3 -10   4 1.98871 2.27254   2
   3 -10   4 0.13700 11.5900   1
   3 -10   4 0.33608 2.13053   5
  -4  10  -4 9.08968 2.41822   3
  -4  10  -4 5.01545 3.12356   6
  -4  10  -4 7.24885 2.17674   4
   4 -10   4 6.38653 1.25493   6
   4 -10   4 1.52247 2.31620   5
  -5  10  -4 63.7514 6.79718   6
  -5  10  -4 58.5639 3.48212   4
   5 -10   4 58.9513 3.01700   6
   5 -10   4 61.2915 3.60244   2
  -6  10  -4 29.1508 5.01382   6
  -6  10  -4 24.7992 4.02061   3
   6 -10   4 27.5964 3.41668   2
   6 -10   4 26.3988 2.25817   6
  -7  10  -4 6.21149 3.31673   3
   7 -10   4 9.62862 2.43461   2
   7 -10   4 11.9145 1.66108   6
  -8  10  -4 1.05496 3.31688   3
   8 -10   4 1.43839 2.81743   2
   8 -10   4 -3.1501 1.27296   6
  -9  10  -4 25.3204 5.20129   3
   9 -10   4 34.7317 2.98361   6
   5   9  -4 2.35719 2.93047   5
   5   9  -4 2.67679 2.78439   2
   4   9  -4 0.29109 2.05819   2
   4   9  -4 1.57292 2.21130   5
   4   9  -4 1.44201 5.43374   6
   3   9  -4 -0.0721 1.65514   2
   3   9  -4 -1.2244 4.25377   6
   3   9  -4 -1.4036 1.60249   5
  -3  -9   4 1.29804 1.21053   6
   2   9  -4 251.613 15.7593   1
   2   9  -4 275.936 11.0522   6
   2   9  -4 291.622 12.2271   4
   2   9  -4 276.958 9.42626   5
   2   9  -4 278.279 8.86926   2
  -2  -9   4 265.377 7.99307   6
   1   9  -4 363.834 15.4022   4
   1   9  -4 318.622 9.96819   2
   1   9  -4 320.510 11.7363   6
   1   9  -4 326.094 16.3466   1
  -1  -9   4 336.933 9.50337   6
  -1  -9   4 336.594 11.5700   5
   0   9  -4 4.48221 2.19539   4
   0   9  -4 3.93873 2.74465   6
   0   9  -4 6.11419 1.22022   2
   0   9  -4 2.95160 5.51536   1
   0  -9   4 3.41279 1.04265   6
   0  -9   4 9.64377 2.65885   5
  -1   9  -4 35.6467 2.36685   2
  -1   9  -4 32.4784 3.78400   4
  -1   9  -4 34.5027 4.50308   6
  -1   9  -4 22.6179 5.84136   1
   1  -9   4 37.4853 3.95083   5
   1  -9   4 33.1039 11.0967   1
   1  -9   4 34.6556 2.15628   6
  -2   9  -4 17.0505 2.42555   4
  -2   9  -4 17.2345 1.84062   2
  -2   9  -4 11.5821 2.55066   6
  -2   9  -4 13.6788 4.85481   1
   2  -9   4 14.2722 1.61195   6
   2  -9   4 16.9383 2.40532   5
   2  -9   4 24.0436 9.92466   1
  -3   9  -4 11.3200 2.98350   6
  -3   9  -4 7.38460 1.29164   2
  -3   9  -4 8.55058 4.41125   1
  -3   9  -4 10.4789 2.00418   4
   3  -9   4 13.2206 2.32335   5
   3  -9   4 14.0922 9.12129   1
   3  -9   4 10.8910 1.60334   2
  -4   9  -4 75.2118 5.60635   6
  -4   9  -4 81.8648 8.64172   1
  -4   9  -4 82.0400 3.81139   4
  -4   9  -4 75.6752 4.82633   3
   4  -9   4 74.5378 3.26196   6
   4  -9   4 81.7528 3.57438   2
   4  -9   4 77.3532 10.7241   1
  -5   9  -4 49.0193 7.58279   1
  -5   9  -4 52.0615 4.60651   3
  -5   9  -4 63.1480 5.46170   6
   5  -9   4 52.9058 9.81122   1
   5  -9   4 59.4175 3.38168   2
   5  -9   4 55.4018 2.71984   6
  -6   9  -4 31.2838 4.13620   6
   6  -9   4 30.0337 2.18818   6
   6  -9   4 33.7816 3.35115   2
  -7   9  -4 -0.7752 2.58194   3
   7  -9   4 2.59852 1.11191   6
   7  -9   4 2.30569 2.15722   2
  -8   9  -4 79.5564 7.45003   3
  -8   9  -4 90.7699 8.99130   6
   8  -9   4 69.3740 4.71162   6
   8  -9   4 81.6998 5.66287   2
  -9   9  -4 -1.9632 3.59590   3
  -9   9  -4 2.30737 6.31205   6
   9  -9   4 -0.6097 3.60226   2
   9  -9   4 1.17781 1.60553   6
 -10   9  -4 8.41314 6.00402   3
   6   8  -4 13.7425 3.37491   5
   6   8  -4 7.13024 2.81555   2
   5   8  -4 79.9074 8.56783   6
   5   8  -4 80.2002 5.07849   2
   5   8  -4 73.1589 5.31438   5
   4   8  -4 44.5073 4.95458   6
   4   8  -4 36.8351 3.80637   5
   4   8  -4 40.1899 3.57092   2
   3   8  -4 41.2116 4.30751   6
   3   8  -4 46.6872 5.56078   4
   3   8  -4 31.0853 8.08657   1
   3   8  -4 41.1935 3.10433   2
   3   8  -4 42.2387 3.44942   5
  -3  -8   4 31.8465 4.11857   5
  -3  -8   4 41.6369 2.27857   6
   2   8  -4 109.739 4.60533   2
   2   8  -4 145.663 18.3406   1
   2   8  -4 114.672 6.19238   4
   2   8  -4 134.446 11.0379   1
   2   8  -4 115.005 4.99877   5
   2   8  -4 113.983 6.30171   6
  -2  -8   4 112.680 3.94877   6
  -2  -8   4 107.320 8.22986   5
   1   8  -4 6.54790 2.32309   6
   1   8  -4 3.13956 1.08689   2
   1   8  -4 3.74789 1.84558   4
   1   8  -4 3.20115 4.77732   1
  -1  -8   4 4.50352 0.96037   6
  -1  -8   4 4.96841 2.16730   5
   0   8  -4 69.2021 4.45582   6
   0   8  -4 69.1919 4.16089   4
   0   8  -4 63.2204 2.95506   2
   0   8  -4 65.8117 7.62478   1
   0  -8   4 64.3891 4.20959   5
   0  -8   4 77.8957 11.8734   1
   0  -8   4 65.3886 2.77633   6
  -1   8  -4 205.339 6.39921   2
  -1   8  -4 212.053 7.59216   6
  -1   8  -4 199.380 6.95363   4
  -1   8  -4 215.956 11.1133   1
   1  -8   4 191.184 7.15037   2
   1  -8   4 213.168 7.16490   5
   1  -8   4 215.667 15.2915   1
   1  -8   4 205.137 6.20970   6
  -2   8  -4 162.363 9.33972   1
  -2   8  -4 160.242 6.46196   6
  -2   8  -4 163.665 5.28755   2
  -2   8  -4 161.462 5.64945   4
   2  -8   4 162.233 5.97407   5
   2  -8   4 167.062 5.39330   2
   2  -8   4 147.994 5.04809   6
   2  -8   4 169.830 13.7007   1
  -3   8  -4 55.6964 3.03545   4
  -3   8  -4 65.1048 4.22040   6
  -3   8  -4 57.3847 6.43292   1
  -3   8  -4 58.4649 2.86331   2
   3  -8   4 58.4045 3.64432   5
   3  -8   4 61.4679 2.92605   2
   3  -8   4 60.1190 2.60876   6
   3  -8   4 58.4969 8.54052   1
  -4   8  -4 4.85698 1.18484   4
  -4   8  -4 5.08254 1.75949   3
  -4   8  -4 5.31678 2.01606   6
  -4   8  -4 5.84224 4.02134   1
   4  -8   4 3.67467 1.23721   2
   4  -8   4 4.02030 0.86240   6
   4  -8   4 4.03386 6.13451   1
  -5   8  -4 25.9452 3.60295   3
  -5   8  -4 27.6569 3.34985   6
   5  -8   4 25.3413 1.80915   6
   5  -8   4 26.0769 6.81686   1
   5  -8   4 31.5741 2.68897   2
  -6   8  -4 11.3209 8.58459   1
  -6   8  -4 -0.3455 2.38679   6
  -6   8  -4 -0.9752 1.88043   3
   6  -8   4 0.01810 0.74662   6
   6  -8   4 1.34392 1.53773   2
   6  -8   4 2.37543 4.79242   1
  -7   8  -4 42.9281 5.68780   6
  -7   8  -4 28.4853 4.08853   3
   7  -8   4 32.1946 2.10379   6
   7  -8   4 32.0847 3.85731   2
  -8   8  -4 58.7717 6.49424   3
  -8   8  -4 65.2676 7.60865   6
   8  -8   4 59.5583 5.61197   2
   8  -8   4 61.4953 2.93193   6
  -9   8  -4 2.49831 5.40246   6
  -9   8  -4 10.1909 4.29702   3
   9  -8   4 7.60655 4.00750   2
 -10   8  -4 34.9159 6.71390   3
  10  -8   4 31.9874 5.43944   5
   7   7  -4 22.4595 3.72011   2
   7   7  -4 25.0248 4.01556   5
   6   7  -4 1.65081 2.26685   2
   6   7  -4 3.73269 2.32460   5
   5   7  -4 40.3600 4.38869   6
   5   7  -4 42.2576 3.86318   5
   5   7  -4 36.5387 3.67517   2
   4   7  -4 33.8910 7.67706   1
   4   7  -4 30.9381 3.07866   5
   4   7  -4 33.2080 3.62180   6
   4   7  -4 29.0591 3.52477   4
  -4  -7   4 31.9362 4.37269   5
   3   7  -4 12.3748 2.40371   6
   3   7  -4 12.4414 13.5063   1
   3   7  -4 8.52768 5.39693   1
   3   7  -4 10.2841 1.68397   2
   3   7  -4 9.93784 1.63481   5
  -3  -7   4 11.4792 3.05003   5
   2   7  -4 159.997 5.91926   5
   2   7  -4 170.668 10.5673   1
   2   7  -4 162.535 5.70082   2
   2   7  -4 166.625 6.32193   6
  -2  -7   4 166.898 6.73653   5
  -2  -7   4 161.209 4.98993   6
   1   7  -4 15.9389 2.22120   6
   1   7  -4 14.0028 1.64925   2
   1   7  -4 14.3609 5.16767   1
  -1  -7   4 18.7464 2.26271   5
  -1  -7   4 24.7998 8.37556   1
  -1  -7   4 13.1161 1.21909   6
   0   7  -4 0.72779 1.24813   6
   0   7  -4 0.00775 0.62183   2
   0   7  -4 1.38770 3.34445   1
   0  -7   4 -0.2343 0.50311   6
   0  -7   4 0.64313 1.16855   2
   0  -7   4 3.13738 5.90668   1
   0  -7   4 1.17262 1.32787   5
  -1   7  -4 4.36811 0.85242   2
  -1   7  -4 6.45067 3.07877   1
  -1   7  -4 5.44331 1.50237   6
   1  -7   4 5.97370 1.20647   2
   1  -7   4 4.93041 1.18809   5
   1  -7   4 3.05151 0.68613   6
   1  -7   4 8.00885 5.68415   1
  -2   7  -4 65.3440 5.70460   1
  -2   7  -4 68.8674 2.84735   2
   2  -7   4 63.4964 2.57210   6
   2  -7   4 66.9279 3.32467   5
   2  -7   4 66.9594 2.91962   2
   2  -7   4 69.7080 8.73294   1
  -3   7  -4 -0.6021 1.37677   6
  -3   7  -4 0.15259 0.70821   4
  -3   7  -4 2.97631 3.00899   1
  -3   7  -4 1.17993 0.83825   2
   3  -7   4 0.53352 0.61328   6
   3  -7   4 2.19870 4.41780   1
   3  -7   4 0.07510 0.86498   2
  -4   7  -4 5.47535 1.66261   6
  -4   7  -4 4.39447 3.63711   1
  -4   7  -4 1.24068 1.41757   3
  -4   7  -4 0.77027 0.71102   4
   4  -7   4 -0.2697 0.96428   2
   4  -7   4 1.91348 0.62388   6
   4  -7   4 -7.1775 4.16089   1
  -5   7  -4 0.78739 1.87969   6
  -5   7  -4 -2.3014 1.47632   3
   5  -7   4 -0.2966 1.21526   2
   5  -7   4 2.54209 4.22116   1
   5  -7   4 -0.5689 0.62551   6
  -6   7  -4 79.4052 4.96546   6
  -6   7  -4 86.1061 5.72564   3
  -6   7  -4 67.0654 11.0796   1
   6  -7   4 86.7183 7.85984   1
   6  -7   4 85.2007 4.21694   2
   6  -7   4 75.8859 2.98617   6
  -7   7  -4 3.18848 2.62493   6
  -7   7  -4 1.90996 2.95210   3
   7  -7   4 7.35701 2.42624   2
   7  -7   4 3.06938 0.89521   6
   7  -7   4 7.47270 5.58096   1
  -8   7  -4 2.39628 3.61162   6
  -8   7  -4 1.19461 2.69717   3
   8  -7   4 -2.8315 2.87404   2
  -9   7  -4 3.16428 3.69554   3
  -9   7  -4 -3.8894 4.41517   6
 -10   7  -4 46.8176 6.38350   3
  10  -7   4 49.5704 5.76783   5
   7   6  -4 3.02800 2.30899   2
   7   6  -4 1.75406 2.25455   5
   6   6  -4 11.9440 4.24730   6
   6   6  -4 8.40277 2.21068   5
   6   6  -4 10.5781 2.21635   2
   5   6  -4 4.38619 1.68124   5
   5   6  -4 4.05479 2.29491   6
   5   6  -4 3.49161 1.50744   2
  -5  -6   4 5.14795 4.01157   5
   4   6  -4 71.6068 3.71112   2
   4   6  -4 67.5426 3.71605   5
   4   6  -4 70.5169 15.2648   1
   4   6  -4 68.5771 6.05949   6
   4   6  -4 63.8683 8.73474   1
  -4  -6   4 72.7572 5.86311   5
   3   6  -4 9.07785 1.47093   5
   3   6  -4 19.4333 9.50925   1
   3   6  -4 13.4542 4.55800   1
   3   6  -4 7.42694 1.27437   2
  -3  -6   4 9.98224 2.30377   5
   2   6  -4 303.936 12.4133   1
   2   6  -4 273.579 8.60066   5
   2   6  -4 283.476 8.51835   2
  -2  -6   4 294.200 16.6685   1
  -2  -6   4 276.635 7.83392   6
  -2  -6   4 294.733 9.14711   5
   1   6  -4 40.5573 5.11109   1
   1   6  -4 27.0727 1.81590   2
  -1  -6   4 31.8493 6.83212   1
  -1  -6   4 29.6394 1.53014   6
  -1  -6   4 28.3105 2.88709   2
  -1  -6   4 30.7524 2.55200   5
   0   6  -4 331.886 12.6417   1
   0   6  -4 317.665 9.19211   2
   0  -6   4 324.515 8.91232   6
   0  -6   4 332.815 14.9224   1
   0  -6   4 340.610 9.36189   2
  -1   6  -4 -0.0430 2.20747   1
  -1   6  -4 1.68998 0.60056   2
   1  -6   4 1.29190 0.80778   2
   1  -6   4 0.14883 0.42173   6
   1  -6   4 1.09747 0.79787   5
   1  -6   4 -3.8531 3.81974   1
  -2   6  -4 26.2742 3.62204   1
  -2   6  -4 32.4397 1.88359   2
   2  -6   4 32.1576 1.56255   6
   2  -6   4 32.7179 1.99909   2
   2  -6   4 39.6378 5.39268   1
  -3   6  -4 -0.5435 1.00746   6
  -3   6  -4 -0.7684 0.64477   2
  -3   6  -4 -0.8214 2.71701   1
   3  -6   4 0.65278 3.40196   1
   3  -6   4 -1.0659 0.75215   2
   3  -6   4 0.08229 0.41658   6
  -4   6  -4 8.16994 3.66136   1
  -4   6  -4 1.93298 1.17800   3
  -4   6  -4 1.51709 1.07393   6
   4  -6   4 4.45838 3.80560   1
   4  -6   4 1.42565 0.50686   6
   4  -6   4 0.93675 1.01773   2
  -5   6  -4 49.2532 3.24183   6
  -5   6  -4 49.5405 3.98008   3
   5  -6   4 42.2702 2.02714   6
   5  -6   4 51.4947 3.11087   2
   5  -6   4 52.9984 6.02792   1
  -6   6  -4 649.857 17.6839   6
  -6   6  -4 607.936 27.3930   1
  -6   6  -4 633.654 19.5701   3
   6  -6   4 606.867 16.3584   6
   6  -6   4 629.762 20.8209   1
   6  -6   4 666.284 17.6151   2
  -7   6  -4 142.550 16.6510   1
  -7   6  -4 140.015 6.28664   6
  -7   6  -4 129.662 7.54151   3
   7  -6   4 132.376 9.21885   1
   7  -6   4 137.899 6.31114   2
  -8   6  -4 306.227 10.6210   6
  -8   6  -4 289.710 12.6794   3
   8  -6   4 308.767 11.8146   2
  -9   6  -4 22.4217 4.72537   6
  -9   6  -4 25.8074 4.56439   3
   9  -6   4 26.6193 3.95729   5
  10  -6   4 52.6054 6.21044   5
   8   5  -4 16.3911 3.15892   2
   8   5  -4 8.43189 2.98295   5
   7   5  -4 20.0773 2.73018   5
   7   5  -4 18.6812 2.78047   2
   6   5  -4 -3.0697 1.83516   6
   6   5  -4 -0.3486 1.51490   5
   6   5  -4 -1.5680 1.58860   2
  -6  -5   4 0.96499 3.69901   5
   5   5  -4 70.5575 3.92161   2
   5   5  -4 76.1202 3.97130   5
   5   5  -4 73.5559 8.42195   1
   5   5  -4 80.9495 12.3004   1
   5   5  -4 80.8684 3.82164   6
  -5  -5   4 66.8620 6.16436   5
   4   5  -4 7.57291 9.29263   1
   4   5  -4 9.64858 4.10633   1
   4   5  -4 7.42003 1.43596   2
   4   5  -4 5.09705 1.28786   5
   4   5  -4 4.79465 1.35120   6
  -4  -5   4 4.27826 2.08802   5
   3   5  -4 36.5194 2.30829   5
   3   5  -4 31.4364 2.14043   2
   3   5  -4 36.3139 4.85593   1
   3   5  -4 36.0125 2.29122   6
  -3  -5   4 39.6159 3.36159   5
   2   5  -4 20.1562 1.64095   2
   2   5  -4 23.9354 1.75440   6
   2   5  -4 18.3932 1.60354   5
   2   5  -4 20.8154 3.50024   1
  -2  -5   4 30.7428 8.47301   1
   1   5  -4 28.1331 1.73539   5
   1   5  -4 30.6894 4.07510   1
   1   5  -4 32.4466 1.81721   6
   1   5  -4 30.3567 1.72168   2
  -1  -5   4 31.1183 2.17733   2
  -1  -5   4 26.7210 5.45798   1
  -1  -5   4 29.8090 1.43372   6
  -1  -5   4 32.2478 2.16927   5
   0   5  -4 409.358 13.9237   1
   0   5  -4 421.641 11.2105   2
   0   5  -4 413.227 11.3448   6
   0  -5   4 413.566 11.1780   2
   0  -5   4 422.136 11.3259   5
   0  -5   4 399.619 10.8034   6
   0  -5   4 412.329 15.3036   1
  -1   5  -4 12.7535 1.34642   6
  -1   5  -4 10.4578 1.06881   2
  -1   5  -4 16.7298 2.88185   1
   1  -5   4 11.3339 3.38466   1
   1  -5   4 12.3710 1.48511   5
   1  -5   4 10.2461 1.29778   2
   1  -5   4 10.5285 0.87012   6
  -2   5  -4 4.62435 2.42617   1
  -2   5  -4 3.64826 0.82460   6
  -2   5  -4 2.42758 0.65398   2
   2  -5   4 3.53911 3.01275   1
   2  -5   4 3.12861 0.56002   6
   2  -5   4 0.90312 0.68349   2
  -3   5  -4 377.807 11.3999   3
  -3   5  -4 375.485 10.3622   6
  -3   5  -4 376.238 14.1820   1
  -3   5  -4 377.410 9.86043   4
   3  -5   4 371.119 13.4757   1
   3  -5   4 374.176 10.3462   2
   3  -5   4 375.350 9.94442   6
  -4   5  -4 63.9381 3.86935   3
  -4   5  -4 67.0772 2.99003   6
  -4   5  -4 60.5065 7.10647   1
   4  -5   4 72.7743 3.22063   2
   4  -5   4 69.6561 6.30507   1
   4  -5   4 63.8057 2.35325   6
  -5   5  -4 1083.24 29.7349   3
  -5   5  -4 1110.38 27.8576   6
   5  -5   4 1057.22 27.1334   6
   5  -5   4 1092.93 28.0618   2
   5  -5   4 1041.02 31.3697   1
  -6   5  -4 247.473 8.11265   6
  -6   5  -4 235.853 9.58616   3
  -6   5  -4 264.448 23.1181   1
   6  -5   4 232.803 8.20233   2
   6  -5   4 254.382 11.0754   1
  -7   5  -4 7.51783 2.15562   6
  -7   5  -4 10.6536 12.8799   1
  -7   5  -4 2.81931 2.18242   3
   7  -5   4 5.75136 2.60555   2
   7  -5   4 9.90271 4.22506   1
  -8   5  -4 -0.0406 2.61315   3
  -8   5  -4 0.90834 2.67584   6
   8  -5   4 -0.4956 3.31813   2
   8  -5   4 -1.4913 2.25249   5
  -9   5  -4 2.76197 3.24310   3
   9  -5   4 3.47626 3.22006   5
 -10   5  -4 6.96365 4.93201   3
  10  -5   4 9.01416 4.49332   5
   9   4  -4 14.6141 3.49318   5
   9   4  -4 26.6705 3.88056   2
   8   4  -4 17.1995 2.82344   2
   8   4  -4 15.8239 2.68367   5
   7   4  -4 13.0826 2.26941   5
   7   4  -4 11.8040 2.19109   2
   6   4  -4 56.6064 11.2890   1
   6   4  -4 80.5471 4.14401   5
   6   4  -4 71.7239 8.29702   1
   6   4  -4 70.4127 4.25554   2
   6   4  -4 74.6778 3.42349   6
  -6  -4   4 66.1939 6.62589   5
   5   4  -4 85.4365 3.35582   6
   5   4  -4 77.5399 7.52529   1
   5   4  -4 86.5679 3.99343   2
   5   4  -4 93.3874 11.6618   1
   5   4  -4 82.8268 3.90792   5
  -5  -4   4 91.8559 5.56788   5
   4   4  -4 81.7966 3.58047   2
   4   4  -4 86.7999 11.1179   1
   4   4  -4 81.7664 3.47436   5
   4   4  -4 83.5616 3.03643   6
   4   4  -4 86.0826 6.62058   1
  -4  -4   4 78.6714 5.01933   5
   3   4  -4 25.0539 1.50802   6
   3   4  -4 25.6424 1.78978   5
   3   4  -4 29.7784 4.13990   1
   3   4  -4 23.9983 1.76732   2
  -3  -4   4 25.3841 2.50876   5
  -3  -4   4 31.3096 6.25183   1
   2   4  -4 386.513 13.1362   1
   2   4  -4 380.513 10.0172   6
   2   4  -4 363.362 10.4147   2
   2   4  -4 381.068 10.3988   5
  -2  -4   4 378.476 10.6416   2
  -2  -4   4 361.467 14.6059   1
  -2  -4   4 390.136 10.5692   5
   1   4  -4 23.5475 1.42964   5
   1   4  -4 24.7109 1.46030   2
   1   4  -4 23.3785 1.33012   6
   1   4  -4 27.0119 3.19578   1
  -1  -4   4 23.5146 1.70549   2
  -1  -4   4 25.5184 4.08497   1
  -1  -4   4 22.4438 1.62721   5
   0   4  -4 192.050 8.45970   1
   0   4  -4 206.510 5.69632   6
   0   4  -4 192.054 5.88724   2
   0  -4   4 212.031 5.96762   5
   0  -4   4 202.247 8.58379   1
   0  -4   4 207.414 5.67741   6
   0  -4   4 207.086 5.97527   2
  -1   4  -4 278.593 10.2703   1
  -1   4  -4 294.421 7.64795   6
  -1   4  -4 277.224 7.89843   2
   1  -4   4 281.413 7.54820   6
   1  -4   4 284.901 7.81923   2
   1  -4   4 264.897 10.3328   1
  -2   4  -4 1203.90 30.4100   6
  -2   4  -4 1258.34 34.3859   1
  -2   4  -4 1190.32 30.2594   4
  -2   4  -4 1203.53 30.8754   2
   2  -4   4 1192.20 30.3092   6
   2  -4   4 1215.99 33.3386   1
   2  -4   4 1233.16 30.6837   2
  -3   4  -4 125.293 7.88247   1
  -3   4  -4 119.267 4.83959   3
  -3   4  -4 120.390 4.05256   6
   3  -4   4 122.080 4.28235   2
   3  -4   4 128.759 6.98882   1
  -4   4  -4 176.700 4.77867   4
  -4   4  -4 171.355 10.9847   1
  -4   4  -4 172.233 6.74668   3
  -4   4  -4 169.741 5.26700   6
   4  -4   4 179.173 5.92335   2
   4  -4   4 188.540 9.21799   1
  -5   4  -4 122.362 4.26416   6
  -5   4  -4 126.056 6.10122   3
   5  -4   4 125.593 5.23587   2
   5  -4   4 125.499 8.23773   1
  -6   4  -4 4.17309 1.99199   3
  -6   4  -4 -14.282 9.09139   1
  -6   4  -4 6.59695 1.54298   6
   6  -4   4 6.03637 4.21199   1
   6  -4   4 1.80675 1.82360   2
  -7   4  -4 22.1362 3.02480   6
  -7   4  -4 13.4909 12.7949   1
  -7   4  -4 21.5552 3.66068   3
   7  -4   4 22.5091 1.42715   4
   7  -4   4 16.1003 5.00995   1
   7  -4   4 19.2002 2.87675   5
  -8   4  -4 146.164 5.69164   6
   8  -4   4 150.598 7.75179   5
  -9   4  -4 11.5336 4.04444   3
   9  -4   4 7.94038 3.51007   5
  10  -4   4 19.8591 5.18780   5
   9   3  -4 23.5224 3.39773   2
   9   3  -4 26.8940 3.56700   5
   8   3  -4 107.746 5.69974   2
   8   3  -4 115.876 5.83198   5
   7   3  -4 12.1017 14.1150   1
   7   3  -4 14.3020 2.11418   2
   7   3  -4 13.2042 4.85049   3
   7   3  -4 13.9780 2.04769   5
   6   3  -4 164.860 6.15120   2
   6   3  -4 161.888 8.80357   3
   6   3  -4 159.006 4.87020   6
   6   3  -4 160.519 13.6479   1
   6   3  -4 166.749 6.09178   5
   6   3  -4 163.212 9.06546   1
  -6  -3   4 164.357 7.85457   5
   5   3  -4 45.2226 1.93797   6
   5   3  -4 43.7274 6.83839   1
   5   3  -4 41.4219 2.63078   2
   5   3  -4 46.5613 2.67390   5
   5   3  -4 36.9895 5.11848   1
  -5  -3   4 42.8719 4.07310   5
   4   3  -4 157.537 7.34629   1
   4   3  -4 162.972 5.42740   2
   4   3  -4 156.341 5.27655   5
   4   3  -4 161.181 4.59154   6
  -4  -3   4 169.222 6.04662   5
   3   3  -4 472.771 12.6558   5
   3   3  -4 472.480 14.9462   1
   3   3  -4 459.501 12.7861   2
   3   3  -4 463.365 12.0966   6
  -3  -3   4 492.436 13.3342   5
   2   3  -4 463.726 12.4746   5
   2   3  -4 482.512 14.6312   1
   2   3  -4 472.023 12.1646   6
   2   3  -4 458.905 12.6626   2
  -2  -3   4 472.079 12.6145   5
  -2  -3   4 491.371 16.1617   1
  -2  -3   4 486.269 12.8089   2
   1   3  -4 1059.91 27.5498   2
   1   3  -4 1066.23 27.1502   6
   1   3  -4 1121.09 29.7078   1
  -1  -3   4 1105.53 29.8860   1
  -1  -3   4 1097.79 27.3859   5
  -1  -3   4 1089.66 27.5425   2
   0   3  -4 571.547 14.9926   2
   0   3  -4 558.670 14.6044   6
   0   3  -4 588.315 17.3106   1
   0  -3   4 565.377 16.9785   1
   0  -3   4 576.145 14.7849   5
   0  -3   4 593.645 14.9662   2
  -1   3  -4 998.712 25.8904   2
  -1   3  -4 1051.71 29.0140   1
  -1   3  -4 970.704 25.5584   4
  -1   3  -4 963.639 25.6170   6
   1  -3   4 1013.52 25.7882   2
   1  -3   4 1123.43 28.3008   1
  -2   3  -4 409.003 15.2694   1
  -2   3  -4 419.177 12.0778   3
  -2   3  -4 436.569 11.1423   6
  -2   3  -4 437.568 11.3542   4
   2  -3   4 432.199 14.2407   1
   2  -3   4 450.865 11.6957   2
  -3   3  -4 451.882 11.7541   6
  -3   3  -4 457.417 17.5391   1
  -3   3  -4 452.752 11.9156   4
  -3   3  -4 451.769 13.1951   3
   3  -3   4 462.753 12.5269   2
   3  -3   4 456.074 15.7377   1
  -4   3  -4 32.3697 1.58327   6
  -4   3  -4 28.8864 6.04474   1
  -4   3  -4 32.9633 1.52379   4
  -4   3  -4 31.2097 2.77523   3
   4  -3   4 26.4353 4.98678   1
   4  -3   4 31.9905 1.61628   4
  -5   3  -4 542.095 16.5824   3
  -5   3  -4 552.974 14.1962   6
   5  -3   4 534.536 14.1796   4
   5  -3   4 549.284 20.1195   1
  -6   3  -4 74.1093 12.7950   1
  -6   3  -4 75.4000 5.20427   3
  -6   3  -4 75.7630 3.14605   6
   6  -3   4 77.4988 5.29466   3
   6  -3   4 78.9372 3.31101   4
   6  -3   4 61.6516 8.61223   1
   6  -3   4 72.8640 4.58475   5
  -7   3  -4 156.665 8.12259   3
  -7   3  -4 153.411 5.18521   6
  -7   3  -4 176.513 23.8032   1
   7  -3   4 159.840 12.1361   1
   7  -3   4 153.437 5.48174   4
   7  -3   4 169.583 8.97163   3
   7  -3   4 145.879 8.25745   5
  -8   3  -4 -1.0376 2.42975   3
   8  -3   4 1.93200 2.67572   5
   8  -3   4 1.64288 2.07539   4
   9  -3   4 19.4308 3.59116   5
  10   2  -4 73.8933 6.65816   5
  10   2  -4 50.3528 6.19657   2
   9   2  -4 35.7107 4.63300   5
   9   2  -4 26.4066 3.23184   2
   8   2  -4 155.005 6.52775   2
   8   2  -4 152.918 6.58996   5
   7   2  -4 1.18274 1.30459   2
   7   2  -4 4.89480 3.22567   1
   7   2  -4 0.89885 0.80596   6
   7   2  -4 0.68485 1.32327   5
   7   2  -4 6.12670 6.66078   1
  -7  -2   4 -2.4797 2.88137   5
   6   2  -4 331.414 8.47055   6
   6   2  -4 318.050 9.86180   2
   6   2  -4 324.250 15.3083   1
   6   2  -4 315.571 11.6261   1
   6   2  -4 325.677 12.0451   3
   6   2  -4 324.087 9.89128   5
  -6  -2   4 326.325 11.7267   5
   5   2  -4 34.8570 5.42886   1
   5   2  -4 48.1264 2.60327   2
   5   2  -4 47.0336 4.09001   1
   5   2  -4 44.5860 1.70050   6
   5   2  -4 44.8548 2.78830   5
   4   2  -4 368.168 9.41519   6
   4   2  -4 378.117 10.1300   5
   4   2  -4 308.587 12.9820   1
   4   2  -4 375.392 10.2747   2
  -4  -2   4 379.555 10.6191   5
   3   2  -4 223.612 5.86823   6
   3   2  -4 218.510 6.19206   5
   3   2  -4 213.570 6.37250   2
   3   2  -4 208.948 7.65314   1
  -3  -2   4 221.009 6.52798   5
  -3  -2   4 211.883 8.89590   1
   2   2  -4 337.242 10.6990   1
   2   2  -4 348.547 9.19822   2
   2   2  -4 330.779 8.87431   5
  -2  -2   4 322.633 10.8937   1
  -2  -2   4 346.140 9.23597   2
  -2  -2   4 332.273 8.97311   5
   1   2  -4 100.955 5.04083   1
   1   2  -4 106.226 3.38191   2
  -1  -2   4 108.048 3.38606   2
  -1  -2   4 104.363 3.09151   5
  -1  -2   4 100.143 4.87626   1
   0   2  -4 77.0998 4.73354   1
   0   2  -4 80.0249 2.68150   4
   0   2  -4 80.4833 2.72721   2
   0  -2   4 76.2472 2.69187   2
   0  -2   4 80.0106 4.75165   1
  -1   2  -4 639.262 16.1353   4
  -1   2  -4 640.801 15.7851   6
  -1   2  -4 607.329 16.2863   2
  -1   2  -4 619.860 19.8881   1
   1  -2   4 606.492 18.6296   1
   1  -2   4 623.236 16.1344   2
  -2   2  -4 320.784 8.31017   6
  -2   2  -4 318.267 9.33156   3
  -2   2  -4 298.239 13.1234   1
  -2   2  -4 324.617 8.81454   4
   2  -2   4 323.365 8.58875   4
   2  -2   4 324.669 8.98164   2
   2  -2   4 317.501 12.3044   1
  -3   2  -4 38.9528 2.64912   3
  -3   2  -4 40.6275 5.92227   1
  -3   2  -4 38.7029 1.85781   4
  -3   2  -4 40.5532 1.55464   6
   3  -2   4 49.0018 6.82104   1
   3  -2   4 38.6676 1.96891   4
   3  -2   4 36.7050 2.42607   2
  -4   2  -4 9.38120 5.63702   1
  -4   2  -4 15.6458 1.25287   4
  -4   2  -4 11.5756 0.98922   6
  -4   2  -4 9.98084 1.64339   3
   4  -2   4 12.5190 1.38608   4
   4  -2   4 15.6236 2.06177   5
   4  -2   4 7.89765 1.57356   3
   4  -2   4 11.1587 5.52588   1
  -5   2  -4 20.2583 1.39006   6
  -5   2  -4 17.7416 7.09635   1
  -5   2  -4 19.1756 2.67397   3
   5  -2   4 18.4889 2.24726   4
   5  -2   4 23.9870 7.23003   1
   5  -2   4 20.2008 2.58510   5
   5  -2   4 24.5456 2.95052   3
  -6   2  -4 181.221 5.25128   6
  -6   2  -4 177.058 8.04010   3
   6  -2   4 182.554 7.39430   5
   6  -2   4 177.773 7.82245   3
   6  -2   4 173.948 6.28652   4
   6  -2   4 189.104 13.7677   1
  -7   2  -4 20.0422 3.32610   3
   7  -2   4 28.9856 3.72623   4
   7  -2   4 21.1306 2.99446   5
   7  -2   4 16.8705 7.60899   3
   8  -2   4 19.0113 3.34957   4
   8  -2   4 16.3256 3.17933   5
   9  -2   4 -0.0823 3.62630   5
  10   1  -4 6.65773 2.72725   2
  10   1  -4 5.55416 2.98755   5
   9   1  -4 2.85245 2.07182   5
   9   1  -4 3.38010 2.15194   2
   8   1  -4 181.531 11.0239   3
   8   1  -4 189.031 7.32387   5
   8   1  -4 185.676 7.26194   2
   7   1  -4 145.627 6.81678   1
   7   1  -4 158.353 8.73883   3
   7   1  -4 139.575 4.01204   6
   7   1  -4 130.747 10.6182   1
   7   1  -4 140.471 5.72473   5
   7   1  -4 139.426 5.57343   2
   6   1  -4 101.558 4.26453   2
   6   1  -4 103.286 4.34323   5
   6   1  -4 110.438 6.38121   3
   6   1  -4 106.658 3.18535   6
   6   1  -4 104.758 8.18751   1
   6   1  -4 114.872 5.49947   1
  -6  -1   4 107.164 5.41242   5
   5   1  -4 28.1941 4.00883   1
   5   1  -4 12.7740 2.01475   1
   5   1  -4 16.4931 1.65575   5
   5   1  -4 19.6662 1.65987   2
  -5  -1   4 16.1409 1.92361   5
   4   1  -4 424.422 12.3724   1
   4   1  -4 424.573 11.5138   2
   4   1  -4 433.364 11.3754   5
  -4  -1   4 392.189 14.8431   1
  -4  -1   4 429.592 11.7282   5
   3   1  -4 541.371 15.6801   1
   3   1  -4 556.076 14.6220   2
   3   1  -4 552.799 14.3276   5
  -3  -1   4 567.994 16.1228   1
  -3  -1   4 563.417 14.7683   2
  -3  -1   4 570.657 14.6097   5
   2   1  -4 2280.83 53.8322   1
   2   1  -4 1968.15 51.9376   2
  -2  -1   4 2093.20 53.2061   1
  -2  -1   4 2046.20 51.9514   2
   1   1  -4 4.16016 0.60925   2
   1   1  -4 4.78750 0.67444   4
   1   1  -4 2.55315 1.52281   1
  -1  -1   4 5.41512 0.48339   5
  -1  -1   4 5.01315 0.68944   2
  -1  -1   4 6.31579 1.79622   1
   0   1  -4 1281.38 32.6741   4
   0   1  -4 1359.29 36.4518   1
   0   1  -4 1259.11 32.5574   2
   0  -1   4 1278.88 32.4717   2
   0  -1   4 1325.11 35.2338   1
   0  -1   4 1291.66 32.4848   4
  -1   1  -4 78.1917 2.91201   3
  -1   1  -4 75.2037 2.92622   4
  -1   1  -4 76.3834 6.42663   1
   1  -1   4 79.3536 2.88300   4
   1  -1   4 81.5135 6.25318   1
   1  -1   4 83.3390 2.96763   2
  -2   1  -4 1643.97 40.4106   3
  -2   1  -4 1559.25 39.8832   4
   2  -1   4 1600.60 40.0237   2
   2  -1   4 1562.38 44.5283   1
   2  -1   4 1582.30 39.7830   4
   2  -1   4 1560.38 39.9912   5
  -3   1  -4 10.6296 1.23281   4
  -3   1  -4 5.62417 1.12653   3
  -3   1  -4 7.11310 4.81685   1
   3  -1   4 10.8577 1.37280   4
   3  -1   4 7.66938 1.21970   5
   3  -1   4 10.4341 5.49808   1
   3  -1   4 9.65773 1.47394   3
  -4   1  -4 497.856 21.4132   1
  -4   1  -4 464.962 12.7841   4
  -4   1  -4 475.532 11.9973   6
  -4   1  -4 470.428 14.1776   3
   4  -1   4 449.476 13.6115   5
   4  -1   4 486.426 20.3966   1
   4  -1   4 481.435 13.2329   4
   4  -1   4 465.511 13.6745   3
  -5   1  -4 227.213 16.1460   1
  -5   1  -4 222.862 5.91148   6
   5  -1   4 216.799 8.30303   3
   5  -1   4 214.580 16.7499   1
   5  -1   4 218.284 7.41503   4
   5  -1   4 223.368 8.02140   5
  -6   1  -4 287.843 10.7084   3
  -6   1  -4 272.250 20.1392   1
   6  -1   4 262.561 12.2540   4
   6  -1   4 295.772 10.8600   3
   6  -1   4 332.875 19.7298   1
   6  -1   4 288.471 10.1110   5
   7  -1   4 131.652 6.94462   5
   7  -1   4 147.546 10.5211   3
   7  -1   4 143.494 6.97349   4
   8  -1   4 36.6029 4.34814   5
   8  -1   4 54.4089 7.67879   4
   9  -1   4 68.6485 7.42970   5
  10   0  -4 1.59600 2.30621   2
  10   0  -4 -2.2836 2.54312   5
   9   0  -4 87.5084 5.26851   5
   9   0  -4 78.4646 4.94875   2
   9   0  -4 80.8409 6.99235   1
   8   0  -4 2.42603 0.69901   6
   8   0  -4 2.58176 1.12387   6
   8   0  -4 4.26942 1.69662   5
   8   0  -4 -0.3397 4.03442   3
   8   0  -4 -0.6075 4.16257   1
   8   0  -4 2.59224 1.54115   2
   8   0  -4 0.54300 1.95802   1
   7   0  -4 223.707 9.82902   3
   7   0  -4 219.095 6.69072   6
   7   0  -4 203.992 7.00611   1
   7   0  -4 212.646 7.16958   2
   7   0  -4 203.827 7.28675   5
   6   0  -4 558.870 15.3708   1
   6   0  -4 543.818 17.0762   1
   6   0  -4 585.306 17.3710   3
   6   0  -4 573.770 15.4365   2
   6   0  -4 561.134 15.5060   5
   5   0  -4 152.312 7.18795   3
   5   0  -4 151.686 6.42287   1
   5   0  -4 157.045 5.03837   2
   5   0  -4 154.139 5.03934   5
   4   0  -4 20.3990 1.36019   2
   4   0  -4 19.8367 2.11032   1
   4   0  -4 19.4662 1.31226   5
  -4   0   4 20.3345 2.72396   1
   3   0  -4 845.695 23.1196   5
   3   0  -4 958.420 24.9121   1
   3   0  -4 914.130 23.2781   2
  -3   0   4 929.397 23.3419   2
  -3   0   4 922.676 23.9704   1
  -3   0   4 946.087 23.1284   5
   2   0  -4 553.964 14.4507   2
   2   0  -4 546.173 14.7640   4
   2   0  -4 573.607 13.9159   5
   2   0  -4 562.406 16.9694   1
  -2   0   4 564.453 15.8559   1
  -2   0   4 576.584 13.9925   5
  -2   0   4 563.626 14.4616   2
   1   0  -4 25.9130 1.58699   4
   1   0  -4 23.2481 4.48756   1
   1   0  -4 28.7097 1.32443   2
  -1   0   4 26.6972 1.32554   2
  -1   0   4 28.2839 3.74706   1
  -1   0   4 27.9004 1.55406   4
   0   0  -4 216.125 6.27732   2
   0   0  -4 215.235 6.55652   4
   0   0  -4 213.211 9.85967   1
   0   0   4 225.309 6.15535   2
   0   0   4 222.724 6.42949   4
   0   0   4 219.896 9.97837   1
   0   0   4 211.386 6.09848   5
  -1   0  -4 11.0242 1.23788   4
  -1   0  -4 10.5389 1.13732   3
  -1   0  -4 10.5257 3.78723   1
   1   0   4 10.8482 1.15037   5
   1   0   4 13.7185 1.39117   2
   1   0   4 7.61630 1.07653   4
   1   0   4 14.3293 4.45271   1
  -2   0  -4 102.796 3.86212   4
  -2   0  -4 106.803 4.05789   3
  -2   0  -4 97.8931 8.84367   1
   2   0   4 106.215 4.06044   4
   2   0   4 102.918 3.87014   5
   2   0   4 100.903 9.50486   1
  -3   0  -4 1.67726 5.31040   1
  -3   0  -4 2.60154 0.82216   4
  -3   0  -4 2.68370 1.05412   3
   3   0   4 -3.9690 5.87689   1
   3   0   4 1.27220 1.19753   3
   3   0   4 1.96537 0.80589   5
   3   0   4 2.32870 1.17732   4
  -4   0  -4 8.55009 1.60824   3
  -4   0  -4 9.49471 1.22029   4
  -4   0  -4 2.43796 6.51963   1
   4   0   4 6.28694 7.63596   1
   4   0   4 10.0683 1.90065   4
   4   0   4 8.79315 1.46659   5
   4   0   4 11.4278 2.15509   3
  -5   0  -4 53.3490 10.2945   1
  -5   0  -4 54.5626 4.14000   3
  -5   0  -4 60.2126 1.88419   6
   5   0   4 57.7690 4.19888   4
   5   0   4 55.5029 4.67243   3
   5   0   4 55.4785 3.83230   5
   5   0   4 51.6440 11.7655   1
  -6   0  -4 20.4468 11.1680   1
   6   0   4 47.4135 4.17106   5
   6   0   4 42.6929 14.2977   1
   6   0   4 39.7376 4.75323   4
   6   0   4 47.8156 5.71920   3
   7   0   4 9.42168 3.48336   4
   7   0   4 7.49929 2.19820   5
   7   0   4 3.45979 4.63767   3
   8   0   4 30.1104 5.44838   4
   8   0   4 31.6596 4.22321   5
  11  -1  -4 53.9111 5.82840   2
  11  -1  -4 66.3017 6.74922   5
  10  -1  -4 39.9820 4.43290   2
  10  -1  -4 39.6866 5.15287   5
   9  -1  -4 8.44645 0.84710   6
   9  -1  -4 10.8710 2.31442   2
   9  -1  -4 3.31891 2.04804   5
   8  -1  -4 250.293 8.87850   5
   8  -1  -4 258.156 11.7898   3
   8  -1  -4 259.091 7.73610   6
   8  -1  -4 261.713 8.53015   2
   7  -1  -4 180.821 6.14544   6
   7  -1  -4 183.870 8.66056   3
   7  -1  -4 184.140 6.67496   5
   7  -1  -4 181.971 6.22608   2
   6  -1  -4 2357.65 59.8994   5
   6  -1  -4 2368.26 59.7653   2
   6  -1  -4 2434.07 61.5405   3
   5  -1  -4 21.3995 1.50488   2
   5  -1  -4 22.2871 1.69518   5
   5  -1  -4 24.6531 2.93845   3
   4  -1  -4 977.850 25.2878   3
   4  -1  -4 923.007 24.1240   2
   4  -1  -4 987.339 24.1660   5
   4  -1  -4 934.383 24.4916   4
  -4   1   4 942.814 24.2012   1
   3  -1  -4 107.203 3.02244   5
   3  -1  -4 106.871 3.26877   2
   3  -1  -4 99.1760 3.68633   4
  -3   1   4 105.436 3.33264   2
  -3   1   4 106.283 4.38433   1
   2  -1  -4 372.709 13.1337   1
   2  -1  -4 360.663 10.3181   4
   2  -1  -4 362.118 9.71111   2
  -2   1   4 378.324 10.1430   4
  -2   1   4 380.766 12.4136   1
  -2   1   4 375.818 9.69877   2
   1  -1  -4 269.185 11.5938   1
   1  -1  -4 297.168 7.83737   2
   1  -1  -4 278.545 8.36556   4
  -1   1   4 297.156 8.26667   4
  -1   1   4 293.489 7.71763   2
  -1   1   4 283.775 7.20486   5
  -1   1   4 285.904 11.7849   1
   0  -1  -4 840.219 21.9092   4
   0  -1  -4 816.711 26.8174   1
   0  -1  -4 839.377 21.0200   3
   0   1   4 840.561 21.8174   4
   0   1   4 845.198 26.7471   1
   0   1   4 842.821 21.3031   2
   0   1   4 823.034 21.0204   5
  -1  -1  -4 194.554 5.80768   3
  -1  -1  -4 195.561 6.31746   4
  -1  -1  -4 170.538 10.9895   1
   1   1   4 194.513 12.0510   1
   1   1   4 203.790 6.11721   2
   1   1   4 197.940 5.84358   5
   1   1   4 198.904 6.44114   4
  -2  -1  -4 717.930 19.5077   4
  -2  -1  -4 736.602 19.4138   3
  -2  -1  -4 716.305 26.4665   1
   2   1   4 721.237 26.6443   1
   2   1   4 754.509 19.7424   4
   2   1   4 728.078 19.3313   5
   2   1   4 728.788 19.0688   3
  -3  -1  -4 196.961 6.80887   3
  -3  -1  -4 187.666 13.6183   1
  -3  -1  -4 197.871 6.49420   4
   3   1   4 194.867 6.65921   5
   3   1   4 201.051 15.4571   1
   3   1   4 206.200 7.08303   4
   3   1   4 197.768 6.78276   3
  -4  -1  -4 248.608 7.44800   6
  -4  -1  -4 254.793 17.3456   1
   4   1   4 271.383 19.3942   1
   4   1   4 238.927 8.34819   5
   4   1   4 263.363 8.93458   4
   4   1   4 250.727 9.01413   3
  -5  -1  -4 112.609 3.65732   6
  -5  -1  -4 129.429 16.2993   1
  -5  -1  -4 110.606 3.11089   6
   5   1   4 110.970 6.29662   3
   5   1   4 107.112 5.25772   5
   5   1   4 101.462 16.0911   1
   5   1   4 113.851 6.12306   4
   6   1   4 13.4859 2.37235   5
   6   1   4 10.6319 3.81353   3
   6   1   4 13.7820 3.74133   4
   7   1   4 64.6740 9.19073   3
   7   1   4 72.0652 5.58299   5
   8   1   4 21.4406 4.02354   5
  11  -2  -4 23.2522 3.19118   4
  11  -2  -4 27.9576 4.23091   5
  11  -2  -4 27.3195 3.44001   2
  10  -2  -4 110.049 5.26924   4
  10  -2  -4 113.386 5.79333   2
  10  -2  -4 102.411 6.40681   5
   9  -2  -4 38.4400 2.62779   6
   9  -2  -4 41.4205 3.50163   2
   9  -2  -4 32.9769 5.88128   3
   9  -2  -4 43.5980 4.19079   5
   8  -2  -4 70.3987 4.16882   5
   8  -2  -4 68.7661 3.67805   2
   8  -2  -4 64.2074 7.11401   3
   8  -2  -4 70.8537 3.51571   6
   7  -2  -4 7.01131 1.24199   4
   7  -2  -4 8.87926 1.36342   2
   7  -2  -4 7.93334 1.66087   6
   7  -2  -4 8.42367 1.60227   5
   7  -2  -4 12.7756 3.04019   3
   6  -2  -4 -0.5403 0.75038   4
   6  -2  -4 0.13796 0.72631   2
   6  -2  -4 -0.2608 0.93032   5
   6  -2  -4 1.93029 1.10957   6
   6  -2  -4 2.44464 2.02363   3
   5  -2  -4 57.9382 2.28853   2
   5  -2  -4 55.6210 3.77107   3
   5  -2  -4 57.5596 2.57584   5
   5  -2  -4 54.7469 2.60920   4
   4  -2  -4 10.0027 0.86511   2
   4  -2  -4 8.58519 1.08833   5
   4  -2  -4 8.25661 1.09484   4
   4  -2  -4 11.0236 1.74931   1
   4  -2  -4 7.85822 1.46529   3
  -4   2   4 9.71096 1.35060   1
   3  -2  -4 6.00560 1.05610   3
   3  -2  -4 4.55348 0.85411   4
   3  -2  -4 6.33584 2.30972   1
   3  -2  -4 6.73537 0.68351   2
  -3   2   4 5.24746 0.87429   4
  -3   2   4 5.30620 0.65939   2
  -3   2   4 4.44624 2.45042   1
   2  -2  -4 132.854 3.60170   5
   2  -2  -4 131.812 7.56137   1
   2  -2  -4 136.458 4.01218   3
   2  -2  -4 135.561 3.96750   2
  -2   2   4 140.324 8.12835   1
  -2   2   4 133.767 3.89042   2
  -2   2   4 142.425 4.69345   4
   1  -2  -4 198.466 6.60023   4
   1  -2  -4 217.857 5.76783   5
   1  -2  -4 210.984 10.6347   1
  -1   2   4 206.378 11.2094   1
  -1   2   4 212.535 5.83015   2
  -1   2   4 209.572 6.65128   4
   0  -2  -4 40.4612 2.08225   5
   0  -2  -4 34.0838 2.28656   4
   0  -2  -4 45.3652 6.20485   1
   0   2   4 39.2640 1.66037   5
   0   2   4 45.0110 7.41001   1
   0   2   4 41.1400 2.03018   2
  -1  -2  -4 55.9996 7.62924   1
  -1  -2  -4 57.0732 2.95386   4
  -1  -2  -4 56.8279 2.95418   5
   1   2   4 56.6172 2.47325   5
   1   2   4 63.0262 9.07100   1
   1   2   4 57.9039 3.32721   4
  -2  -2  -4 79.0184 4.05171   5
  -2  -2  -4 57.7533 8.54503   1
  -2  -2  -4 80.9853 3.66550   4
   2   2   4 79.9963 3.38477   5
   2   2   4 82.1090 3.43104   3
   2   2   4 93.0430 11.5841   1
  -3  -2  -4 8.73812 7.25217   1
  -3  -2  -4 2.20698 1.79054   5
  -3  -2  -4 0.77011 0.99612   6
  -3  -2  -4 0.20515 0.90016   4
   3   2   4 1.91322 1.91469   4
   3   2   4 2.13419 1.05846   5
   3   2   4 -6.2331 8.81477   1
   3   2   4 4.25517 1.64927   3
  -4  -2  -4 133.122 4.63693   6
  -4  -2  -4 128.014 16.2184   1
   4   2   4 133.204 5.61205   5
   4   2   4 135.527 6.63139   4
  -5  -2  -4 47.7572 11.9928   1
  -5  -2  -4 23.0117 1.61458   6
   5   2   4 31.4084 4.08087   4
   5   2   4 22.7337 15.7788   1
   5   2   4 37.1355 5.41778   3
   5   2   4 27.7264 3.24563   5
   6   2   4 91.9237 8.59816   4
   6   2   4 84.6152 8.10148   3
   6   2   4 83.8929 5.38957   5
   7   2   4 28.4377 3.78392   5
  11  -3  -4 26.1157 3.37122   2
  11  -3  -4 27.0317 4.23128   5
  11  -3  -4 23.3767 3.27188   4
  10  -3  -4 24.7850 3.58984   5
  10  -3  -4 30.4981 3.51437   2
  10  -3  -4 25.6146 2.42085   6
  10  -3  -4 28.4044 3.59353   4
   9  -3  -4 16.4086 2.17619   4
   9  -3  -4 11.7716 4.72283   3
   9  -3  -4 13.8698 2.05694   2
   9  -3  -4 18.5328 2.54063   6
   9  -3  -4 18.4856 2.74399   5
   8  -3  -4 84.6306 7.40992   3
   8  -3  -4 87.9294 3.85752   2
   8  -3  -4 89.2667 4.33378   6
   8  -3  -4 80.9060 4.50049   5
   8  -3  -4 88.8770 4.02904   4
   7  -3  -4 42.3473 2.66208   4
   7  -3  -4 43.9375 3.05633   6
   7  -3  -4 42.9781 2.36685   2
   7  -3  -4 42.1616 3.07394   5
   7  -3  -4 32.3237 4.99973   3
   6  -3  -4 255.564 7.82094   5
   6  -3  -4 250.619 8.34989   6
   6  -3  -4 254.506 7.23336   2
   6  -3  -4 246.997 7.75945   4
   5  -3  -4 276.962 9.72227   3
   5  -3  -4 261.808 7.98397   4
   5  -3  -4 249.479 8.46636   6
   5  -3  -4 263.964 7.20574   2
   4  -3  -4 295.428 8.74941   4
   4  -3  -4 287.991 9.19727   6
   4  -3  -4 283.361 9.84310   1
   4  -3  -4 286.054 7.66067   2
   4  -3  -4 297.423 8.74672   3
   3  -3  -4 191.749 5.23345   2
   3  -3  -4 178.621 8.57389   1
   3  -3  -4 195.520 6.39354   4
   3  -3  -4 199.479 5.71325   3
   3  -3  -4 192.965 5.16964   5
  -3   3   4 191.997 6.13263   4
  -3   3   4 198.814 9.80055   1
  -3   3   4 188.963 5.17245   2
   2  -3  -4 466.077 11.8385   5
   2  -3  -4 453.647 17.1351   1
   2  -3  -4 445.566 13.0213   4
  -2   3   4 476.867 11.8239   2
  -2   3   4 460.229 17.9013   1
  -2   3   4 468.598 12.9364   4
   1  -3  -4 28.0602 5.60352   1
   1  -3  -4 36.0217 1.84228   5
   1  -3  -4 35.6489 2.34651   4
  -1   3   4 55.1266 7.66134   1
  -1   3   4 32.7308 1.65377   2
  -1   3   4 35.0033 2.62101   4
  -1   3   4 32.2659 1.41654   5
   0  -3  -4 303.865 8.61063   5
   0  -3  -4 294.090 15.0332   1
   0  -3  -4 292.184 9.16383   4
   0  -3  -4 288.591 9.20417   6
   0   3   4 304.133 8.46140   2
   0   3   4 292.365 8.16840   5
   0   3   4 304.032 16.8060   1
   0   3   4 297.253 9.36795   4
  -1  -3  -4 9.92678 6.04556   1
  -1  -3  -4 13.3819 1.82141   4
  -1  -3  -4 16.1153 1.93843   5
  -1  -3  -4 15.7095 1.87539   6
   1   3   4 12.5004 1.95082   4
   1   3   4 19.9702 8.40005   1
   1   3   4 14.1413 1.43777   5
   1   3   4 16.6051 1.43013   3
  -2  -3  -4 564.435 16.4963   4
  -2  -3  -4 582.248 16.3230   6
  -2  -3  -4 602.349 16.7724   5
  -2  -3  -4 597.482 25.6871   1
   2   3   4 589.470 27.8105   1
   2   3   4 597.137 15.9527   3
   2   3   4 622.357 17.2308   4
   2   3   4 564.490 16.0045   5
  -3  -3  -4 29.4479 2.53415   4
  -3  -3  -4 35.7007 9.55846   1
  -3  -3  -4 30.2587 3.44244   5
  -3  -3  -4 25.8589 2.33440   6
   3   3   4 25.5469 2.46691   5
   3   3   4 25.7200 3.39559   3
   3   3   4 32.3955 4.38546   4
   3   3   4 24.1320 12.9961   1
  -4  -3  -4 240.534 9.67808   5
  -4  -3  -4 223.600 6.87349   6
  -4  -3  -4 223.124 19.0737   1
   4   3   4 217.011 8.67870   3
   4   3   4 231.339 26.7756   1
   4   3   4 216.768 7.89069   5
   4   3   4 233.648 9.58990   4
  -5  -3  -4 31.0223 1.66320   6
   5   3   4 27.2542 3.54884   5
   5   3   4 29.8033 4.46560   3
   5   3   4 37.2076 4.99088   4
   6   3   4 44.0209 4.85407   5
   6   3   4 54.5477 7.36340   3
   7   3   4 5.04948 3.04270   5
  11  -4  -4 7.54809 2.63934   2
  11  -4  -4 8.73913 3.66629   5
  11  -4  -4 12.8760 3.02791   4
  10  -4  -4 24.3314 2.78608   2
  10  -4  -4 25.0538 2.81917   4
  10  -4  -4 30.5735 2.92564   6
   9  -4  -4 90.6565 4.64127   4
   9  -4  -4 100.134 9.30688   3
   9  -4  -4 91.3179 4.48941   6
   9  -4  -4 86.3612 5.50060   5
   9  -4  -4 93.1768 4.28645   2
   8  -4  -4 161.759 5.46709   2
   8  -4  -4 165.588 8.89576   3
   8  -4  -4 162.165 5.96749   4
   8  -4  -4 159.881 6.49335   5
   8  -4  -4 156.367 6.21263   6
   7  -4  -4 49.1685 3.45756   6
   7  -4  -4 49.2450 3.04117   4
   7  -4  -4 61.2548 5.44790   3
   7  -4  -4 54.1170 3.30579   5
   7  -4  -4 53.4987 2.46272   2
   6  -4  -4 67.3008 2.54118   2
   6  -4  -4 72.4292 3.98392   6
   6  -4  -4 72.1437 4.67112   3
   6  -4  -4 68.4930 3.37486   4
   5  -4  -4 73.6945 2.36585   2
   5  -4  -4 68.5798 3.36521   4
   5  -4  -4 71.4726 3.85810   3
   5  -4  -4 66.3544 3.88114   6
  -5   4   4 76.0603 4.11595   1
  -5   4   4 74.3490 5.69182   1
   4  -4  -4 224.741 7.46282   4
   4  -4  -4 229.308 6.18060   2
   4  -4  -4 234.326 8.04340   6
   4  -4  -4 237.001 7.09226   3
  -4   4   4 245.825 11.4766   1
  -4   4   4 232.882 7.23001   4
   3  -4  -4 2.10595 0.63537   5
   3  -4  -4 1.41796 1.02324   6
   3  -4  -4 0.96345 0.85647   4
   3  -4  -4 1.19074 3.87481   1
  -3   4   4 2.94328 4.62322   1
  -3   4   4 0.81035 1.14561   4
  -3   4   4 1.26248 0.40015   2
   2  -4  -4 171.074 6.44001   6
   2  -4  -4 190.930 10.7711   1
   2  -4  -4 163.327 6.10812   4
   2  -4  -4 189.730 5.22040   5
  -2   4   4 173.714 6.27048   4
  -2   4   4 170.526 4.81339   2
  -2   4   4 182.389 12.6500   1
   1  -4  -4 10.7758 1.50221   4
   1  -4  -4 13.5688 5.06577   1
   1  -4  -4 11.5423 1.38765   5
   1  -4  -4 10.8564 1.57802   6
  -1   4   4 15.3656 2.48121   4
  -1   4   4 12.5042 12.7374   1
  -1   4   4 10.8608 1.33892   2
  -1   4   4 15.2900 1.15524   5
   0  -4  -4 0.44173 0.86464   4
   0  -4  -4 9.13684 5.60886   1
   0  -4  -4 0.88858 1.30431   5
   0  -4  -4 0.27308 1.07111   6
   0   4   4 1.64254 1.53194   4
   0   4   4 1.99282 0.64833   5
   0   4   4 9.36684 8.10104   1
  -1  -4  -4 941.303 25.7673   6
  -1  -4  -4 968.860 34.3783   1
  -1  -4  -4 943.985 25.9101   4
   1   4   4 948.355 25.0619   5
   1   4   4 963.037 24.5142   3
   1   4   4 1013.18 26.6285   4
   1   4   4 1006.19 37.6259   1
  -2  -4  -4 417.897 12.6888   5
  -2  -4  -4 391.166 11.7410   6
  -2  -4  -4 386.016 12.0865   4
  -2  -4  -4 354.337 21.7613   1
   2   4   4 421.893 26.3065   1
   2   4   4 399.075 11.5644   5
   2   4   4 406.894 11.5087   3
   2   4   4 410.697 13.8924   4
  -3  -4  -4 61.3491 12.5533   1
  -3  -4  -4 64.3828 3.42261   6
  -3  -4  -4 70.8461 6.13575   5
   3   4   4 63.5430 3.63065   5
   3   4   4 57.4582 4.65496   3
   3   4   4 80.1719 18.0166   1
   3   4   4 67.6909 6.08511   4
  -4  -4  -4 60.6736 3.09118   6
  -4  -4  -4 64.6337 6.18084   5
   4   4   4 63.1938 6.21099   3
   4   4   4 62.4522 7.32589   4
  -5  -4  -4 0.61509 0.84790   6
   5   4   4 5.49690 4.26713   3
   5   4   4 2.86685 1.99713   5
   6   4   4 -4.5893 6.38841   3
   6   4   4 5.63633 2.67505   5
  11  -5  -4 15.5664 2.85676   4
  11  -5  -4 6.29623 3.54307   5
  11  -5  -4 15.5288 2.18356   6
  11  -5  -4 17.3972 2.79812   2
  10  -5  -4 20.1421 4.12922   5
  10  -5  -4 16.9113 2.43217   2
  10  -5  -4 19.7323 2.54886   6
  10  -5  -4 20.7095 2.58470   4
   9  -5  -4 52.5684 3.69409   4
   9  -5  -4 41.7009 4.40875   5
   9  -5  -4 49.6638 3.14457   2
   9  -5  -4 47.0135 5.86519   3
   9  -5  -4 54.6062 3.88652   6
   8  -5  -4 -2.0656 2.95509   3
   8  -5  -4 2.04438 0.94755   2
   8  -5  -4 0.23356 1.56737   5
   8  -5  -4 1.29174 1.33052   4
   8  -5  -4 2.14783 1.65565   6
   7  -5  -4 53.7209 3.90088   6
   7  -5  -4 56.8770 2.34180   2
   7  -5  -4 63.6269 5.17083   3
   7  -5  -4 56.3944 3.32006   4
   6  -5  -4 209.383 7.36725   3
   6  -5  -4 200.590 6.82208   4
   6  -5  -4 189.382 7.28870   6
   6  -5  -4 199.742 5.43134   2
  -6   5   4 172.313 12.1648   1
  -6   5   4 196.815 6.26063   1
   5  -5  -4 382.318 10.8288   3
   5  -5  -4 381.694 9.40565   2
   5  -5  -4 368.454 11.0525   4
   5  -5  -4 364.637 11.7034   6
  -5   5   4 365.101 12.5514   1
  -5   5   4 352.537 14.9578   1
  -5   5   4 383.036 10.7363   4
   4  -5  -4 52.7766 3.14588   4
   4  -5  -4 55.6451 2.38535   5
   4  -5  -4 55.9127 3.63082   6
  -4   5   4 46.3895 7.36080   1
  -4   5   4 60.3447 3.38278   4
  -4   5   4 50.7830 6.97374   1
   3  -5  -4 24.1479 2.34428   4
   3  -5  -4 25.0723 1.82310   5
   3  -5  -4 23.5492 2.65646   6
  -3   5   4 22.6523 7.71061   1
  -3   5   4 26.4649 3.26748   4
   2  -5  -4 728.514 18.4384   5
   2  -5  -4 694.320 25.1395   1
   2  -5  -4 700.605 19.5106   4
   2  -5  -4 688.448 19.8556   6
  -2   5   4 717.685 19.6683   4
  -2   5   4 688.439 17.7160   2
  -2   5   4 723.156 28.1310   1
   1  -5  -4 6.23663 1.49860   6
   1  -5  -4 4.08585 1.29419   4
   1  -5  -4 6.95793 1.42497   5
   1  -5  -4 2.42634 5.74081   1
  -1   5   4 6.32456 9.09658   1
  -1   5   4 6.09529 0.93034   5
  -1   5   4 8.55246 2.23270   4
  -1   5   4 7.14479 1.13111   2
   0  -5  -4 498.836 22.6788   1
   0  -5  -4 481.092 14.4269   4
   0  -5  -4 487.030 14.8445   5
   0  -5  -4 490.496 14.4448   6
   0   5   4 472.423 13.3386   5
   0   5   4 513.521 15.1045   4
   0   5   4 510.086 27.1846   1
  -1  -5  -4 310.380 10.3812   4
  -1  -5  -4 330.119 10.4360   6
  -1  -5  -4 339.688 10.8237   5
  -1  -5  -4 326.002 22.4929   1
   1   5   4 325.098 9.08907   3
   1   5   4 323.187 9.69114   5
   1   5   4 347.303 11.6220   4
   1   5   4 343.260 25.7227   1
  -2  -5  -4 42.6934 5.44063   5
  -2  -5  -4 44.7102 3.18521   6
   2   5   4 44.9888 5.83405   4
   2   5   4 56.9962 19.3962   1
   2   5   4 39.2823 3.60068   3
   2   5   4 36.0678 2.86869   5
  -3  -5  -4 -8.7665 4.34933   5
   3   5   4 8.30362 4.02841   4
   3   5   4 5.84893 2.71810   3
   3   5   4 1.80817 1.53989   5
   3   5   4 16.9608 19.7170   1
  -4  -5  -4 22.6902 2.42320   6
   4   5   4 30.0035 4.47356   3
   4   5   4 24.9274 2.86318   5
   5   5   4 3.50385 2.25696   5
   5   5   4 1.11863 6.47759   3
  11  -6  -4 9.08745 2.43500   6
  11  -6  -4 9.76237 3.91201   5
  11  -6  -4 10.4911 2.47582   2
  10  -6  -4 204.800 12.3022   5
  10  -6  -4 220.764 7.79153   4
  10  -6  -4 211.089 7.95044   6
  10  -6  -4 220.164 7.21412   2
   9  -6  -4 98.5365 5.73272   5
   9  -6  -4 95.3804 4.79029   4
   9  -6  -4 102.249 3.97311   2
   9  -6  -4 103.834 5.28658   6
   9  -6  -4 104.231 15.2303   3
   8  -6  -4 74.1664 6.62676   3
   8  -6  -4 78.6270 4.19879   4
   8  -6  -4 81.7202 3.06702   2
   8  -6  -4 83.1103 4.84103   6
   7  -6  -4 248.572 8.95659   3
   7  -6  -4 224.624 8.58996   6
   7  -6  -4 241.687 7.98519   4
   7  -6  -4 238.173 6.39770   2
   6  -6  -4 95.1022 4.45904   4
   6  -6  -4 101.394 4.74073   3
   6  -6  -4 98.5117 5.19079   6
  -6   6   4 95.8078 7.01491   1
  -6   6   4 105.885 10.3420   1
   5  -6  -4 36.0827 2.44956   5
   5  -6  -4 35.5691 3.40615   6
   5  -6  -4 36.8030 2.89500   4
  -5   6   4 37.7731 5.21931   1
  -5   6   4 42.0206 3.23608   4
  -5   6   4 33.4833 7.82217   1
   4  -6  -4 3.90006 1.75174   6
   4  -6  -4 6.45430 1.19343   5
   4  -6  -4 3.97562 1.35534   4
  -4   6   4 9.00833 5.35122   1
  -4   6   4 13.3780 7.78063   1
  -4   6   4 4.31351 2.81421   4
   3  -6  -4 265.075 7.68277   5
   3  -6  -4 247.556 8.98291   6
   3  -6  -4 262.584 8.67354   4
  -3   6   4 263.085 8.96545   4
  -3   6   4 251.911 17.9301   1
  -3   6   4 255.268 15.0110   1
   2  -6  -4 366.419 11.9968   6
   2  -6  -4 386.749 10.8914   5
   2  -6  -4 375.202 11.7409   4
  -2   6   4 389.196 12.2869   4
  -2   6   4 381.722 9.84293   2
  -2   6   4 388.740 23.0669   1
   1  -6  -4 55.4963 3.82975   5
   1  -6  -4 48.6475 3.74079   6
   1  -6  -4 58.8756 9.17476   1
   1  -6  -4 59.1184 3.78611   4
  -1   6   4 59.6628 13.8861   1
  -1   6   4 56.5067 2.81917   2
  -1   6   4 53.9196 4.89703   4
  -1   6   4 54.9295 2.65673   5
   0  -6  -4 112.532 14.0338   1
   0  -6  -4 111.300 5.20160   4
   0  -6  -4 105.998 5.17039   6
   0  -6  -4 122.672 5.84812   5
   0   6   4 159.968 19.2352   1
   0   6   4 108.659 4.30617   5
   0   6   4 122.063 6.79662   4
  -1  -6  -4 25.8015 3.54616   5
  -1  -6  -4 22.9696 2.85570   4
  -1  -6  -4 28.0766 3.04666   6
  -1  -6  -4 21.5008 10.4819   1
   1   6   4 52.7230 16.9798   1
   1   6   4 24.5134 2.49757   5
   1   6   4 25.8058 7.20939   4
   1   6   4 21.0921 2.30835   3
  -2  -6  -4 9.42268 3.77667   5
  -2  -6  -4 9.36091 1.94204   6
   2   6   4 9.66283 4.10017   4
   2   6   4 9.63491 20.0628   1
   2   6   4 9.22568 2.36426   3
   2   6   4 10.0504 1.81576   5
  -3  -6  -4 63.8540 3.75165   6
   3   6   4 58.4658 4.32972   5
   3   6   4 61.3327 6.09874   3
  -4  -6  -4 4.63163 1.51150   6
   4   6   4 4.33092 2.24328   5
   5   6   4 3.15760 2.82612   5
  11  -7  -4 25.2580 3.24403   6
  11  -7  -4 16.7712 4.34345   5
  11  -7  -4 21.4131 3.28504   2
  10  -7  -4 32.0350 3.25372   4
  10  -7  -4 27.2334 4.76928   5
  10  -7  -4 35.8220 2.80984   2
  10  -7  -4 23.1764 3.71481   6
   9  -7  -4 3.45792 1.92847   4
   9  -7  -4 1.92181 2.59440   6
   9  -7  -4 1.98332 1.08038   2
   8  -7  -4 64.0153 5.95052   3
   8  -7  -4 55.0961 3.87204   4
   8  -7  -4 64.0375 4.57793   6
   7  -7  -4 38.0446 3.26814   4
   7  -7  -4 36.9497 3.86215   6
  -7   7   4 35.5047 7.08294   1
  -7   7   4 35.5768 3.88420   1
   6  -7  -4 35.3598 2.89359   5
   6  -7  -4 34.3472 3.45280   4
   6  -7  -4 31.3148 3.55931   6
  -6   7   4 34.0194 3.87954   4
  -6   7   4 34.3268 5.12657   1
  -6   7   4 30.3928 8.57499   1
   5  -7  -4 4.88135 1.40326   5
   5  -7  -4 3.42999 1.44722   4
   5  -7  -4 3.34095 1.83829   6
  -5   7   4 8.36712 9.30578   1
  -5   7   4 4.82060 5.27030   1
  -5   7   4 4.34604 2.01495   4
   4  -7  -4 45.4013 3.01679   5
   4  -7  -4 39.3579 3.32130   4
   4  -7  -4 45.7216 3.81963   6
  -4   7   4 45.7405 8.01504   1
  -4   7   4 48.7965 4.43917   4
   3  -7  -4 1.29923 1.71715   5
   3  -7  -4 1.62470 1.45046   6
   3  -7  -4 7.09268 1.78235   4
  -3   7   4 0.02705 10.7629   1
  -3   7   4 3.09105 2.42478   4
   2  -7  -4 1.37593 1.77617   6
   2  -7  -4 0.07450 1.76921   5
   2  -7  -4 1.58472 1.64250   4
  -2   7   4 -0.3178 2.41773   4
  -2   7   4 6.64624 12.6666   1
  -2   7   4 0.94639 0.61921   2
  -2   7   4 1.86810 0.76489   2
   1  -7  -4 0.85724 1.59987   6
   1  -7  -4 2.06395 2.21053   5
   1  -7  -4 6.29390 1.57928   4
  -1   7   4 5.04999 2.81368   4
  -1   7   4 9.23534 15.6153   1
  -1   7   4 4.36894 1.47964   2
   0  -7  -4 0.67402 2.86862   5
   0  -7  -4 1.95957 1.99171   4
   0  -7  -4 0.77002 1.68050   6
   0   7   4 -0.4061 3.10889   4
   0   7   4 6.89927 18.0282   1
   0   7   4 1.34811 1.15213   5
  -1  -7  -4 38.6003 3.73884   6
  -1  -7  -4 44.7260 5.13839   5
   1   7   4 43.3269 3.36534   5
   1   7   4 49.6588 22.4140   1
  -2  -7  -4 24.1095 3.38431   6
   2   7   4 26.8298 3.51736   5
   2   7   4 31.7351 4.33725   3
  -3  -7  -4 4.38787 2.03840   6
   3   7   4 3.63384 2.40321   5
   4   7   4 0.74463 2.79451   5
  11  -8  -4 12.8375 3.16345   6
  11  -8  -4 5.18768 4.08806   5
  10  -8  -4 27.9944 2.80346   4
  10  -8  -4 27.6097 3.44837   6
  10  -8  -4 17.7733 3.93122   5
   9  -8  -4 8.84111 2.66063   6
   9  -8  -4 8.34979 2.17803   4
   8  -8  -4 16.8853 3.01446   6
   8  -8  -4 16.9635 2.46932   4
  -8   8   4 16.1983 3.86701   1
   7  -8  -4 0.98513 1.65276   4
   7  -8  -4 4.33518 2.21856   6
   7  -8  -4 0.69051 1.88478   5
  -7   8   4 2.43173 4.17145   1
   6  -8  -4 26.0627 3.27809   4
   6  -8  -4 14.7997 2.95282   6
   6  -8  -4 26.3972 3.43868   5
  -6   8   4 17.5074 6.09226   1
  -6   8   4 27.3407 3.13119   4
   5  -8  -4 5.67356 1.70972   4
   5  -8  -4 5.49938 1.86526   5
  -5   8   4 11.6391 2.97413   4
  -5   8   4 1.40873 6.47886   1
   4  -8  -4 59.6458 5.14860   6
   4  -8  -4 56.6988 4.08133   4
   4  -8  -4 58.0738 3.90522   5
  -4   8   4 58.7632 5.43269   4
  -4   8   4 61.3793 15.8258   1
  -4   8   4 52.6470 9.72570   1
   3  -8  -4 -1.8798 1.67642   6
   3  -8  -4 0.31888 1.91066   5
   3  -8  -4 1.13800 1.80123   4
  -3   8   4 -1.7800 2.63575   4
  -3   8   4 -10.711 13.4399   1
   2  -8  -4 144.804 7.35619   6
   2  -8  -4 155.836 6.66949   4
   2  -8  -4 158.866 6.97289   5
  -2   8   4 144.991 4.27851   2
  -2   8   4 153.652 8.85718   4
  -2   8   4 150.582 4.43862   2
  -2   8   4 154.650 22.0566   1
   1  -8  -4 25.2708 4.51487   6
   1  -8  -4 29.3238 3.85304   5
   1  -8  -4 24.5352 3.24829   4
  -1   8   4 32.4031 5.06920   4
  -1   8   4 25.4103 3.04255   2
  -1   8   4 24.4626 2.00811   2
  -1   8   4 32.6716 19.7388   1
   0   8   4 -7.8327 22.0980   1
   1   8   4 12.5514 2.20106   5
  -2  -8  -4 3.97186 2.60831   6
   2   8   4 4.66444 2.35160   5
   3   8   4 1.15465 2.83547   5
  10  -9  -4 4.42831 2.86082   6
   9  -9  -4 12.4943 2.50141   4
   9  -9  -4 14.0230 2.93484   6
   8  -9  -4 2.97419 2.21713   6
   8  -9  -4 4.23468 2.11864   4
   8  -9  -4 -3.1076 2.76675   5
   7  -9  -4 101.427 6.16930   6
   7  -9  -4 107.353 5.93863   5
   7  -9  -4 98.1347 5.44127   4
  -7   9   4 104.395 6.09791   4
   6  -9  -4 45.2236 4.48583   5
   6  -9  -4 47.3564 4.14671   4
   6  -9  -4 40.6267 4.48834   6
  -6   9   4 39.9440 5.52613   4
   5  -9  -4 46.5708 4.10496   4
   5  -9  -4 50.2559 4.64130   5
   5  -9  -4 37.3217 4.24394   6
  -5   9   4 46.4620 4.71595   4
   4  -9  -4 62.6027 4.44933   4
   4  -9  -4 60.2045 6.76401   5
   4  -9  -4 67.1281 5.00787   6
  -4   9   4 70.0059 8.65445   4
   3  -9  -4 21.3915 3.24974   6
   3  -9  -4 26.5022 3.65844   5
   3  -9  -4 26.9115 3.48217   4
  -3   9   4 24.4712 4.55516   4
   2  -9  -4 28.6025 4.32324   5
   2  -9  -4 29.7614 3.99538   6
   2  -9  -4 23.4531 2.98723   4
   1  -9  -4 4.63507 2.32180   6
   1  -9  -4 10.6528 4.50842   5
  -1   9   4 10.2933 1.41310   2
  -1   9   4 10.3385 2.28435   2
   0  -9  -4 3.87701 2.34607   6
   0   9   4 10.1355 4.10499   2
   0   9   4 5.53040 1.82121   2
  -1  -9  -4 71.1493 5.36187   6
   1   9   4 81.4476 5.33112   5
   1   9   4 85.2526 5.09732   2
   9 -10  -4 30.2687 3.11536   4
   9 -10  -4 29.3955 4.09323   6
   8 -10  -4 132.121 7.99508   5
   8 -10  -4 109.653 6.69558   6
   8 -10  -4 116.179 6.00116   4
   7 -10  -4 67.3209 5.58184   6
   7 -10  -4 76.7826 7.81671   5
   7 -10  -4 77.2665 5.11374   4
  -7  10   4 77.7381 7.24347   4
   6 -10  -4 15.1616 2.70558   4
   6 -10  -4 8.51338 2.71167   6
   6 -10  -4 12.1783 3.35913   5
  -6  10   4 6.68794 4.28889   4
   5 -10  -4 7.07760 2.21192   4
   5 -10  -4 6.73787 2.40022   6
   5 -10  -4 8.12623 3.28349   5
  -5  10   4 10.3584 4.61224   4
   4 -10  -4 4.04975 2.27132   6
   4 -10  -4 5.25962 2.24742   4
   3 -10  -4 8.83024 4.31602   5
   3 -10  -4 1.26162 2.57993   6
   2 -10  -4 53.1794 5.05905   6
   1 -10  -4 9.32915 2.88675   6
   0 -10  -4 73.7935 5.87616   6
   8 -11  -4 14.3765 3.74139   6
   8 -11  -4 22.6118 3.74370   4
   7 -11  -4 -4.7838 2.42308   4
   7 -11  -4 -2.1508 3.05663   6
   6 -11  -4 7.69501 2.61472   4
   6 -11  -4 7.45130 2.76845   6
   6 -11  -4 6.60122 6.48018   5
   5 -11  -4 16.2703 3.20597   6
   4 -11  -4 9.11760 3.18670   6
   3 -11  -4 97.5021 6.70673   6
   2 -11  -4 -0.1928 3.01661   6
  -1  13  -5 9.64806 2.76116   2
   1 -13   5 4.74026 2.12944   6
  -2  13  -5 9.50881 2.73645   2
   2 -13   5 -1.3519 1.72888   6
  -3  13  -5 3.88089 3.05129   2
   3 -13   5 8.67842 2.10941   6
  -4  13  -5 2.82048 3.64224   3
   4 -13   5 1.69646 1.89018   6
  -5  13  -5 6.62155 4.31430   3
   5 -13   5 8.68859 2.19678   6
  -6  13  -5 14.6677 4.79606   3
   6 -13   5 14.3520 2.33321   6
   1  12  -5 47.5362 4.84893   2
  -1 -12   5 39.4475 3.58252   6
   0  12  -5 1.34818 2.22896   2
   0 -12   5 0.28415 1.61506   6
  -1  12  -5 26.0277 2.88217   2
   1 -12   5 26.7316 2.77038   6
  -2  12  -5 44.1780 6.09463   4
  -2  12  -5 43.0300 3.92007   2
   2 -12   5 41.2980 3.19549   6
  -3  12  -5 66.1030 4.36682   2
  -3  12  -5 62.5804 7.81567   4
   3 -12   5 64.0345 3.63088   6
  -4  12  -5 46.1035 4.93153   4
  -4  12  -5 39.5895 4.83123   3
   4 -12   5 45.9381 5.21750   2
   4 -12   5 32.7857 2.94100   6
  -5  12  -5 1.85650 3.07940   3
   5 -12   5 5.21495 2.97274   2
   5 -12   5 2.46110 1.45596   6
  -6  12  -5 160.953 9.62166   3
   6 -12   5 133.696 5.57851   6
  -7  12  -5 54.4848 6.33701   3
   7 -12   5 53.2658 3.70329   6
  -8  12  -5 1.87460 5.14368   3
   8 -12   5 3.13999 2.09155   6
   2  11  -5 -1.0751 2.32089   2
  -2 -11   5 -0.3220 1.55231   6
   1  11  -5 18.4546 2.56979   2
  -1 -11   5 16.3972 1.94731   6
   0  11  -5 12.2397 2.12565   2
   0 -11   5 9.60340 1.70055   6
  -1  11  -5 25.1686 2.97105   2
  -1  11  -5 24.4189 4.60786   4
   1 -11   5 17.5073 2.34732   6
  -2  11  -5 10.4603 3.56726   4
  -2  11  -5 9.93679 1.82756   2
   2 -11   5 9.27703 1.54152   6
  -3  11  -5 26.0863 2.97059   2
  -3  11  -5 23.4557 3.69609   4
   3 -11   5 28.1342 3.09740   2
   3 -11   5 24.4111 2.34456   6
  -4  11  -5 1.05171 3.07296   4
  -4  11  -5 -1.9250 2.26913   3
   4 -11   5 2.62598 1.24632   6
   4 -11   5 -1.6005 2.21392   2
  -5  11  -5 7.58667 2.37611   4
  -5  11  -5 8.03792 2.95987   3
   5 -11   5 4.80423 1.38624   6
   5 -11   5 9.91774 2.42963   2
  -6  11  -5 10.7492 3.28348   3
   6 -11   5 15.6382 1.95848   6
   6 -11   5 20.2157 4.85633   2
  -7  11  -5 11.5124 3.86987   3
   7 -11   5 15.6475 3.27267   2
   7 -11   5 8.08992 1.66800   6
  -8  11  -5 1.91503 4.86189   3
   8 -11   5 3.85553 1.66565   6
   4  10  -5 2.08209 2.79870   5
   4  10  -5 3.64804 2.71550   2
   3  10  -5 7.46673 2.23449   2
   2  10  -5 3.25948 1.81694   2
   2  10  -5 -0.0693 4.44229   6
  -2 -10   5 1.25501 1.31249   6
   1  10  -5 78.8534 7.48940   6
   1  10  -5 79.5099 10.8350   1
   1  10  -5 85.2142 4.29488   2
  -1 -10   5 75.8216 3.51985   6
   0  10  -5 0.76355 6.67375   1
   0  10  -5 2.31830 4.58529   4
   0  10  -5 2.08091 3.33901   6
   0  10  -5 2.46210 1.32608   2
   0 -10   5 1.18708 1.01344   6
   0 -10   5 -23.463 14.5968   1
  -1  10  -5 105.450 7.14701   6
  -1  10  -5 70.4611 10.1282   1
  -1  10  -5 104.687 5.99366   4
  -1  10  -5 89.7462 4.13404   2
   1 -10   5 80.6012 16.7560   1
   1 -10   5 96.3574 6.06082   5
   1 -10   5 92.9114 3.81512   6
  -2  10  -5 9.94072 3.15249   6
  -2  10  -5 15.5505 2.76037   4
  -2  10  -5 11.6675 6.29529   1
  -2  10  -5 15.7203 1.84016   2
   2 -10   5 14.7964 3.04764   5
   2 -10   5 17.7314 12.2151   1
   2 -10   5 15.3414 2.42351   2
   2 -10   5 14.3869 1.83944   6
  -3  10  -5 20.1478 6.25204   1
  -3  10  -5 18.8777 2.80488   4
  -3  10  -5 16.6029 2.01170   2
  -3  10  -5 17.0836 3.94697   6
   3 -10   5 11.3012 1.42853   6
   3 -10   5 14.9571 2.78324   5
   3 -10   5 10.7424 12.0137   1
   3 -10   5 19.8390 2.42588   2
  -4  10  -5 19.2370 4.16790   6
  -4  10  -5 13.7432 2.39189   4
   4 -10   5 12.2411 1.60589   6
   4 -10   5 8.43956 2.33751   5
   4 -10   5 15.1199 2.23692   2
  -5  10  -5 11.5414 2.90517   3
  -5  10  -5 2.53165 3.39094   6
  -5  10  -5 6.79482 1.58532   4
   5 -10   5 4.33466 2.10332   2
   5 -10   5 6.42801 1.34909   6
  -6  10  -5 0.40556 2.67537   3
   6 -10   5 2.18687 1.11268   6
   6 -10   5 4.77174 2.31846   2
  -7  10  -5 29.3074 4.73338   3
   7 -10   5 27.4855 2.51598   6
   7 -10   5 30.0511 3.47833   2
  -8  10  -5 10.4638 4.04619   3
   8 -10   5 16.7935 3.96116   2
   8 -10   5 13.9501 1.78738   6
  -9  10  -5 24.8009 6.26010   3
   5   9  -5 -2.8455 2.70294   5
   5   9  -5 -1.8166 2.61586   2
   4   9  -5 79.9596 8.17302   6
   4   9  -5 71.8446 4.75577   2
   4   9  -5 69.5574 5.02311   5
   3   9  -5 5.12030 1.77992   2
   3   9  -5 9.28033 2.08477   5
   3   9  -5 8.29093 4.19303   6
   2   9  -5 11.4883 3.36467   4
   2   9  -5 6.18648 3.33241   6
   2   9  -5 -1.1420 6.90514   1
   2   9  -5 5.00788 1.58645   2
  -2  -9   5 4.04447 1.20619   6
   1   9  -5 13.0433 3.12983   6
   1   9  -5 9.26167 1.68431   2
   1   9  -5 9.14989 3.14391   4
   1   9  -5 6.40742 6.22602   1
  -1  -9   5 10.6098 3.08167   5
  -1  -9   5 8.88358 1.24938   6
   0   9  -5 3.99677 2.45222   6
   0   9  -5 5.11391 2.30698   4
   0   9  -5 -0.2078 5.20418   1
   0   9  -5 7.26676 1.43694   2
   0  -9   5 13.3149 11.7015   1
   0  -9   5 5.51389 2.53215   5
   0  -9   5 5.41138 1.08782   6
  -1   9  -5 8.21013 1.30609   2
  -1   9  -5 12.3782 2.86735   6
  -1   9  -5 8.69420 2.06939   4
  -1   9  -5 15.6427 5.30195   1
   1  -9   5 13.0203 9.86891   1
   1  -9   5 9.56537 2.20700   5
   1  -9   5 8.32607 1.18169   6
   1  -9   5 11.8024 2.10794   2
  -2   9  -5 150.205 5.93657   4
  -2   9  -5 164.018 10.8615   1
  -2   9  -5 151.402 5.38023   2
  -2   9  -5 150.996 6.98885   6
   2  -9   5 153.964 5.10700   6
   2  -9   5 148.974 5.62046   2
   2  -9   5 151.213 6.40213   5
   2  -9   5 162.797 16.7082   1
  -3   9  -5 125.273 10.0101   1
  -3   9  -5 138.211 5.18182   2
  -3   9  -5 134.738 6.58926   6
  -3   9  -5 133.838 5.28107   4
   3  -9   5 142.027 5.22482   2
   3  -9   5 131.411 4.68085   6
   3  -9   5 144.227 15.1700   1
   3  -9   5 137.668 6.00027   5
  -4   9  -5 73.1544 9.46672   1
  -4   9  -5 77.7420 5.06971   3
  -4   9  -5 74.6444 3.68167   4
  -4   9  -5 76.1570 5.56230   6
   4  -9   5 77.1064 11.0712   1
   4  -9   5 80.0516 3.29843   6
   4  -9   5 80.9472 4.00127   2
  -5   9  -5 25.1626 3.85727   3
  -5   9  -5 38.3966 5.11062   6
   5  -9   5 32.7110 3.51116   2
   5  -9   5 31.9286 2.17716   6
   5  -9   5 16.5231 10.0606   1
  -6   9  -5 33.0937 4.74557   3
   6  -9   5 36.9160 3.92620   2
   6  -9   5 30.2886 2.27901   6
  -7   9  -5 1.98112 4.06467   6
  -7   9  -5 4.51163 3.21433   3
   7  -9   5 9.22820 2.75255   2
  -8   9  -5 9.94701 3.37018   3
  -8   9  -5 -0.3216 5.34316   6
   8  -9   5 3.06488 3.46071   2
   8  -9   5 2.24700 1.36367   6
  -9   9  -5 -0.4361 4.53423   3
   6   8  -5 8.55093 2.78777   2
   6   8  -5 9.25937 3.14569   5
   5   8  -5 19.8181 5.08002   6
   5   8  -5 17.2595 2.60673   2
   5   8  -5 14.8240 2.69387   5
   4   8  -5 23.8808 3.89931   6
   4   8  -5 17.8266 2.63980   5
   4   8  -5 17.1901 2.36598   2
   3   8  -5 84.1408 4.93081   2
   3   8  -5 94.7423 11.2498   1
   3   8  -5 89.8958 5.97704   6
   3   8  -5 87.3617 4.54221   5
  -3  -8   5 100.661 7.27172   5
   2   8  -5 130.234 10.6950   1
   2   8  -5 128.769 5.13260   2
   2   8  -5 132.130 6.32698   6
  -2  -8   5 137.271 6.92661   5
  -2  -8   5 132.604 4.51901   6
   1   8  -5 205.560 12.2013   1
   1   8  -5 212.978 7.78435   6
   1   8  -5 209.094 6.91370   2
  -1  -8   5 217.990 7.88875   5
  -1  -8   5 227.291 19.0904   1
  -1  -8   5 202.936 6.29953   6
   0   8  -5 78.3339 7.83970   1
   0   8  -5 67.2827 3.19452   2
   0   8  -5 61.8627 4.22353   6
   0  -8   5 64.6020 3.80519   2
   0  -8   5 68.2638 4.21552   5
   0  -8   5 62.8090 10.7707   1
   0  -8   5 67.0400 2.82869   6
  -1   8  -5 0.68299 3.72251   1
  -1   8  -5 1.14159 0.79792   2
  -1   8  -5 -3.2807 1.39246   6
   1  -8   5 -4.9756 6.80466   1
   1  -8   5 1.56751 1.64431   5
   1  -8   5 0.22738 0.59788   6
   1  -8   5 -0.5040 1.30555   2
  -2   8  -5 177.691 6.64871   6
  -2   8  -5 165.600 5.66450   2
  -2   8  -5 158.584 9.55266   1
   2  -8   5 163.368 5.29402   6
   2  -8   5 169.095 5.73646   2
   2  -8   5 166.204 13.3079   1
   2  -8   5 170.141 6.25253   5
  -3   8  -5 168.275 5.78156   2
  -3   8  -5 151.422 9.61246   1
  -3   8  -5 160.684 6.51529   6
   3  -8   5 176.150 13.1347   1
   3  -8   5 169.892 5.65393   2
   3  -8   5 157.651 5.19156   6
  -4   8  -5 44.6089 3.88296   6
  -4   8  -5 37.7853 6.39220   1
  -4   8  -5 38.0607 3.71814   3
  -4   8  -5 37.2885 2.32804   4
   4  -8   5 42.3010 2.98553   2
   4  -8   5 36.5124 2.04257   6
   4  -8   5 33.0595 7.51840   1
  -5   8  -5 31.9633 3.83885   3
  -5   8  -5 34.1856 4.20317   6
  -5   8  -5 28.4315 6.98209   1
   5  -8   5 33.4374 9.02467   1
   5  -8   5 33.2847 3.06916   2
   5  -8   5 31.7350 2.03341   6
  -6   8  -5 72.2703 5.41143   6
   6  -8   5 59.6553 4.15690   2
   6  -8   5 53.5564 2.67536   6
  -7   8  -5 5.55118 2.92070   3
  -7   8  -5 6.17603 3.32763   6
   7  -8   5 3.86232 2.66988   2
   7  -8   5 4.19808 1.16677   6
  -8   8  -5 51.5977 6.63460   3
  -8   8  -5 63.1480 7.93601   6
   8  -8   5 57.0363 6.24249   2
  -9   8  -5 19.5647 5.35885   3
   7   7  -5 158.155 8.01360   2
   7   7  -5 154.669 8.01449   5
   6   7  -5 9.00765 2.37767   2
   6   7  -5 13.3535 2.55000   5
   5   7  -5 88.6286 4.97494   5
   5   7  -5 86.1030 4.78346   2
   5   7  -5 90.3219 6.04327   6
   4   7  -5 28.4925 3.18549   6
   4   7  -5 18.3913 2.58253   5
   4   7  -5 18.7586 2.64284   2
   4   7  -5 22.6332 6.69028   1
  -4  -7   5 28.7941 4.51100   5
   3   7  -5 202.641 7.30878   6
   3   7  -5 194.807 21.7638   1
   3   7  -5 193.478 11.6766   1
   3   7  -5 208.909 7.04685   2
   3   7  -5 204.168 7.14182   5
  -3  -7   5 210.077 8.46346   5
   2   7  -5 488.832 13.8421   2
   2   7  -5 495.335 18.7078   1
   2   7  -5 490.142 14.0176   6
   2   7  -5 491.624 13.9967   5
  -2  -7   5 492.094 14.5236   5
   1   7  -5 1792.88 48.9583   1
   1   7  -5 1725.51 44.1811   6
   1   7  -5 1747.61 44.1231   2
  -1  -7   5 1794.88 44.4275   5
  -1  -7   5 1630.10 43.4185   6
  -1  -7   5 1763.97 44.3279   2
  -1  -7   5 1710.12 52.2192   1
   0   7  -5 54.4592 2.71802   2
   0   7  -5 56.5262 3.28017   6
   0   7  -5 65.2574 6.46146   1
   0  -7   5 54.0742 2.34831   6
   0  -7   5 51.3352 3.29966   5
   0  -7   5 57.1968 8.22796   1
   0  -7   5 51.3552 3.16266   2
  -1   7  -5 674.298 21.7222   1
  -1   7  -5 663.705 17.5192   2
  -1   7  -5 650.891 17.7279   6
   1  -7   5 661.539 17.7314   5
   1  -7   5 634.050 17.0459   6
   1  -7   5 648.741 23.6413   1
  -2   7  -5 455.581 13.2757   6
  -2   7  -5 479.762 13.1337   2
  -2   7  -5 468.900 16.9993   1
   2  -7   5 478.954 14.5894   2
   2  -7   5 464.351 12.6087   6
   2  -7   5 479.281 18.7051   1
   2  -7   5 485.004 13.3381   5
  -3   7  -5 363.592 14.8425   1
  -3   7  -5 372.202 10.5982   2
  -3   7  -5 357.524 10.6914   6
   3  -7   5 361.080 9.90029   6
   3  -7   5 353.785 15.2993   1
   3  -7   5 353.831 10.8447   2
  -4   7  -5 738.897 20.0855   6
  -4   7  -5 723.110 25.4214   1
  -4   7  -5 764.374 18.6996   4
  -4   7  -5 728.620 18.5890   4
  -4   7  -5 710.920 21.1303   3
   4  -7   5 719.741 19.0763   6
   4  -7   5 742.130 24.7816   1
   4  -7   5 773.974 20.0399   2
  -5   7  -5 144.204 12.5459   1
  -5   7  -5 157.239 7.31005   3
  -5   7  -5 158.529 6.23020   6
   5  -7   5 158.349 5.88546   2
   5  -7   5 155.885 4.96490   6
   5  -7   5 160.139 11.0699   1
  -6   7  -5 801.381 21.7292   6
  -6   7  -5 778.764 23.6482   3
   6  -7   5 743.536 20.3045   6
   6  -7   5 799.580 27.4202   1
   6  -7   5 809.622 21.3678   2
  -7   7  -5 65.5028 6.11323   3
  -7   7  -5 68.1589 6.13288   6
   7  -7   5 65.6638 5.19952   2
  -8   7  -5 440.867 17.7869   6
  -8   7  -5 512.521 18.0727   3
   8  -7   5 521.365 15.5464   2
  -9   7  -5 9.98403 4.41806   3
   9  -7   5 20.9706 4.01211   5
  10  -7   5 203.770 11.6982   5
   7   6  -5 57.0999 4.89412   2
   7   6  -5 51.0153 4.87099   5
   6   6  -5 12.8800 2.33026   2
   6   6  -5 12.0107 2.34936   5
   5   6  -5 251.818 9.46442   6
   5   6  -5 262.317 8.78979   2
  -5  -6   5 266.678 11.2054   5
   4   6  -5 28.8643 2.60139   2
   4   6  -5 21.4663 5.24797   1
   4   6  -5 26.7865 12.8639   1
   4   6  -5 29.4842 2.96030   6
   4   6  -5 30.7338 2.67318   5
  -4  -6   5 33.2283 3.74425   5
   3   6  -5 192.288 10.4902   1
   3   6  -5 216.671 6.74081   6
   3   6  -5 203.477 6.86266   5
   3   6  -5 201.699 6.81461   2
  -3  -6   5 212.573 7.76139   5
   2   6  -5 9.64860 1.53098   6
   2   6  -5 8.38436 1.34604   2
   2   6  -5 13.0242 3.73760   1
   2   6  -5 8.56170 1.32018   5
  -2  -6   5 6.08934 6.51239   1
  -2  -6   5 7.36358 1.85467   5
   1   6  -5 60.5287 2.92893   6
   1   6  -5 62.1724 5.75690   1
   1   6  -5 59.1834 2.77572   2
  -1  -6   5 56.3690 2.33040   6
  -1  -6   5 56.7814 3.21373   5
  -1  -6   5 57.0354 3.25913   2
   0   6  -5 85.0715 3.40222   2
   0   6  -5 88.1834 3.50296   6
   0   6  -5 92.0942 6.55624   1
   0  -6   5 87.7815 8.75582   1
   0  -6   5 92.0284 3.70457   2
   0  -6   5 88.4428 4.02457   5
   0  -6   5 87.6696 3.11201   6
  -1   6  -5 230.663 7.01248   6
  -1   6  -5 230.246 7.02054   2
  -1   6  -5 226.116 10.0234   1
   1  -6   5 236.017 11.8196   1
   1  -6   5 244.106 7.06284   2
   1  -6   5 233.179 6.65997   6
  -2   6  -5 65.8827 3.03241   6
  -2   6  -5 66.2694 2.97823   2
  -2   6  -5 66.4790 6.02880   1
   2  -6   5 67.6272 2.51433   6
   2  -6   5 67.9497 3.02709   2
   2  -6   5 66.8479 7.15302   1
  -3   6  -5 14.3521 1.95460   6
  -3   6  -5 18.2466 4.25059   1
  -3   6  -5 15.4262 1.87122   2
  -3   6  -5 14.5483 1.17810   4
   3  -6   5 15.0820 1.93804   2
   3  -6   5 16.7703 4.65418   1
   3  -6   5 13.0480 1.17480   6
  -4   6  -5 339.130 9.87399   6
  -4   6  -5 330.024 15.3391   1
  -4   6  -5 286.948 9.49642   4
  -4   6  -5 343.370 11.2657   3
   4  -6   5 351.561 9.31355   6
   4  -6   5 357.225 14.2760   1
   4  -6   5 361.042 9.95154   2
  -5   6  -5 14.2636 6.56894   1
  -5   6  -5 19.4263 2.27027   6
  -5   6  -5 12.8556 2.28304   3
   5  -6   5 14.5915 1.97759   2
   5  -6   5 18.9343 5.42100   1
  -6   6  -5 124.094 5.33568   6
  -6   6  -5 123.113 6.78442   3
   6  -6   5 116.097 5.63697   2
   6  -6   5 104.285 10.5257   1
  -7   6  -5 29.7019 4.17361   3
  -7   6  -5 34.3925 3.91646   6
   7  -6   5 35.2993 3.76376   2
  -8   6  -5 33.3504 4.77544   3
  -8   6  -5 44.7269 5.85857   6
   8  -6   5 48.3267 5.48644   5
  -9   6  -5 72.2186 8.56541   3
   9  -6   5 83.5918 7.53122   5
 -10   6  -5 11.8388 5.20401   3
  10  -6   5 7.77070 4.93778   5
   8   5  -5 2.75714 2.66246   2
   8   5  -5 5.57218 2.79728   5
   7   5  -5 29.7403 3.83753   2
   7   5  -5 34.6730 4.21279   6
   7   5  -5 39.1542 4.13891   5
   6   5  -5 -2.1827 1.33977   2
   6   5  -5 -0.8618 1.80998   6
   6   5  -5 -0.3098 1.65517   5
  -6  -5   5 5.35594 4.23693   5
   5   5  -5 109.992 4.72216   5
   5   5  -5 110.101 4.32482   6
   5   5  -5 106.476 4.73299   2
   5   5  -5 103.387 8.70979   1
   5   5  -5 80.2297 11.3970   1
  -5  -5   5 110.876 6.91848   5
   4   5  -5 15.4665 1.96120   2
   4   5  -5 18.3981 2.09348   5
   4   5  -5 26.0852 8.07853   1
   4   5  -5 18.7783 2.02060   6
   4   5  -5 12.9415 3.95183   1
  -4  -5   5 15.6413 2.76672   5
   3   5  -5 187.704 5.67942   6
   3   5  -5 183.513 9.26925   1
   3   5  -5 178.753 6.27468   5
   3   5  -5 178.395 6.06485   2
  -3  -5   5 182.771 6.64803   5
  -3  -5   5 194.623 13.5904   1
   2   5  -5 75.8841 2.84027   6
   2   5  -5 67.6574 3.97810   2
   2   5  -5 62.7510 9.13083   1
   2   5  -5 65.4225 2.92272   5
  -2  -5   5 68.2372 3.92858   5
  -2  -5   5 82.6122 11.7065   1
  -2  -5   5 72.8998 3.54968   2
   1   5  -5 191.649 8.63985   1
   1   5  -5 199.511 5.73192   6
   1   5  -5 177.907 5.86953   2
  -1  -5   5 193.874 6.03358   5
  -1  -5   5 183.247 10.2887   1
  -1  -5   5 197.480 6.12483   2
   0   5  -5 0.95778 2.10555   1
   0   5  -5 0.67589 0.58918   6
   0   5  -5 0.00628 0.56146   2
   0  -5   5 0.00116 0.77994   2
   0  -5   5 -0.2968 0.78891   5
   0  -5   5 2.78523 3.57675   1
  -1   5  -5 182.076 5.83068   2
  -1   5  -5 196.490 5.63013   6
  -1   5  -5 177.964 8.71547   1
   1  -5   5 189.686 9.32295   1
   1  -5   5 185.736 5.79540   2
  -2   5  -5 43.6504 2.09192   6
  -2   5  -5 39.1030 5.08329   1
  -2   5  -5 39.1996 2.23471   2
   2  -5   5 41.8625 2.34162   2
   2  -5   5 40.0475 5.32669   1
  -3   5  -5 191.666 6.99645   3
  -3   5  -5 183.569 10.3997   1
  -3   5  -5 201.286 5.96567   6
  -3   5  -5 194.895 5.59929   4
   3  -5   5 195.516 6.25153   2
   3  -5   5 187.523 9.61246   1
  -4   5  -5 4.07870 1.40157   3
  -4   5  -5 8.66875 1.51602   6
  -4   5  -5 10.9806 4.93920   1
   4  -5   5 8.48031 4.31522   1
   4  -5   5 7.10050 1.57325   2
  -5   5  -5 272.060 10.2208   3
  -5   5  -5 267.345 16.2479   1
   5  -5   5 283.097 13.3183   1
   5  -5   5 296.725 9.08649   2
  -6   5  -5 62.3359 5.19779   3
   6  -5   5 70.5871 8.73729   1
   6  -5   5 73.9151 4.76738   2
  -7   5  -5 242.422 8.58551   6
  -7   5  -5 202.081 10.2568   3
   7  -5   5 223.658 13.0470   2
   7  -5   5 231.128 9.35152   5
  -8   5  -5 34.8168 4.85595   6
  -8   5  -5 21.7481 4.03226   3
   8  -5   5 20.3346 3.57354   5
  -9   5  -5 93.9869 8.84185   3
   9  -5   5 92.9179 7.95075   5
   9   4  -5 8.27485 3.17027   5
   9   4  -5 -0.2830 2.96537   2
   8   4  -5 106.652 5.95647   5
   8   4  -5 103.686 5.82791   2
   7   4  -5 26.2697 3.00071   2
   7   4  -5 28.5462 3.41014   5
   7   4  -5 28.4864 2.97227   6
  -7  -4   5 28.0974 4.80270   5
   6   4  -5 63.9575 3.08728   6
   6   4  -5 59.1291 4.60700   2
   6   4  -5 75.4174 10.9628   1
   6   4  -5 59.9536 3.61437   5
   6   4  -5 45.9987 5.90146   1
  -6  -4   5 69.2223 6.47382   5
   5   4  -5 21.8692 7.35923   1
   5   4  -5 14.7876 1.76611   6
   5   4  -5 14.7778 1.87960   2
   5   4  -5 13.8053 1.76932   5
   5   4  -5 5.61453 3.30315   1
  -5  -4   5 13.5980 2.75630   5
   4   4  -5 75.6815 2.78445   6
   4   4  -5 63.2844 5.68551   1
   4   4  -5 72.1887 3.35443   2
   4   4  -5 70.8035 3.20627   5
  -4  -4   5 73.3748 4.30102   5
   3   4  -5 20.3109 3.31243   1
   3   4  -5 21.6879 1.59742   5
   3   4  -5 19.4520 1.41104   6
   3   4  -5 23.0179 1.73885   2
  -3  -4   5 19.8304 2.32996   5
  -3  -4   5 24.5624 5.35277   1
   2   4  -5 112.507 3.49576   6
   2   4  -5 106.152 3.72137   5
   2   4  -5 111.493 6.22118   1
   2   4  -5 106.610 3.89612   2
  -2  -4   5 106.327 3.96666   5
  -2  -4   5 111.355 4.16594   2
  -2  -4   5 113.984 7.83089   1
   1   4  -5 -0.1652 0.43132   2
   1   4  -5 1.62189 0.59120   6
   1   4  -5 0.16251 1.86031   1
  -1  -4   5 -0.1086 0.65648   5
  -1  -4   5 5.65182 3.13859   1
  -1  -4   5 1.19763 0.81718   2
   0   4  -5 327.393 8.85383   6
   0   4  -5 319.846 9.24029   2
   0   4  -5 336.730 12.0870   1
   0  -4   5 333.211 9.08775   5
   0  -4   5 332.375 12.1760   1
   0  -4   5 339.371 9.25977   2
  -1   4  -5 52.5773 2.44965   2
  -1   4  -5 57.2885 4.96981   1
  -1   4  -5 59.0832 2.18895   6
   1  -4   5 57.0057 5.35017   1
   1  -4   5 54.9059 2.51862   2
  -2   4  -5 1.46584 0.63032   6
  -2   4  -5 1.27349 0.65275   2
  -2   4  -5 1.61470 0.57261   4
  -2   4  -5 5.62556 2.92922   1
   2  -4   5 5.42528 3.02410   1
   2  -4   5 1.38397 0.89028   2
  -3   4  -5 68.8179 3.64293   3
  -3   4  -5 70.2952 2.70490   4
  -3   4  -5 70.4081 2.64423   6
  -3   4  -5 73.0298 7.59738   1
   3  -4   5 70.4566 3.33202   2
   3  -4   5 73.7173 6.67206   1
  -4   4  -5 36.8933 7.34689   1
  -4   4  -5 31.6364 1.64009   4
  -4   4  -5 26.9534 2.91072   3
  -4   4  -5 30.7828 1.81931   6
   4  -4   5 31.7894 5.39404   1
   4  -4   5 27.9945 2.71511   2
  -5   4  -5 85.9668 11.6762   1
  -5   4  -5 71.3222 4.84925   3
  -5   4  -5 72.6982 3.10092   6
   5  -4   5 72.7370 4.21400   2
   5  -4   5 75.7550 9.55996   1
  -6   4  -5 198.198 6.39561   6
  -6   4  -5 197.313 8.77200   3
   6  -4   5 198.060 7.98504   5
   6  -4   5 202.143 12.9683   1
   6  -4   5 199.513 7.90258   2
  -7   4  -5 160.514 6.01624   6
   7  -4   5 173.715 8.07358   2
   7  -4   5 153.253 7.57961   5
   8  -4   5 23.7084 3.65655   5
  -9   4  -5 25.7835 4.87507   3
   9  -4   5 29.5606 4.59326   5
   9   3  -5 24.3389 3.39317   2
   9   3  -5 21.9501 3.18414   5
   8   3  -5 -0.7313 1.80989   5
   8   3  -5 -0.0737 2.02745   2
   7   3  -5 19.8402 2.30733   5
   7   3  -5 27.7425 2.25134   6
   7   3  -5 35.2999 9.69159   1
   7   3  -5 27.2554 3.11840   2
   7   3  -5 28.1552 5.76013   3
  -7  -3   5 27.1538 4.39990   5
   6   3  -5 1.24597 1.21975   2
   6   3  -5 1.81691 1.22123   5
   6   3  -5 -0.4346 6.09220   1
   6   3  -5 2.24830 0.94464   6
   6   3  -5 5.86013 3.12690   1
  -6  -3   5 -2.7476 2.45396   5
   5   3  -5 26.8500 3.69581   1
   5   3  -5 37.0195 6.94011   1
   5   3  -5 30.2513 2.28819   2
   5   3  -5 32.2474 1.72568   6
   5   3  -5 32.3777 2.28163   5
   4   3  -5 0.96126 0.66730   5
   4   3  -5 1.85037 0.75526   6
   4   3  -5 1.53749 0.67275   2
   4   3  -5 3.29676 2.11381   1
  -4  -3   5 2.24344 4.17722   1
  -4  -3   5 1.38495 1.33151   5
  -4  -3   5 2.35408 4.12541   1
   3   3  -5 16.2899 4.18373   1
   3   3  -5 15.5822 1.29066   5
   3   3  -5 14.8821 1.15877   6
   3   3  -5 14.7116 1.40775   2
  -3  -3   5 17.0896 2.08528   2
  -3  -3   5 10.7079 3.66624   1
  -3  -3   5 16.9590 1.94238   5
   2   3  -5 93.0804 3.17388   5
   2   3  -5 96.3694 3.46999   2
   2   3  -5 95.1854 5.22751   1
   2   3  -5 98.2585 3.10912   6
  -2  -3   5 98.3545 3.40018   5
  -2  -3   5 95.7516 6.31734   1
  -2  -3   5 97.0079 3.61369   2
   1   3  -5 3.12462 0.60530   6
   1   3  -5 3.00639 0.63740   2
   1   3  -5 4.29608 1.92942   1
  -1  -3   5 5.49331 0.95355   2
  -1  -3   5 3.76582 0.66541   5
  -1  -3   5 8.47410 2.64416   1
   0   3  -5 749.058 22.4388   1
   0   3  -5 733.270 18.6442   6
   0   3  -5 705.202 19.0627   2
   0  -3   5 755.184 19.0682   2
   0  -3   5 740.156 21.5226   1
  -1   3  -5 133.471 7.79716   1
  -1   3  -5 144.245 4.78144   2
  -1   3  -5 156.408 4.30201   6
  -1   3  -5 148.895 4.64341   4
   1  -3   5 142.917 4.66888   2
   1  -3   5 147.805 7.36305   1
  -2   3  -5 14.6850 1.35123   4
  -2   3  -5 17.1475 1.17173   6
  -2   3  -5 14.1157 1.66330   3
  -2   3  -5 11.7967 4.21671   1
   2  -3   5 16.1806 1.74385   2
   2  -3   5 13.1549 3.57274   1
  -3   3  -5 610.908 17.7025   3
  -3   3  -5 624.783 16.1350   6
  -3   3  -5 599.107 16.5204   4
  -3   3  -5 703.458 23.7240   1
   3  -3   5 638.483 20.8500   1
  -4   3  -5 32.3880 1.67036   6
  -4   3  -5 27.0706 1.74468   4
  -4   3  -5 34.5206 7.33379   1
  -4   3  -5 27.4331 2.93561   3
   4  -3   5 29.6237 2.85389   2
   4  -3   5 30.0592 1.86631   4
   4  -3   5 27.3316 6.15263   1
  -5   3  -5 721.133 29.2409   1
  -5   3  -5 753.452 18.9869   6
  -5   3  -5 737.186 21.7209   3
   5  -3   5 752.528 20.4843   2
   5  -3   5 722.571 20.8279   5
   5  -3   5 753.254 26.4527   1
   5  -3   5 739.264 19.2083   4
  -6   3  -5 227.740 19.8712   1
  -6   3  -5 252.862 10.1681   3
  -6   3  -5 244.093 7.19883   6
   6  -3   5 256.022 16.2257   1
   6  -3   5 245.209 7.55519   4
   6  -3   5 245.860 9.27982   5
   6  -3   5 253.558 9.39061   2
  -7   3  -5 2.98505 1.67556   6
   7  -3   5 1.90012 2.23288   5
   7  -3   5 5.14887 3.48210   2
   7  -3   5 6.57053 2.09890   4
  -8   3  -5 -4.0142 3.29799   3
   8  -3   5 2.13790 2.83743   5
   8  -3   5 6.77191 2.59400   4
   9  -3   5 3.87934 3.65217   5
  10   2  -5 69.9161 6.28914   5
  10   2  -5 83.4562 6.44663   2
   9   2  -5 150.075 6.98458   2
   9   2  -5 146.029 7.05326   5
   8   2  -5 46.6413 3.95357   2
   8   2  -5 56.5972 2.48087   6
   8   2  -5 53.2755 4.75761   5
   7   2  -5 279.101 9.12284   5
   7   2  -5 334.590 15.6968   3
   7   2  -5 279.897 7.60250   6
   7   2  -5 262.104 10.7239   1
   7   2  -5 267.044 15.4001   1
   7   2  -5 288.051 9.26461   2
  -7  -2   5 283.584 10.8047   5
   6   2  -5 36.1192 4.15879   1
   6   2  -5 38.9828 2.65848   5
   6   2  -5 30.3457 6.14762   1
   6   2  -5 40.0459 1.85653   6
   6   2  -5 37.6709 2.71072   2
  -6  -2   5 39.2197 4.31863   5
   5   2  -5 425.652 12.4423   2
   5   2  -5 448.966 14.1180   1
   5   2  -5 436.246 12.2233   5
   5   2  -5 451.822 11.5165   6
  -5  -2   5 455.973 13.0364   5
   4   2  -5 273.860 7.72651   5
   4   2  -5 278.723 9.61211   1
   4   2  -5 268.715 8.02092   2
  -4  -2   5 266.255 11.1392   1
  -4  -2   5 270.820 8.25987   5
   3   2  -5 449.541 12.5430   2
   3   2  -5 469.287 12.1896   5
   3   2  -5 471.833 14.4046   1
  -3  -2   5 470.542 12.4897   5
  -3  -2   5 466.825 15.1091   1
  -3  -2   5 467.153 12.7029   2
   2   2  -5 2219.48 55.4608   5
   2   2  -5 2208.18 55.9199   2
   2   2  -5 2311.87 58.4271   1
  -2  -2   5 2334.60 57.9734   1
  -2  -2   5 2243.20 55.8982   2
  -2  -2   5 2169.56 55.4936   5
   1   2  -5 743.818 19.5104   2
   1   2  -5 722.991 22.3498   1
  -1  -2   5 764.063 19.0211   5
  -1  -2   5 762.830 21.5536   1
  -1  -2   5 787.394 19.5088   2
   0   2  -5 1275.17 33.2924   4
   0   2  -5 1301.49 33.2875   2
   0   2  -5 1354.87 37.6466   1
   0  -2   5 1350.67 35.9417   1
   0  -2   5 1310.69 33.1800   2
  -1   2  -5 56.4680 2.58961   2
  -1   2  -5 57.5809 6.20036   1
  -1   2  -5 61.9493 2.59008   4
   1  -2   5 60.6798 5.87492   1
   1  -2   5 59.4078 2.58643   2
  -2   2  -5 1794.26 44.2367   6
  -2   2  -5 1774.18 45.4129   3
  -2   2  -5 1734.57 44.8694   4
  -2   2  -5 1866.59 52.2064   1
   2  -2   5 1772.03 44.9839   2
   2  -2   5 1790.31 49.2985   1
   2  -2   5 1771.74 44.5798   4
  -3   2  -5 217.673 5.79599   6
  -3   2  -5 209.303 6.42902   4
  -3   2  -5 206.432 7.32383   3
   3  -2   5 210.791 6.97868   2
   3  -2   5 191.275 11.7083   1
   3  -2   5 212.577 6.37361   4
  -4   2  -5 259.957 7.62404   4
  -4   2  -5 259.871 9.16890   3
  -4   2  -5 269.160 7.03093   6
   4  -2   5 254.855 7.76726   4
   4  -2   5 272.556 8.60658   2
   4  -2   5 243.247 8.45545   5
   4  -2   5 246.178 14.6172   1
  -5   2  -5 44.9268 9.84424   1
  -5   2  -5 48.5960 2.10052   6
  -5   2  -5 42.2308 4.20702   3
   5  -2   5 45.2797 9.49893   1
   5  -2   5 42.8700 3.59635   5
   5  -2   5 51.0766 3.29530   4
   5  -2   5 55.7992 4.40606   2
  -6   2  -5 126.597 15.2740   1
  -6   2  -5 124.964 4.07829   6
  -6   2  -5 113.310 6.80776   3
   6  -2   5 118.691 6.81562   3
   6  -2   5 161.527 16.8884   1
   6  -2   5 124.761 5.39879   4
   6  -2   5 125.959 6.26341   5
  -7   2  -5 13.2677 4.04831   3
   7  -2   5 16.4817 3.00552   5
   7  -2   5 18.4234 3.07282   4
   7  -2   5 17.2656 5.01513   3
   8  -2   5 242.732 9.66955   4
   8  -2   5 234.071 10.4869   5
   9  -2   5 -1.6787 4.05910   5
  10   1  -5 5.88586 2.78984   2
  10   1  -5 7.41207 2.98895   5
   9   1  -5 115.700 5.97832   5
   9   1  -5 116.532 5.81154   2
   8   1  -5 23.2585 5.26341   3
   8   1  -5 14.5376 6.12088   1
   8   1  -5 20.0933 1.62174   6
   8   1  -5 18.4183 2.10855   6
   8   1  -5 24.7512 3.15988   5
   8   1  -5 22.8977 2.73282   2
   7   1  -5 54.2786 7.24452   1
   7   1  -5 54.4641 3.36165   5
   7   1  -5 58.8632 3.42106   2
   7   1  -5 57.6321 2.24365   6
   7   1  -5 50.2573 4.35982   1
   6   1  -5 84.4240 4.59715   1
   6   1  -5 94.8824 7.57881   1
   6   1  -5 87.6399 6.13965   3
   6   1  -5 79.7799 3.61723   5
   6   1  -5 82.2397 3.67601   2
   5   1  -5 205.262 6.22555   5
   5   1  -5 198.885 7.43462   1
   5   1  -5 209.668 6.47206   2
  -5  -1   5 208.140 6.90818   5
   4   1  -5 158.918 4.74645   5
   4   1  -5 163.041 5.09778   2
  -4  -1   5 156.852 5.20571   5
  -4  -1   5 154.850 7.04371   1
   3   1  -5 335.501 11.2117   1
   3   1  -5 333.729 8.71626   5
   3   1  -5 318.552 9.17746   2
  -3  -1   5 334.504 8.98915   5
  -3  -1   5 336.776 10.8191   1
  -3  -1   5 342.842 9.32255   2
   2   1  -5 0.07146 0.39167   2
   2   1  -5 0.29391 0.48386   4
   2   1  -5 0.54024 1.86196   1
  -2  -1   5 -0.0871 0.57934   2
  -2  -1   5 0.25896 1.61567   1
   1   1  -5 63.7209 2.43788   2
   1   1  -5 62.7226 5.27678   1
   1   1  -5 63.0242 2.68112   4
  -1  -1   5 63.6333 4.91304   1
  -1  -1   5 63.5838 2.46521   2
  -1  -1   5 63.5571 1.91875   5
   0   1  -5 8.42042 3.20461   1
   0   1  -5 8.00685 1.06125   4
   0   1  -5 6.71813 0.90358   2
   0  -1   5 8.11453 1.01763   2
   0  -1   5 7.48485 3.23111   1
   0  -1   5 5.99504 0.85646   4
  -1   1  -5 223.398 11.6612   1
  -1   1  -5 214.079 6.81448   4
  -1   1  -5 223.677 6.68014   3
   1  -1   5 223.144 11.1903   1
   1  -1   5 224.374 6.63317   2
   1  -1   5 222.744 6.62071   4
  -2   1  -5 1.55202 0.91633   3
  -2   1  -5 -2.6820 4.34619   1
  -2   1  -5 2.20453 0.86560   4
   2  -1   5 2.26645 0.95521   4
   2  -1   5 2.59271 0.86606   5
   2  -1   5 0.00979 4.61677   1
   2  -1   5 2.27805 0.99751   2
  -3   1  -5 24.3143 2.49642   3
  -3   1  -5 30.3941 2.12246   4
  -3   1  -5 34.5161 7.07141   1
   3  -1   5 31.3040 2.53391   4
   3  -1   5 31.6596 2.71147   2
   3  -1   5 28.8716 2.25997   5
   3  -1   5 38.2763 7.45562   1
  -4   1  -5 15.5536 2.31770   3
  -4   1  -5 19.5709 1.29673   6
  -4   1  -5 21.4556 1.89271   4
  -4   1  -5 21.7781 8.24070   1
   4  -1   5 18.3495 2.09019   5
   4  -1   5 12.9322 7.89532   1
   4  -1   5 18.6332 2.12203   4
  -5   1  -5 34.0312 1.65786   6
  -5   1  -5 33.6056 3.76042   3
  -5   1  -5 57.8454 10.8592   1
   5  -1   5 36.0245 4.11272   3
   5  -1   5 32.3808 3.32128   5
   5  -1   5 33.4129 10.4873   1
  -6   1  -5 1.95164 2.12119   3
   6  -1   5 1.81521 2.98588   3
   6  -1   5 0.31216 1.88365   5
   6  -1   5 0.98943 2.36667   4
   7  -1   5 5.86328 4.28361   3
   7  -1   5 -0.1645 2.34731   5
   7  -1   5 1.50448 3.20490   4
   8  -1   5 4.56144 3.05574   5
   8  -1   5 1.55015 4.44097   4
  10   0  -5 15.3357 2.91589   5
  10   0  -5 6.82904 2.49608   2
   9   0  -5 72.7240 3.26701   6
   9   0  -5 64.1701 4.41246   2
   9   0  -5 67.9281 5.35806   5
   9   0  -5 69.9345 2.47819   6
   8   0  -5 25.7660 3.03470   5
   8   0  -5 22.8531 2.73584   6
   8   0  -5 25.0744 2.88691   2
   8   0  -5 23.7461 7.20998   3
   7   0  -5 66.1366 3.57790   5
   7   0  -5 75.7048 6.62306   3
   7   0  -5 78.3461 5.22267   1
   7   0  -5 71.6521 3.55537   2
   7   0  -5 64.9263 3.70047   1
   6   0  -5 183.309 7.60787   1
   6   0  -5 193.456 6.21112   2
   6   0  -5 187.522 6.64939   1
   6   0  -5 190.789 8.07488   3
   6   0  -5 188.473 6.12233   5
   5   0  -5 208.168 6.40314   2
   5   0  -5 206.977 7.45655   1
   5   0  -5 209.173 6.21307   5
   4   0  -5 282.317 7.87339   2
   4   0  -5 277.703 9.64444   1
   4   0  -5 289.592 7.50697   5
  -4   0   5 285.822 8.09823   2
  -4   0   5 245.477 9.43280   1
   3   0  -5 210.940 6.65524   4
   3   0  -5 222.143 6.56620   2
   3   0  -5 233.013 9.05260   1
   3   0  -5 221.668 5.70559   5
  -3   0   5 218.309 6.34731   2
  -3   0   5 213.354 7.44471   1
   2   0  -5 179.152 5.19401   2
   2   0  -5 162.672 8.34277   1
   2   0  -5 173.376 5.61521   4
  -2   0   5 184.708 5.19932   2
  -2   0   5 174.064 7.26672   1
   1   0  -5 221.791 10.2784   1
   1   0  -5 217.727 6.26488   2
   1   0  -5 210.223 6.67158   4
  -1   0   5 218.854 9.68998   1
  -1   0   5 209.738 6.41567   4
  -1   0   5 213.165 5.52935   5
  -1   0   5 216.561 6.14754   2
   0   0  -5 207.423 6.29249   2
   0   0  -5 209.537 11.0268   1
   0   0  -5 201.081 6.52971   4
   0   0   5 205.480 5.73803   5
   0   0   5 203.760 10.6504   1
   0   0   5 203.194 6.35550   4
   0   0   5 208.239 6.05689   2
  -1   0  -5 356.625 9.91715   3
  -1   0  -5 345.458 10.2617   4
  -1   0  -5 339.442 16.1072   1
   1   0   5 356.131 15.9299   1
   1   0   5 359.707 9.91188   2
   1   0   5 352.860 10.1454   4
   1   0   5 353.251 9.75127   5
  -2   0  -5 133.366 4.94761   3
  -2   0  -5 125.177 10.9075   1
  -2   0  -5 130.370 4.84480   4
   2   0   5 123.299 11.9451   1
   2   0   5 133.187 4.70184   5
   2   0   5 130.689 5.01676   4
   2   0   5 142.866 5.00200   2
  -3   0  -5 184.679 6.33131   4
  -3   0  -5 192.323 6.80688   3
  -3   0  -5 173.317 14.0646   1
   3   0   5 194.900 6.73812   4
   3   0   5 198.215 15.5506   1
   3   0   5 186.986 6.48544   5
  -4   0  -5 32.1930 8.92801   1
  -4   0  -5 30.0057 2.29552   4
  -4   0  -5 23.2264 2.98600   3
   4   0   5 27.3755 3.35235   4
   4   0   5 33.5935 10.5310   1
   4   0   5 27.6317 2.83653   5
   4   0   5 24.6957 3.16103   3
  -5   0  -5 56.4294 11.9514   1
  -5   0  -5 35.9152 3.90685   3
  -5   0  -5 39.0411 1.75268   6
   5   0   5 42.6836 3.74032   5
   5   0   5 43.8322 13.4230   1
   5   0   5 42.9157 4.68344   3
   5   0   5 42.1544 4.59929   4
   6   0   5 5.34719 3.62073   3
   6   0   5 5.91466 2.03866   5
   6   0   5 9.97399 3.21944   4
   7   0   5 2.47672 3.92515   4
   7   0   5 6.73401 2.62580   5
   7   0   5 12.7882 4.96667   3
   8   0   5 26.2198 4.09816   5
  11  -1  -5 3.67337 3.36049   5
  11  -1  -5 1.96971 3.01599   2
  10  -1  -5 3.73268 2.45094   5
  10  -1  -5 -0.6228 2.10350   2
   9  -1  -5 3.64940 1.98321   2
   9  -1  -5 5.15162 1.75697   6
   9  -1  -5 3.11193 2.03682   5
   8  -1  -5 58.4230 3.48612   2
   8  -1  -5 50.7186 3.60882   5
   8  -1  -5 59.1293 3.62832   6
   8  -1  -5 60.4629 7.66659   3
   7  -1  -5 83.2247 3.92197   5
   7  -1  -5 92.5690 6.59460   3
   7  -1  -5 88.3529 3.79814   2
   6  -1  -5 10.8891 2.53355   3
   6  -1  -5 10.3859 1.28907   2
   6  -1  -5 15.1688 1.73343   5
   6  -1  -5 10.1018 1.35927   4
   5  -1  -5 19.8381 1.77438   4
   5  -1  -5 20.9092 1.48608   2
   5  -1  -5 17.1632 2.27096   3
   5  -1  -5 23.9597 1.56000   5
  -5   1   5 19.5926 2.46854   1
   4  -1  -5 297.321 8.22063   2
   4  -1  -5 292.663 8.06357   5
   4  -1  -5 299.343 8.81284   4
  -4   1   5 301.020 8.37763   2
   3  -1  -5 319.581 9.36703   4
   3  -1  -5 316.726 8.68542   2
  -3   1   5 325.539 8.70326   2
  -3   1   5 321.108 10.6480   1
   2  -1  -5 1260.13 35.8588   1
   2  -1  -5 1195.31 30.8017   2
   2  -1  -5 1211.38 31.6045   4
  -2   1   5 1213.60 30.7192   2
  -2   1   5 1240.49 34.4127   1
  -2   1   5 1240.98 31.3037   4
   1  -1  -5 19.6879 1.76032   4
   1  -1  -5 24.7447 4.85141   1
   1  -1  -5 20.2926 1.40072   2
  -1   1   5 25.0215 0.88967   5
  -1   1   5 21.2252 1.97159   4
  -1   1   5 22.1457 1.43223   2
  -1   1   5 21.7037 5.06132   1
   0  -1  -5 261.525 13.7094   1
   0  -1  -5 259.040 8.26631   4
   0   1   5 272.652 7.65198   2
   0   1   5 263.554 7.26933   5
   0   1   5 265.691 8.17649   4
   0   1   5 290.647 14.2909   1
  -1  -1  -5 6.88676 4.84555   1
  -1  -1  -5 6.57663 1.15455   4
  -1  -1  -5 9.69324 1.33715   3
   1   1   5 5.82942 1.21523   2
   1   1   5 6.34939 1.58888   4
   1   1   5 5.75982 6.33918   1
   1   1   5 6.63707 0.94079   5
  -2  -1  -5 70.8706 3.31989   3
  -2  -1  -5 64.4829 3.39227   4
  -2  -1  -5 68.6692 9.50547   1
   2   1   5 65.7316 3.08072   5
   2   1   5 65.8439 4.46573   4
   2   1   5 80.1414 11.4221   1
   2   1   5 65.1496 4.18700   2
  -3  -1  -5 19.4635 2.27024   4
  -3  -1  -5 17.1789 2.30990   3
  -3  -1  -5 23.0307 8.20806   1
   3   1   5 21.0549 10.1120   1
   3   1   5 16.8926 2.35682   4
   3   1   5 20.3824 2.65848   3
  -4  -1  -5 60.6353 11.4711   1
  -4  -1  -5 52.9014 3.17365   4
   4   1   5 65.4865 14.1170   1
   4   1   5 60.8610 4.77891   4
   4   1   5 50.7409 3.46985   5
   4   1   5 54.6797 4.27010   3
  -5  -1  -5 157.651 5.34256   6
  -5  -1  -5 157.860 4.48289   6
  -5  -1  -5 178.297 20.3204   1
   5   1   5 145.675 6.61748   5
   5   1   5 161.619 8.71875   4
   5   1   5 169.494 23.5059   1
   5   1   5 169.062 7.71958   3
   6   1   5 89.1541 8.06240   3
   6   1   5 101.543 7.93975   4
   6   1   5 100.375 5.85877   5
   7   1   5 34.7814 5.98825   4
   7   1   5 29.6637 3.94194   5
  11  -2  -5 322.108 11.4227   2
  11  -2  -5 325.134 12.3270   5
  11  -2  -5 342.025 11.5900   4
  10  -2  -5 1.63456 2.11981   4
  10  -2  -5 0.01237 2.02682   2
  10  -2  -5 1.16430 2.35580   5
  10  -2  -5 -0.1922 1.58030   6
   9  -2  -5 317.232 10.0261   2
   9  -2  -5 307.096 10.5569   5
   9  -2  -5 316.088 10.1366   4
   9  -2  -5 316.634 9.84068   6
   9  -2  -5 328.118 14.4998   3
   8  -2  -5 49.9725 3.30043   4
   8  -2  -5 53.6263 3.51296   6
   8  -2  -5 46.6828 3.51663   5
   8  -2  -5 45.5018 2.97653   2
   8  -2  -5 39.7151 5.02324   3
   7  -2  -5 4.40725 1.28910   4
   7  -2  -5 1.63901 1.48220   6
   7  -2  -5 4.87069 1.32764   5
   7  -2  -5 4.66751 2.83250   3
   7  -2  -5 3.02369 0.98407   2
   6  -2  -5 1165.39 31.4725   4
   6  -2  -5 1245.84 31.1442   5
   6  -2  -5 1197.06 30.9352   2
   6  -2  -5 1255.66 32.8794   3
   5  -2  -5 748.670 20.3173   3
   5  -2  -5 737.576 18.8055   5
   5  -2  -5 733.626 19.6427   4
   5  -2  -5 712.328 18.8149   2
  -5   2   5 719.113 18.4465   1
   4  -2  -5 162.007 4.48504   5
   4  -2  -5 154.879 5.50076   4
   4  -2  -5 164.453 5.80832   3
   4  -2  -5 158.315 4.72209   2
   4  -2  -5 161.417 7.70940   1
  -4   2   5 158.883 4.87142   2
  -4   2   5 156.054 6.37419   1
   3  -2  -5 559.327 18.8373   1
   3  -2  -5 552.658 14.3902   2
   3  -2  -5 551.994 15.4068   4
   3  -2  -5 569.685 14.8555   3
  -3   2   5 559.274 15.0049   4
  -3   2   5 551.174 14.3401   2
   2  -2  -5 12.5500 1.09177   2
   2  -2  -5 9.47296 1.43057   4
   2  -2  -5 8.78001 3.52097   1
  -2   2   5 9.63837 1.29504   4
  -2   2   5 11.0693 1.06842   2
  -2   2   5 11.9005 4.69180   1
   1  -2  -5 78.0930 3.59759   4
   1  -2  -5 64.5675 7.90147   1
   1  -2  -5 79.7846 2.71755   5
  -1   2   5 60.7165 8.76172   1
  -1   2   5 81.8287 4.69171   4
  -1   2   5 80.5464 2.84715   2
  -1   2   5 76.3899 2.35795   5
   0  -2  -5 165.220 6.09524   4
   0  -2  -5 179.287 4.79074   3
   0  -2  -5 172.959 5.41650   5
   0  -2  -5 168.460 12.0270   1
   0   2   5 168.486 5.00985   5
   0   2   5 168.087 5.40779   2
   0   2   5 174.906 6.21588   4
   0   2   5 176.760 13.2243   1
  -1  -2  -5 0.53742 1.28016   5
  -1  -2  -5 5.56115 6.02560   1
  -1  -2  -5 0.14357 0.86222   4
   1   2   5 0.74306 0.65113   5
   1   2   5 4.34209 7.38151   1
   1   2   5 1.10110 1.13938   2
   1   2   5 1.31838 1.54600   4
  -2  -2  -5 403.740 21.1415   1
  -2  -2  -5 396.645 12.0142   4
   2   2   5 378.204 22.1726   1
   2   2   5 424.001 12.5887   4
   2   2   5 394.674 11.4466   5
  -3  -2  -5 9.60908 8.64871   1
  -3  -2  -5 18.2559 2.27079   4
  -3  -2  -5 19.9064 2.41389   6
   3   2   5 19.3584 3.04054   4
   3   2   5 18.7651 2.27700   3
   3   2   5 12.8502 11.4558   1
   3   2   5 14.9198 1.80972   5
  -4  -2  -5 35.6621 2.88208   6
  -4  -2  -5 54.2406 13.1180   1
   4   2   5 33.2139 4.27632   3
   4   2   5 42.9231 15.8442   1
   4   2   5 28.3205 3.64974   4
   4   2   5 36.8848 3.20749   5
  -5  -2  -5 29.1369 2.35220   6
   5   2   5 26.4762 4.02945   3
   5   2   5 40.5950 4.89945   4
   5   2   5 27.1270 3.62672   5
   6   2   5 25.4949 5.26826   3
   6   2   5 26.5881 5.99693   4
   6   2   5 21.0289 3.02573   5
   7   2   5 1.45759 2.96597   5
  11  -3  -5 3.48409 2.63949   2
  11  -3  -5 10.2789 3.15948   4
  11  -3  -5 2.75355 3.20229   5
  10  -3  -5 24.1770 3.31089   2
  10  -3  -5 27.0437 3.07147   4
  10  -3  -5 25.0101 3.26407   6
  10  -3  -5 25.2889 3.41650   5
   9  -3  -5 2.45034 1.76846   4
   9  -3  -5 5.62152 2.11860   5
   9  -3  -5 4.31002 1.59362   2
   9  -3  -5 -0.1755 4.24420   3
   9  -3  -5 6.99397 2.07651   6
   8  -3  -5 30.9011 2.43321   2
   8  -3  -5 31.8065 2.98474   4
   8  -3  -5 29.6587 3.59646   5
   8  -3  -5 44.9090 5.27994   3
   8  -3  -5 31.4028 3.65329   6
   7  -3  -5 21.3937 3.34055   6
   7  -3  -5 20.2677 2.43188   4
   7  -3  -5 23.2788 2.40194   5
   7  -3  -5 26.1999 3.69321   3
   7  -3  -5 24.8094 1.87035   2
   6  -3  -5 830.211 23.1140   6
   6  -3  -5 867.314 24.8664   3
   6  -3  -5 859.884 21.8911   5
   6  -3  -5 812.643 21.5000   2
   6  -3  -5 823.452 22.4125   4
   5  -3  -5 191.775 6.86495   3
   5  -3  -5 181.742 5.27036   2
   5  -3  -5 183.678 6.86579   6
   5  -3  -5 169.469 6.20611   4
   5  -3  -5 184.385 5.44589   5
  -5   3   5 172.807 6.05691   1
   4  -3  -5 78.2141 2.43970   5
   4  -3  -5 80.8170 5.92766   1
   4  -3  -5 79.2789 2.66790   2
   4  -3  -5 80.9504 3.64794   3
   4  -3  -5 76.7972 3.66694   4
  -4   3   5 81.2595 3.45965   4
  -4   3   5 81.2129 2.79998   2
  -4   3   5 85.3732 6.83433   1
   3  -3  -5 4.08303 0.68015   2
   3  -3  -5 3.78795 3.68144   1
   3  -3  -5 1.93016 0.88522   4
   3  -3  -5 4.98849 0.57805   5
   3  -3  -5 4.10853 0.85985   3
  -3   3   5 5.11996 0.72984   2
  -3   3   5 7.51404 4.57860   1
  -3   3   5 6.53184 1.46759   4
   2  -3  -5 6.64531 4.54156   1
   2  -3  -5 12.9121 1.21071   5
   2  -3  -5 9.94635 1.47411   4
  -2   3   5 14.6119 1.84899   4
  -2   3   5 7.91329 5.25245   1
  -2   3   5 13.0564 1.16888   2
   1  -3  -5 -6.4593 4.41597   1
   1  -3  -5 -0.2937 0.82441   4
   1  -3  -5 -0.1296 0.81712   5
  -1   3   5 0.19556 0.39870   5
  -1   3   5 0.57289 0.69850   2
  -1   3   5 1.37904 1.30179   4
   0  -3  -5 4.56405 5.76970   1
   0  -3  -5 3.25404 1.18985   4
   0  -3  -5 5.86399 1.40887   5
   0   3   5 4.68379 1.53958   4
   0   3   5 8.63297 7.67463   1
   0   3   5 5.47456 1.20066   2
   0   3   5 4.96252 0.81122   5
  -1  -3  -5 21.2965 2.43960   4
  -1  -3  -5 22.4140 2.39001   5
  -1  -3  -5 20.1480 2.41018   6
  -1  -3  -5 25.4799 8.17864   1
   1   3   5 22.0254 1.76527   5
   1   3   5 33.1304 10.3525   1
   1   3   5 25.8952 2.78136   2
   1   3   5 27.4338 3.50949   4
  -2  -3  -5 343.477 10.6510   6
  -2  -3  -5 346.660 10.9841   5
  -2  -3  -5 330.202 21.0512   1
  -2  -3  -5 342.563 10.7824   4
   2   3   5 338.295 9.64241   3
   2   3   5 341.123 23.5271   1
   2   3   5 355.249 11.6208   4
   2   3   5 326.391 9.98905   5
  -3  -3  -5 3.27135 2.93622   5
  -3  -3  -5 6.17101 1.71837   6
  -3  -3  -5 4.20979 1.48605   4
  -3  -3  -5 14.6365 10.8761   1
   3   3   5 5.46577 13.2931   1
   3   3   5 5.72439 2.00941   3
   3   3   5 5.20230 1.45049   5
   3   3   5 7.48942 3.13474   4
  -4  -3  -5 132.473 25.0167   1
  -4  -3  -5 117.578 4.71234   6
   4   3   5 113.212 6.38631   3
   4   3   5 120.474 21.7722   1
   4   3   5 109.623 5.39558   5
  -5  -3  -5 1.58212 1.19738   6
   5   3   5 4.27551 4.19851   3
   5   3   5 2.54682 2.03566   5
   6   3   5 4.90947 2.58742   5
   6   3   5 3.18533 5.73596   3
  11  -4  -5 121.115 6.90910   4
  11  -4  -5 122.708 5.37096   6
  11  -4  -5 124.766 7.76942   5
  11  -4  -5 117.420 6.15393   2
  10  -4  -5 48.6763 5.23940   5
  10  -4  -5 45.1861 3.99243   6
  10  -4  -5 46.1580 4.57820   4
  10  -4  -5 49.6016 3.78410   2
   9  -4  -5 237.923 9.88014   4
   9  -4  -5 244.261 8.73009   5
   9  -4  -5 221.420 12.2569   3
   9  -4  -5 237.244 7.61729   2
   9  -4  -5 232.450 8.51456   6
   8  -4  -5 29.0127 2.26946   2
   8  -4  -5 29.3795 3.51947   6
   8  -4  -5 33.5936 3.20584   5
   8  -4  -5 31.0726 4.37368   3
   8  -4  -5 29.9968 3.14557   4
   7  -4  -5 66.0974 4.36802   6
   7  -4  -5 65.9157 2.80532   2
   7  -4  -5 77.9545 3.64960   5
   7  -4  -5 69.4902 3.84745   4
   7  -4  -5 71.4170 5.57717   3
   6  -4  -5 3.42774 1.09650   5
   6  -4  -5 3.92029 2.00376   3
   6  -4  -5 6.54246 0.86780   2
   6  -4  -5 5.03601 1.36211   4
   6  -4  -5 4.21253 1.66316   6
   5  -4  -5 20.6796 2.81591   3
   5  -4  -5 14.6419 2.14736   6
   5  -4  -5 21.9696 1.22264   2
   5  -4  -5 17.4946 2.24190   4
  -5   4   5 21.5670 4.38552   1
  -5   4   5 18.7091 3.66381   1
   4  -4  -5 -4.4367 3.21585   1
   4  -4  -5 1.29753 0.95509   4
   4  -4  -5 0.28537 0.54412   2
   4  -4  -5 0.54053 0.56349   5
   4  -4  -5 -0.7341 1.14860   6
   4  -4  -5 1.07067 1.00546   3
  -4   4   5 0.04526 1.27666   4
  -4   4   5 6.10059 4.76794   1
   3  -4  -5 71.0234 2.46637   5
   3  -4  -5 62.9331 3.53308   4
   3  -4  -5 60.3364 3.88733   6
   3  -4  -5 56.5544 7.41677   1
  -3   4   5 77.2645 9.33133   1
  -3   4   5 74.1584 3.82131   4
  -3   4   5 68.4727 2.25686   2
   2  -4  -5 2.42859 1.23804   6
   2  -4  -5 2.52894 1.04348   4
   2  -4  -5 11.5580 5.18585   1
   2  -4  -5 3.75797 0.94518   5
  -2   4   5 4.29728 1.65264   4
  -2   4   5 10.2955 7.31452   1
  -2   4   5 4.17379 0.78988   2
   1  -4  -5 33.4528 7.09822   1
   1  -4  -5 30.4103 2.41027   5
   1  -4  -5 30.9307 2.66285   4
   1  -4  -5 23.8740 2.74331   6
  -1   4   5 35.1918 9.96743   1
  -1   4   5 30.6195 3.35134   4
  -1   4   5 27.9444 1.96763   2
  -1   4   5 28.4879 1.58308   5
   0  -4  -5 62.7592 3.67685   5
   0  -4  -5 49.9436 3.63718   6
   0  -4  -5 68.4224 9.70813   1
   0  -4  -5 56.9568 3.70348   4
   0   4   5 60.6433 4.51529   4
   0   4   5 59.8530 2.59262   5
   0   4   5 60.6944 3.16976   2
   0   4   5 69.6111 12.7285   1
  -1  -4  -5 82.4448 4.49260   6
  -1  -4  -5 88.5611 14.0410   1
  -1  -4  -5 96.8028 5.06096   5
  -1  -4  -5 82.5990 4.50141   4
   1   4   5 98.7906 5.85822   4
   1   4   5 89.4156 3.68208   5
  -2  -4  -5 21.1742 2.79118   4
  -2  -4  -5 16.6936 2.33397   6
  -2  -4  -5 15.7716 2.99449   5
   2   4   5 15.1869 1.78717   5
   2   4   5 17.2060 1.83921   3
   2   4   5 14.5542 14.8941   1
   2   4   5 13.1421 3.10799   4
  -3  -4  -5 18.0999 19.1800   1
  -3  -4  -5 5.18491 3.43031   5
  -3  -4  -5 8.16505 1.84538   6
   3   4   5 24.5060 17.4849   1
   3   4   5 8.73008 3.75237   4
   3   4   5 6.73986 2.22153   3
   3   4   5 5.42276 1.62410   5
  -4  -4  -5 28.2414 2.76306   6
   4   4   5 20.7094 4.36253   3
   4   4   5 25.7481 2.91480   5
   5   4   5 28.3307 3.40479   5
   5   4   5 24.0641 5.14395   3
   6   4   5 17.3653 3.46146   5
  11  -5  -5 15.7758 2.77653   6
  11  -5  -5 13.1719 3.30678   4
  11  -5  -5 20.1617 3.89924   5
  11  -5  -5 12.7549 3.09063   2
  10  -5  -5 8.25164 2.46905   6
  10  -5  -5 13.1384 2.62670   4
  10  -5  -5 5.16414 2.65585   5
  10  -5  -5 10.5699 2.07135   2
   9  -5  -5 25.1242 3.12852   6
   9  -5  -5 39.3583 10.8344   3
   9  -5  -5 24.0845 3.08404   5
   9  -5  -5 19.5169 2.41053   2
   9  -5  -5 27.8391 2.93910   4
   8  -5  -5 70.0122 4.14059   4
   8  -5  -5 63.6587 4.59986   6
   8  -5  -5 64.0264 2.90515   2
   8  -5  -5 67.9320 4.08843   5
   8  -5  -5 61.8600 6.91397   3
   7  -5  -5 54.6834 2.31291   2
   7  -5  -5 55.7021 5.07070   3
   7  -5  -5 57.0387 3.79827   4
   7  -5  -5 49.5126 4.16089   6
   6  -5  -5 117.622 5.34363   3
   6  -5  -5 117.466 3.44638   2
   6  -5  -5 106.494 5.59347   6
   6  -5  -5 114.433 5.05494   4
  -6   5   5 115.677 7.65339   1
  -6   5   5 108.357 5.60318   1
   5  -5  -5 70.9922 3.58466   3
   5  -5  -5 74.8755 3.97783   4
   5  -5  -5 69.9186 2.80602   5
   5  -5  -5 74.7198 2.32817   2
   5  -5  -5 65.2443 4.35932   6
  -5   5   5 70.9901 3.93767   4
  -5   5   5 66.2597 7.51208   1
   4  -5  -5 53.1833 2.35623   5
   4  -5  -5 53.9122 3.91161   6
   4  -5  -5 51.0600 3.38489   4
  -4   5   5 55.5727 3.75361   4
   3  -5  -5 11.5154 5.12324   1
   3  -5  -5 11.4026 1.98915   6
   3  -5  -5 18.5977 1.81337   5
   3  -5  -5 20.0355 2.49176   4
  -3   5   5 17.1255 2.36654   4
  -3   5   5 20.1136 8.24296   1
  -3   5   5 16.8549 1.02870   2
   2  -5  -5 77.5884 3.40618   5
   2  -5  -5 71.9160 4.07187   4
   2  -5  -5 67.7998 4.32071   6
  -2   5   5 77.5297 4.74769   4
  -2   5   5 81.0613 13.3876   1
  -2   5   5 76.8825 2.71461   2
   1  -5  -5 22.0203 2.94173   5
   1  -5  -5 21.6947 2.78228   4
   1  -5  -5 4.28635 7.28903   1
   1  -5  -5 22.6741 2.95701   6
  -1   5   5 25.8632 3.23360   4
  -1   5   5 22.8143 2.10429   2
  -1   5   5 23.9988 1.66756   5
  -1   5   5 15.7481 11.0046   1
   0  -5  -5 122.099 5.66928   6
   0  -5  -5 117.311 5.57778   4
   0  -5  -5 111.530 13.4015   1
   0  -5  -5 133.840 5.72083   5
   0   5   5 134.745 17.3375   1
   0   5   5 124.418 4.95893   2
   0   5   5 121.464 4.40970   5
   0   5   5 123.211 6.64587   4
  -1  -5  -5 -1.9480 10.0654   1
  -1  -5  -5 3.21013 1.79812   6
  -1  -5  -5 1.64290 2.42227   5
  -1  -5  -5 3.60092 1.49124   4
   1   5   5 3.03691 1.16263   5
   1   5   5 -7.8124 14.5307   1
   1   5   5 4.18175 3.08225   4
  -2  -5  -5 182.197 8.95878   5
  -2  -5  -5 186.968 7.30237   4
  -2  -5  -5 180.238 7.01865   6
   2   5   5 176.823 5.96711   3
   2   5   5 191.867 9.66648   4
   2   5   5 178.266 6.55708   5
  -3  -5  -5 -0.2951 4.32312   5
  -3  -5  -5 1.10126 1.84743   6
   3   5   5 0.14370 2.39292   3
   3   5   5 3.72020 1.79503   5
  -4  -5  -5 64.0546 3.80887   6
   4   5   5 61.4897 6.88300   3
   4   5   5 66.5817 4.91685   5
   5   5   5 -4.5507 2.65091   5
  11  -6  -5 37.8430 4.09239   2
  11  -6  -5 39.5248 4.52492   5
  11  -6  -5 46.4824 5.57322   4
  10  -6  -5 9.99226 3.06099   5
  10  -6  -5 11.2380 1.92681   2
  10  -6  -5 9.21939 2.51769   4
  10  -6  -5 5.28160 2.76662   6
   9  -6  -5 68.1226 5.05226   6
   9  -6  -5 58.5529 2.99214   2
   9  -6  -5 70.1519 9.50584   3
   9  -6  -5 57.7746 4.85236   5
   9  -6  -5 58.2797 4.51127   4
   8  -6  -5 65.2640 4.90990   6
   8  -6  -5 66.8077 4.29073   4
   8  -6  -5 68.7337 6.59939   3
   8  -6  -5 69.8658 2.65264   2
   8  -6  -5 61.5261 4.25953   5
   7  -6  -5 15.0436 2.90179   3
   7  -6  -5 10.7905 2.10930   4
   7  -6  -5 13.0072 2.56060   6
  -7   6   5 13.8126 1.74224   1
   6  -6  -5 3.82632 1.78783   3
   6  -6  -5 2.94636 1.26989   5
   6  -6  -5 6.43773 2.07262   6
   6  -6  -5 4.51108 1.61258   4
  -6   6   5 1.99618 6.00310   1
   5  -6  -5 114.625 5.88467   6
   5  -6  -5 115.583 5.26620   4
   5  -6  -5 121.199 4.14845   5
  -5   6   5 113.946 5.36178   4
  -5   6   5 105.030 9.73931   1
   4  -6  -5 57.3699 2.80122   5
   4  -6  -5 54.4755 4.17023   6
   4  -6  -5 54.6184 3.79044   4
  -4   6   5 74.4305 11.4998   1
  -4   6   5 52.7980 4.49037   4
   3  -6  -5 23.0832 2.50203   5
   3  -6  -5 16.4748 2.28624   4
   3  -6  -5 18.3847 2.57817   6
  -3   6   5 15.0776 10.4925   1
  -3   6   5 26.3911 3.17744   4
   2  -6  -5 13.2953 7.11686   1
   2  -6  -5 3.41867 1.61099   5
   2  -6  -5 4.93820 1.66235   4
   2  -6  -5 8.14961 2.08665   6
  -2   6   5 18.4669 12.1729   1
  -2   6   5 4.75807 2.49042   4
  -2   6   5 5.69246 0.94587   2
   1  -6  -5 34.3229 3.95683   5
   1  -6  -5 36.0203 9.56532   1
   1  -6  -5 35.4019 3.50676   4
   1  -6  -5 37.0317 3.69114   6
  -1   6   5 35.3753 2.27065   5
  -1   6   5 30.1650 3.62582   2
  -1   6   5 35.3637 14.9414   1
  -1   6   5 41.0629 5.35181   4
   0  -6  -5 -0.4092 1.86708   6
   0  -6  -5 1.29279 2.54303   5
   0  -6  -5 0.70462 1.59400   4
   0  -6  -5 -0.2161 9.67314   1
   0   6   5 -6.1771 3.14108   4
   0   6   5 0.02161 1.02889   5
   0   6   5 -24.186 15.1205   1
  -1  -6  -5 242.595 8.99049   4
  -1  -6  -5 249.033 10.1258   5
  -1  -6  -5 229.174 21.1592   1
  -1  -6  -5 236.242 8.84744   6
   1   6   5 299.222 32.4301   1
   1   6   5 244.973 11.0169   4
   1   6   5 234.609 7.95160   5
  -2  -6  -5 198.543 10.7662   5
  -2  -6  -5 190.783 7.45778   6
  -2  -6  -5 157.301 23.3965   1
   2   6   5 171.881 29.6605   1
  -3  -6  -5 2.36234 2.03733   6
   3   6   5 3.94514 2.10979   5
  11  -7  -5 61.5549 5.75674   6
  11  -7  -5 71.6600 7.51425   5
  10  -7  -5 9.74728 3.15237   5
  10  -7  -5 9.28026 3.01136   6
  10  -7  -5 9.99399 1.61284   2
  10  -7  -5 9.93610 2.74108   4
   9  -7  -5 9.20146 2.54422   4
   9  -7  -5 13.1606 2.92031   6
   9  -7  -5 7.72169 2.78052   5
   9  -7  -5 5.59746 4.62107   3
   8  -7  -5 3.11093 2.23389   6
   8  -7  -5 7.62070 3.17915   3
   8  -7  -5 2.70399 1.98636   4
   7  -7  -5 1.40460 1.70756   4
   7  -7  -5 1.34125 2.32737   5
  -7   7   5 -0.6812 3.38346   1
   6  -7  -5 115.067 4.55776   5
   6  -7  -5 105.879 5.42272   4
   6  -7  -5 104.477 6.11104   6
  -6   7   5 105.743 5.58643   4
  -6   7   5 114.673 9.73517   1
   5  -7  -5 158.802 6.69095   4
   5  -7  -5 170.162 5.65237   5
   5  -7  -5 159.886 7.29408   6
  -5   7   5 155.086 16.6181   1
  -5   7   5 157.980 7.79201   4
  -5   7   5 164.036 12.9977   1
   4  -7  -5 -1.9345 1.84864   6
   4  -7  -5 1.39040 1.46392   5
   4  -7  -5 3.14157 1.55338   4
  -4   7   5 1.10473 7.81110   1
  -4   7   5 0.33652 2.35859   4
  -4   7   5 4.89823 10.8140   1
   3  -7  -5 5.62875 1.82829   4
   3  -7  -5 5.79195 2.18831   6
  -3   7   5 7.13954 2.86737   4
  -3   7   5 3.55512 12.4770   1
   2  -7  -5 230.143 8.70525   4
   2  -7  -5 229.782 9.00447   6
   2  -7  -5 242.404 8.29220   5
  -2   7   5 242.556 26.1745   1
  -2   7   5 224.182 6.41210   2
  -2   7   5 226.826 10.7522   4
   1  -7  -5 21.0985 2.89359   4
   1  -7  -5 16.0693 2.83092   6
   1  -7  -5 19.2849 3.22557   5
  -1   7   5 15.1937 3.89750   4
  -1   7   5 41.2120 17.9930   1
  -1   7   5 19.4408 2.09141   2
   0  -7  -5 70.1622 5.00963   6
   0  -7  -5 83.9348 7.31631   5
   0  -7  -5 75.0089 4.87738   4
   0   7   5 75.9895 4.98048   2
   0   7   5 87.6044 28.3294   1
   0   7   5 75.9535 3.99200   5
  -1  -7  -5 92.7801 8.82498   5
  -1  -7  -5 85.9573 5.34062   6
   1   7   5 80.9486 6.61896   2
   1   7   5 62.0355 25.9291   1
  -2  -7  -5 40.4524 4.40957   6
   2   7   5 37.0608 4.10457   5
  -3  -7  -5 7.73997 2.59245   6
   3   7   5 3.68388 2.59029   5
  10  -8  -5 11.5514 3.30729   6
  10  -8  -5 11.7579 2.98634   4
   9  -8  -5 15.6749 3.29617   6
   9  -8  -5 7.71824 2.67781   4
   8  -8  -5 25.7825 3.61079   6
   8  -8  -5 29.8972 3.26101   4
   8  -8  -5 34.4031 3.27533   5
   7  -8  -5 94.4841 5.08934   5
   7  -8  -5 94.1779 5.34042   4
   7  -8  -5 102.321 6.24498   6
   6  -8  -5 118.963 6.64759   6
   6  -8  -5 118.967 5.99717   4
   6  -8  -5 125.580 5.35451   5
  -6   8   5 130.037 6.79351   4
   5  -8  -5 -1.8326 1.83530   5
   5  -8  -5 0.41075 1.88379   4
   5  -8  -5 1.88749 2.09665   6
  -5   8   5 2.78192 3.03520   4
   4  -8  -5 19.8188 3.04687   6
   4  -8  -5 19.3868 2.84153   4
   4  -8  -5 25.3869 2.81415   5
  -4   8   5 24.6663 6.27364   4
   3  -8  -5 38.7315 4.72070   5
   3  -8  -5 48.7358 4.55520   6
   3  -8  -5 33.3386 4.03597   4
  -3   8   5 55.4063 6.90463   4
   2  -8  -5 291.336 10.3467   5
   2  -8  -5 290.077 10.2625   4
   2  -8  -5 267.224 10.3588   6
  -2   8   5 270.429 7.48006   2
  -2   8   5 274.772 7.40061   2
   1  -8  -5 1.32393 2.16183   4
   1  -8  -5 3.14886 3.87248   5
   1  -8  -5 -1.5623 2.16883   6
  -1   8   5 1.65429 2.01280   2
   0  -8  -5 66.3698 5.25406   6
   0  -8  -5 86.7491 9.08765   5
   0   8   5 81.3075 4.55146   5
   0   8   5 80.2882 5.75377   2
  -1  -8  -5 46.7079 4.99882   6
   1   8   5 43.0380 4.34378   5
   1   8   5 40.9554 5.49907   2
  -2  -8  -5 15.9279 3.08870   6
   2   8   5 19.4121 3.43139   5
  10  -9  -5 82.3204 6.62725   6
   9  -9  -5 40.3134 5.41970   4
   9  -9  -5 47.6787 5.61052   6
   8  -9  -5 64.3900 5.99588   5
   8  -9  -5 66.8298 5.35549   4
   8  -9  -5 66.1957 5.82542   6
   7  -9  -5 165.635 8.17150   6
   7  -9  -5 177.426 7.20985   5
   7  -9  -5 160.445 7.33655   4
  -7   9   5 162.088 8.18931   4
   6  -9  -5 19.3576 3.37879   6
   6  -9  -5 30.0537 3.36645   5
   6  -9  -5 24.7944 3.30614   4
  -6   9   5 25.9575 4.65738   4
   5  -9  -5 34.2351 4.76432   6
   5  -9  -5 36.4286 4.50839   4
   5  -9  -5 40.8161 4.90689   5
  -5   9   5 44.0623 5.43691   4
   4  -9  -5 103.188 5.99043   4
   4  -9  -5 114.920 7.00256   5
   4  -9  -5 102.965 6.44357   6
   3  -9  -5 3.55962 2.20363   4
   3  -9  -5 2.98180 3.45040   5
   3  -9  -5 4.31238 2.38879   6
   2  -9  -5 70.1002 6.83269   5
   2  -9  -5 68.5871 5.19205   4
   2  -9  -5 57.6338 5.33397   6
   1  -9  -5 1.03591 2.58948   6
   1  -9  -5 18.2944 5.86488   5
   0  -9  -5 12.0682 3.10338   6
   0   9   5 4.56438 2.08860   2
   9 -10  -5 15.8938 3.84804   4
   9 -10  -5 23.1515 4.02483   6
   8 -10  -5 2.31850 2.96883   6
   7 -10  -5 8.27186 2.87644   4
   7 -10  -5 1.56772 2.95018   6
   7 -10  -5 4.88025 3.83656   5
  -7  10   5 2.14116 4.45178   4
   6 -10  -5 12.1068 2.82487   4
   6 -10  -5 6.41479 3.15410   6
   6 -10  -5 14.0689 3.75821   5
   5 -10  -5 3.22767 2.56968   4
   5 -10  -5 4.42441 3.76000   5
   5 -10  -5 -1.0361 2.88601   6
   4 -10  -5 -1.6745 2.91043   6
   4 -10  -5 4.78319 2.71051   4
   3 -10  -5 -0.6533 4.83454   5
   3 -10  -5 11.5024 2.91718   6
   3 -10  -5 1.93381 2.67551   4
   2 -10  -5 17.3453 3.66403   6
   1 -10  -5 12.4348 3.37627   6
   7 -11  -5 119.699 8.33104   6
   7 -11  -5 130.319 7.40564   4
   6 -11  -5 11.6309 4.06505   6
   6 -11  -5 18.5697 3.49304   4
   5 -11  -5 47.2879 6.44363   6
   5 -11  -5 38.2798 4.30672   4
   4 -11  -5 24.8323 4.59878   6
  -1  13  -6 12.9425 3.16381   2
   1 -13   6 7.94441 2.27753   6
  -2  13  -6 8.77314 2.91896   2
   2 -13   6 4.55820 2.08561   6
  -3  13  -6 45.0621 4.16035   2
   3 -13   6 42.3632 3.72427   6
  -4  13  -6 2.81249 4.15351   3
   4 -13   6 -0.5012 1.87321   6
  -5  13  -6 58.9495 8.29992   3
   5 -13   6 60.5932 4.29674   6
  -6  13  -6 9.95035 5.40111   3
   1  12  -6 5.18552 2.59227   2
   0  12  -6 5.73661 2.29296   2
   0 -12   6 2.09420 1.68619   6
  -1  12  -6 2.52068 2.10030   2
   1 -12   6 2.41100 1.53698   6
  -2  12  -6 24.6891 2.99230   2
  -2  12  -6 19.3714 5.43081   4
   2 -12   6 19.5045 2.70888   6
  -3  12  -6 2.25957 2.12790   2
  -3  12  -6 9.24150 4.90752   4
   3 -12   6 1.50469 1.47282   6
   3 -12   6 -1.2198 3.44462   2
  -4  12  -6 41.5601 5.14095   3
  -4  12  -6 53.3861 5.62765   4
   4 -12   6 46.2514 4.34673   2
   4 -12   6 36.0067 3.13355   6
  -5  12  -6 46.7184 6.79667   3
   5 -12   6 42.5776 4.30689   2
   5 -12   6 53.9059 3.52368   6
  -6  12  -6 67.2909 7.85040   3
   6 -12   6 65.0056 3.91815   6
  -7  12  -6 21.1607 5.75966   3
   7 -12   6 15.9216 2.31561   6
   2  11  -6 51.8136 4.59076   2
   1  11  -6 0.44874 2.07039   2
  -1 -11   6 -0.1829 1.39944   6
   0  11  -6 66.4580 4.72725   2
   0 -11   6 70.3997 3.59561   6
  -1  11  -6 11.9962 2.13217   2
  -1  11  -6 12.2919 4.12933   4
   1 -11   6 12.2700 1.79052   6
  -2  11  -6 95.9687 6.86202   4
  -2  11  -6 84.7989 4.59344   2
   2 -11   6 85.6341 5.95315   2
   2 -11   6 85.5240 3.89611   6
  -3  11  -6 89.8539 6.27333   4
  -3  11  -6 82.0988 4.69521   2
   3 -11   6 90.2922 4.02645   6
   3 -11   6 88.5467 5.59240   2
  -4  11  -6 121.559 7.34431   3
   4 -11   6 130.564 4.99079   6
   4 -11   6 123.912 6.13300   2
  -5  11  -6 16.6199 3.43641   3
   5 -11   6 21.6318 2.48736   6
   5 -11   6 22.6820 3.24027   2
  -6  11  -6 -1.6722 2.90488   3
   6 -11   6 1.77857 1.38679   6
   6 -11   6 -0.0108 3.04982   2
  -7  11  -6 165.399 10.6832   3
   7 -11   6 166.058 6.20732   6
   7 -11   6 190.889 8.39437   2
  -8  11  -6 69.2082 10.1487   3
   4  10  -6 -2.4376 2.50198   2
   3  10  -6 73.8102 4.97908   2
   2  10  -6 1.31739 1.83953   2
   1  10  -6 -0.0769 7.43502   1
   1  10  -6 29.7275 7.32017   6
   1  10  -6 14.5421 2.72755   2
  -1 -10   6 19.7007 2.25962   6
   0  10  -6 8.41194 3.51863   4
   0  10  -6 4.71312 3.22636   6
   0  10  -6 5.77525 1.75368   2
   0  10  -6 3.97515 7.29920   1
   0 -10   6 -3.0996 14.9283   1
  -1  10  -6 25.1838 7.36528   1
  -1  10  -6 26.6875 2.75478   2
  -1  10  -6 22.5285 3.18627   4
  -1  10  -6 20.6378 3.91208   6
   1 -10   6 24.4315 3.17330   2
   1 -10   6 32.3278 14.5671   1
   1 -10   6 21.5968 2.13718   6
   1 -10   6 19.9447 3.21361   5
  -2  10  -6 42.5128 3.19483   2
  -2  10  -6 49.5860 5.72120   6
  -2  10  -6 41.6343 4.35464   4
  -2  10  -6 57.5632 8.35586   1
   2 -10   6 38.8209 2.50490   6
   2 -10   6 38.0000 4.14013   2
   2 -10   6 28.2624 3.27410   5
  -3  10  -6 115.253 6.88417   6
  -3  10  -6 98.8472 5.48479   4
  -3  10  -6 97.1029 4.73649   2
   3 -10   6 99.0671 4.01645   6
   3 -10   6 105.535 5.14681   2
   3 -10   6 96.6385 5.98097   5
  -4  10  -6 1.74544 3.67751   6
  -4  10  -6 3.60895 2.08678   4
  -4  10  -6 4.90959 2.27246   3
   4 -10   6 1.85074 2.11635   2
   4 -10   6 3.17896 1.13429   6
  -5  10  -6 5.92182 1.33685   4
  -5  10  -6 6.43428 2.52413   3
   5 -10   6 3.91223 1.27507   6
   5 -10   6 2.45249 2.36167   2
  -6  10  -6 79.9526 7.03845   3
   6 -10   6 82.6451 3.80900   6
   6 -10   6 92.3938 5.61685   2
  -7  10  -6 82.7957 8.04331   3
   7 -10   6 80.1663 3.94989   6
   7 -10   6 80.6731 6.24787   2
  -8  10  -6 8.62949 4.46694   3
   5   9  -6 1.63198 2.68084   5
   5   9  -6 0.32874 2.49367   2
   4   9  -6 28.5042 3.16239   5
   4   9  -6 36.8829 5.48407   6
   4   9  -6 23.4727 2.84870   2
   3   9  -6 13.6308 4.17722   6
   3   9  -6 11.8971 2.23540   2
   2   9  -6 -5.6416 6.90062   1
   2   9  -6 1.25300 1.68170   2
   1   9  -6 83.6639 10.3488   1
   1   9  -6 82.5093 4.17836   2
   1   9  -6 90.5983 7.34145   6
  -1  -9   6 94.2032 16.4750   1
  -1  -9   6 85.5213 5.96232   5
   0   9  -6 32.5532 4.52527   6
   0   9  -6 29.7100 2.71838   2
   0   9  -6 35.1690 6.72792   1
   0  -9   6 30.8967 2.15501   6
   0  -9   6 33.3312 12.2120   1
   0  -9   6 32.1794 4.06708   2
  -1   9  -6 36.5088 2.75029   2
  -1   9  -6 40.0707 4.51074   6
   1  -9   6 36.7219 3.67908   2
   1  -9   6 38.6254 2.28661   6
   1  -9   6 40.0149 11.0852   1
   1  -9   6 37.1724 4.09875   5
  -2   9  -6 75.5350 9.31932   1
  -2   9  -6 82.3671 5.32870   6
  -2   9  -6 74.9314 3.84000   2
   2  -9   6 81.9305 4.31716   2
   2  -9   6 87.8274 12.0920   1
   2  -9   6 89.2450 4.95334   5
   2  -9   6 78.6685 3.35947   6
  -3   9  -6 17.5111 3.75756   6
  -3   9  -6 14.2064 5.98322   1
  -3   9  -6 16.4015 2.02725   2
   3  -9   6 22.7569 2.87748   5
   3  -9   6 24.1110 9.67901   1
   3  -9   6 15.8462 2.23151   2
   3  -9   6 17.1474 1.78657   6
  -4   9  -6 14.8988 1.80790   4
  -4   9  -6 8.04925 6.66492   1
  -4   9  -6 9.27967 2.93016   3
  -4   9  -6 10.9558 1.23608   4
   4  -9   6 14.8559 1.75683   6
   4  -9   6 17.6870 9.16662   1
   4  -9   6 13.4390 2.28088   2
  -5   9  -6 3.56640 2.44701   3
  -5   9  -6 -1.4216 3.15952   6
   5  -9   6 2.21378 1.24189   6
   5  -9   6 5.34119 2.10139   2
  -6   9  -6 73.0139 6.24144   3
  -6   9  -6 72.1695 6.89061   6
   6  -9   6 65.9404 5.04697   2
   6  -9   6 64.4920 4.05639   6
  -7   9  -6 1.39666 4.47557   6
  -7   9  -6 0.90183 3.15316   3
   7  -9   6 0.29951 2.99544   2
  -8   9  -6 8.86287 4.08779   3
  -8   9  -6 -4.4977 6.51505   6
  -9   9  -6 10.2489 5.78601   3
   6   8  -6 9.55376 3.16676   5
   6   8  -6 9.14993 2.98739   2
   5   8  -6 139.748 6.67375   5
   5   8  -6 138.209 6.46088   2
   5   8  -6 145.171 8.78916   6
   4   8  -6 -0.0064 1.72207   5
   4   8  -6 -0.1949 1.50194   2
   4   8  -6 4.17023 3.18301   6
   3   8  -6 130.738 5.72269   2
   3   8  -6 147.958 6.76431   6
   3   8  -6 141.770 5.89880   5
   3   8  -6 140.565 12.1846   1
  -3  -8   6 138.083 7.98602   5
   2   8  -6 42.4454 4.17446   6
   2   8  -6 44.2906 3.07479   2
   2   8  -6 48.9741 7.06105   1
  -2  -8   6 55.1109 5.25776   5
   1   8  -6 611.044 16.8175   6
   1   8  -6 577.159 16.3347   2
   1   8  -6 559.383 21.2814   1
  -1  -8   6 612.612 16.8607   2
  -1  -8   6 595.624 16.8495   5
  -1  -8   6 556.195 27.3691   1
   0   8  -6 7.77306 1.40783   2
   0   8  -6 7.54592 4.78684   1
   0   8  -6 9.25957 1.95865   6
   0  -8   6 6.24023 8.66552   1
   0  -8   6 8.36777 1.97359   2
   0  -8   6 7.70581 2.11302   5
   0  -8   6 11.2528 1.50599   6
  -1   8  -6 341.987 10.7599   6
  -1   8  -6 339.980 10.2726   2
  -1   8  -6 404.042 15.4474   1
   1  -8   6 341.155 10.6678   5
   1  -8   6 350.887 10.3845   2
   1  -8   6 339.341 18.1210   1
   1  -8   6 340.089 9.78909   6
  -2   8  -6 162.776 10.4291   1
  -2   8  -6 159.903 6.29474   6
  -2   8  -6 157.637 5.71386   2
   2  -8   6 164.505 5.76215   2
   2  -8   6 156.145 6.13033   5
   2  -8   6 155.072 5.14938   6
   2  -8   6 164.076 13.6018   1
  -3   8  -6 86.0399 4.73536   6
  -3   8  -6 78.9159 9.14399   1
  -3   8  -6 83.9435 4.14180   2
   3  -8   6 93.9085 11.7404   1
   3  -8   6 85.4640 3.38215   6
   3  -8   6 98.0275 4.33501   2
  -4   8  -6 229.387 14.4185   1
  -4   8  -6 236.273 6.64317   4
  -4   8  -6 225.498 8.97729   3
  -4   8  -6 233.399 8.30875   6
   4  -8   6 237.257 7.69240   2
   4  -8   6 228.848 6.96396   6
   4  -8   6 221.882 14.4706   1
  -5   8  -6 26.5190 3.30804   6
  -5   8  -6 19.1047 3.26236   3
  -5   8  -6 37.9897 8.58297   1
   5  -8   6 26.6765 1.99297   6
   5  -8   6 24.9292 7.95417   1
   5  -8   6 30.0943 3.49513   2
  -6   8  -6 21.5738 3.94051   3
  -6   8  -6 24.6393 3.78508   6
   6  -8   6 24.4713 3.01347   2
  -7   8  -6 0.25031 3.59500   6
  -7   8  -6 0.43109 2.77518   3
   7  -8   6 -2.2322 2.80046   2
  -8   8  -6 5.89006 3.62173   3
  -9   8  -6 1.23776 4.75585   3
   7   7  -6 79.5049 6.24167   5
   7   7  -6 88.2341 6.42333   2
   6   7  -6 2.69693 3.87306   6
   6   7  -6 2.51252 2.44370   5
   6   7  -6 -0.1661 2.21292   2
   5   7  -6 96.2174 6.06912   6
   5   7  -6 100.051 5.20511   5
   5   7  -6 105.501 5.21052   2
   4   7  -6 -2.2382 5.52547   1
   4   7  -6 4.26846 2.24230   6
   4   7  -6 3.98508 1.43552   2
  -4  -7   6 2.72149 3.46142   5
   3   7  -6 56.3619 8.03323   1
   3   7  -6 60.9105 4.04741   6
   3   7  -6 54.8568 3.36315   2
   3   7  -6 54.4415 3.36350   5
  -3  -7   6 62.7790 5.29869   5
   2   7  -6 312.807 9.73805   2
   2   7  -6 330.077 9.80276   6
   2   7  -6 325.729 14.2456   1
  -2  -7   6 313.581 10.2434   5
  -2  -7   6 310.165 19.5209   1
   1   7  -6 135.184 5.15102   2
   1   7  -6 144.123 9.31236   1
   1   7  -6 140.926 5.34941   6
  -1  -7   6 142.383 5.68039   5
  -1  -7   6 148.346 5.72050   2
  -1  -7   6 130.947 13.6197   1
   0   7  -6 436.806 16.6052   1
   0   7  -6 454.656 12.9812   6
   0   7  -6 422.949 12.3388   2
   0  -7   6 419.985 26.0084   1
   0  -7   6 436.420 12.5308   5
   0  -7   6 442.477 12.4809   2
  -1   7  -6 5.87498 1.34164   6
  -1   7  -6 7.57165 3.94366   1
  -1   7  -6 3.94248 1.05418   2
   1  -7   6 7.58991 1.55188   2
   1  -7   6 8.93390 5.67121   1
   1  -7   6 4.28049 1.37384   5
   1  -7   6 5.60088 0.91295   6
  -2   7  -6 90.1870 4.02451   6
  -2   7  -6 95.3251 8.20460   1
  -2   7  -6 84.9468 3.86322   2
   2  -7   6 96.3125 9.52699   1
   2  -7   6 85.0067 3.31393   6
   2  -7   6 94.6216 4.13437   2
  -3   7  -6 466.224 12.9440   6
  -3   7  -6 443.948 18.4355   1
  -3   7  -6 448.470 12.0972   4
  -3   7  -6 440.512 13.0763   2
   3  -7   6 453.639 18.2566   1
   3  -7   6 436.247 12.2385   6
   3  -7   6 472.720 12.8123   2
  -4   7  -6 69.2942 2.71568   4
  -4   7  -6 68.8068 3.95390   6
  -4   7  -6 66.9276 4.69312   3
  -4   7  -6 89.3370 9.71909   1
   4  -7   6 72.7374 9.85410   1
   4  -7   6 72.9586 3.90304   2
  -5   7  -6 362.568 13.8904   3
  -5   7  -6 361.579 19.6415   1
  -5   7  -6 370.516 11.3624   6
   5  -7   6 385.505 16.9371   1
   5  -7   6 371.891 11.2464   2
  -6   7  -6 76.2792 6.12875   3
  -6   7  -6 78.6893 5.07582   6
   6  -7   6 72.2588 4.91704   2
  -7   7  -6 81.9407 6.16387   6
  -7   7  -6 82.8798 7.06929   3
   7  -7   6 71.8289 6.16898   2
  -8   7  -6 7.03510 4.07043   3
  -8   7  -6 3.90156 4.20434   6
  -9   7  -6 120.398 10.3664   3
   9  -7   6 122.228 9.05937   5
   7   6  -6 19.1973 2.95463   2
   7   6  -6 14.2266 2.73356   5
   6   6  -6 277.156 9.40144   6
   6   6  -6 276.907 9.72361   2
   6   6  -6 292.961 9.77856   5
   5   6  -6 2.49126 1.45219   2
   5   6  -6 3.83140 2.37883   5
   5   6  -6 7.93294 2.11017   6
  -5  -6   6 13.3242 3.98870   5
   4   6  -6 415.376 11.6757   6
   4   6  -6 394.969 16.7505   1
   4   6  -6 397.051 12.1033   2
   4   6  -6 412.060 12.0722   5
  -4  -6   6 416.048 13.2842   5
   3   6  -6 12.7846 4.08256   1
   3   6  -6 12.7977 1.66495   6
   3   6  -6 11.9583 1.65429   2
   3   6  -6 11.8280 1.56531   5
  -3  -6   6 14.4943 2.41142   5
  -3  -6   6 26.1952 8.84521   1
   2   6  -6 153.773 5.58852   2
   2   6  -6 162.659 9.23249   1
   2   6  -6 156.960 5.34380   6
  -2  -6   6 159.316 6.00338   5
  -2  -6   6 159.857 6.13370   2
  -2  -6   6 180.904 13.1116   1
   1   6  -6 1502.04 38.5933   2
   1   6  -6 1537.11 38.2102   6
   1   6  -6 1462.12 44.7147   1
  -1  -6   6 1514.45 38.6275   2
  -1  -6   6 1536.27 38.5678   5
  -1  -6   6 1518.08 44.3043   1
   0   6  -6 963.515 25.4065   2
   0   6  -6 944.607 29.1281   1
   0   6  -6 957.040 25.0152   6
   0  -6   6 1008.20 30.6329   1
   0  -6   6 989.071 25.3216   5
   0  -6   6 980.253 25.3223   2
  -1   6  -6 742.893 19.4194   6
  -1   6  -6 745.473 24.0624   1
  -1   6  -6 744.563 19.8135   2
   1  -6   6 738.397 19.6250   5
   1  -6   6 747.231 19.6688   2
   1  -6   6 740.515 24.1671   1
  -2   6  -6 592.513 20.2537   1
  -2   6  -6 569.478 15.1400   6
  -2   6  -6 537.570 15.4949   2
   2  -6   6 554.069 15.2782   2
   2  -6   6 566.943 19.8272   1
  -3   6  -6 120.534 10.1036   1
  -3   6  -6 134.056 4.40124   4
  -3   6  -6 140.272 5.86034   3
  -3   6  -6 134.349 4.79489   6
   3  -6   6 126.284 9.19471   1
   3  -6   6 139.947 5.07208   2
  -4   6  -6 43.4808 2.16801   4
  -4   6  -6 53.1208 3.09791   6
  -4   6  -6 54.1197 8.46164   1
  -4   6  -6 44.2916 3.76517   3
   4  -6   6 42.4347 6.57930   1
   4  -6   6 43.5469 3.30676   2
  -5   6  -6 251.806 9.84991   3
  -5   6  -6 234.326 16.7615   1
  -5   6  -6 248.395 8.00395   6
   5  -6   6 242.677 8.36131   2
   5  -6   6 253.941 13.3576   1
  -6   6  -6 11.7798 2.19503   6
  -6   6  -6 4.82965 2.70271   3
   6  -6   6 4.75336 7.72575   1
   6  -6   6 6.49568 2.67714   2
  -7   6  -6 562.896 19.6761   3
  -7   6  -6 610.443 17.0242   6
   7  -6   6 595.854 17.5977   2
  -8   6  -6 28.6834 4.34521   6
  -8   6  -6 21.5762 5.02061   3
   8  -6   6 20.9300 3.90642   5
  -9   6  -6 296.084 14.5512   3
   9  -6   6 276.711 12.7437   5
   8   5  -6 54.2967 5.07158   5
   8   5  -6 39.1902 4.94881   2
   7   5  -6 45.7675 4.16627   2
   7   5  -6 55.0371 4.48906   6
   7   5  -6 49.3490 4.25185   5
   6   5  -6 9.40054 2.05589   2
   6   5  -6 16.7203 2.30547   6
   6   5  -6 10.7448 2.29304   5
  -6  -5   6 4.21120 4.13132   5
   5   5  -6 21.3975 8.04822   1
   5   5  -6 16.0302 1.87162   6
   5   5  -6 13.1505 4.57219   1
   5   5  -6 16.3450 1.90889   5
   5   5  -6 13.2644 1.83103   2
  -5  -5   6 15.2788 3.35736   5
   4   5  -6 163.545 9.06684   1
   4   5  -6 176.997 6.06954   5
   4   5  -6 173.377 6.23703   2
   4   5  -6 178.630 5.57075   6
  -4  -5   6 186.355 15.5480   1
  -4  -5   6 181.710 7.15004   5
   3   5  -6 0.81674 0.76607   5
   3   5  -6 0.38239 0.73909   2
   3   5  -6 3.18656 2.99585   1
   3   5  -6 0.95381 0.89602   6
  -3  -5   6 3.34802 5.84213   1
  -3  -5   6 0.78360 1.69625   5
   2   5  -6 202.937 5.87406   6
   2   5  -6 196.533 9.44753   1
   2   5  -6 199.101 6.37514   2
  -2  -5   6 178.598 11.2438   1
  -2  -5   6 195.033 6.59452   2
  -2  -5   6 189.244 6.93323   5
   1   5  -6 392.765 11.4378   2
   1   5  -6 410.456 10.9437   6
   1   5  -6 401.909 14.5160   1
  -1  -5   6 418.900 11.2829   5
  -1  -5   6 403.497 11.4554   2
   0   5  -6 81.8995 3.31686   2
   0   5  -6 77.0284 6.40924   1
   0   5  -6 86.7684 3.08316   6
   0  -5   6 72.7395 3.73150   2
   0  -5   6 79.6021 3.27265   5
   0  -5   6 84.6146 7.25595   1
  -1   5  -6 40.0746 2.32654   2
  -1   5  -6 44.5445 2.15959   6
  -1   5  -6 42.2394 5.33130   1
   1  -5   6 46.5869 5.64035   1
  -2   5  -6 27.3904 1.84300   6
  -2   5  -6 30.4196 5.45973   1
  -2   5  -6 25.6803 2.09616   2
  -2   5  -6 25.9750 1.71470   4
   2  -5   6 23.6838 4.84674   1
   2  -5   6 26.0833 2.23539   2
  -3   5  -6 12.4296 5.26075   1
  -3   5  -6 6.10375 1.55050   3
  -3   5  -6 11.5063 1.59371   6
  -3   5  -6 7.22321 1.04685   4
   3  -5   6 7.72404 1.57754   2
   3  -5   6 7.42140 4.37131   1
  -4   5  -6 80.0704 3.07680   4
  -4   5  -6 84.2016 3.47324   6
  -4   5  -6 89.0878 11.3271   1
  -4   5  -6 82.6592 4.83266   3
   4  -5   6 89.3142 8.47590   1
   4  -5   6 81.4442 4.24444   2
  -5   5  -6 8.82533 1.23355   4
  -5   5  -6 19.4789 8.54194   1
  -5   5  -6 10.2352 2.41394   3
  -5   5  -6 10.9142 1.62311   6
   5  -5   6 8.54167 5.98892   1
   5  -5   6 14.1270 2.37740   2
  -6   5  -6 153.384 7.15542   6
  -6   5  -6 138.586 7.70578   3
   6  -5   6 156.657 7.04377   2
   6  -5   6 132.603 12.7505   1
  -7   5  -6 21.3285 4.14506   3
  -7   5  -6 28.3580 3.94774   6
   7  -5   6 19.6832 3.12637   5
   7  -5   6 28.0441 4.32438   2
  -8   5  -6 6.71356 3.73351   3
   8  -5   6 -2.3345 2.99031   5
  -9   5  -6 4.33819 4.65131   3
   9  -5   6 4.00197 4.18263   5
   9   4  -6 29.2694 3.67448   5
   9   4  -6 41.5995 5.46656   2
   8   4  -6 82.7636 5.25341   5
   8   4  -6 86.4410 5.28640   2
   7   4  -6 11.1465 2.47975   5
   7   4  -6 12.4798 2.04737   6
   7   4  -6 8.53888 2.06460   2
  -7  -4   6 5.69357 4.29990   5
   6   4  -6 89.5423 11.5905   1
   6   4  -6 92.0278 5.78652   2
   6   4  -6 108.880 4.33493   6
   6   4  -6 99.3392 4.53122   5
  -6  -4   6 103.816 7.07048   5
   5   4  -6 99.3899 11.4239   1
   5   4  -6 97.0980 4.14371   5
   5   4  -6 96.3825 4.28666   2
   5   4  -6 104.353 7.33722   1
  -5  -4   6 100.213 5.71462   5
   4   4  -6 373.394 13.5932   1
   4   4  -6 365.095 10.5008   5
   4   4  -6 365.097 10.8346   2
  -4  -4   6 379.111 11.2733   5
  -4  -4   6 363.078 16.9975   1
   3   4  -6 112.898 4.09170   6
   3   4  -6 113.361 3.99231   5
   3   4  -6 107.007 4.18009   2
   3   4  -6 119.020 6.81569   1
  -3  -4   6 109.901 8.94799   1
  -3  -4   6 112.040 4.73312   2
  -3  -4   6 112.052 4.48179   5
   2   4  -6 250.256 7.83224   2
   2   4  -6 272.115 7.48128   6
  -2  -4   6 274.998 11.8416   1
  -2  -4   6 266.858 7.75686   5
  -2  -4   6 264.342 8.05261   2
   1   4  -6 206.204 5.71163   6
   1   4  -6 191.101 6.09573   2
   1   4  -6 184.800 8.85863   1
  -1  -4   6 200.803 5.90310   5
  -1  -4   6 188.397 6.65538   2
  -1  -4   6 201.793 9.37647   1
   0   4  -6 52.3811 5.42225   1
   0   4  -6 48.9152 2.42446   2
   0   4  -6 51.3792 2.14900   6
   0  -4   6 56.7708 2.68303   2
   0  -4   6 48.3734 2.28282   5
   0  -4   6 53.1595 5.59255   1
  -1   4  -6 233.574 6.32923   6
  -1   4  -6 220.004 10.9716   1
  -1   4  -6 211.208 6.54122   4
  -1   4  -6 219.553 6.91197   2
   1  -4   6 217.310 6.71889   2
   1  -4   6 220.958 10.0027   1
  -2   4  -6 36.7826 6.12375   1
  -2   4  -6 31.9546 2.27503   2
  -2   4  -6 31.3854 1.93784   4
  -2   4  -6 33.0978 1.81172   6
   2  -4   6 27.3477 4.85459   1
   2  -4   6 35.7949 2.38911   2
  -3   4  -6 71.1966 3.17631   6
  -3   4  -6 74.7243 9.38580   1
  -3   4  -6 77.1532 3.13532   4
  -3   4  -6 78.5091 4.11320   3
   3  -4   6 72.6560 7.88484   1
   3  -4   6 77.8240 3.71463   2
  -4   4  -6 -0.8378 1.23370   3
  -4   4  -6 0.68576 6.58863   1
  -4   4  -6 -0.8115 0.75643   4
   4  -4   6 0.92400 5.07668   1
   4  -4   6 0.31506 2.32228   2
  -5   4  -6 207.582 8.92085   3
  -5   4  -6 219.350 6.31879   4
   5  -4   6 214.425 7.81436   2
   5  -4   6 210.061 13.8634   1
  -6   4  -6 105.605 6.73646   3
  -6   4  -6 109.621 4.95553   6
   6  -4   6 107.840 13.9633   1
   6  -4   6 102.708 5.85223   5
  -7   4  -6 3.28176 2.11528   6
  -7   4  -6 3.40369 3.02659   3
   7  -4   6 6.36561 2.76102   5
   8  -4   6 -5.5558 3.08567   5
  -9   4  -6 1.62541 4.56509   3
   9  -4   6 1.87150 4.08176   5
   9   3  -6 142.727 7.11232   2
   9   3  -6 146.101 7.04721   5
   8   3  -6 3.12138 2.05076   2
   8   3  -6 1.74075 1.93780   5
   8   3  -6 3.60881 1.94686   6
  -8  -3   6 -3.9974 4.35793   5
   7   3  -6 84.6460 4.46889   2
   7   3  -6 78.6584 4.24972   5
   7   3  -6 86.6690 3.33181   6
   7   3  -6 94.2646 9.05906   3
  -7  -3   6 69.3015 7.29620   5
   6   3  -6 17.9194 2.24743   5
   6   3  -6 23.1905 6.68594   1
   6   3  -6 13.6612 3.52646   1
   6   3  -6 12.4553 1.72373   2
   6   3  -6 17.1039 1.74823   6
  -6  -3   6 21.8240 3.22297   5
   5   3  -6 203.842 5.77970   6
   5   3  -6 192.949 6.30178   5
   5   3  -6 197.672 6.67083   2
   5   3  -6 205.635 8.93055   1
  -5  -3   6 195.376 7.34617   5
   4   3  -6 18.6393 1.48463   6
   4   3  -6 18.0043 1.68776   2
   4   3  -6 20.7795 3.21287   1
   4   3  -6 18.4421 1.55945   5
  -4  -3   6 18.6265 4.88538   1
  -4  -3   6 18.3614 2.08611   5
   3   3  -6 282.863 8.06153   5
   3   3  -6 309.839 11.0545   1
   3   3  -6 286.141 8.53694   2
   3   3  -6 293.118 7.90930   6
  -3  -3   6 281.688 8.67855   2
  -3  -3   6 292.399 11.9771   1
  -3  -3   6 281.408 9.56642   5
   2   3  -6 45.6751 4.69141   1
   2   3  -6 48.6009 2.08735   6
   2   3  -6 56.7783 2.44849   2
  -2  -3   6 44.4505 2.19045   5
  -2  -3   6 48.6320 2.60008   2
   1   3  -6 303.913 12.3239   1
   1   3  -6 306.402 9.06169   2
   1   3  -6 336.902 8.72270   6
  -1  -3   6 315.003 9.04655   2
  -1  -3   6 321.018 8.61779   5
  -1  -3   6 331.388 11.8579   1
   0   3  -6 8.09657 1.08327   6
   0   3  -6 9.73171 3.26144   1
   0   3  -6 8.59295 1.09831   4
   0   3  -6 4.89629 0.85550   2
   0  -3   6 7.56944 1.29535   2
   0  -3   6 13.6266 3.38346   1
  -1   3  -6 46.9559 2.38112   4
  -1   3  -6 46.6143 1.99378   6
  -1   3  -6 46.5435 6.32524   1
  -1   3  -6 43.2802 2.43869   2
   1  -3   6 48.7156 5.86501   1
   1  -3   6 46.3434 2.46618   2
  -2   3  -6 77.0236 3.22153   4
  -2   3  -6 76.1403 2.68078   6
  -2   3  -6 66.6525 8.71266   1
  -2   3  -6 74.9747 3.67045   3
   2  -3   6 73.8608 7.45482   1
   2  -3   6 70.7069 3.37159   2
  -3   3  -6 77.2189 4.19258   3
  -3   3  -6 93.7434 10.7218   1
  -3   3  -6 86.0966 2.98126   6
  -3   3  -6 85.9252 3.49262   4
   3  -3   6 79.7092 8.64894   1
   3  -3   6 84.4421 3.97565   2
  -4   3  -6 41.0121 3.65176   3
  -4   3  -6 40.5590 2.40582   4
  -4   3  -6 40.2485 2.05304   6
  -4   3  -6 29.8010 8.19038   1
   4  -3   6 37.9115 7.60329   1
   4  -3   6 40.7092 2.48387   4
   4  -3   6 36.3240 3.31276   2
  -5   3  -6 80.2889 12.4840   1
  -5   3  -6 87.3376 3.40564   4
  -5   3  -6 88.6410 3.27274   6
  -5   3  -6 78.9593 5.35326   3
   5  -3   6 83.1086 4.86647   5
   5  -3   6 81.7735 3.74479   4
   5  -3   6 86.0627 5.18002   2
   5  -3   6 81.5823 10.7193   1
  -6   3  -6 21.9135 3.42220   3
  -6   3  -6 24.4088 2.43898   6
   6  -3   6 21.7641 2.99522   5
   6  -3   6 22.4212 3.43866   2
   6  -3   6 25.5141 3.09109   4
  -7   3  -6 39.2782 3.30747   6
  -7   3  -6 35.7133 5.16860   3
   7  -3   6 40.6998 4.00271   4
   7  -3   6 34.7666 4.17419   5
  -8   3  -6 16.8252 4.25846   3
   8  -3   6 18.4052 3.59126   5
   9  -3   6 5.91766 4.58198   5
  10   2  -6 26.5489 3.77944   5
  10   2  -6 28.4647 3.93297   2
   9   2  -6 43.5240 4.40865   2
   9   2  -6 41.4705 4.44784   5
   8   2  -6 91.2671 4.94642   2
   8   2  -6 99.9784 4.95905   5
   8   2  -6 96.4193 3.52499   6
   7   2  -6 121.051 5.16263   2
   7   2  -6 97.8017 6.65691   1
   7   2  -6 121.138 3.87100   6
   7   2  -6 129.801 9.12352   3
   7   2  -6 130.746 11.8999   1
   7   2  -6 122.729 4.94770   5
  -7  -2   6 112.759 6.92135   5
   6   2  -6 108.439 4.53474   2
   6   2  -6 103.887 6.06591   1
   6   2  -6 100.411 9.74422   1
   6   2  -6 106.370 3.50576   6
   6   2  -6 103.374 4.12683   5
  -6  -2   6 99.2871 5.54786   5
   5   2  -6 54.9026 4.63680   1
   5   2  -6 57.8636 2.60646   5
   5   2  -6 53.9058 2.80829   2
  -5  -2   6 46.8970 6.14038   1
  -5  -2   6 55.9236 3.79886   5
   4   2  -6 11.6206 2.66954   1
   4   2  -6 11.2545 1.21060   5
   4   2  -6 10.6866 1.33735   2
  -4  -2   6 13.1881 1.67316   5
  -4  -2   6 7.83317 3.35736   1
  -4  -2   6 8.54896 1.59318   2
   3   2  -6 12.1221 0.97808   5
   3   2  -6 9.37941 1.23525   2
   3   2  -6 15.1034 3.17200   1
  -3  -2   6 12.2313 2.84062   1
  -3  -2   6 10.7687 1.19063   5
  -3  -2   6 9.70509 1.39929   2
   2   2  -6 8.96183 2.84877   1
   2   2  -6 6.41808 0.97708   2
  -2  -2   6 7.33425 1.14388   2
  -2  -2   6 4.46683 2.48095   1
  -2  -2   6 5.93004 0.76779   5
   1   2  -6 115.104 7.48262   1
   1   2  -6 104.883 3.91990   4
   1   2  -6 110.703 3.81621   2
  -1  -2   6 106.273 3.83435   2
  -1  -2   6 110.764 3.26317   5
  -1  -2   6 106.839 6.19337   1
   0   2  -6 191.090 6.01964   2
   0   2  -6 188.444 6.06365   4
   0   2  -6 173.755 10.1412   1
   0  -2   6 198.924 5.92245   2
   0  -2   6 198.583 9.95200   1
  -1   2  -6 27.3046 5.43501   1
  -1   2  -6 25.2676 1.92153   2
  -1   2  -6 23.5664 1.86757   4
   1  -2   6 24.5166 4.84423   1
   1  -2   6 27.0465 1.99610   2
  -2   2  -6 2.23176 1.05739   3
  -2   2  -6 1.55218 5.02434   1
  -2   2  -6 1.66432 0.86457   4
   2  -2   6 2.63541 1.14803   2
   2  -2   6 6.84900 5.00681   1
   2  -2   6 2.08506 1.37178   4
  -3   2  -6 36.0048 7.75785   1
  -3   2  -6 46.2845 2.03747   6
  -3   2  -6 41.3953 2.55842   4
  -3   2  -6 42.2928 3.20626   3
   3  -2   6 40.0425 2.81348   5
   3  -2   6 44.9619 3.13647   2
   3  -2   6 47.6070 7.79977   1
   3  -2   6 44.6751 2.69074   4
  -4   2  -6 -0.6594 1.30201   3
  -4   2  -6 4.83073 7.74125   1
  -4   2  -6 0.73743 0.92443   4
  -4   2  -6 0.25658 0.76878   6
   4  -2   6 1.49082 1.76624   2
   4  -2   6 -0.3612 1.22919   5
   4  -2   6 -0.9072 7.12586   1
   4  -2   6 -0.8793 1.31711   4
  -5   2  -6 24.9047 2.18062   4
  -5   2  -6 26.9056 1.85058   6
  -5   2  -6 25.8691 10.4106   1
  -5   2  -6 29.1041 3.64465   3
   5  -2   6 24.3428 3.17831   4
   5  -2   6 28.0318 3.49767   5
   5  -2   6 28.4794 9.93939   1
   5  -2   6 28.0823 3.34762   2
  -6   2  -6 98.8823 3.72496   6
  -6   2  -6 99.9273 6.85301   3
   6  -2   6 105.104 6.90528   2
   6  -2   6 110.354 7.54927   4
  -7   2  -6 109.025 7.65192   3
   7  -2   6 116.316 6.64020   4
   7  -2   6 103.025 6.63676   5
   8  -2   6 8.25473 3.30660   5
  10   1  -6 13.3075 2.98642   5
  10   1  -6 11.6151 2.88415   2
   9   1  -6 60.1181 4.46442   2
   9   1  -6 59.8041 4.02962   6
   9   1  -6 67.5687 4.63738   5
   9   1  -6 59.0010 2.73505   6
   8   1  -6 48.2326 3.60378   5
   8   1  -6 32.8843 6.64607   3
   8   1  -6 52.4091 2.49559   6
   8   1  -6 62.6526 8.94024   1
   8   1  -6 53.1859 3.69056   2
   7   1  -6 108.134 6.18062   1
   7   1  -6 116.077 7.99733   3
   7   1  -6 110.630 4.79319   2
   7   1  -6 114.817 4.61082   5
   7   1  -6 128.757 8.94309   1
   6   1  -6 182.607 5.77494   5
   6   1  -6 170.778 7.36222   1
   6   1  -6 172.405 9.43243   1
   6   1  -6 175.832 6.04703   2
   5   1  -6 104.053 5.98901   1
   5   1  -6 105.185 3.59867   5
   5   1  -6 106.562 4.01329   2
  -5  -1   6 100.449 6.88491   1
  -5  -1   6 103.311 4.31375   5
   4   1  -6 12.7488 2.85875   1
   4   1  -6 6.17650 0.93934   2
   4   1  -6 9.48147 0.95614   5
  -4  -1   6 10.1404 2.71717   1
  -4  -1   6 10.4074 1.33452   5
  -4  -1   6 8.39774 1.58943   2
   3   1  -6 121.466 4.43460   4
   3   1  -6 126.899 7.34083   1
   3   1  -6 115.547 4.10270   2
   3   1  -6 127.849 3.52041   5
  -3  -1   6 123.768 3.79159   5
  -3  -1   6 123.235 4.30744   2
  -3  -1   6 124.259 5.94347   1
   2   1  -6 97.3848 3.90556   4
   2   1  -6 108.966 3.68922   2
   2   1  -6 96.3092 7.03665   1
  -2  -1   6 106.775 2.99946   5
  -2  -1   6 111.766 3.74611   2
  -2  -1   6 103.455 5.83320   1
   1   1  -6 239.182 11.6050   1
   1   1  -6 242.579 7.45020   4
   1   1  -6 244.166 7.08618   2
  -1  -1   6 228.072 9.89615   1
  -1  -1   6 240.698 6.98342   2
  -1  -1   6 242.584 6.25374   5
   0   1  -6 337.383 15.3531   1
   0   1  -6 324.140 9.48754   2
   0   1  -6 320.473 9.70632   4
   0  -1   6 343.197 9.33121   2
   0  -1   6 321.867 13.7958   1
   0  -1   6 330.886 9.37153   4
  -1   1  -6 0.12549 0.76294   4
  -1   1  -6 -0.5422 0.64388   3
  -1   1  -6 -3.9356 3.93579   1
   1  -1   6 -1.2041 4.45695   1
   1  -1   6 -0.1570 0.93408   2
   1  -1   6 1.85208 0.98809   4
  -2   1  -6 -4.6085 5.66855   1
  -2   1  -6 -0.3264 0.93205   3
  -2   1  -6 0.15894 0.81734   4
   2  -1   6 0.45585 0.77499   5
   2  -1   6 -0.7550 0.99428   2
   2  -1   6 -0.7778 1.08164   4
   2  -1   6 1.44866 5.91006   1
  -3   1  -6 583.944 16.6552   3
  -3   1  -6 572.508 15.9289   4
  -3   1  -6 541.469 24.7650   1
   3  -1   6 592.545 15.9331   4
   3  -1   6 587.423 16.1242   2
   3  -1   6 543.543 15.9724   5
   3  -1   6 573.636 24.0052   1
  -4   1  -6 45.4481 3.92656   3
  -4   1  -6 42.2893 2.09177   6
  -4   1  -6 46.8956 2.93828   4
  -4   1  -6 60.8245 11.3299   1
   4  -1   6 43.2915 4.09191   2
   4  -1   6 59.6280 10.9586   1
   4  -1   6 51.7466 3.72600   4
   4  -1   6 39.1117 3.26804   5
  -5   1  -6 286.575 22.4706   1
  -5   1  -6 329.267 8.68859   6
  -5   1  -6 333.874 9.82561   4
  -5   1  -6 316.093 11.5526   3
   5  -1   6 314.536 10.7673   5
   5  -1   6 330.561 10.6202   4
   5  -1   6 334.536 22.4275   1
  -6   1  -6 41.7781 3.79615   6
  -6   1  -6 50.4673 5.24461   3
   6  -1   6 46.2023 4.68944   5
   6  -1   6 42.7068 5.50079   4
   7  -1   6 3.08769 2.74179   5
   7  -1   6 3.44221 3.89932   4
   8  -1   6 22.8546 3.88942   5
  10   0  -6 139.316 6.77560   2
  10   0  -6 145.285 7.10854   5
   9   0  -6 9.30683 2.31323   6
   9   0  -6 6.85449 2.13241   5
   9   0  -6 8.74032 1.49383   6
   9   0  -6 8.85180 2.13192   2
   8   0  -6 139.608 5.68250   2
   8   0  -6 142.508 5.63898   5
   8   0  -6 144.539 10.1896   3
   7   0  -6 25.1911 3.24015   1
   7   0  -6 22.7844 3.97091   3
   7   0  -6 25.8371 2.36787   5
   7   0  -6 36.3894 4.04830   1
   7   0  -6 27.1341 2.46339   2
   6   0  -6 2.20948 0.88859   2
   6   0  -6 4.39285 2.51986   1
   6   0  -6 4.63402 0.98450   5
   6   0  -6 2.95376 2.40227   3
   6   0  -6 2.63631 2.69434   1
   5   0  -6 5.54965 1.02746   2
   5   0  -6 7.11593 2.66972   1
   5   0  -6 9.54247 1.11473   5
   5   0  -6 5.16666 1.10986   4
  -5   0   6 5.22111 2.44757   1
   4   0  -6 70.5751 2.22146   5
   4   0  -6 64.5161 3.16153   4
   4   0  -6 71.3351 5.74492   1
   4   0  -6 70.1102 2.84423   2
  -4   0   6 68.1952 3.09687   2
  -4   0   6 70.2991 4.31799   1
   3   0  -6 8.88893 1.07838   2
   3   0  -6 13.4460 3.65400   1
   3   0  -6 7.93559 1.22739   4
  -3   0   6 8.09487 1.10403   2
  -3   0   6 8.64404 2.32122   1
   2   0  -6 938.964 29.5171   1
   2   0  -6 946.920 24.9915   4
   2   0  -6 939.603 24.3416   2
  -2   0   6 981.590 24.3399   2
  -2   0   6 946.692 27.3151   1
   1   0  -6 184.934 6.22126   4
   1   0  -6 182.336 5.68053   2
   1   0  -6 169.269 10.5168   1
  -1   0   6 182.544 4.81601   5
  -1   0   6 173.707 9.74030   1
  -1   0   6 184.722 5.57745   2
  -1   0   6 187.184 5.92211   4
   0   0  -6 283.247 8.79453   4
   0   0  -6 275.323 14.5714   1
   0   0   6 284.539 8.53904   4
   0   0   6 286.343 8.13176   2
   0   0   6 282.665 7.70728   5
   0   0   6 267.652 13.5278   1
  -1   0  -6 56.7820 2.77324   3
  -1   0  -6 53.1208 2.99568   4
  -1   0  -6 61.1974 8.57351   1
   1   0   6 51.5912 3.19208   4
   1   0   6 56.4919 2.94218   2
   1   0   6 52.0233 2.49591   5
   1   0   6 62.2201 8.74192   1
  -2   0  -6 258.538 16.9030   1
  -2   0  -6 284.522 8.83239   4
  -2   0  -6 280.559 8.76252   3
   2   0   6 267.552 8.37473   5
   2   0   6 291.729 17.2352   1
   2   0   6 279.770 8.65996   2
  -3   0  -6 79.2770 3.87093   4
  -3   0  -6 79.0542 4.19101   3
  -3   0  -6 73.8732 11.7491   1
   3   0   6 80.5804 4.57863   2
   3   0   6 77.3544 3.92398   5
   3   0   6 80.8598 12.3477   1
   3   0   6 83.1175 4.60441   4
  -4   0  -6 -4.2837 9.70364   1
  -4   0  -6 0.75197 1.63697   3
  -4   0  -6 1.71949 1.17256   4
   4   0   6 -4.4372 2.07599   2
   4   0   6 -1.1610 11.2351   1
   4   0   6 -0.6657 1.98743   4
   4   0   6 0.92173 1.37782   5
  -5   0  -6 15.3640 2.94298   3
  -5   0  -6 19.1811 1.80921   6
   5   0   6 21.0802 3.77696   2
   5   0   6 19.0097 3.29673   4
   5   0   6 26.3610 3.46731   5
   5   0   6 20.5808 16.8807   1
  -6   0  -6 30.5628 2.81187   6
  -6   0  -6 28.8183 1.91410   6
   6   0   6 27.4562 3.28778   5
   6   0   6 34.4258 4.58121   4
   7   0   6 16.4216 5.32922   4
   7   0   6 13.7384 3.22792   5
  11  -1  -6 43.5401 4.50520   5
  11  -1  -6 53.3448 6.02606   4
  11  -1  -6 42.8679 5.42480   2
  10  -1  -6 39.5149 3.71761   6
  10  -1  -6 26.1610 3.32045   4
  10  -1  -6 35.6303 4.67544   5
  10  -1  -6 29.8572 3.35802   2
   9  -1  -6 34.8984 3.65850   4
   9  -1  -6 42.4447 3.90827   6
   9  -1  -6 38.4407 3.77031   5
   9  -1  -6 38.1209 3.57090   2
   8  -1  -6 121.164 11.7522   3
   8  -1  -6 114.405 5.31436   4
   8  -1  -6 127.420 5.73976   6
   8  -1  -6 125.262 5.04451   2
   8  -1  -6 121.533 5.04449   5
   7  -1  -6 0.15241 0.99175   5
   7  -1  -6 0.01201 0.91929   2
   7  -1  -6 1.16193 1.20270   4
   7  -1  -6 -1.5765 2.92519   3
   6  -1  -6 60.7644 3.34771   4
   6  -1  -6 58.9299 2.81868   2
   6  -1  -6 58.7599 2.65163   5
   6  -1  -6 62.9664 5.57691   3
   5  -1  -6 410.094 10.6038   5
   5  -1  -6 399.807 13.4569   1
   5  -1  -6 397.121 11.1302   2
   5  -1  -6 385.679 11.7596   4
   5  -1  -6 429.616 12.7295   3
  -5   1   6 408.451 11.7775   1
   4  -1  -6 1.52821 0.34197   5
   4  -1  -6 -2.8750 2.81183   1
   4  -1  -6 1.51641 0.84102   4
   4  -1  -6 2.79162 0.73035   2
  -4   1   6 0.40826 0.87553   2
  -4   1   6 3.27644 1.99327   1
   3  -1  -6 312.369 9.56471   4
   3  -1  -6 276.634 17.4313   1
   3  -1  -6 323.549 8.75010   2
  -3   1   6 325.165 8.72912   2
  -3   1   6 313.693 11.5581   1
   2  -1  -6 285.228 13.5793   1
   2  -1  -6 289.829 8.96825   4
   2  -1  -6 294.010 8.18765   2
  -2   1   6 255.417 13.5389   1
  -2   1   6 289.589 8.03225   2
  -2   1   6 298.364 8.64234   4
   1  -1  -6 9.88795 4.96990   1
   1  -1  -6 6.43381 1.19513   4
   1  -1  -6 9.32816 1.20787   2
  -1   1   6 11.4848 0.74077   5
  -1   1   6 8.75184 1.41787   4
  -1   1   6 9.09252 1.11753   2
  -1   1   6 13.9650 5.48364   1
   0  -1  -6 69.1620 9.26094   1
   0  -1  -6 86.4879 3.98606   4
   0  -1  -6 86.4846 3.09229   3
   0   1   6 87.6606 10.9935   1
   0   1   6 82.3337 3.37862   2
   0   1   6 83.9719 2.88426   5
  -1  -1  -6 86.4087 11.9980   1
  -1  -1  -6 100.805 3.87270   3
  -1  -1  -6 105.977 4.61247   4
   1   1   6 121.135 12.9997   1
   1   1   6 104.073 4.71097   4
   1   1   6 103.115 3.74919   5
  -2  -1  -6 108.969 4.55530   3
  -2  -1  -6 118.807 13.7385   1
  -2  -1  -6 115.706 4.93226   4
   2   1   6 104.277 14.4813   1
   2   1   6 116.268 5.02073   2
   2   1   6 106.907 4.31066   5
   2   1   6 113.743 5.36173   4
  -3  -1  -6 121.535 5.14077   3
  -3  -1  -6 93.1997 13.5992   1
  -3  -1  -6 115.113 5.05399   4
   3   1   6 108.388 4.80411   5
   3   1   6 116.966 5.97529   4
   3   1   6 122.941 5.82750   2
   3   1   6 137.727 17.7918   1
  -4  -1  -6 2.96810 1.45271   4
  -4  -1  -6 -1.3175 11.4284   1
   4   1   6 4.36605 1.59882   5
   4   1   6 4.07569 2.63388   4
   4   1   6 16.4788 13.8195   1
  -5  -1  -6 131.949 4.09520   6
  -5  -1  -6 127.378 5.24308   6
   5   1   6 124.334 7.63562   5
   5   1   6 128.547 8.12981   4
   6   1   6 10.2438 4.73291   4
   6   1   6 11.5538 2.92368   5
   7   1   6 1.93753 2.99413   5
  11  -2  -6 59.0188 5.30191   2
  11  -2  -6 44.5988 5.89994   4
  11  -2  -6 55.0352 6.05956   5
  10  -2  -6 -0.7621 2.36859   5
  10  -2  -6 -0.2395 2.10228   6
  10  -2  -6 0.66150 1.96378   2
  10  -2  -6 1.20264 4.36008   4
   9  -2  -6 20.3969 2.93177   6
   9  -2  -6 21.7950 2.46319   2
   9  -2  -6 20.2987 2.72233   4
   9  -2  -6 11.4133 5.44692   3
   9  -2  -6 26.6468 2.84175   5
   8  -2  -6 5.35968 1.41614   2
   8  -2  -6 4.22190 1.93546   6
   8  -2  -6 3.26942 1.65698   4
   8  -2  -6 4.27477 4.13794   3
   8  -2  -6 3.68322 1.41892   5
   7  -2  -6 19.5539 1.93342   2
   7  -2  -6 15.0032 1.67555   5
   7  -2  -6 23.0545 2.70812   4
   7  -2  -6 18.0704 3.56823   3
   6  -2  -6 234.612 6.88564   5
   6  -2  -6 237.276 7.97494   4
   6  -2  -6 247.020 9.14624   3
   6  -2  -6 229.503 7.06324   2
   5  -2  -6 439.505 14.3084   1
   5  -2  -6 449.214 13.0177   4
   5  -2  -6 446.847 12.0030   2
   5  -2  -6 449.322 11.5161   5
  -5   2   6 439.193 12.5622   1
   4  -2  -6 67.0828 3.51409   4
   4  -2  -6 70.3868 2.66786   2
   4  -2  -6 65.7569 6.65778   1
   4  -2  -6 69.0953 3.67618   3
  -4   2   6 67.7412 2.80637   2
  -4   2   6 75.1630 5.65682   1
   3  -2  -6 160.996 5.23658   3
   3  -2  -6 171.026 10.1395   1
   3  -2  -6 157.907 4.91317   2
   3  -2  -6 156.714 5.92489   4
  -3   2   6 160.452 5.82648   4
  -3   2   6 156.991 4.86729   2
  -3   2   6 164.164 9.46874   1
   2  -2  -6 177.050 6.49304   4
   2  -2  -6 178.663 5.56510   2
   2  -2  -6 188.001 11.5377   1
  -2   2   6 177.449 5.34562   2
  -2   2   6 180.960 11.8768   1
  -2   2   6 177.895 6.40307   4
   1  -2  -6 26.2918 7.58782   1
   1  -2  -6 38.4800 2.84516   4
  -1   2   6 40.7507 3.19071   4
  -1   2   6 40.7909 1.51935   5
  -1   2   6 40.2842 2.21165   2
  -1   2   6 36.1544 7.94725   1
   0  -2  -6 283.141 16.8764   1
   0  -2  -6 297.395 7.82254   3
   0  -2  -6 291.880 9.54320   4
   0   2   6 289.538 8.54496   2
   0   2   6 278.559 22.7057   1
   0   2   6 292.974 8.05058   5
   0   2   6 297.926 9.50177   4
  -1  -2  -6 74.9242 4.07927   4
  -1  -2  -6 87.5524 12.3689   1
   1   2   6 88.5853 4.82248   4
   1   2   6 82.1327 3.27431   5
   1   2   6 78.7286 12.6129   1
   1   2   6 81.8517 3.94568   2
  -2  -2  -6 66.9290 4.02042   4
  -2  -2  -6 84.5426 12.3243   1
   2   2   6 75.2903 5.12766   4
   2   2   6 71.2124 3.47526   5
   2   2   6 74.2514 14.1621   1
   2   2   6 79.1298 4.43225   2
  -3  -2  -6 34.5168 3.29038   6
  -3  -2  -6 26.3431 3.04959   4
  -3  -2  -6 10.2537 11.0368   1
   3   2   6 50.4602 15.3878   1
   3   2   6 29.7600 3.41626   2
   3   2   6 36.6408 5.04582   4
   3   2   6 27.0788 2.78475   5
  -4  -2  -6 15.3383 2.31146   6
  -4  -2  -6 13.5449 2.18756   4
  -4  -2  -6 23.9826 16.2102   1
   4   2   6 14.7520 3.60224   4
   4   2   6 12.8417 2.10898   5
   4   2   6 8.79452 16.6427   1
  -5  -2  -6 8.13916 1.93861   6
   5   2   6 5.80911 2.22373   5
   5   2   6 1.67623 4.31531   4
   6   2   6 11.8893 3.10838   5
  11  -3  -6 43.1439 4.90109   2
  11  -3  -6 50.8746 5.88622   5
  11  -3  -6 35.8117 4.32387   4
  10  -3  -6 56.2600 4.73561   6
  10  -3  -6 44.0927 4.69310   2
  10  -3  -6 59.6883 5.01345   5
  10  -3  -6 55.9045 5.09213   4
   9  -3  -6 75.6112 4.03699   2
   9  -3  -6 79.0201 4.73001   5
   9  -3  -6 86.2877 9.66752   3
   9  -3  -6 79.2198 5.23168   6
   9  -3  -6 80.6124 4.98297   4
   8  -3  -6 130.428 6.34665   6
   8  -3  -6 129.277 4.86160   2
   8  -3  -6 138.067 5.35477   5
   8  -3  -6 127.980 5.87870   4
   8  -3  -6 138.068 8.61459   3
   7  -3  -6 9.41508 1.27732   2
   7  -3  -6 9.26158 3.06129   3
   7  -3  -6 7.62467 1.41412   5
   7  -3  -6 7.28584 2.20139   6
   7  -3  -6 7.90871 1.81602   4
   6  -3  -6 33.5127 1.99672   5
   6  -3  -6 29.1818 2.89305   4
   6  -3  -6 30.5866 1.91784   2
   6  -3  -6 32.0614 3.90776   3
   6  -3  -6 28.7602 3.29182   6
   5  -3  -6 96.1321 4.59764   4
   5  -3  -6 104.178 4.90509   3
   5  -3  -6 108.225 6.82484   1
   5  -3  -6 103.548 3.50986   2
  -5   3   6 101.319 5.95379   1
   4  -3  -6 144.801 5.18346   3
   4  -3  -6 145.879 5.75852   4
   4  -3  -6 140.224 9.22411   1
   4  -3  -6 140.849 4.42566   2
  -4   3   6 147.291 5.35086   4
  -4   3   6 137.981 4.43467   2
  -4   3   6 149.584 9.43204   1
   3  -3  -6 222.999 7.95378   4
   3  -3  -6 233.831 6.65600   3
   3  -3  -6 226.511 12.4739   1
   3  -3  -6 232.108 6.74826   2
  -3   3   6 234.721 12.8736   1
  -3   3   6 235.947 6.55929   2
  -3   3   6 244.240 7.80303   4
   2  -3  -6 529.477 15.5149   4
   2  -3  -6 521.406 21.5010   1
   2  -3  -6 541.407 13.7274   5
  -2   3   6 527.246 22.2297   1
  -2   3   6 540.350 13.9941   2
  -2   3   6 538.671 15.2304   4
   1  -3  -6 7.48355 1.67249   4
   1  -3  -6 8.28447 6.65490   1
   1  -3  -6 6.05788 1.24143   5
  -1   3   6 7.28361 2.08572   4
  -1   3   6 5.63996 1.16272   2
  -1   3   6 7.77035 7.64925   1
  -1   3   6 6.43057 0.71785   5
   0  -3  -6 122.256 5.45314   4
   0  -3  -6 127.315 12.8907   1
   0  -3  -6 129.329 4.93392   5
   0   3   6 136.523 16.3914   1
   0   3   6 120.363 4.10235   5
   0   3   6 127.006 6.00300   4
   0   3   6 130.218 4.76744   2
  -1  -3  -6 1.46023 1.31849   4
  -1  -3  -6 13.2035 9.37169   1
  -1  -3  -6 3.31824 1.84945   5
  -1  -3  -6 1.60208 1.52158   6
   1   3   6 -0.6610 10.5031   1
   1   3   6 6.63917 3.01683   4
   1   3   6 3.13098 1.61130   2
   1   3   6 2.43483 0.90563   5
  -2  -3  -6 2.40294 1.67953   6
  -2  -3  -6 2.73197 1.65729   4
  -2  -3  -6 9.97875 10.6147   1
   2   3   6 3.74172 1.22154   5
   2   3   6 -12.007 11.8880   1
   2   3   6 2.30169 2.20497   2
   2   3   6 4.95998 2.95662   4
  -3  -3  -6 51.7371 3.92541   6
  -3  -3  -6 52.9178 3.93112   4
   3   3   6 50.5326 3.53568   5
   3   3   6 64.3727 19.1346   1
  -4  -3  -6 34.7314 3.61057   6
   4   3   6 38.5518 3.79985   5
   4   3   6 30.6489 5.23412   4
   6   3   6 63.2305 6.24661   5
  11  -4  -6 91.6036 12.1442   4
  11  -4  -6 121.682 7.22297   5
  11  -4  -6 117.005 5.93189   2
  11  -4  -6 101.953 6.15580   6
  10  -4  -6 5.00211 2.71801   6
  10  -4  -6 -1.1917 1.73189   2
  10  -4  -6 0.61049 2.52682   4
  10  -4  -6 2.34361 2.46219   5
   9  -4  -6 47.5703 3.22669   2
   9  -4  -6 41.8729 6.37358   3
   9  -4  -6 36.3206 3.93412   5
   9  -4  -6 46.6328 4.38279   4
   9  -4  -6 42.7115 4.60251   6
   8  -4  -6 74.6396 4.53246   4
   8  -4  -6 70.9084 3.94748   5
   8  -4  -6 68.6838 5.11732   6
   8  -4  -6 72.8135 3.33836   2
   8  -4  -6 76.9356 7.38315   3
   7  -4  -6 -0.6945 1.82089   6
   7  -4  -6 -1.0094 0.79738   2
   7  -4  -6 -1.1720 1.17099   5
   7  -4  -6 0.60527 1.39552   4
   7  -4  -6 0.01045 2.71209   3
   6  -4  -6 617.037 15.9643   5
   6  -4  -6 634.270 17.5742   3
   6  -4  -6 609.371 15.7866   2
   6  -4  -6 583.199 17.3378   4
   6  -4  -6 589.875 18.0613   6
  -6   4   6 613.916 16.8280   1
  -6   4   6 595.918 16.4408   1
   5  -4  -6 281.481 7.27429   5
   5  -4  -6 275.532 9.26745   4
   5  -4  -6 282.672 7.56915   2
   5  -4  -6 257.455 11.4287   1
   5  -4  -6 264.477 9.79399   6
   5  -4  -6 277.783 8.72349   3
  -5   4   6 268.952 12.3701   1
   4  -4  -6 21.3102 1.30670   5
   4  -4  -6 23.1198 5.26670   1
   4  -4  -6 17.6963 2.51811   6
   4  -4  -6 18.7439 2.47748   4
   4  -4  -6 18.4152 1.86311   3
   4  -4  -6 21.5463 1.48770   2
  -4   4   6 27.8803 7.14995   1
  -4   4   6 21.0990 1.52649   2
  -4   4   6 17.5841 2.12818   4
   3  -4  -6 45.9544 2.10250   5
   3  -4  -6 60.7124 8.58542   1
   3  -4  -6 40.7586 3.26861   4
   3  -4  -6 43.8336 3.63789   6
  -3   4   6 40.1641 1.94496   2
  -3   4   6 54.7810 9.24960   1
  -3   4   6 45.7623 3.73489   4
   2  -4  -6 9.12724 1.91000   4
   2  -4  -6 -4.2416 6.14137   1
   2  -4  -6 8.14527 1.31218   5
   2  -4  -6 6.17089 1.73836   6
  -2   4   6 18.6818 8.64565   1
  -2   4   6 10.2624 2.32412   4
  -2   4   6 8.84356 1.10557   2
   1  -4  -6 4.37014 1.73766   6
   1  -4  -6 3.51214 1.47261   5
   1  -4  -6 -8.5347 6.88360   1
   1  -4  -6 0.70834 1.19144   4
  -1   4   6 3.63674 2.09485   4
  -1   4   6 -2.3758 9.38396   1
  -1   4   6 1.88522 1.16938   2
  -1   4   6 2.87419 0.70401   5
   0  -4  -6 33.9370 3.52291   5
   0  -4  -6 30.0900 3.30846   6
   0  -4  -6 28.1132 3.28439   4
   0  -4  -6 26.8127 9.60523   1
   0   4   6 34.5666 12.9527   1
   0   4   6 30.1037 1.97967   5
   0   4   6 37.5776 4.60983   4
  -1  -4  -6 30.8493 3.39363   4
  -1  -4  -6 23.9139 11.1566   1
  -1  -4  -6 28.3270 3.30607   5
  -1  -4  -6 30.5243 3.48885   6
   1   4   6 32.0977 3.68294   2
   1   4   6 45.6254 14.4709   1
   1   4   6 22.1830 3.31485   4
   1   4   6 25.7738 2.28496   5
  -2  -4  -6 223.122 9.33604   5
  -2  -4  -6 206.075 8.02854   6
  -2  -4  -6 237.130 22.9723   1
   2   4   6 228.064 10.1605   4
   2   4   6 205.942 7.23331   5
   2   4   6 212.823 27.4577   1
   2   4   6 216.116 8.60075   2
  -3  -4  -6 9.92893 2.12654   4
  -3  -4  -6 11.8515 2.42979   6
   3   4   6 12.5721 2.09051   5
  -4  -4  -6 0.77171 2.12064   6
   4   4   6 -0.4734 1.99791   5
   5   4   6 -0.1265 2.64126   5
  11  -5  -6 10.1998 4.79737   2
  11  -5  -6 9.97857 3.48478   5
  11  -5  -6 3.83341 3.42487   4
  10  -5  -6 3.49336 2.84599   6
  10  -5  -6 7.11618 2.84738   5
  10  -5  -6 0.36227 2.72471   4
  10  -5  -6 8.11080 1.91461   2
   9  -5  -6 7.59425 2.46943   4
   9  -5  -6 11.5419 2.35503   5
   9  -5  -6 11.1430 2.92316   6
   9  -5  -6 9.86891 1.59423   2
   8  -5  -6 90.7201 7.50523   3
   8  -5  -6 85.2890 3.39877   2
   8  -5  -6 90.8576 5.18448   4
   8  -5  -6 84.1483 4.40230   5
   8  -5  -6 76.4290 5.49826   6
   7  -5  -6 39.6357 4.91002   3
   7  -5  -6 33.8393 3.58675   4
   7  -5  -6 37.0909 2.02085   2
   7  -5  -6 36.8328 2.86904   5
   7  -5  -6 34.9363 4.17931   6
   6  -5  -6 340.426 8.99478   2
   6  -5  -6 334.476 9.17687   5
   6  -5  -6 349.891 11.8989   6
   6  -5  -6 332.884 11.0401   4
   6  -5  -6 346.531 10.5964   3
  -6   5   6 327.290 12.2132   1
  -6   5   6 328.329 13.2608   1
   5  -5  -6 175.311 5.86442   3
   5  -5  -6 179.691 5.23965   5
   5  -5  -6 179.367 7.08028   4
   5  -5  -6 184.969 7.85005   6
  -5   5   6 178.034 6.79629   4
   4  -5  -6 116.070 5.46419   4
   4  -5  -6 118.928 3.82867   5
   4  -5  -6 114.777 6.01010   6
   4  -5  -6 107.722 9.88734   1
  -4   5   6 116.812 5.64694   4
  -4   5   6 112.351 3.44665   2
   3  -5  -6 9.90777 2.49561   6
   3  -5  -6 -2.8005 5.99990   1
   3  -5  -6 11.4215 2.21945   4
   3  -5  -6 9.47387 1.38865   5
  -3   5   6 9.92812 1.01418   2
  -3   5   6 10.5369 2.54440   4
  -3   5   6 5.45770 8.98486   1
   2  -5  -6 80.0051 3.88335   5
   2  -5  -6 77.3278 4.57162   4
   2  -5  -6 98.3914 12.1277   1
   2  -5  -6 75.0096 4.87969   6
  -2   5   6 81.1356 3.15382   2
  -2   5   6 106.159 14.9860   1
  -2   5   6 79.4610 5.36341   4
   1  -5  -6 9.29221 1.98181   4
   1  -5  -6 13.3810 8.75297   1
   1  -5  -6 11.8311 2.21183   5
   1  -5  -6 9.46026 2.29508   6
  -1   5   6 14.7418 1.82021   2
  -1   5   6 12.9246 3.13651   4
  -1   5   6 5.09724 12.5256   1
  -1   5   6 12.1484 1.51951   5
   0  -5  -6 41.3270 4.63858   5
   0  -5  -6 38.0284 11.2084   1
   0  -5  -6 39.2792 4.03869   6
   0  -5  -6 43.7402 3.92510   4
   0   5   6 42.6519 3.52923   2
   0   5   6 28.4817 4.69644   4
   0   5   6 38.8475 2.42396   5
   0   5   6 44.2008 17.4232   1
  -1  -5  -6 -3.1662 12.0183   1
  -1  -5  -6 3.08370 2.99575   5
  -1  -5  -6 1.53531 1.77133   4
  -1  -5  -6 3.16056 2.15186   6
   1   5   6 1.54868 3.16675   4
   1   5   6 3.10429 1.25647   5
   1   5   6 5.91360 17.1191   1
   1   5   6 0.70460 2.35633   2
  -2  -5  -6 428.914 13.6113   4
  -2  -5  -6 404.116 13.1939   6
  -2  -5  -6 408.850 14.4594   5
  -2  -5  -6 388.615 29.6133   1
   2   5   6 418.966 13.7337   2
   2   5   6 469.475 38.3438   1
   2   5   6 407.478 12.3303   5
  -3  -5  -6 62.6095 4.76707   6
   3   5   6 59.7775 4.55003   5
  11  -6  -6 90.1423 6.99170   4
  11  -6  -6 79.8709 7.38030   5
  11  -6  -6 91.6440 6.78407   6
  10  -6  -6 6.56927 3.00342   6
  10  -6  -6 6.15602 2.89309   5
  10  -6  -6 6.54073 2.90964   4
   9  -6  -6 173.462 8.14572   6
   9  -6  -6 179.675 10.4614   3
   9  -6  -6 178.733 7.71882   4
   9  -6  -6 176.657 5.65589   2
   9  -6  -6 178.429 7.18946   5
   8  -6  -6 9.20250 2.39006   4
   8  -6  -6 12.8622 1.60982   2
   8  -6  -6 11.4737 3.89650   6
   8  -6  -6 10.3634 3.79012   3
   8  -6  -6 10.5121 2.10603   5
   7  -6  -6 22.1159 2.60601   5
   7  -6  -6 24.6255 3.36073   3
   7  -6  -6 21.1357 2.88334   4
   7  -6  -6 16.6907 3.24331   6
  -7   6   6 20.5624 3.91897   1
  -7   6   6 20.6841 2.90194   1
   6  -6  -6 48.6811 2.78367   5
   6  -6  -6 45.6971 3.98327   4
   6  -6  -6 42.3271 4.45867   6
  -6   6   6 53.6090 9.26198   1
  -6   6   6 43.3947 6.32553   1
   5  -6  -6 42.5750 3.72414   4
   5  -6  -6 40.6664 2.54151   5
   5  -6  -6 35.1314 4.25189   6
  -5   6   6 44.9148 8.53238   1
  -5   6   6 45.6582 4.41558   4
   4  -6  -6 3.54728 1.96810   6
   4  -6  -6 -1.2840 1.51322   4
   4  -6  -6 0.12919 1.28762   5
  -4   6   6 -8.0844 9.41992   1
  -4   6   6 -0.6727 2.21209   4
   3  -6  -6 13.1594 2.36890   4
   3  -6  -6 13.1405 7.57445   1
   3  -6  -6 14.5987 2.64682   6
   3  -6  -6 18.0064 2.04495   5
  -3   6   6 17.4630 3.25594   4
  -3   6   6 15.4450 1.32430   2
   2  -6  -6 9.46163 2.35872   6
   2  -6  -6 14.2483 9.04602   1
   2  -6  -6 15.9366 2.35492   5
   2  -6  -6 9.13325 2.08718   4
  -2   6   6 8.01529 3.13353   4
  -2   6   6 14.5305 1.50331   2
  -2   6   6 20.4402 14.1652   1
   1  -6  -6 31.7203 4.01992   6
   1  -6  -6 35.1033 3.53420   5
   1  -6  -6 51.0043 11.8710   1
  -1   6   6 37.3467 17.9417   1
  -1   6   6 40.5636 4.92355   4
  -1   6   6 29.1284 3.00025   2
  -1   6   6 31.0167 2.28717   5
   0  -6  -6 102.373 6.18991   6
   0  -6  -6 115.450 7.17634   5
   0  -6  -6 120.319 16.7073   1
   0  -6  -6 116.912 6.09004   4
   0   6   6 115.274 4.64717   5
   0   6   6 119.450 5.48096   2
  -1  -6  -6 83.8793 5.53667   6
  -1  -6  -6 82.7321 5.29825   4
  -1  -6  -6 107.934 17.9881   1
  -1  -6  -6 72.7519 7.89767   5
   1   6   6 51.2867 24.6168   1
   1   6   6 77.3862 6.05043   2
   1   6   6 76.2918 4.25364   5
  -2  -6  -6 1.02843 2.47592   6
  -2  -6  -6 -3.3137 5.01819   5
   2   6   6 5.15802 4.17410   2
   2   6   6 -0.6520 1.77963   5
  -3  -6  -6 9.55237 2.82313   6
   3   6   6 7.89100 2.56362   5
  10  -7  -6 19.2953 3.57840   4
  10  -7  -6 22.7247 3.71479   5
  10  -7  -6 17.8834 3.61391   6
   9  -7  -6 30.0110 4.03519   6
   9  -7  -6 44.4644 4.72021   5
   9  -7  -6 37.6475 5.48229   3
   9  -7  -6 39.9248 4.78125   4
   8  -7  -6 121.080 5.30531   5
   8  -7  -6 111.041 6.87629   6
   8  -7  -6 113.007 6.32038   4
   7  -7  -6 48.3866 4.59815   4
   7  -7  -6 50.8605 5.18598   6
   7  -7  -6 48.0465 3.57042   5
  -7   7   6 54.1264 7.28022   1
   6  -7  -6 197.676 8.23705   4
   6  -7  -6 206.668 9.04387   6
   6  -7  -6 208.085 6.62677   5
  -6   7   6 208.166 8.39366   4
   5  -7  -6 34.9577 3.18221   5
   5  -7  -6 30.8687 4.31477   6
   5  -7  -6 31.4538 3.87652   4
  -5   7   6 34.6303 4.14663   4
   4  -7  -6 77.3885 5.03614   4
   4  -7  -6 77.4663 4.24167   5
   4  -7  -6 73.0758 5.40903   6
  -4   7   6 80.5248 8.16634   4
   3  -7  -6 -0.4117 2.18351   6
  -3   7   6 -0.3294 3.53539   4
   2  -7  -6 104.263 6.24938   6
   2  -7  -6 107.809 6.07627   4
   2  -7  -6 112.265 6.23554   5
  -2   7   6 107.157 3.87711   2
  -2   7   6 103.690 7.90754   4
   1  -7  -6 8.02295 2.73791   6
   1  -7  -6 8.85199 3.52132   5
   1  -7  -6 28.7980 15.9915   1
   1  -7  -6 9.18725 2.50625   4
  -1   7   6 13.1507 2.36513   2
   0  -7  -6 83.2993 8.33354   5
   0  -7  -6 90.8718 5.93605   6
   0  -7  -6 88.3300 5.68434   4
   0   7   6 86.1611 5.58938   2
   0   7   6 89.1931 4.47922   5
  -1  -7  -6 9.39757 2.93462   6
  -1  -7  -6 1.90026 5.37328   5
   1   7   6 9.84577 4.01552   2
   1   7   6 13.7735 2.30086   5
  -2  -7  -6 87.3043 6.03772   6
   2   7   6 82.3367 5.54037   5
  10  -8  -6 8.87884 4.92613   4
  10  -8  -6 12.7703 3.56707   5
  10  -8  -6 13.5765 3.61569   6
   9  -8  -6 16.4118 3.64840   6
   9  -8  -6 15.2934 3.33383   4
   9  -8  -6 6.81098 3.06156   5
   8  -8  -6 11.0945 2.96359   4
   8  -8  -6 16.1505 2.91766   5
   8  -8  -6 17.2552 3.66118   6
   7  -8  -6 4.47317 2.33489   4
   7  -8  -6 9.93050 3.11739   6
   7  -8  -6 6.07847 2.27923   5
   6  -8  -6 53.3206 4.12063   5
   6  -8  -6 47.5080 6.31124   4
   6  -8  -6 45.2684 5.13256   6
  -6   8   6 57.7277 6.28250   4
   5  -8  -6 4.41323 2.35172   5
   5  -8  -6 0.61522 2.26635   4
   5  -8  -6 1.55674 2.62066   6
  -5   8   6 3.18254 3.78700   4
   4  -8  -6 1.06629 2.14705   4
   4  -8  -6 1.28849 2.40144   6
   4  -8  -6 1.10487 2.42559   5
  -4   8   6 -0.3157 4.17894   4
   3  -8  -6 3.71132 2.48165   6
   3  -8  -6 7.09637 2.86039   4
   3  -8  -6 11.4951 3.14292   5
   2  -8  -6 9.22295 2.71656   4
   2  -8  -6 14.9092 4.69328   5
   2  -8  -6 11.9507 2.95366   6
  -2   8   6 4.19951 2.47718   2
   1  -8  -6 1.55987 4.48154   5
   1  -8  -6 3.41048 2.76610   6
   1  -8  -6 2.99107 2.25325   4
  -1   8   6 1.98459 2.36151   2
   0  -8  -6 -0.4859 2.77182   6
   0  -8  -6 -3.6612 5.41798   5
   0  -8  -6 2.23128 2.37731   4
   0   8   6 5.59835 2.20468   5
  -1  -8  -6 0.46271 2.99994   6
   1   8   6 3.99690 2.49121   5
   9  -9  -6 26.5067 3.95274   4
   9  -9  -6 13.4682 3.76317   6
   8  -9  -6 1.34762 2.89378   4
   8  -9  -6 1.06988 3.14752   6
   7  -9  -6 21.0131 3.45210   6
   7  -9  -6 28.4376 3.73804   5
   7  -9  -6 22.2798 3.60034   4
   6  -9  -6 36.7383 4.52088   6
   6  -9  -6 39.6448 5.03437   4
   6  -9  -6 42.8561 3.94983   5
   5  -9  -6 219.406 8.71344   5
   5  -9  -6 211.508 9.15031   4
   5  -9  -6 194.809 9.52553   6
   4  -9  -6 -1.2652 3.54227   5
   4  -9  -6 -2.2254 2.66679   4
   4  -9  -6 4.70664 3.12950   6
   3  -9  -6 51.6618 5.55644   5
   3  -9  -6 46.4793 5.58677   6
   3  -9  -6 46.3000 5.25757   4
   2  -9  -6 154.295 12.8571   5
   2  -9  -6 131.351 7.67647   6
   2  -9  -6 124.293 7.32385   4
   1  -9  -6 125.372 7.72789   6
   8 -10  -6 28.9889 4.46407   4
   8 -10  -6 17.0448 4.21088   6
   7 -10  -6 88.5326 7.60113   6
   7 -10  -6 84.0180 7.07532   4
   6 -10  -6 72.0458 6.99343   6
   6 -10  -6 84.6095 6.68110   4
   5 -10  -6 7.89421 3.67395   6
   5 -10  -6 3.60200 2.98234   4
   4 -10  -6 4.16897 3.01101   4
   4 -10  -6 -0.9839 4.66116   6
   3 -10  -6 7.44779 3.59238   6
   3 -10  -6 3.71468 2.95016   4
  -2  13  -7 3.87827 3.07052   2
  -3  13  -7 24.9741 3.78483   2
   3 -13   7 26.4111 3.61254   6
  -4  13  -7 75.5715 8.20196   3
   4 -13   7 64.4535 4.39970   6
  -5  13  -7 16.1308 5.37057   3
   5 -13   7 11.7381 2.29017   6
   1  12  -7 2.08838 2.72480   2
   0  12  -7 170.110 7.40522   2
  -1  12  -7 13.3050 2.63309   2
   1 -12   7 9.51302 1.83061   6
  -2  12  -7 111.362 9.79980   4
  -2  12  -7 100.071 5.75140   2
   2 -12   7 102.209 4.74595   6
   2 -12   7 88.5961 8.28821   2
  -3  12  -7 -0.4506 4.40409   4
  -3  12  -7 6.85583 2.59085   2
   3 -12   7 8.49587 3.97761   2
   3 -12   7 8.06214 1.75357   6
  -4  12  -7 46.8509 6.62803   3
   4 -12   7 54.3443 6.85083   2
   4 -12   7 57.2249 3.66388   6
  -5  12  -7 31.7501 5.14186   3
   5 -12   7 47.8021 4.72132   2
   5 -12   7 40.3244 3.46958   6
  -6  12  -7 20.5610 4.81658   3
   6 -12   7 25.8724 3.48832   6
   2  11  -7 21.5814 3.12221   2
   1  11  -7 0.86125 2.10048   2
   0  11  -7 0.41586 1.85438   2
  -1  11  -7 40.3872 3.82366   2
  -1  11  -7 51.3307 6.81667   4
   1 -11   7 39.4683 2.99067   6
   1 -11   7 47.6419 4.70031   2
  -2  11  -7 0.61354 1.99113   2
   2 -11   7 -7.1270 5.55076   2
   2 -11   7 1.43332 1.31202   6
  -3  11  -7 22.0017 2.87705   2
  -3  11  -7 27.2211 3.64639   4
   3 -11   7 20.1216 2.51090   6
   3 -11   7 23.4981 3.74102   2
  -4  11  -7 17.4720 3.47148   3
   4 -11   7 17.9415 3.88233   2
   4 -11   7 18.4824 2.50264   6
  -5  11  -7 1.81472 2.83029   4
  -5  11  -7 11.3186 3.34261   3
   5 -11   7 20.4649 3.52043   2
   5 -11   7 10.2884 1.75005   6
  -6  11  -7 3.49541 3.43570   3
   6 -11   7 1.24294 3.52302   2
  -7  11  -7 2.89826 4.53483   3
   4  10  -7 4.64910 2.62592   2
   3  10  -7 16.3887 2.57439   2
   2  10  -7 14.4826 2.55585   2
   1  10  -7 78.9371 11.2659   1
   1  10  -7 96.2583 4.82939   2
  -1 -10   7 84.3538 20.3519   1
   0  10  -7 18.3326 7.69873   1
   0 -10   7 19.9767 16.1057   1
   0 -10   7 14.3042 3.72550   2
  -1  10  -7 11.2770 1.95753   2
  -1  10  -7 9.77571 7.21664   1
   1 -10   7 35.2330 14.4071   1
   1 -10   7 9.60872 2.86549   2
   1 -10   7 7.77001 1.49572   6
  -2  10  -7 29.1682 3.27561   2
   2 -10   7 29.0865 4.19494   5
   2 -10   7 27.7715 2.41374   6
   2 -10   7 28.9651 3.30961   2
   2 -10   7 51.3793 15.2746   1
  -3  10  -7 4.80947 1.92911   2
  -3  10  -7 5.19031 2.24326   4
   3 -10   7 4.82073 2.48982   2
   3 -10   7 3.03931 1.14370   6
  -4  10  -7 16.2926 2.21384   4
  -4  10  -7 14.2193 3.14555   3
  -4  10  -7 14.8750 2.38344   4
   4 -10   7 18.4699 2.90720   2
   4 -10   7 10.3284 1.54143   6
  -5  10  -7 49.6847 5.67577   3
   5 -10   7 50.3416 6.25911   2
  -6  10  -7 3.64533 3.03479   3
   6 -10   7 -3.5043 3.00153   2
  -7  10  -7 35.1004 5.85135   3
  -8  10  -7 28.8786 5.80989   3
   5   9  -7 50.6544 5.27297   2
   5   9  -7 44.6168 5.41289   5
   4   9  -7 28.2844 3.09904   2
   4   9  -7 42.3812 5.54104   6
   3   9  -7 8.23108 3.61800   6
   3   9  -7 4.76057 1.94578   2
   2   9  -7 24.4189 4.04807   6
   2   9  -7 28.9792 7.79831   1
   2   9  -7 13.1231 2.00821   2
   1   9  -7 25.1648 3.42370   6
   1   9  -7 27.2489 7.19624   1
   1   9  -7 31.3893 2.97459   2
  -1  -9   7 31.3196 3.75071   5
  -1  -9   7 32.8207 14.2338   1
   0   9  -7 6.91679 1.65830   2
   0   9  -7 3.30340 5.97062   1
   0   9  -7 5.45674 2.46309   6
   0  -9   7 26.6084 17.5960   1
   0  -9   7 5.70252 2.93747   5
   0  -9   7 9.64697 2.58289   2
  -1   9  -7 0.95273 6.04954   1
  -1   9  -7 -0.0984 1.25709   2
  -1   9  -7 0.35188 2.07523   6
   1  -9   7 16.2806 10.2290   1
   1  -9   7 2.41976 2.64037   5
   1  -9   7 -1.0053 1.95627   2
  -2   9  -7 82.6032 4.30887   2
  -2   9  -7 86.2098 11.0695   1
  -2   9  -7 81.9871 5.39434   6
   2  -9   7 85.5712 6.76099   5
   2  -9   7 83.6054 4.75343   2
  -3   9  -7 26.4308 3.18371   2
  -3   9  -7 23.8953 7.92667   1
  -3   9  -7 36.0654 3.98758   6
   3  -9   7 26.0410 2.82804   2
   3  -9   7 25.7867 10.0575   1
   3  -9   7 34.3118 3.67998   5
  -4   9  -7 139.214 7.05443   6
  -4   9  -7 144.427 4.86678   4
  -4   9  -7 140.521 7.29802   3
   4  -9   7 148.930 6.36254   2
  -5   9  -7 3.63103 2.34825   3
  -5   9  -7 6.63440 3.09570   6
   5  -9   7 2.33255 2.40972   2
  -6   9  -7 1.44544 4.13670   6
  -6   9  -7 -1.6389 2.97667   3
   6  -9   7 1.16924 2.88149   2
  -7   9  -7 54.7309 7.46354   3
  -8   9  -7 73.2430 9.16084   3
   6   8  -7 13.4793 3.06153   2
   6   8  -7 13.7248 3.04425   5
   5   8  -7 53.7208 4.46978   2
   5   8  -7 49.1337 4.47941   5
   4   8  -7 31.3718 3.69126   5
   4   8  -7 38.7884 4.42534   6
   4   8  -7 35.4613 3.61939   2
   3   8  -7 146.611 12.1570   1
   3   8  -7 147.029 6.04481   2
   3   8  -7 150.015 6.90125   6
  -3  -8   7 147.334 8.16253   5
   2   8  -7 49.5782 3.39003   2
   2   8  -7 56.2368 8.16386   1
   2   8  -7 57.3369 4.47303   6
  -2  -8   7 58.3777 5.28334   5
   1   8  -7 25.9557 3.51911   6
   1   8  -7 18.0557 5.81377   1
   1   8  -7 21.4529 2.49397   2
  -1  -8   7 19.8046 2.76825   5
  -1  -8   7 18.9828 2.74235   2
  -1  -8   7 33.6958 10.7267   1
   0   8  -7 50.9580 6.99838   1
   0   8  -7 43.5015 2.98961   2
   0   8  -7 47.6319 3.79233   6
   0  -8   7 66.7867 10.7735   1
   0  -8   7 50.9029 3.93375   2
   0  -8   7 54.6204 4.04348   5
  -1   8  -7 109.905 5.03416   6
  -1   8  -7 96.2616 12.5983   1
  -1   8  -7 105.054 4.63886   2
   1  -8   7 108.458 5.01753   2
   1  -8   7 101.147 13.4638   1
   1  -8   7 111.985 5.15881   5
  -2   8  -7 41.9834 3.14430   2
  -2   8  -7 43.5606 7.29989   1
  -2   8  -7 50.7748 3.75801   6
   2  -8   7 45.1755 3.70958   5
   2  -8   7 52.0616 9.29091   1
   2  -8   7 46.4412 3.60206   2
  -3   8  -7 228.756 8.07133   2
  -3   8  -7 229.075 7.09157   4
  -3   8  -7 240.506 14.5972   1
  -3   8  -7 239.118 8.30726   6
   3  -8   7 239.953 15.3972   1
   3  -8   7 240.295 8.00581   2
  -4   8  -7 1.19799 2.01725   6
  -4   8  -7 -8.6225 7.09752   1
  -4   8  -7 -0.3086 0.98887   4
  -4   8  -7 -1.3514 2.07447   3
   4  -8   7 -0.2380 1.94044   2
   4  -8   7 4.76961 7.47760   1
  -5   8  -7 94.9990 6.55806   6
  -5   8  -7 88.6267 6.17357   3
   5  -8   7 94.3056 5.37108   2
  -6   8  -7 73.8342 7.88448   6
  -6   8  -7 63.2362 6.42151   3
   6  -8   7 76.7786 5.80926   2
  -7   8  -7 179.336 9.29932   6
  -7   8  -7 163.358 9.79876   3
  -8   8  -7 23.6442 5.25084   3
  -8   8  -7 16.5448 5.74800   6
   7   7  -7 3.95132 2.93557   2
   7   7  -7 5.60733 2.87664   5
   6   7  -7 240.785 9.16403   5
   6   7  -7 253.756 11.1988   6
   6   7  -7 242.608 9.19811   2
   5   7  -7 6.07667 1.87567   5
   5   7  -7 5.70421 2.84902   6
   5   7  -7 5.89031 1.91772   2
   4   7  -7 225.777 8.00487   2
   4   7  -7 212.273 8.49207   5
   4   7  -7 235.401 8.18140   6
  -4  -7   7 227.206 9.94083   5
   3   7  -7 -0.5825 1.61654   6
   3   7  -7 -1.4007 5.06675   1
   3   7  -7 0.45960 1.21535   2
  -3  -7   7 11.0709 10.8201   1
  -3  -7   7 2.79894 2.48462   5
   2   7  -7 17.5574 5.16816   1
   2   7  -7 11.4369 1.63896   2
   2   7  -7 17.1700 2.11631   6
  -2  -7   7 24.6355 9.62660   1
  -2  -7   7 14.3172 2.53455   5
  -2  -7   7 11.8945 2.60697   2
   1   7  -7 480.270 13.2022   6
   1   7  -7 441.992 17.7269   1
   1   7  -7 442.743 13.2716   2
  -1  -7   7 475.816 21.1993   1
  -1  -7   7 479.919 13.5719   5
  -1  -7   7 477.780 13.6389   2
   0   7  -7 448.171 17.4184   1
   0   7  -7 428.839 12.6758   2
   0   7  -7 459.836 12.5759   6
   0  -7   7 446.335 12.7732   5
   0  -7   7 444.153 12.7573   2
   0  -7   7 423.656 19.3509   1
  -1   7  -7 103.123 4.35839   6
  -1   7  -7 96.1329 9.33787   1
  -1   7  -7 97.1805 4.27880   2
   1  -7   7 96.4976 10.4996   1
   1  -7   7 97.4412 4.50804   2
   1  -7   7 107.119 4.56345   5
  -2   7  -7 181.245 12.1621   1
  -2   7  -7 194.000 6.54355   6
  -2   7  -7 185.171 6.72265   2
   2  -7   7 206.257 12.9657   1
   2  -7   7 194.224 6.70388   2
  -3   7  -7 21.7211 2.69047   2
  -3   7  -7 19.8130 2.76399   6
  -3   7  -7 19.0486 1.89110   4
  -3   7  -7 13.4064 6.52706   1
   3  -7   7 24.4346 2.84313   2
   3  -7   7 22.0610 6.79608   1
  -4   7  -7 2.59251 1.80368   6
  -4   7  -7 0.57609 0.94390   4
  -4   7  -7 14.4013 7.23173   1
  -4   7  -7 0.92482 1.65771   3
   4  -7   7 8.66339 6.39642   1
   4  -7   7 0.60700 1.75165   2
  -5   7  -7 59.7778 13.5950   1
  -5   7  -7 69.7789 4.54316   6
   5  -7   7 75.2071 10.0843   1
   5  -7   7 73.5110 4.86722   2
  -6   7  -7 1.06522 2.58140   6
  -6   7  -7 -0.5002 2.60331   3
   6  -7   7 6.53907 2.75139   2
  -7   7  -7 13.9101 3.87145   6
  -7   7  -7 11.5696 3.82607   3
  -8   7  -7 7.23224 5.24232   6
  -8   7  -7 0.71559 3.96792   3
   8  -7   7 1.08746 3.40294   5
   7   6  -7 20.0998 3.07664   2
   7   6  -7 22.9543 3.17877   5
   6   6  -7 -0.6218 2.44819   6
   6   6  -7 -2.0228 1.57739   2
   6   6  -7 2.29927 1.83258   5
   5   6  -7 -0.1955 1.32583   2
   5   6  -7 2.31138 1.91275   6
   5   6  -7 1.71193 1.36086   5
   4   6  -7 21.0414 2.85003   6
   4   6  -7 23.3634 2.73685   2
   4   6  -7 14.4242 5.11257   1
   4   6  -7 20.3468 2.50219   5
  -4  -6   7 23.0499 3.42156   5
   3   6  -7 -1.2941 0.94592   2
   3   6  -7 0.98240 1.26152   6
   3   6  -7 2.20059 3.89423   1
  -3  -6   7 4.03962 1.95024   5
  -3  -6   7 3.78393 7.70462   1
   2   6  -7 69.6748 3.24720   6
   2   6  -7 70.4585 7.01606   1
   2   6  -7 66.3190 3.35827   2
  -2  -6   7 73.2387 4.96530   2
  -2  -6   7 64.2228 3.87706   5
  -2  -6   7 70.4670 9.29239   1
   1   6  -7 228.866 7.56470   2
   1   6  -7 233.576 11.5970   1
   1   6  -7 248.593 7.27688   6
  -1  -6   7 233.992 13.4455   1
  -1  -6   7 235.808 7.82208   2
  -1  -6   7 255.845 9.23084   5
   0   6  -7 52.7660 6.84979   1
   0   6  -7 67.7675 3.28166   2
   0   6  -7 74.3876 3.21161   6
   0  -6   7 74.6082 3.52620   5
   0  -6   7 59.3351 8.16024   1
   0  -6   7 72.7504 3.59132   2
  -1   6  -7 15.0109 4.85022   1
  -1   6  -7 13.7849 1.75398   2
  -1   6  -7 9.13689 1.27831   6
   1  -6   7 13.8168 1.81877   2
   1  -6   7 9.62860 1.47797   5
   1  -6   7 23.4803 5.84282   1
  -2   6  -7 3.60575 1.13166   6
  -2   6  -7 4.09091 1.20838   2
  -2   6  -7 3.93762 1.03165   4
  -2   6  -7 11.7055 5.27749   1
   2  -6   7 5.77270 1.47297   2
   2  -6   7 0.57609 4.74051   1
  -3   6  -7 13.7502 2.13889   3
  -3   6  -7 9.29483 6.16507   1
  -3   6  -7 19.3386 2.13378   6
  -3   6  -7 19.1469 1.94726   4
   3  -6   7 18.4980 2.10181   2
   3  -6   7 20.8066 6.07364   1
  -4   6  -7 6.91885 1.58460   6
  -4   6  -7 8.00088 1.24410   4
  -4   6  -7 11.8632 7.97212   1
  -4   6  -7 4.92290 2.13457   3
   4  -6   7 5.61344 5.92770   1
   4  -6   7 7.23496 2.03104   2
  -5   6  -7 29.7903 4.37806   3
  -5   6  -7 35.9067 3.32037   6
  -5   6  -7 33.6591 1.92183   4
  -5   6  -7 19.3461 9.97539   1
   5  -6   7 31.2713 7.81633   1
   5  -6   7 37.7685 3.53582   2
  -6   6  -7 11.9807 2.60710   6
  -6   6  -7 8.41532 3.00131   3
   6  -6   7 17.8786 3.57958   2
  -7   6  -7 0.94475 3.00539   3
  -7   6  -7 6.52215 2.90439   6
  -8   6  -7 4.16317 4.35651   3
   8  -6   7 1.61988 3.70603   5
   8   5  -7 24.6150 3.46487   2
   8   5  -7 19.0256 3.23197   5
   7   5  -7 4.80151 2.52096   6
   7   5  -7 1.64968 1.97090   5
   7   5  -7 2.08401 1.75957   2
   6   5  -7 79.0521 4.74322   6
   6   5  -7 82.4317 4.42484   5
   6   5  -7 81.6867 4.58697   2
   5   5  -7 -1.8568 1.12502   5
   5   5  -7 -5.1401 4.24341   1
   5   5  -7 1.86831 1.91412   6
   5   5  -7 0.80540 1.81889   2
  -5  -5   7 1.10845 2.71978   5
   4   5  -7 194.473 6.58522   5
   4   5  -7 200.112 6.90899   2
   4   5  -7 209.235 6.22713   6
   4   5  -7 194.358 10.4514   1
  -4  -5   7 195.885 7.64245   5
   3   5  -7 1.07790 0.98769   6
   3   5  -7 -3.1083 3.04958   1
   3   5  -7 1.62087 1.08560   2
  -3  -5   7 -0.4841 1.56418   2
  -3  -5   7 -1.2102 5.73629   1
  -3  -5   7 0.40771 1.53119   5
   2   5  -7 39.8879 2.21975   6
   2   5  -7 39.8714 5.63277   1
   2   5  -7 33.9827 2.41398   2
  -2  -5   7 36.0785 2.93485   5
  -2  -5   7 36.0466 2.99925   2
  -2  -5   7 41.1263 6.60132   1
   1   5  -7 30.7418 5.04277   1
   1   5  -7 32.9751 2.28297   2
   1   5  -7 35.8843 2.09528   6
  -1  -5   7 31.0210 2.36333   5
  -1  -5   7 45.0654 6.17393   1
  -1  -5   7 32.9101 2.70059   2
   0   5  -7 3.16756 0.96444   2
   0   5  -7 2.39688 0.97657   6
   0   5  -7 0.51379 3.57006   1
   0  -5   7 2.99431 1.05843   5
   0  -5   7 3.71415 4.18013   1
   0  -5   7 1.94957 1.18124   2
  -1   5  -7 2.63429 0.97852   6
  -1   5  -7 0.83764 0.72925   4
  -1   5  -7 3.27227 4.30988   1
  -1   5  -7 1.24158 0.97097   2
   1  -5   7 2.14214 1.13862   2
   1  -5   7 3.24211 4.09233   1
  -2   5  -7 110.243 4.15197   4
  -2   5  -7 108.075 3.86063   6
  -2   5  -7 101.856 4.47311   2
  -2   5  -7 98.4771 10.3340   1
   2  -5   7 97.8103 8.66495   1
   2  -5   7 112.684 4.50750   2
  -3   5  -7 235.277 6.86668   6
  -3   5  -7 226.831 7.10622   4
  -3   5  -7 221.487 8.37231   3
  -3   5  -7 216.148 14.8038   1
   3  -5   7 230.036 7.55938   2
   3  -5   7 226.124 12.2831   1
  -4   5  -7 16.7632 7.82242   1
  -4   5  -7 4.65499 1.20739   4
  -4   5  -7 1.81462 1.76488   3
  -4   5  -7 5.69992 1.37391   6
   4  -5   7 2.64999 1.95992   2
   4  -5   7 4.96722 5.91334   1
  -5   5  -7 58.6501 2.75139   4
  -5   5  -7 66.6439 3.49536   6
  -5   5  -7 56.1121 5.09785   3
  -5   5  -7 46.4355 11.9371   1
   5  -5   7 67.8133 4.88091   2
   5  -5   7 60.7138 9.10882   1
  -6   5  -7 -1.2926 2.22639   3
  -6   5  -7 2.89617 1.96475   6
   6  -5   7 -1.9044 2.86511   2
  -7   5  -7 2.62076 2.70228   6
  -7   5  -7 -2.5843 3.35142   3
   7  -5   7 2.08585 2.87412   5
  -8   5  -7 16.0793 5.03486   3
   8  -5   7 27.9739 4.53417   5
   9   4  -7 11.0114 3.41275   2
   9   4  -7 13.5597 3.05489   5
   8   4  -7 2.46347 2.07223   5
   8   4  -7 -3.1770 2.10435   2
   7   4  -7 59.2925 3.60671   6
   7   4  -7 60.3914 4.17221   2
   7   4  -7 55.7337 4.23573   5
  -7  -4   7 66.7850 6.32648   5
   6   4  -7 46.3077 2.80807   6
   6   4  -7 42.1540 3.25210   2
   6   4  -7 41.8946 3.11392   5
  -6  -4   7 47.0394 4.64068   5
   5   4  -7 8.53318 1.31324   6
   5   4  -7 4.11251 3.42550   1
   5   4  -7 4.21071 1.17071   5
   5   4  -7 3.26400 1.14286   2
  -5  -4   7 5.66016 2.44496   5
  -5  -4   7 -1.7879 7.08524   1
   4   4  -7 38.2944 2.61208   2
   4   4  -7 41.8689 2.41006   5
   4   4  -7 41.5193 5.40510   1
   4   4  -7 42.3936 2.28986   6
  -4  -4   7 38.8536 7.48116   1
  -4  -4   7 48.4091 3.75679   5
   3   4  -7 1.62867 0.89862   2
   3   4  -7 2.38548 3.10932   1
   3   4  -7 3.06068 0.91483   6
  -3  -4   7 2.84421 1.26568   5
  -3  -4   7 -3.9341 4.20017   1
  -3  -4   7 8.53669 1.75615   2
   2   4  -7 51.3418 2.72128   2
   2   4  -7 54.7167 5.92913   1
   2   4  -7 57.6558 2.47138   6
  -2  -4   7 54.9989 2.72115   5
  -2  -4   7 54.8034 6.78515   1
  -2  -4   7 49.0143 3.04601   2
   1   4  -7 720.561 24.4228   1
   1   4  -7 763.640 18.9101   6
   1   4  -7 714.774 19.4844   2
  -1  -4   7 736.898 19.4651   2
  -1  -4   7 721.838 22.9002   1
  -1  -4   7 729.466 18.9594   5
   0   4  -7 497.016 12.5384   6
   0   4  -7 451.476 12.9860   4
   0   4  -7 463.915 18.1899   1
   0   4  -7 480.196 13.1968   2
   0  -4   7 471.673 12.5701   5
   0  -4   7 459.605 16.4007   1
   0  -4   7 462.971 13.0508   2
  -1   4  -7 234.016 7.46934   4
  -1   4  -7 252.232 6.95507   6
  -1   4  -7 231.337 13.3790   1
  -1   4  -7 242.504 7.74577   2
   1  -4   7 247.049 7.58532   2
   1  -4   7 245.452 11.2908   1
  -2   4  -7 124.210 4.07875   6
  -2   4  -7 115.170 4.49370   4
  -2   4  -7 113.764 11.2300   1
   2  -4   7 129.724 9.26791   1
   2  -4   7 115.465 4.70040   2
  -3   4  -7 0.42901 1.21601   3
  -3   4  -7 1.00884 0.90245   6
  -3   4  -7 2.07877 6.84239   1
  -3   4  -7 1.87474 0.99918   4
   3  -4   7 0.40070 1.51064   2
   3  -4   7 2.62419 5.33047   1
  -4   4  -7 6.89411 1.31249   6
  -4   4  -7 2.61373 1.76083   3
  -4   4  -7 6.03202 1.22767   4
  -4   4  -7 -2.2169 8.26997   1
   4  -4   7 9.22454 2.17822   2
   4  -4   7 8.84663 6.55711   1
  -5   4  -7 27.2110 11.2859   1
  -5   4  -7 20.5998 3.48014   3
  -5   4  -7 17.3910 2.31163   6
  -5   4  -7 17.3843 2.16162   4
   5  -4   7 16.7105 3.25788   2
   5  -4   7 18.6991 2.70031   5
   5  -4   7 17.4497 8.31792   1
  -6   4  -7 -0.1588 1.68234   6
   6  -4   7 2.72971 3.89498   2
   6  -4   7 1.06495 2.34276   5
  -7   4  -7 187.980 10.0948   3
  -7   4  -7 188.103 7.09899   6
   7  -4   7 179.319 8.91892   5
  -8   4  -7 58.7923 8.37194   3
   8  -4   7 58.2557 7.13968   5
   9   3  -7 3.47115 2.43701   5
   9   3  -7 8.20750 2.61145   2
   8   3  -7 69.1325 3.83489   6
   8   3  -7 64.2526 4.46628   2
   8   3  -7 62.3617 4.31961   5
  -8  -3   7 61.4854 6.62179   5
   7   3  -7 106.158 4.70297   5
   7   3  -7 104.928 3.97813   6
   7   3  -7 97.3138 4.89750   2
  -7  -3   7 87.7162 7.57991   5
   6   3  -7 60.4538 6.58579   1
   6   3  -7 69.2836 3.41241   5
   6   3  -7 66.8814 3.73718   2
   6   3  -7 75.0222 3.12011   6
  -6  -3   7 68.9340 5.49689   5
   5   3  -7 3.66089 0.99841   5
   5   3  -7 -1.5324 2.94408   1
   5   3  -7 4.90273 1.09958   6
   5   3  -7 1.37903 1.08866   2
   4   3  -7 345.523 13.5923   1
   4   3  -7 374.949 10.0772   5
   4   3  -7 346.990 10.5639   2
   4   3  -7 383.027 10.2474   6
  -4  -3   7 357.294 14.7395   1
  -4  -3   7 352.995 10.5862   5
  -4  -3   7 368.553 11.0079   2
   3   3  -7 28.7100 1.89813   6
   3   3  -7 20.9358 3.93863   1
   3   3  -7 27.5219 2.00395   2
  -3  -3   7 28.3935 2.22377   5
  -3  -3   7 30.9187 2.60310   2
  -3  -3   7 27.0859 4.79002   1
   2   3  -7 108.696 4.15516   2
   2   3  -7 117.353 7.94313   1
  -2  -3   7 117.535 4.39713   2
  -2  -3   7 109.957 3.74345   5
  -2  -3   7 124.294 7.35641   1
   1   3  -7 185.484 6.07208   4
   1   3  -7 179.089 10.2068   1
   1   3  -7 180.507 5.93623   2
  -1  -3   7 183.617 5.96339   2
  -1  -3   7 185.601 5.34420   5
   0   3  -7 48.3074 2.62969   4
   0   3  -7 51.7918 6.85701   1
   0   3  -7 48.4976 2.68570   2
   0  -3   7 50.3532 2.68970   2
   0  -3   7 38.8187 5.16562   1
  -1   3  -7 117.472 10.8190   1
  -1   3  -7 116.221 4.50620   4
  -1   3  -7 121.146 3.94682   6
  -1   3  -7 111.394 4.61159   2
   1  -3   7 118.816 8.61494   1
   1  -3   7 121.742 4.55574   2
  -2   3  -7 2.53031 6.14316   1
  -2   3  -7 8.56492 1.37097   4
  -2   3  -7 12.1161 1.47030   6
  -2   3  -7 10.4644 1.80256   3
   2  -3   7 8.68992 5.46002   1
   2  -3   7 10.6839 1.77046   2
  -3   3  -7 70.4613 3.50565   4
  -3   3  -7 74.8447 2.90713   6
  -3   3  -7 67.8983 10.7479   1
  -3   3  -7 80.0016 4.48805   3
   3  -3   7 73.5087 4.07722   2
   3  -3   7 80.3118 10.2199   1
  -4   3  -7 98.7221 4.08144   4
  -4   3  -7 84.9680 13.1316   1
  -4   3  -7 93.6344 3.49233   6
  -4   3  -7 93.4363 5.42986   3
   4  -3   7 91.1483 5.07069   2
   4  -3   7 86.7295 4.68629   5
   4  -3   7 91.3002 4.00409   4
   4  -3   7 97.4421 13.0377   1
  -5   3  -7 2.35108 1.26234   4
  -5   3  -7 3.12698 1.27955   6
  -5   3  -7 -3.2380 11.2186   1
  -5   3  -7 5.79325 2.24904   3
   5  -3   7 5.26420 1.65874   4
   5  -3   7 2.58331 1.82638   5
   5  -3   7 -0.8820 2.67343   2
   5  -3   7 -9.7412 9.16849   1
  -6   3  -7 246.285 11.6490   3
  -6   3  -7 233.241 7.71744   6
   6  -3   7 216.536 9.18974   5
  -7   3  -7 109.899 8.37473   3
  -7   3  -7 105.951 5.08764   6
   7  -3   7 103.487 6.97562   5
   7  -3   7 96.7541 6.67246   4
  -8   3  -7 2.01484 4.36023   3
   8  -3   7 -0.2198 3.85758   5
  10   2  -7 4.12625 2.98490   5
   9   2  -7 90.0599 5.50659   2
   9   2  -7 94.1618 5.39988   5
   8   2  -7 58.7299 3.06994   6
   8   2  -7 56.5716 4.08394   2
   8   2  -7 55.9073 3.82886   5
   7   2  -7 -0.4966 1.25189   5
   7   2  -7 -0.6433 1.16254   6
   7   2  -7 0.12526 3.98598   3
  -7  -2   7 1.96428 2.89181   5
   6   2  -7 68.5131 3.59113   2
   6   2  -7 73.4205 3.07783   6
   6   2  -7 72.1551 6.46766   1
   6   2  -7 67.9714 3.15296   5
  -6  -2   7 65.9036 4.90714   5
   5   2  -7 2.41691 0.82237   5
   5   2  -7 1.06557 0.84461   2
   5   2  -7 -2.2732 2.95836   1
  -5  -2   7 0.81709 4.33367   1
  -5  -2   7 1.19450 1.56481   5
   4   2  -7 353.295 9.22650   5
   4   2  -7 317.975 12.9281   1
   4   2  -7 342.762 9.95419   2
  -4  -2   7 337.980 9.66921   5
  -4  -2   7 325.531 12.7668   1
  -4  -2   7 347.903 10.1592   2
   3   2  -7 -2.0582 2.98100   1
   3   2  -7 1.17906 0.72917   2
  -3  -2   7 0.76417 1.14982   2
  -3  -2   7 0.44075 0.76744   5
  -3  -2   7 6.60544 3.01045   1
   2   2  -7 135.337 4.69816   2
   2   2  -7 138.601 8.77847   1
   2   2  -7 128.265 4.90601   4
  -2  -2   7 137.985 7.29231   1
  -2  -2   7 136.459 3.99105   5
   1   2  -7 206.640 11.4538   1
   1   2  -7 209.583 6.51762   2
   1   2  -7 202.090 6.75328   4
  -1  -2   7 210.473 5.69815   5
   0   2  -7 89.6278 3.71539   2
   0   2  -7 92.2586 9.39539   1
   0   2  -7 88.5572 3.84410   4
   0  -2   7 90.1831 7.58940   1
   0  -2   7 88.0951 3.98675   2
  -1   2  -7 27.9085 2.29188   4
  -1   2  -7 27.3519 7.00780   1
   1  -2   7 33.6576 2.48454   2
   1  -2   7 31.1994 5.96313   1
  -2   2  -7 1.93689 1.02712   4
  -2   2  -7 2.22535 1.04276   3
  -2   2  -7 -0.8516 6.14520   1
   2  -2   7 2.78168 1.54157   2
   2  -2   7 1.15729 0.86415   5
   2  -2   7 1.28451 1.13553   4
   2  -2   7 6.89351 6.12603   1
  -3   2  -7 54.0577 4.34872   3
  -3   2  -7 53.2883 2.46359   6
  -3   2  -7 46.8372 3.09963   4
  -3   2  -7 57.1474 10.4682   1
   3  -2   7 65.7192 9.63683   1
   3  -2   7 55.5923 3.74381   2
   3  -2   7 53.9015 3.32909   4
   3  -2   7 45.1160 3.13988   5
  -4   2  -7 20.5313 10.2586   1
  -4   2  -7 7.72174 1.19584   6
  -4   2  -7 5.67555 1.44656   4
  -4   2  -7 7.39865 2.05725   3
   4  -2   7 8.27550 1.90307   4
   4  -2   7 7.09239 1.78512   5
   4  -2   7 6.50882 2.18580   2
   4  -2   7 14.9461 8.87983   1
  -5   2  -7 69.6529 3.72146   4
  -5   2  -7 76.1018 5.84682   3
   5  -2   7 72.5658 4.83183   4
   5  -2   7 75.4829 5.90144   2
   5  -2   7 77.5379 4.95034   5
   5  -2   7 80.9664 13.6252   1
  -6   2  -7 131.411 5.01772   6
  -6   2  -7 135.934 8.03581   3
   6  -2   7 131.049 6.62697   4
   6  -2   7 126.914 6.92877   5
  -7   2  -7 7.20194 3.67004   3
   7  -2   7 1.64872 3.70183   4
   7  -2   7 9.39384 3.40909   5
   8  -2   7 3.14443 4.08346   5
  10   1  -7 6.33510 2.81755   2
  10   1  -7 13.5822 2.98690   5
   9   1  -7 301.347 10.1097   5
   9   1  -7 304.798 8.82056   6
   9   1  -7 285.491 10.1830   2
   8   1  -7 2.06293 1.38451   6
   8   1  -7 1.21017 1.56263   2
   8   1  -7 2.89782 1.51797   5
   8   1  -7 9.61401 5.23222   1
   7   1  -7 229.116 11.1887   1
   7   1  -7 200.553 13.8790   1
   7   1  -7 234.895 7.82324   2
   7   1  -7 249.484 11.4562   3
   7   1  -7 224.468 7.20514   5
   6   1  -7 12.8063 1.68735   2
   6   1  -7 13.2967 3.81937   1
   6   1  -7 19.3591 1.79552   5
   5   1  -7 321.292 12.6902   1
   5   1  -7 320.090 9.51215   2
   5   1  -7 332.066 8.79983   5
  -5  -1   7 316.642 9.31656   5
  -5  -1   7 323.298 12.1384   1
   4   1  -7 13.2909 1.80031   4
   4   1  -7 11.9778 0.98287   5
   4   1  -7 7.82392 3.42438   1
  -4  -1   7 6.39973 2.76225   1
  -4  -1   7 12.2026 1.32881   5
  -4  -1   7 10.7699 1.62878   2
   3   1  -7 439.330 12.6615   4
   3   1  -7 449.888 16.8664   1
   3   1  -7 424.671 12.0416   2
  -3  -1   7 447.152 15.6036   1
  -3  -1   7 432.405 11.2304   5
   2   1  -7 15.7892 1.89064   4
   2   1  -7 14.6080 1.45053   2
   2   1  -7 13.7895 4.39220   1
  -2  -1   7 10.5788 1.31762   2
  -2  -1   7 11.8048 3.58978   1
   1   1  -7 753.643 26.5909   1
   1   1  -7 750.019 19.7403   2
   1   1  -7 756.494 20.2162   4
  -1  -1   7 703.510 25.3613   1
  -1  -1   7 753.761 19.5265   2
   0   1  -7 9.03718 1.57485   4
   0   1  -7 6.44456 1.17193   2
   0   1  -7 9.14839 5.68858   1
   0  -1   7 10.3860 1.53002   4
   0  -1   7 4.72023 4.89707   1
   0  -1   7 8.35073 1.01373   5
  -1   1  -7 339.167 10.0014   3
  -1   1  -7 355.646 18.4633   1
  -1   1  -7 338.659 10.3731   4
   1  -1   7 327.531 9.56192   5
   1  -1   7 341.949 16.2195   1
   1  -1   7 307.564 11.9998   4
   1  -1   7 353.395 9.93797   2
  -2   1  -7 217.143 17.0924   1
  -2   1  -7 230.164 7.85283   3
  -2   1  -7 227.027 7.76291   4
   2  -1   7 228.367 7.37194   5
   2  -1   7 222.478 15.5084   1
   2  -1   7 233.986 7.65548   2
   2  -1   7 236.390 7.65564   4
  -3   1  -7 444.138 13.0830   4
  -3   1  -7 433.469 13.5624   3
  -3   1  -7 434.364 24.6079   1
   3  -1   7 423.480 24.6269   1
   3  -1   7 457.303 13.1942   2
   3  -1   7 431.723 13.0069   5
   3  -1   7 452.341 12.9848   4
  -4   1  -7 102.658 4.72655   4
  -4   1  -7 112.859 16.2612   1
  -4   1  -7 101.229 5.62049   3
   4  -1   7 104.526 5.51024   4
   4  -1   7 103.581 5.97626   2
   4  -1   7 113.613 15.0358   1
   4  -1   7 97.3940 5.05779   5
  -5   1  -7 195.863 6.94753   4
  -5   1  -7 189.268 5.82500   6
   5  -1   7 184.616 8.10924   4
   5  -1   7 186.748 8.80904   2
   5  -1   7 191.951 7.98378   5
  -6   1  -7 73.9140 6.85046   3
  -6   1  -7 81.9663 3.53078   6
   6  -1   7 84.2963 7.06410   4
   6  -1   7 82.2924 5.83506   5
   7  -1   7 60.8587 6.43110   5
  10   0  -7 62.2142 5.10687   2
  10   0  -7 59.6844 5.12361   6
  10   0  -7 62.8296 5.15218   5
  10   0  -7 59.2301 5.35641   4
   9   0  -7 34.6820 3.76438   5
   9   0  -7 33.8932 3.75716   2
   9   0  -7 39.2719 4.65363   6
   8   0  -7 166.085 6.03035   5
   8   0  -7 168.207 6.35679   2
   7   0  -7 119.356 4.89559   2
   7   0  -7 138.760 8.44023   3
   7   0  -7 114.965 5.89243   1
   7   0  -7 125.119 4.47917   5
   7   0  -7 121.072 5.34641   4
   7   0  -7 121.033 6.04388   1
   6   0  -7 221.442 7.72441   4
   6   0  -7 240.959 9.59171   3
   6   0  -7 220.485 10.0710   1
   6   0  -7 224.373 6.54192   5
   6   0  -7 223.694 7.20983   2
  -6   0   7 225.364 9.53566   1
   5   0  -7 136.802 5.44269   4
   5   0  -7 129.375 8.59613   1
   5   0  -7 143.102 4.06407   5
   5   0  -7 134.214 4.82917   2
  -5   0   7 146.396 6.87326   1
   4   0  -7 41.4562 2.79976   4
   4   0  -7 26.3450 4.95621   1
   4   0  -7 33.7726 2.05194   2
  -4   0   7 35.2617 2.95744   2
  -4   0   7 37.2796 4.34340   1
   3   0  -7 304.737 9.64218   4
   3   0  -7 302.093 8.78264   2
   3   0  -7 305.504 13.8990   1
  -3   0   7 304.848 12.3422   1
  -3   0   7 312.980 8.82346   2
   2   0  -7 0.85781 0.72791   2
   2   0  -7 3.77273 1.20151   4
   2   0  -7 10.8255 4.37336   1
  -2   0   7 2.03215 0.96104   2
  -2   0   7 -0.5057 3.67108   1
   1   0  -7 437.877 12.8952   4
   1   0  -7 446.885 12.3012   2
   1   0  -7 393.478 26.4924   1
  -1   0   7 450.475 17.4548   1
  -1   0   7 441.767 12.0019   2
  -1   0   7 441.076 12.3635   4
  -1   0   7 423.841 11.0297   5
   0   0  -7 9.07766 2.18364   4
   0   0  -7 8.55111 6.31474   1
   0   0  -7 7.42475 1.11593   3
   0   0   7 6.91893 0.91715   5
   0   0   7 4.46276 1.48306   4
  -1   0  -7 189.785 14.9329   1
  -1   0  -7 159.230 6.31168   4
  -1   0  -7 168.420 5.86538   3
   1   0   7 164.230 5.45938   5
   1   0   7 192.145 14.4829   1
   1   0   7 170.386 5.96254   2
   1   0   7 165.491 6.28500   4
  -2   0  -7 44.9050 3.09083   3
  -2   0  -7 40.3337 10.1471   1
  -2   0  -7 40.8253 3.13688   4
   2   0   7 39.5047 2.64681   5
   2   0   7 35.5599 11.2566   1
   2   0   7 43.4210 3.50482   2
   2   0   7 49.7011 4.25346   4
  -3   0  -7 142.844 18.0447   1
  -3   0  -7 107.222 5.11813   4
  -3   0  -7 112.781 5.25823   3
   3   0   7 111.603 5.75008   4
   3   0   7 110.379 5.62150   2
   3   0   7 135.879 15.6980   1
   3   0   7 106.580 4.82523   5
  -4   0  -7 74.2858 4.95483   3
  -4   0  -7 83.9195 4.53649   4
  -4   0  -7 119.873 17.6364   1
   4   0   7 74.7676 4.62796   5
   4   0   7 70.1306 22.2477   1
   4   0   7 83.8259 6.08060   2
   4   0   7 88.3591 6.65320   4
  -5   0  -7 26.2827 3.25984   4
  -5   0  -7 34.9004 4.86278   3
  -5   0  -7 32.8661 3.80215   6
   5   0   7 34.8780 4.46550   4
   5   0   7 24.9153 3.80147   5
   6   0   7 14.8461 4.66856   4
   6   0   7 20.3043 3.37156   5
   7   0   7 39.0965 5.08275   5
  10  -1  -7 30.4326 3.78976   4
  10  -1  -7 31.2113 3.87142   5
  10  -1  -7 24.2247 3.54105   6
  10  -1  -7 31.8080 4.11999   2
   9  -1  -7 50.2572 3.98775   5
   9  -1  -7 56.0575 4.90720   4
   9  -1  -7 53.1131 3.84246   2
   9  -1  -7 61.0249 4.96064   6
   8  -1  -7 13.2349 6.23793   3
   8  -1  -7 6.24295 1.53424   5
   8  -1  -7 2.38197 1.83890   4
   8  -1  -7 5.65390 1.56567   2
   7  -1  -7 43.8745 2.85727   2
   7  -1  -7 59.5361 6.71196   3
   7  -1  -7 47.4783 2.55519   5
   7  -1  -7 47.4299 3.59503   4
   6  -1  -7 116.963 4.71440   2
   6  -1  -7 110.546 6.48612   3
   6  -1  -7 114.936 3.67974   5
   6  -1  -7 122.767 6.60336   1
   6  -1  -7 106.869 5.00243   4
  -6   1   7 114.423 5.69054   1
   5  -1  -7 1.11860 0.45786   5
   5  -1  -7 4.46167 2.04975   3
   5  -1  -7 1.39673 1.07524   4
   5  -1  -7 1.61292 0.77520   2
   5  -1  -7 -0.6899 3.68614   1
  -5   1   7 1.20243 2.18781   1
   4  -1  -7 -3.7450 3.69168   1
   4  -1  -7 0.19254 0.65288   2
   4  -1  -7 0.94796 1.17487   4
  -4   1   7 0.42630 2.51916   1
  -4   1   7 0.13028 0.96162   2
   3  -1  -7 81.2655 3.20420   2
   3  -1  -7 84.5080 8.82451   1
   3  -1  -7 82.7770 3.99367   4
  -3   1   7 77.1553 7.02087   1
  -3   1   7 74.7622 3.20985   2
   2  -1  -7 2.61663 1.06312   4
   2  -1  -7 8.31518 5.12536   1
   2  -1  -7 4.52372 0.99098   2
  -2   1   7 5.59287 1.14897   2
  -2   1   7 3.17273 4.85244   1
  -2   1   7 5.52936 1.38255   4
   1  -1  -7 160.843 12.6436   1
   1  -1  -7 155.572 6.11590   4
  -1   1   7 156.541 5.21560   2
  -1   1   7 156.388 5.87789   4
  -1   1   7 159.110 12.8118   1
  -1   1   7 155.385 4.21178   5
   0  -1  -7 190.192 7.23392   4
   0  -1  -7 194.603 6.07789   3
   0  -1  -7 188.351 17.6756   1
   0   1   7 196.060 5.76872   5
   0   1   7 218.165 15.3560   1
   0   1   7 207.839 7.29201   4
   0   1   7 205.558 6.71275   2
  -1  -1  -7 13.2983 1.91583   3
  -1  -1  -7 18.7846 2.58482   4
  -1  -1  -7 22.3334 8.56610   1
   1   1   7 17.1485 2.45366   4
   1   1   7 14.8110 1.69989   5
   1   1   7 16.4145 1.99622   2
   1   1   7 28.2271 9.88177   1
  -2  -1  -7 66.5402 4.08110   4
  -2  -1  -7 85.1132 13.3968   1
  -2  -1  -7 72.2385 3.79830   3
   2   1   7 75.9425 4.45368   2
   2   1   7 78.6875 5.09399   4
   2   1   7 103.399 18.7485   1
   2   1   7 66.9003 3.43817   5
  -3  -1  -7 312.872 24.6286   1
  -3  -1  -7 320.643 10.3237   3
  -3  -1  -7 314.810 10.5707   4
   3   1   7 277.862 29.4093   1
   3   1   7 328.914 10.8276   2
   3   1   7 326.983 11.3330   4
   3   1   7 319.720 10.0723   5
  -4  -1  -7 195.611 7.46324   4
   4   1   7 147.403 31.9546   1
   4   1   7 200.090 9.32506   4
   4   1   7 186.782 7.38206   5
   4   1   7 194.167 9.03112   2
  -5  -1  -7 203.409 6.04409   6
  -5  -1  -7 192.854 7.43050   6
   5   1   7 205.387 10.4659   4
   5   1   7 187.828 8.10898   5
   6   1   7 57.9739 5.69008   5
  11  -2  -7 20.8966 3.33887   2
  11  -2  -7 17.9640 3.59811   5
  11  -2  -7 24.5115 4.12733   4
  10  -2  -7 125.502 6.07021   5
  10  -2  -7 114.099 6.84797   4
  10  -2  -7 111.160 6.63924   6
  10  -2  -7 120.971 5.99665   2
   9  -2  -7 26.9314 3.19293   2
   9  -2  -7 23.4426 3.20513   4
   9  -2  -7 22.3967 3.44096   6
   9  -2  -7 19.2057 2.45635   5
   8  -2  -7 164.831 7.01237   4
   8  -2  -7 165.453 7.49906   6
   8  -2  -7 180.417 11.1635   3
   8  -2  -7 164.098 5.77906   5
   8  -2  -7 168.846 6.07511   2
   7  -2  -7 37.0398 2.53620   2
   7  -2  -7 34.4288 2.24856   5
   7  -2  -7 34.6815 3.38183   4
   7  -2  -7 38.3439 4.59763   3
   6  -2  -7 3.16241 0.75956   5
   6  -2  -7 3.32265 0.94886   2
   6  -2  -7 2.78820 2.54429   3
   6  -2  -7 2.75949 1.52301   4
   6  -2  -7 5.53913 2.38374   1
  -6   2   7 5.03547 1.94494   1
   5  -2  -7 71.9804 7.13859   1
   5  -2  -7 68.4977 2.88696   2
   5  -2  -7 63.6892 3.83987   4
   5  -2  -7 67.4721 4.55023   3
  -5   2   7 68.3301 3.36057   2
  -5   2   7 64.4134 4.91163   1
   4  -2  -7 131.883 9.77968   1
   4  -2  -7 132.205 4.38651   2
   4  -2  -7 130.697 5.53874   4
   4  -2  -7 128.554 5.19039   3
  -4   2   7 129.263 4.44337   2
  -4   2   7 136.169 8.20455   1
   3  -2  -7 7.13187 1.07929   2
   3  -2  -7 4.40864 1.42551   4
   3  -2  -7 9.94957 5.26065   1
  -3   2   7 3.35976 4.81498   1
  -3   2   7 3.40740 1.00750   2
  -3   2   7 4.24090 1.34899   4
   2  -2  -7 560.229 23.0677   1
   2  -2  -7 531.035 15.8888   4
  -2   2   7 541.250 14.7019   2
  -2   2   7 534.391 21.9354   1
  -2   2   7 548.532 15.4521   4
   1  -2  -7 141.847 6.03466   4
   1  -2  -7 141.403 12.7642   1
  -1   2   7 139.194 14.4220   1
  -1   2   7 146.034 4.07878   5
  -1   2   7 149.266 4.98223   2
  -1   2   7 141.992 6.01737   4
   0  -2  -7 140.158 14.6660   1
   0  -2  -7 154.409 6.43447   4
   0  -2  -7 159.061 4.66519   3
   0   2   7 151.534 5.13517   5
   0   2   7 197.421 16.3235   1
   0   2   7 158.056 6.62098   4
   0   2   7 161.033 5.62320   2
  -1  -2  -7 12.7370 2.20070   4
  -1  -2  -7 14.7726 9.43049   1
   1   2   7 19.3557 11.0481   1
   1   2   7 11.9776 2.08367   2
   1   2   7 11.9486 2.68938   4
   1   2   7 11.9254 1.38735   5
  -2  -2  -7 84.7371 14.3697   1
  -2  -2  -7 82.7252 4.78796   4
   2   2   7 91.1597 5.13284   2
   2   2   7 88.1312 6.16499   4
   2   2   7 101.585 16.5092   1
   2   2   7 82.3565 3.90837   5
  -3  -2  -7 0.87828 1.97880   6
  -3  -2  -7 1.59889 1.67887   4
  -3  -2  -7 -6.8262 12.9370   1
   3   2   7 13.1243 17.7939   1
   3   2   7 4.67635 3.87283   4
   3   2   7 0.21297 1.50868   5
  -4  -2  -7 2.42657 1.82719   4
  -4  -2  -7 -2.4851 2.09732   6
   4   2   7 4.21060 3.93798   4
  -5  -2  -7 9.40806 2.50555   6
   5   2   7 12.7002 2.69814   5
   6   2   7 14.9753 3.49825   5
  11  -3  -7 41.9347 4.20250   5
  11  -3  -7 39.8561 5.09287   2
  11  -3  -7 40.5361 4.94417   4
  10  -3  -7 6.70205 2.51402   5
  10  -3  -7 2.30490 1.94377   2
  10  -3  -7 4.43335 2.89378   4
  10  -3  -7 2.61541 3.10604   6
   9  -3  -7 1.24281 2.36780   4
   9  -3  -7 0.10251 2.84753   6
   9  -3  -7 8.68663 5.33509   3
   9  -3  -7 -0.0761 1.69671   5
   9  -3  -7 4.07067 2.23654   2
   8  -3  -7 49.1795 6.30095   3
   8  -3  -7 52.1966 4.83287   6
   8  -3  -7 52.5087 3.06269   5
   8  -3  -7 42.6593 3.01711   2
   8  -3  -7 54.8411 4.32552   4
   7  -3  -7 13.8878 2.30624   4
   7  -3  -7 13.9147 2.73372   6
   7  -3  -7 14.8172 1.80302   5
   7  -3  -7 13.4654 3.48809   3
   7  -3  -7 12.9612 1.53010   2
   6  -3  -7 120.662 7.13070   3
   6  -3  -7 113.543 4.03727   2
   6  -3  -7 114.507 5.46214   4
  -6   3   7 110.538 4.95799   1
   5  -3  -7 533.370 15.9309   4
   5  -3  -7 546.996 19.1465   1
   5  -3  -7 547.837 14.3449   2
   5  -3  -7 544.204 15.4264   3
  -5   3   7 520.952 17.2538   1
  -5   3   7 539.210 14.4257   2
   4  -3  -7 31.5957 3.05425   4
   4  -3  -7 40.8580 6.44733   1
   4  -3  -7 32.3748 2.02650   2
   4  -3  -7 37.5348 2.82220   3
  -4   3   7 32.5266 2.16962   2
  -4   3   7 38.6204 3.08612   4
  -4   3   7 33.9225 6.31532   1
   3  -3  -7 126.681 5.64990   4
   3  -3  -7 112.936 10.7848   1
  -3   3   7 110.395 12.2983   1
  -3   3   7 128.031 5.54067   4
  -3   3   7 125.620 4.18049   2
   2  -3  -7 80.4931 11.1658   1
   2  -3  -7 81.1348 4.50278   4
  -2   3   7 78.2240 4.70954   4
  -2   3   7 97.5250 11.4333   1
  -2   3   7 81.9768 3.34585   2
   1  -3  -7 28.8931 8.54966   1
   1  -3  -7 25.1532 3.08864   4
  -1   3   7 26.8601 10.9495   1
  -1   3   7 20.8731 2.79237   4
  -1   3   7 26.9712 1.45278   5
  -1   3   7 29.3712 2.44683   2
   0  -3  -7 33.3926 10.1412   1
   0  -3  -7 24.1381 3.08805   4
   0   3   7 33.0048 12.7364   1
   0   3   7 27.5657 2.95301   2
   0   3   7 26.7258 1.76987   5
   0   3   7 28.6311 3.42404   4
  -1  -3  -7 3.40428 1.65644   4
  -1  -3  -7 13.4319 11.2839   1
  -1  -3  -7 9.84915 2.23675   6
   1   3   7 9.77700 2.24607   2
   1   3   7 8.58116 1.32599   5
   1   3   7 8.20016 3.05796   4
   1   3   7 16.1912 13.8446   1
  -2  -3  -7 44.6647 4.26648   6
  -2  -3  -7 39.7052 5.21506   4
  -2  -3  -7 68.9190 15.7378   1
   2   3   7 37.3954 4.69597   4
   2   3   7 38.0040 3.02741   5
   2   3   7 39.7871 4.85781   2
   2   3   7 53.8381 18.8166   1
  -3  -3  -7 82.3813 5.34636   6
  -3  -3  -7 82.7337 5.15069   4
   3   3   7 108.093 10.3653   4
   3   3   7 83.9271 7.21297   2
   3   3   7 78.1445 4.52112   5
  -4  -3  -7 23.4429 3.29038   6
   4   3   7 20.7342 2.93122   5
   5   3   7 67.5012 5.76816   5
  11  -4  -7 170.123 9.33765   4
  11  -4  -7 189.975 7.72159   2
  10  -4  -7 1.57912 3.45039   4
  10  -4  -7 6.48479 2.10366   2
  10  -4  -7 2.27449 2.29270   5
  10  -4  -7 3.79939 3.71711   6
   9  -4  -7 62.0160 3.59667   2
   9  -4  -7 65.2628 5.67149   6
   9  -4  -7 59.0931 4.06333   5
   9  -4  -7 68.2078 9.83865   3
   9  -4  -7 53.2423 6.22535   4
   8  -4  -7 18.2228 2.83281   4
   8  -4  -7 17.5115 3.25521   6
   8  -4  -7 18.2070 1.98993   5
   8  -4  -7 23.6569 4.91047   3
   8  -4  -7 18.4519 2.15495   2
   7  -4  -7 80.7094 4.99446   4
   7  -4  -7 76.7106 3.25748   2
   7  -4  -7 80.5119 3.32769   5
   7  -4  -7 81.3875 5.52208   6
   7  -4  -7 90.5701 6.66123   3
   6  -4  -7 207.115 6.17408   2
   6  -4  -7 201.872 8.61723   6
   6  -4  -7 204.645 5.54626   5
   6  -4  -7 198.085 7.92546   4
   6  -4  -7 220.263 8.06042   3
  -6   4   7 205.406 8.70910   1
   5  -4  -7 740.571 21.8827   6
   5  -4  -7 751.330 19.8058   3
   5  -4  -7 729.901 21.0933   4
   5  -4  -7 739.877 19.1126   2
  -5   4   7 729.873 25.3254   1
   4  -4  -7 4.94115 5.32077   1
   4  -4  -7 6.40489 2.04252   6
   4  -4  -7 7.43039 1.75277   4
   4  -4  -7 8.85697 1.15601   3
  -4   4   7 9.30922 2.24298   4
  -4   4   7 13.2897 7.52895   1
  -4   4   7 10.8842 1.28321   2
   3  -4  -7 264.031 7.34903   5
   3  -4  -7 272.731 16.8227   1
   3  -4  -7 255.663 9.86582   6
   3  -4  -7 264.674 9.48594   4
  -3   4   7 272.173 9.28021   4
  -3   4   7 269.556 18.5923   1
  -3   4   7 268.285 7.54570   2
   2  -4  -7 206.703 8.01900   4
   2  -4  -7 197.411 8.29236   6
   2  -4  -7 188.965 15.9489   1
   2  -4  -7 208.828 6.30459   5
  -2   4   7 208.303 8.26759   4
  -2   4   7 219.223 18.8397   1
  -2   4   7 207.871 6.31658   2
   1  -4  -7 112.659 6.19479   6
   1  -4  -7 136.803 15.7103   1
   1  -4  -7 114.285 5.78188   4
   1  -4  -7 119.333 4.93723   5
  -1   4   7 135.269 16.8110   1
  -1   4   7 126.250 6.68968   4
  -1   4   7 127.581 4.70909   2
  -1   4   7 119.223 3.94593   5
   0  -4  -7 263.850 9.60119   4
   0  -4  -7 263.716 21.7900   1
   0  -4  -7 265.580 8.78271   5
   0  -4  -7 241.480 9.51386   6
   0   4   7 260.817 10.8169   4
   0   4   7 245.327 7.51319   5
   0   4   7 280.615 25.1289   1
   0   4   7 247.272 8.25897   2
  -1  -4  -7 63.5022 15.1688   1
  -1  -4  -7 49.7829 4.36711   4
  -1  -4  -7 52.7941 4.71045   6
   1   4   7 60.6069 18.3382   1
   1   4   7 54.3109 4.62473   2
   1   4   7 54.9720 6.70286   4
   1   4   7 49.3846 2.95722   5
  -2  -4  -7 98.5668 5.78782   4
  -2  -4  -7 92.4795 5.96581   6
  -2  -4  -7 85.6670 18.2770   1
   2   4   7 88.9902 4.80216   5
   2   4   7 98.0425 6.78788   2
   2   4   7 152.641 24.9892   1
  -3  -4  -7 32.3063 4.32761   4
  -3  -4  -7 32.7933 3.93922   6
   3   4   7 36.7359 3.86521   5
  -4  -4  -7 23.2960 3.23971   6
   4   4   7 23.9940 3.30325   5
  11  -5  -7 105.637 7.52117   6
  11  -5  -7 104.616 7.43502   5
  11  -5  -7 110.715 8.09188   4
  10  -5  -7 5.18392 2.05545   2
  10  -5  -7 -5.4969 4.77668   4
  10  -5  -7 11.9848 3.57236   6
  10  -5  -7 11.0105 2.74496   5
   9  -5  -7 230.086 9.30231   4
   9  -5  -7 217.692 7.14721   2
   9  -5  -7 221.133 7.72412   5
   9  -5  -7 228.221 9.62082   6
   8  -5  -7 19.6714 2.06993   5
   8  -5  -7 18.1475 2.99629   4
   8  -5  -7 18.4280 1.75125   2
   8  -5  -7 17.9187 4.50053   3
   8  -5  -7 15.3121 3.81625   6
   7  -5  -7 145.982 4.78578   5
   7  -5  -7 142.844 6.86495   4
   7  -5  -7 167.302 8.93154   3
   7  -5  -7 149.177 8.05931   6
   7  -5  -7 150.716 5.21995   2
   7  -5  -7 152.937 5.02275   5
   6  -5  -7 19.6969 2.50536   3
   6  -5  -7 14.2360 1.62906   5
   6  -5  -7 15.7003 2.54198   4
   6  -5  -7 12.4926 2.68057   6
   6  -5  -7 16.4316 1.78668   5
   6  -5  -7 16.1952 1.62187   2
  -6   5   7 13.4555 5.87317   1
  -6   5   7 12.6815 6.24048   1
   5  -5  -7 202.420 5.59935   5
   5  -5  -7 200.401 8.09123   4
   5  -5  -7 204.011 8.82666   6
  -5   5   7 205.400 15.1893   1
  -5   5   7 204.724 7.79281   4
   4  -5  -7 16.7493 1.97305   5
   4  -5  -7 23.9030 2.95808   4
   4  -5  -7 21.6070 8.07144   1
   4  -5  -7 21.0008 3.22482   6
  -4   5   7 19.1200 1.74979   2
  -4   5   7 18.5413 2.78476   4
  -4   5   7 12.8636 9.50430   1
   3  -5  -7 150.554 7.21609   6
   3  -5  -7 150.637 14.8090   1
   3  -5  -7 146.160 6.70851   4
   3  -5  -7 146.932 5.00923   5
  -3   5   7 137.628 18.5522   1
  -3   5   7 144.426 4.62791   2
  -3   5   7 145.232 7.21606   4
   2  -5  -7 6.30466 1.98309   5
   2  -5  -7 11.5826 9.18611   1
   2  -5  -7 6.33138 1.89497   4
   2  -5  -7 3.02497 2.20918   6
  -2   5   7 -8.8324 11.6487   1
  -2   5   7 7.18246 3.29395   4
  -2   5   7 5.16950 1.36999   2
   1  -5  -7 19.1278 10.7754   1
   1  -5  -7 -1.4705 2.01046   5
   1  -5  -7 1.37039 2.19952   6
  -1   5   7 3.64111 2.95651   4
  -1   5   7 1.40869 0.87268   5
  -1   5   7 7.89696 16.2447   1
   0  -5  -7 8.14167 13.1143   1
   0  -5  -7 10.4765 2.67073   4
   0  -5  -7 8.68671 2.59298   6
   0  -5  -7 15.5398 3.22605   5
   0   5   7 13.8392 3.86396   4
   0   5   7 -15.001 17.3740   1
   0   5   7 15.2253 1.74067   5
   0   5   7 17.9413 2.68777   2
  -1  -5  -7 1.83055 3.63024   5
  -1  -5  -7 -2.6608 15.5094   1
  -1  -5  -7 -0.6041 2.21255   4
  -1  -5  -7 -1.7417 2.45281   6
   1   5   7 11.2444 21.2029   1
   1   5   7 2.03846 1.48691   5
   1   5   7 3.12378 2.75064   2
  -2  -5  -7 50.9909 5.42585   6
  -2  -5  -7 43.8573 4.85745   4
   2   5   7 55.7857 5.43070   2
  -3  -5  -7 21.1084 3.54941   6
   3   5   7 24.4772 3.06763   5
  10  -6  -7 20.1156 3.81221   4
  10  -6  -7 18.3751 4.15672   6
  10  -6  -7 9.38645 3.05657   5
  10  -6  -7 17.1469 3.07249   2
   9  -6  -7 14.7643 3.75447   6
   9  -6  -7 15.9604 3.14967   5
   9  -6  -7 14.4407 1.70427   2
   9  -6  -7 10.0468 5.18322   3
   9  -6  -7 13.9079 3.37511   4
   8  -6  -7 1.26176 1.73012   5
   8  -6  -7 0.89906 1.03713   2
   8  -6  -7 4.89214 3.70422   3
   8  -6  -7 0.93859 2.82701   6
   8  -6  -7 1.75322 2.00619   5
   8  -6  -7 -1.5491 2.35032   4
   7  -6  -7 52.6114 4.84892   4
   7  -6  -7 57.6585 3.25858   5
   7  -6  -7 60.3210 4.86500   3
   7  -6  -7 50.8224 2.91686   5
   7  -6  -7 50.2786 5.35529   6
  -7   6   7 55.2890 6.73397   1
   6  -6  -7 33.3297 4.11376   4
   6  -6  -7 32.2012 2.40550   5
   6  -6  -7 40.8601 5.06439   6
  -6   6   7 33.2679 7.77247   1
   5  -6  -7 291.413 8.17527   5
   5  -6  -7 296.378 10.5985   4
   5  -6  -7 282.027 11.1499   6
  -5   6   7 292.555 10.5845   4
   4  -6  -7 22.0375 2.80220   5
   4  -6  -7 20.0540 3.21840   6
   4  -6  -7 14.4002 2.60713   4
  -4   6   7 18.3974 1.47305   2
   3  -6  -7 95.2058 6.15174   6
   3  -6  -7 101.381 17.3789   1
   3  -6  -7 107.031 4.79266   5
  -3   6   7 98.5070 7.27154   4
  -3   6   7 92.7511 3.42354   2
   2  -6  -7 49.9131 4.66084   4
   2  -6  -7 37.3249 4.77204   6
   2  -6  -7 40.4050 3.49657   5
   2  -6  -7 33.8398 12.7242   1
  -2   6   7 39.2202 5.04736   4
  -2   6   7 33.8698 2.79362   2
   1  -6  -7 18.6109 3.34389   6
   1  -6  -7 19.0524 3.50100   5
   1  -6  -7 21.2540 3.46139   4
   1  -6  -7 19.2953 14.0775   1
  -1   6   7 18.8927 2.44196   2
   0  -6  -7 -18.092 17.4180   1
   0  -6  -7 2.06983 2.71120   6
   0  -6  -7 0.11476 2.24708   4
   0  -6  -7 1.16705 3.94422   5
   0   6   7 -1.2649 2.60810   2
   0   6   7 0.10351 1.36749   5
  -1  -6  -7 23.6193 3.63374   4
  -1  -6  -7 27.6925 3.88842   6
   1   6   7 19.9499 2.79969   5
   1   6   7 26.3200 4.16464   2
  -2  -6  -7 34.3433 4.25801   6
   2   6   7 40.3778 4.25616   5
  10  -7  -7 2.44285 3.72633   6
  10  -7  -7 -2.4212 3.46883   4
   9  -7  -7 31.2780 3.99660   4
   9  -7  -7 29.9360 3.22680   5
   9  -7  -7 32.0959 5.88968   3
   9  -7  -7 27.5525 4.26199   6
   8  -7  -7 48.5381 3.85047   5
   8  -7  -7 41.3373 5.57086   4
   8  -7  -7 45.3060 3.83150   5
   8  -7  -7 42.9377 4.96578   6
   7  -7  -7 19.1033 3.78635   6
   7  -7  -7 31.8822 3.86980   5
   6  -7  -7 13.9201 3.24082   4
   6  -7  -7 18.8811 3.43392   6
   6  -7  -7 21.0428 2.16918   5
  -6   7   7 18.5384 3.66460   4
   5  -7  -7 15.8456 2.89097   4
   5  -7  -7 14.2885 3.56380   6
   5  -7  -7 20.3742 2.40013   5
  -5   7   7 17.2771 3.94404   4
   4  -7  -7 29.9304 3.94182   5
   4  -7  -7 26.5114 3.41304   4
   4  -7  -7 28.6366 4.23262   6
  -4   7   7 26.6050 5.10582   4
   3  -7  -7 1.17719 2.50030   6
   3  -7  -7 2.19053 3.03107   5
   3  -7  -7 -4.4914 2.19108   4
  -3   7   7 -0.1445 0.92370   2
   2  -7  -7 8.19582 3.01749   6
   2  -7  -7 13.6961 3.60466   5
   2  -7  -7 12.4981 3.10151   4
  -2   7   7 15.1225 2.87179   2
   1  -7  -7 9.57806 2.73589   4
   1  -7  -7 11.2156 4.44729   5
   1  -7  -7 4.57191 3.06857   6
  -1   7   7 5.22734 2.90855   2
   0  -7  -7 -2.4571 5.75655   5
   0  -7  -7 3.35477 3.15655   6
   0  -7  -7 1.46190 2.76951   4
   0   7   7 5.28301 3.41723   2
   0   7   7 2.95398 1.83937   5
  -1  -7  -7 21.0592 3.84839   4
  -1  -7  -7 26.0285 4.03273   6
   1   7   7 24.7669 3.06272   5
   9  -8  -7 203.160 9.80858   4
   9  -8  -7 212.179 10.4682   6
   8  -8  -7 0.49568 3.54345   6
   8  -8  -7 -0.1437 2.91909   4
   7  -8  -7 86.4113 5.54585   5
   7  -8  -7 75.9632 6.95203   6
   7  -8  -7 86.9640 6.33997   4
   6  -8  -7 71.2236 6.59724   6
   6  -8  -7 64.2709 5.99701   4
   6  -8  -7 84.7893 4.89729   5
   5  -8  -7 184.371 8.74291   4
   5  -8  -7 192.907 7.54053   5
   5  -8  -7 173.905 9.24669   6
   4  -8  -7 7.49544 3.34746   5
   4  -8  -7 1.83952 2.75899   4
   4  -8  -7 -0.5256 2.91804   6
   3  -8  -7 25.0592 4.38805   5
   3  -8  -7 15.2153 3.43792   6
   3  -8  -7 22.9192 3.49864   4
   2  -8  -7 22.5678 5.42228   5
   2  -8  -7 23.7647 3.89656   4
   2  -8  -7 29.8284 4.49322   6
   1  -8  -7 64.9689 6.83766   6
   1  -8  -7 71.8252 6.45415   4
   0  -8  -7 48.4672 6.24780   4
   0  -8  -7 30.2860 4.54832   6
   8  -9  -7 1.03990 3.46033   4
   8  -9  -7 5.28467 3.89652   6
   7  -9  -7 8.31397 4.45238   6
   7  -9  -7 3.56387 3.41032   4
   6  -9  -7 12.4728 3.66356   6
   6  -9  -7 12.5593 3.38385   4
   5  -9  -7 11.7271 3.35454   4
   5  -9  -7 12.9941 3.98424   6
   4  -9  -7 1.89708 3.33519   4
   4  -9  -7 9.20027 3.45715   6
   3  -9  -7 5.42320 3.39769   4
   3  -9  -7 12.1246 4.03171   6
   2  -9  -7 -0.9674 3.97903   6
   2  -9  -7 3.82477 3.63986   4
   0  12  -8 0.59966 2.67208   2
  -1  12  -8 6.02716 2.74341   2
  -2  12  -8 7.63726 4.70348   4
  -2  12  -8 0.66266 2.49136   2
  -3  12  -8 7.08380 2.91948   2
  -5  12  -8 40.3858 5.86003   3
  -6  12  -8 61.6248 7.31793   3
   2  11  -8 -3.2487 2.39825   2
   1  11  -8 25.7326 3.12635   2
   0  11  -8 23.2801 3.09946   2
  -1  11  -8 154.821 6.79002   2
  -2  11  -8 5.32998 3.25212   4
  -2  11  -8 4.40989 2.19227   2
   2 -11   8 7.06658 3.65602   2
  -3  11  -8 55.6534 5.10227   2
  -3  11  -8 63.2883 5.97342   4
   3 -11   8 83.4574 6.37795   2
  -4  11  -8 2.14074 2.95914   3
  -4  11  -8 1.91619 1.77090   4
   4 -11   8 1.04066 3.50949   2
  -5  11  -8 2.07561 3.44200   3
  -6  11  -8 4.74954 4.28234   3
  -7  11  -8 -8.0660 4.74519   3
   4  10  -8 67.6999 5.98758   2
   3  10  -8 11.5442 2.69125   2
   2  10  -8 9.00393 2.32916   2
   1  10  -8 4.35643 9.31014   1
   1  10  -8 -0.6711 1.81689   2
   0  10  -8 15.4986 2.35166   2
   0  10  -8 14.4449 8.77544   1
   0 -10   8 17.5624 3.66181   2
   0 -10   8 38.5923 26.0887   1
  -1  10  -8 28.2061 12.4821   1
  -1  10  -8 16.4204 2.39168   2
   1 -10   8 24.1861 3.62607   2
   1 -10   8 19.6267 14.9677   1
   2 -10   8 6.89146 3.28670   2
   3 -10   8 -2.8582 2.69089   2
  -4  10  -8 28.0077 3.80565   3
  -4  10  -8 33.8310 3.71749   4
  -4  10  -8 30.0660 2.98021   4
   4 -10   8 48.2163 5.70201   2
  -5  10  -8 6.83382 3.31886   3
   5 -10   8 5.31503 5.28972   2
  -6  10  -8 -1.1971 3.31904   3
  -7  10  -8 8.84895 4.68846   3
   5   9  -8 71.9064 5.96084   2
   4   9  -8 41.3705 4.43151   2
   3   9  -8 24.6731 2.99423   2
   2   9  -8 0.95239 1.82340   2
   1   9  -8 58.0399 3.88576   2
   1   9  -8 59.8617 9.02094   1
   1   9  -8 63.2502 5.42846   6
  -1  -9   8 70.0707 15.3265   1
  -1  -9   8 57.0988 5.73055   2
  -1  -9   8 48.6394 5.74440   5
   0   9  -8 3.12034 1.97743   2
   0   9  -8 -0.5402 2.46517   6
   0   9  -8 0.77255 6.74341   1
   0  -9   8 7.03238 11.6763   1
   0  -9   8 2.54464 2.59979   5
   0  -9   8 0.17556 2.62506   2
  -1   9  -8 9.26164 2.90638   6
  -1   9  -8 4.02465 7.12931   1
  -1   9  -8 4.91284 1.72595   2
   1  -9   8 6.68220 2.96449   2
   1  -9   8 5.41010 2.59718   5
   1  -9   8 -4.1495 10.1940   1
  -2   9  -8 2.18345 2.67570   6
  -2   9  -8 2.55167 1.58986   2
  -2   9  -8 13.9950 8.23249   1
   2  -9   8 0.50484 2.10773   2
   2  -9   8 1.99188 2.25076   5
   2  -9   8 -0.8047 9.53749   1
  -3   9  -8 13.9065 2.53200   2
  -3   9  -8 14.1376 2.90124   6
   3  -9   8 25.2777 15.0405   1
   3  -9   8 11.4994 2.92107   5
   3  -9   8 11.5569 3.28907   2
  -4   9  -8 22.2396 3.44855   3
  -4   9  -8 19.8733 2.02994   4
   4  -9   8 25.5470 3.25707   2
  -5   9  -8 2.32725 2.97935   3
   5  -9   8 2.97526 2.88437   2
  -6   9  -8 -3.9346 3.20484   3
  -7   9  -8 30.6916 5.18001   3
  -8   9  -8 18.6271 5.57793   3
   6   8  -8 1.79271 2.69538   2
   6   8  -8 0.04999 2.50329   5
   5   8  -8 5.91306 2.32684   5
   5   8  -8 11.3093 4.23783   6
   5   8  -8 3.84483 2.08051   2
   4   8  -8 -0.5409 3.03810   6
   4   8  -8 0.11062 1.65571   2
   3   8  -8 9.46087 1.91421   2
   3   8  -8 13.6321 2.92627   6
  -3  -8   8 8.73275 3.68869   5
   2   8  -8 -5.1451 5.95270   1
   2   8  -8 2.23717 1.52673   2
   2   8  -8 -1.4332 2.09143   6
  -2  -8   8 -1.5444 11.4992   1
  -2  -8   8 0.44321 2.75811   2
  -2  -8   8 -1.8882 2.97245   5
   1   8  -8 88.9065 4.45930   2
   1   8  -8 96.0326 10.3457   1
   1   8  -8 100.390 6.49730   6
  -1  -8   8 93.0096 5.44882   5
  -1  -8   8 98.2749 13.6369   1
   0   8  -8 -0.4370 1.20177   2
   0   8  -8 -4.4297 5.97810   1
   0  -8   8 0.56348 9.00291   1
   0  -8   8 0.29733 2.16561   2
   0  -8   8 -2.9531 1.94039   5
  -1   8  -8 20.5160 6.89150   1
  -1   8  -8 16.1741 2.03263   2
   1  -8   8 22.1647 2.80866   2
   1  -8   8 11.6306 8.40249   1
   1  -8   8 18.6921 2.66343   5
  -2   8  -8 26.0454 2.36866   4
  -2   8  -8 31.2298 3.01417   2
  -2   8  -8 29.0736 8.13304   1
   2  -8   8 28.6949 3.05451   5
   2  -8   8 29.5437 8.80239   1
   2  -8   8 29.7109 3.80393   2
  -3   8  -8 9.29631 2.34149   6
  -3   8  -8 6.35461 1.87683   2
  -3   8  -8 -7.3204 11.8785   1
  -3   8  -8 8.22824 1.48421   4
   3  -8   8 9.26431 8.12519   1
   3  -8   8 5.19141 2.15544   2
  -4   8  -8 7.88888 2.68098   3
  -4   8  -8 16.9646 3.00214   6
  -4   8  -8 10.0400 1.57400   4
  -5   8  -8 19.9659 3.61819   3
  -5   8  -8 19.5195 3.45215   6
  -5   8  -8 22.9047 2.01096   4
   5  -8   8 19.3114 3.34122   2
  -6   8  -8 1.14679 3.51294   3
  -6   8  -8 6.29139 3.49797   6
  -7   8  -8 31.5319 5.49003   3
  -8   8  -8 13.0913 5.63727   3
   6   7  -8 64.9550 5.19435   2
   6   7  -8 74.7469 5.06400   5
   5   7  -8 64.3399 4.55069   2
   5   7  -8 62.3814 4.25091   5
   5   7  -8 75.2737 6.58743   6
   4   7  -8 159.943 6.43286   2
   4   7  -8 148.168 6.47938   6
  -4  -7   8 158.220 9.00634   5
   3   7  -8 41.1949 7.18559   1
   3   7  -8 47.9736 3.84779   6
   3   7  -8 42.5634 3.21262   2
  -3  -7   8 41.0703 5.16446   5
  -3  -7   8 72.4312 12.4656   1
   2   7  -8 39.4102 3.04155   2
   2   7  -8 43.5391 3.28445   6
   2   7  -8 39.7341 6.93244   1
  -2  -7   8 39.1801 4.12962   5
  -2  -7   8 41.4047 4.50714   2
  -2  -7   8 34.7823 10.2030   1
   1   7  -8 -8.3666 4.90307   1
   1   7  -8 1.73111 1.36083   6
   1   7  -8 -0.3700 1.10806   2
  -1  -7   8 1.12470 2.07650   2
  -1  -7   8 -0.4277 1.69166   5
  -1  -7   8 -13.670 7.21885   1
   0   7  -8 5.20552 1.51533   2
   0   7  -8 3.03005 1.34823   6
   0   7  -8 -1.5924 5.44026   1
   0  -7   8 -3.1359 6.89760   1
   0  -7   8 4.67954 1.90511   2
   0  -7   8 4.30761 1.77749   5
  -1   7  -8 41.8680 3.15412   6
  -1   7  -8 46.8278 3.19406   2
  -1   7  -8 48.3731 7.83326   1
   1  -7   8 46.4337 3.45196   5
   1  -7   8 49.1170 3.73088   2
   1  -7   8 47.4176 8.05997   1
  -2   7  -8 125.632 4.77836   4
  -2   7  -8 129.279 13.0567   1
  -2   7  -8 125.482 5.48167   2
  -2   7  -8 128.234 5.05130   6
   2  -7   8 131.347 12.2775   1
   2  -7   8 131.641 5.60572   2
  -3   7  -8 104.074 14.2552   1
  -3   7  -8 94.0759 4.58104   6
  -3   7  -8 93.7417 4.03193   4
  -3   7  -8 87.7900 5.33930   3
   3  -7   8 101.980 5.14537   2
   3  -7   8 87.8411 12.1439   1
  -4   7  -8 145.866 6.00770   6
  -4   7  -8 139.936 16.5771   1
  -4   7  -8 143.703 5.20878   4
   4  -7   8 147.969 6.56869   2
   4  -7   8 148.788 13.8113   1
  -5   7  -8 72.6690 5.06898   6
  -5   7  -8 64.9408 6.02630   3
  -5   7  -8 71.2389 3.03718   4
   5  -7   8 79.6132 5.64268   2
  -6   7  -8 5.80425 3.54824   3
  -7   7  -8 77.4152 7.27236   6
  -7   7  -8 76.6614 8.24085   3
  -8   7  -8 11.2580 5.19564   3
   8  -7   8 10.6127 4.62746   5
   7   6  -8 3.19330 2.25679   2
   7   6  -8 5.26014 2.36453   5
   6   6  -8 -1.9413 1.63548   5
   6   6  -8 1.41056 2.00219   2
   6   6  -8 5.71349 2.65213   6
   5   6  -8 14.5770 1.95671   5
   5   6  -8 12.4809 2.09772   2
   5   6  -8 18.4418 2.58999   6
  -5  -6   8 12.7209 4.57382   5
   4   6  -8 16.7630 2.16969   2
   4   6  -8 10.8983 6.17160   1
   4   6  -8 21.2171 2.95175   6
  -4  -6   8 16.8500 3.17128   5
   3   6  -8 79.1157 4.12337   2
   3   6  -8 103.536 9.14592   1
   3   6  -8 95.2075 4.05711   6
  -3  -6   8 86.6858 5.46799   2
  -3  -6   8 86.7555 5.16424   5
  -3  -6   8 99.1625 13.9058   1
   2   6  -8 55.8521 7.10852   1
   2   6  -8 50.6007 3.09466   2
   2   6  -8 47.3196 2.93138   6
  -2  -6   8 57.5817 9.07306   1
  -2  -6   8 48.3654 3.54588   5
  -2  -6   8 48.3172 4.01009   2
   1   6  -8 2.25067 1.34098   6
   1   6  -8 2.17741 0.99139   2
   1   6  -8 0.69024 4.72257   1
  -1  -6   8 -1.8634 5.76498   1
  -1  -6   8 3.35018 1.49159   5
  -1  -6   8 0.25045 1.62676   2
   0   6  -8 151.880 5.81516   2
   0   6  -8 145.176 11.0090   1
   0   6  -8 162.927 5.38553   6
   0  -6   8 169.501 5.77545   5
   0  -6   8 157.423 6.48355   2
   0  -6   8 151.080 11.3874   1
  -1   6  -8 17.2185 9.53883   1
  -1   6  -8 22.7308 2.35398   6
  -1   6  -8 22.1421 2.47446   2
  -1   6  -8 24.8642 2.18217   4
   1  -6   8 25.4669 6.57422   1
   1  -6   8 23.0004 2.95265   2
   1  -6   8 24.4894 2.61291   5
  -2   6  -8 16.5043 2.26738   2
  -2   6  -8 19.1116 2.31661   6
  -2   6  -8 13.0340 7.44873   1
  -2   6  -8 15.3979 1.84057   4
   2  -6   8 19.8052 6.48121   1
   2  -6   8 18.6323 2.44841   2
  -3   6  -8 52.0634 3.15021   6
  -3   6  -8 48.9094 4.12972   3
  -3   6  -8 38.0997 9.44859   1
  -3   6  -8 45.1486 2.98927   4
   3  -6   8 48.4565 11.1602   1
   3  -6   8 51.2397 3.86746   2
  -4   6  -8 43.5563 3.05384   4
  -4   6  -8 43.9681 11.3576   1
  -4   6  -8 52.7037 4.71496   3
  -4   6  -8 54.4892 3.39863   6
   4  -6   8 45.2300 8.77343   1
   4  -6   8 49.6899 4.39653   2
  -5   6  -8 24.6850 2.40377   4
  -5   6  -8 27.9613 3.47709   6
  -5   6  -8 27.5845 4.19995   3
   5  -6   8 25.0132 3.36154   2
  -6   6  -8 15.8642 3.55780   3
  -6   6  -8 26.8319 3.34585   6
  -7   6  -8 48.5786 7.15167   3
  -7   6  -8 47.2772 6.07524   6
   7  -6   8 52.5380 6.42278   5
  -8   6  -8 0.69741 5.33561   3
   8  -6   8 8.60497 3.99284   5
   8   5  -8 82.4224 5.65754   5
   8   5  -8 75.5016 5.95781   2
   7   5  -8 1.29121 1.97875   5
   7   5  -8 -0.4597 2.01195   2
   7   5  -8 -2.7766 2.37779   6
   6   5  -8 256.644 8.01151   6
   6   5  -8 249.786 8.38361   5
   6   5  -8 244.248 8.79811   2
  -6  -5   8 241.955 11.2439   5
   5   5  -8 2.63087 1.51349   6
   5   5  -8 2.30459 1.28721   5
   5   5  -8 3.29656 1.37159   2
  -5  -5   8 0.02371 2.84990   5
   4   5  -8 113.498 4.96701   2
   4   5  -8 129.239 9.34283   1
   4   5  -8 124.861 4.50594   6
  -4  -5   8 114.880 5.82758   5
  -4  -5   8 93.9992 13.3214   1
   3   5  -8 0.99815 1.05239   2
   3   5  -8 1.34476 1.20415   6
   3   5  -8 -0.9086 3.91000   1
  -3  -5   8 0.71499 1.72196   5
  -3  -5   8 1.60589 2.07522   2
  -3  -5   8 4.11086 6.06670   1
   2   5  -8 -0.6200 1.00372   6
   2   5  -8 -5.4310 3.90186   1
   2   5  -8 -0.7545 0.84205   2
  -2  -5   8 -4.2236 5.10868   1
  -2  -5   8 -0.7541 1.33357   5
  -2  -5   8 -0.2285 1.61644   2
   1   5  -8 254.290 13.4726   1
   1   5  -8 255.638 8.28896   2
   1   5  -8 269.104 7.65285   6
  -1  -5   8 260.248 7.81262   5
  -1  -5   8 262.898 13.0168   1
  -1  -5   8 258.644 8.32904   2
   0   5  -8 906.606 22.3900   6
   0   5  -8 822.459 29.1778   1
   0   5  -8 843.525 23.1387   2
   0   5  -8 854.192 22.9619   4
   0  -5   8 903.418 23.0609   2
   0  -5   8 866.074 22.4810   5
   0  -5   8 846.863 27.3489   1
  -1   5  -8 -2.7812 5.69553   1
  -1   5  -8 4.29389 1.11959   4
  -1   5  -8 4.32643 1.26069   2
   1  -5   8 3.76712 1.54591   2
  -2   5  -8 458.652 21.9470   1
  -2   5  -8 515.141 13.2444   6
  -2   5  -8 472.033 14.3414   2
  -2   5  -8 482.641 13.7924   4
   2  -5   8 497.311 18.9972   1
   2  -5   8 482.654 13.9029   2
  -3   5  -8 0.19328 1.16793   4
  -3   5  -8 -2.8786 1.50700   3
  -3   5  -8 2.72234 8.94326   1
  -3   5  -8 0.96495 1.20092   6
   3  -5   8 -0.2332 1.64662   2
   3  -5   8 4.21466 5.96223   1
  -4   5  -8 74.4191 4.61754   6
  -4   5  -8 79.1265 13.5813   1
  -4   5  -8 75.8918 3.63022   4
  -4   5  -8 68.7459 5.21365   3
   4  -5   8 75.8493 9.92843   1
   4  -5   8 70.6587 4.90621   2
  -5   5  -8 83.1398 7.37337   3
  -5   5  -8 87.3324 3.86898   4
  -5   5  -8 91.3471 4.34004   6
   5  -5   8 94.0456 6.12627   2
  -6   5  -8 24.0613 4.13395   3
  -6   5  -8 32.9607 4.00622   6
   6  -5   8 32.1078 4.12731   5
  -7   5  -8 66.9746 5.89162   6
  -7   5  -8 61.6471 7.80077   3
   7  -5   8 68.5055 6.56960   5
  -8   5  -8 31.5840 6.23708   3
   8  -5   8 34.2657 5.52689   5
   8   4  -8 -0.6456 2.06072   2
   8   4  -8 -4.0509 2.02052   5
   7   4  -8 95.6637 5.13377   2
   7   4  -8 94.0944 5.30921   5
   7   4  -8 92.8294 4.42531   6
  -7  -4   8 100.962 10.1451   5
   6   4  -8 22.1027 2.86780   2
   6   4  -8 25.8397 2.72333   6
   6   4  -8 20.7964 2.67222   5
  -6  -4   8 24.4885 3.96116   5
   5   4  -8 21.5372 2.28635   6
   5   4  -8 19.2341 4.87603   1
   5   4  -8 13.9105 1.83877   2
   5   4  -8 21.6669 2.15646   5
  -5  -4   8 20.5995 3.07411   5
   4   4  -8 19.9688 2.05057   6
   4   4  -8 19.3204 2.23726   2
   4   4  -8 17.7813 4.70619   1
  -4  -4   8 20.0123 10.9638   1
  -4  -4   8 16.2528 2.47344   2
   3   4  -8 151.089 9.69932   1
   3   4  -8 155.696 5.70166   2
   3   4  -8 165.629 5.14085   6
  -3  -4   8 153.907 11.3987   1
  -3  -4   8 157.518 6.09760   2
  -3  -4   8 158.808 5.60539   5
   2   4  -8 88.2830 8.37624   1
   2   4  -8 81.5071 3.77368   2
   2   4  -8 86.8092 3.38581   6
  -2  -4   8 86.0393 8.03327   1
  -2  -4   8 81.1938 3.47270   5
  -2  -4   8 90.0200 4.17914   2
   1   4  -8 538.261 15.6449   4
   1   4  -8 557.141 15.6443   2
   1   4  -8 585.207 21.3346   1
   1   4  -8 581.041 14.9636   6
  -1  -4   8 551.549 14.8578   5
  -1  -4   8 581.663 15.6010   2
  -1  -4   8 557.879 19.3283   1
   0   4  -8 81.3959 3.15501   6
   0   4  -8 74.1220 3.64598   4
   0   4  -8 74.1254 3.64660   2
   0  -4   8 86.3333 8.02768   1
   0  -4   8 73.0434 3.10951   5
   0  -4   8 72.9668 3.72220   2
  -1   4  -8 1.28425 1.01558   6
  -1   4  -8 2.99670 6.09607   1
  -1   4  -8 0.39187 0.88156   4
  -1   4  -8 -1.1111 0.88831   2
   1  -4   8 0.36084 1.36157   2
   1  -4   8 5.53417 4.90819   1
  -2   4  -8 21.2136 2.04069   6
  -2   4  -8 19.3537 2.27475   4
  -2   4  -8 13.1808 8.46189   1
  -2   4  -8 20.0940 2.66794   3
   2  -4   8 25.9554 2.91746   2
   2  -4   8 15.2177 6.00223   1
  -3   4  -8 33.1444 2.39304   6
  -3   4  -8 29.1000 3.47203   3
  -3   4  -8 24.5172 10.2130   1
  -3   4  -8 31.4722 2.65334   4
   3  -4   8 24.1148 7.45668   1
   3  -4   8 30.9964 3.49967   2
  -4   4  -8 7.01020 1.52866   4
  -4   4  -8 4.83066 2.34370   3
  -4   4  -8 5.58148 1.47158   6
  -4   4  -8 4.72950 10.4506   1
   4  -4   8 6.81993 8.06308   1
   4  -4   8 4.23500 2.90142   2
  -5   4  -8 22.6605 2.80387   6
  -5   4  -8 21.4971 2.72257   4
  -5   4  -8 21.5722 3.57487   3
   5  -4   8 18.4495 2.82653   5
   5  -4   8 19.7014 3.45729   2
  -6   4  -8 4.13642 2.17013   6
  -6   4  -8 3.17543 3.13602   3
   6  -4   8 3.50699 2.63815   5
  -7   4  -8 1.13225 3.84470   3
   7  -4   8 4.07649 3.34801   5
  -8   4  -8 2.35471 4.91740   3
   8  -4   8 6.68070 4.11500   5
   9   3  -8 6.99419 2.60233   5
   9   3  -8 1.45224 2.72328   2
   8   3  -8 43.2428 4.24899   2
   8   3  -8 52.9638 4.70768   5
   8   3  -8 59.6758 3.76948   6
   7   3  -8 3.58367 1.52925   5
   7   3  -8 4.13001 1.63665   6
   7   3  -8 2.85756 1.72030   2
  -7  -3   8 1.54655 3.33956   5
   6   3  -8 75.8640 3.45574   6
   6   3  -8 71.8269 3.40277   5
  -6  -3   8 74.6479 5.58555   5
   5   3  -8 9.92188 1.46024   6
   5   3  -8 8.43044 1.21768   5
   5   3  -8 7.87627 1.57841   2
   5   3  -8 3.44594 4.08384   1
  -5  -3   8 6.34157 2.20861   5
  -5  -3   8 14.4145 6.10732   1
   4   3  -8 171.326 5.37075   6
   4   3  -8 154.619 9.89730   1
   4   3  -8 163.006 5.85223   2
  -4  -3   8 165.738 5.84765   5
  -4  -3   8 159.015 6.32022   2
  -4  -3   8 158.644 10.2759   1
   3   3  -8 3.30345 1.09148   2
   3   3  -8 10.6878 4.49870   1
  -3  -3   8 2.36690 1.18573   5
  -3  -3   8 3.22279 4.12798   1
  -3  -3   8 3.16347 1.33510   2
   2   3  -8 40.1288 2.71952   4
   2   3  -8 32.1149 6.39622   1
   2   3  -8 39.7938 2.46444   2
  -2  -3   8 39.4580 2.08318   5
  -2  -3   8 48.7138 6.26098   1
  -2  -3   8 40.4063 2.87065   2
   1   3  -8 22.2942 2.25121   4
   1   3  -8 22.5518 6.26416   1
   1   3  -8 22.7257 2.03201   2
  -1  -3   8 21.1234 2.39290   2
  -1  -3   8 24.4530 4.93886   1
  -1  -3   8 26.9568 1.69605   5
   0   3  -8 26.5330 2.22029   2
   0   3  -8 26.3396 2.49749   4
   0  -3   8 27.9013 2.54910   2
   0  -3   8 30.2852 5.49379   1
  -1   3  -8 15.2137 1.94736   4
  -1   3  -8 9.31031 6.94247   1
  -1   3  -8 10.1165 1.57551   2
   1  -3   8 15.4977 1.82028   2
   1  -3   8 7.20774 6.22548   1
  -2   3  -8 103.428 4.95601   3
  -2   3  -8 101.691 3.82061   6
  -2   3  -8 109.554 13.9690   1
  -2   3  -8 97.7951 4.55617   4
   2  -3   8 114.433 11.0546   1
   2  -3   8 104.673 4.77093   2
  -3   3  -8 77.9870 4.12422   4
  -3   3  -8 79.5374 4.88117   3
  -3   3  -8 87.1649 3.41452   6
   3  -3   8 80.2951 4.69331   2
   3  -3   8 84.1016 10.1321   1
   3  -3   8 76.0807 4.13227   5
  -4   3  -8 -9.3071 11.5465   1
  -4   3  -8 1.65645 1.28017   6
  -4   3  -8 0.57821 1.39266   4
  -4   3  -8 4.24890 2.13851   3
   4  -3   8 3.86939 2.93454   2
   4  -3   8 4.87469 1.75090   4
   4  -3   8 -0.3865 1.53781   5
   4  -3   8 -10.586 9.16364   1
  -5   3  -8 2.39649 1.56199   4
  -5   3  -8 5.86904 2.72640   3
  -5   3  -8 1.34073 1.49910   6
   5  -3   8 4.70814 2.18078   4
   5  -3   8 3.22574 2.07690   5
  -6   3  -8 3.18806 3.30522   3
  -6   3  -8 8.08968 2.36002   6
   6  -3   8 0.32222 2.56210   4
   6  -3   8 6.09567 3.01994   5
  -7   3  -8 5.83699 4.12793   3
   7  -3   8 -0.3123 3.07544   5
   9   2  -8 96.9768 5.89194   2
   9   2  -8 91.4220 5.25054   5
   8   2  -8 47.2852 3.92937   2
   8   2  -8 44.4230 3.33187   6
   8   2  -8 40.8566 3.58338   5
   7   2  -8 210.816 7.67656   2
   7   2  -8 211.494 14.1309   1
   7   2  -8 210.162 6.97109   5
   7   2  -8 230.271 6.79576   6
   6   2  -8 54.4502 7.54815   1
   6   2  -8 63.5241 3.54881   2
   6   2  -8 66.8458 2.97348   5
  -6  -2   8 67.3324 9.53964   1
  -6  -2   8 64.1383 4.62755   5
   5   2  -8 104.853 8.52635   1
   5   2  -8 120.683 3.87811   5
   5   2  -8 109.461 4.57643   2
  -5  -2   8 104.563 9.93389   1
  -5  -2   8 110.822 4.79678   5
   4   2  -8 24.8820 2.17665   2
   4   2  -8 23.4275 2.39931   4
   4   2  -8 19.9049 4.88647   1
  -4  -2   8 26.2390 4.54788   1
  -4  -2   8 25.8870 2.93423   2
  -4  -2   8 21.9061 2.36867   5
   3   2  -8 181.798 11.5172   1
   3   2  -8 197.462 6.41334   2
   3   2  -8 193.685 6.86710   4
  -3  -2   8 182.399 9.44026   1
  -3  -2   8 193.619 5.64590   5
  -3  -2   8 201.775 6.56671   2
   2   2  -8 76.7665 3.40283   2
   2   2  -8 70.5208 8.97830   1
   2   2  -8 74.9253 3.78213   4
  -2  -2   8 72.6874 3.50717   2
  -2  -2   8 72.5439 2.52069   5
  -2  -2   8 73.2682 6.61933   1
   1   2  -8 641.968 18.0096   2
   1   2  -8 702.570 25.8549   1
   1   2  -8 659.625 18.3995   4
  -1  -2   8 654.326 16.8002   5
  -1  -2   8 677.368 17.8411   2
  -1  -2   8 650.212 21.6626   1
   0   2  -8 289.723 9.16171   2
   0   2  -8 285.622 9.35868   4
   0   2  -8 269.752 21.4387   1
   0  -2   8 302.041 8.91988   2
   0  -2   8 303.905 14.2109   1
  -1   2  -8 228.459 7.56306   3
  -1   2  -8 227.614 16.3527   1
  -1   2  -8 220.608 7.70675   4
   1  -2   8 206.794 15.4012   1
   1  -2   8 213.062 6.96175   5
   1  -2   8 242.159 7.51058   2
  -2   2  -8 7.04943 1.58985   4
  -2   2  -8 6.78383 1.71138   3
  -2   2  -8 -7.7671 8.23288   1
   2  -2   8 6.86744 1.99043   2
   2  -2   8 2.21078 7.29779   1
   2  -2   8 6.62004 1.60327   5
   2  -2   8 6.47757 1.61570   4
  -3   2  -8 32.6801 12.1030   1
  -3   2  -8 42.5422 4.01504   3
  -3   2  -8 46.3329 3.42120   4
  -3   2  -8 48.9108 2.70439   6
   3  -2   8 39.1920 3.31402   5
   3  -2   8 49.2237 3.66828   4
   3  -2   8 49.7244 4.21843   2
   3  -2   8 32.7376 10.1043   1
  -4   2  -8 43.2116 3.52984   4
  -4   2  -8 41.4877 4.51301   3
  -4   2  -8 61.1144 15.2169   1
  -4   2  -8 46.1089 2.72926   6
   4  -2   8 72.9193 13.5656   1
   4  -2   8 47.1038 5.00480   2
   4  -2   8 37.3923 3.92378   5
   4  -2   8 39.2297 4.54186   4
  -5   2  -8 50.6589 3.02261   6
  -5   2  -8 40.4299 3.59344   4
  -5   2  -8 40.5098 5.39960   3
   5  -2   8 43.3647 5.21697   4
  -6   2  -8 9.55531 2.10058   6
  -6   2  -8 2.28799 3.32881   3
   6  -2   8 10.6339 5.33868   4
   6  -2   8 6.78590 2.96109   5
  -7   2  -8 81.3670 9.01700   3
   7  -2   8 101.872 7.73976   5
  10   1  -8 26.4291 3.39855   5
  10   1  -8 23.9476 3.62242   2
   9   1  -8 129.735 5.24858   6
   9   1  -8 143.148 6.45282   2
   9   1  -8 133.180 5.93437   5
   8   1  -8 49.4754 3.39554   5
   8   1  -8 53.0083 3.85232   2
   8   1  -8 43.2612 5.90244   1
   7   1  -8 26.7997 7.43812   1
   7   1  -8 37.8000 6.17100   1
   7   1  -8 35.0746 2.52825   5
   7   1  -8 36.9334 3.06040   2
   7   1  -8 44.0350 7.01179   3
   6   1  -8 21.0982 2.82043   4
   6   1  -8 23.9239 1.74660   5
   6   1  -8 24.2222 2.41797   2
   6   1  -8 21.3593 5.39079   1
  -6  -1   8 24.1265 5.30492   1
   5   1  -8 80.8786 3.63728   2
   5   1  -8 67.7507 8.32005   1
   5   1  -8 80.3915 2.70055   5
   5   1  -8 74.8339 4.10119   4
  -5  -1   8 76.2507 6.90478   1
  -5  -1   8 74.5162 4.34338   2
   4   1  -8 34.8653 2.31623   2
   4   1  -8 37.2015 6.02073   1
   4   1  -8 32.3982 2.80154   4
  -4  -1   8 36.3424 2.93971   2
  -4  -1   8 33.7474 4.39761   1
   3   1  -8 43.0220 3.01489   4
   3   1  -8 40.4226 3.01211   2
   3   1  -8 42.2623 6.27650   1
  -3  -1   8 42.5161 2.84229   2
  -3  -1   8 41.6428 5.69297   1
   2   1  -8 127.626 11.7216   1
   2   1  -8 129.630 4.76464   2
   2   1  -8 124.752 5.34818   4
  -2  -1   8 130.305 4.93077   2
  -2  -1   8 133.981 8.48901   1
   1   1  -8 130.178 5.41038   4
   1   1  -8 110.412 11.7019   1
   1   1  -8 121.063 4.79650   2
  -1  -1   8 132.623 9.74524   1
  -1  -1   8 133.823 3.65888   5
  -1  -1   8 127.712 4.77538   2
   0   1  -8 330.457 10.6084   4
   0   1  -8 330.590 10.2463   2
   0   1  -8 360.411 18.7413   1
   0  -1   8 341.162 9.88219   2
   0  -1   8 324.127 9.87720   4
   0  -1   8 314.970 9.13440   5
   0  -1   8 343.109 16.2167   1
  -1   1  -8 2.04834 1.23077   4
  -1   1  -8 2.87206 1.24926   3
   1  -1   8 1.69999 1.37232   2
   1  -1   8 2.47489 1.06756   5
   1  -1   8 1.42524 1.45600   4
   1  -1   8 6.28011 6.96679   1
  -2   1  -8 225.964 20.9736   1
  -2   1  -8 231.331 8.25614   4
  -2   1  -8 235.151 8.28574   3
   2  -1   8 235.512 8.11021   2
   2  -1   8 219.936 20.2352   1
   2  -1   8 239.978 8.10078   4
   2  -1   8 235.558 7.63988   5
  -3   1  -8 20.2096 12.3248   1
  -3   1  -8 39.3568 3.47424   4
  -3   1  -8 35.1200 3.65697   3
   3  -1   8 34.6963 3.17836   5
   3  -1   8 38.4598 4.43484   2
   3  -1   8 50.1505 12.6806   1
   3  -1   8 40.1502 4.19796   4
  -4   1  -8 24.5096 15.3741   1
  -4   1  -8 25.5677 3.49761   4
  -4   1  -8 30.5224 2.56896   6
  -4   1  -8 26.4607 3.34730   3
   4  -1   8 20.3085 3.48791   2
   4  -1   8 26.1374 13.9125   1
   4  -1   8 28.7599 3.56418   4
   4  -1   8 21.9149 2.92353   5
  -5   1  -8 28.7266 2.77315   6
  -5   1  -8 26.8126 4.00749   3
  -5   1  -8 27.6695 3.52242   4
   5  -1   8 31.6020 4.29938   4
   5  -1   8 26.8033 3.26308   5
   6  -1   8 4.96708 2.92265   5
   6  -1   8 2.82711 5.58458   4
   7  -1   8 122.837 8.48656   5
  10   0  -8 37.4458 3.97947   2
  10   0  -8 48.8590 5.95175   6
  10   0  -8 34.3535 4.14925   4
  10   0  -8 34.5342 3.97395   5
   9   0  -8 8.59299 2.11977   5
   9   0  -8 10.0710 2.83372   4
   9   0  -8 12.9909 2.43048   2
   8   0  -8 375.828 16.0231   3
   8   0  -8 379.644 10.9931   5
   8   0  -8 398.216 12.6904   4
   7   0  -8 50.5259 5.72119   3
   7   0  -8 38.1102 2.31051   5
   7   0  -8 41.4632 4.63181   1
   7   0  -8 40.9238 3.77075   4
   7   0  -8 39.2154 5.00797   1
   7   0  -8 34.8237 2.93302   2
   6   0  -8 664.036 19.1894   4
   6   0  -8 679.244 17.1867   5
   6   0  -8 681.408 18.3607   2
   6   0  -8 658.870 21.9837   1
  -6   0   8 678.899 20.3137   1
   5   0  -8 91.6446 3.86351   2
   5   0  -8 85.7256 8.71109   1
   5   0  -8 90.9725 4.73719   4
  -5   0   8 102.544 4.53867   2
  -5   0   8 93.1865 6.41959   1
   4   0  -8 1123.80 35.0806   1
   4   0  -8 1102.92 29.8819   4
   4   0  -8 1121.30 28.9202   2
  -4   0   8 1126.24 31.1627   1
   3   0  -8 0.75444 0.88079   2
   3   0  -8 -0.6737 4.87938   1
   3   0  -8 0.95903 1.15336   4
  -3   0   8 5.35937 3.77171   1
  -3   0   8 1.08015 1.14872   2
   2   0  -8 1234.25 40.3391   1
   2   0  -8 1232.63 32.0321   2
   2   0  -8 1229.36 32.9623   4
  -2   0   8 1230.86 36.4979   1
  -2   0   8 1275.62 31.8143   2
   1   0  -8 516.591 15.6924   4
   1   0  -8 513.301 14.9716   2
  -1   0   8 549.640 15.1040   4
  -1   0   8 508.142 13.4163   5
  -1   0   8 627.198 21.4230   1
  -1   0   8 520.612 14.6028   2
   0   0  -8 1469.44 39.1649   4
   0   0  -8 1444.87 48.7137   1
   0   0  -8 1459.58 37.9485   3
   0   0   8 1456.06 37.3435   5
   0   0   8 1534.62 38.5862   4
   0   0   8 1510.80 38.1326   2
   0   0   8 1566.80 46.2369   1
  -1   0  -8 222.934 8.14312   4
  -1   0  -8 220.300 7.43682   3
  -1   0  -8 236.231 18.9492   1
   1   0   8 219.151 17.1432   1
   1   0   8 227.807 8.02476   4
   1   0   8 214.822 6.83830   5
   1   0   8 218.790 7.52620   2
  -2   0  -8 238.018 8.25540   3
  -2   0  -8 232.023 21.3297   1
  -2   0  -8 230.219 8.55661   4
   2   0   8 229.988 7.69603   5
   2   0   8 271.587 20.7685   1
   2   0   8 241.946 8.79207   4
   2   0   8 243.637 8.42623   2
  -3   0  -8 481.710 14.7181   3
  -3   0  -8 477.735 14.8610   4
   3   0   8 509.964 28.3480   1
   3   0   8 492.260 15.0187   4
   3   0   8 470.629 14.1701   5
  -4   0  -8 247.280 10.0415   3
  -4   0  -8 253.118 9.01942   4
   4   0   8 231.132 8.85234   5
   4   0   8 248.587 10.1517   4
  -5   0  -8 330.261 11.2707   4
  -5   0  -8 318.435 9.05337   6
   5   0   8 308.423 11.1957   5
   5   0   8 313.623 12.7489   4
   6   0   8 224.847 9.80977   5
  10  -1  -8 57.5467 6.44217   6
  10  -1  -8 61.9044 5.07658   2
  10  -1  -8 70.0512 4.76629   5
  10  -1  -8 65.1558 6.20096   4
   9  -1  -8 223.716 9.64320   6
   9  -1  -8 238.251 8.30839   2
   9  -1  -8 230.453 9.26683   4
   9  -1  -8 228.150 7.58283   5
   8  -1  -8 55.4896 3.00999   5
   8  -1  -8 46.1459 6.58389   3
   8  -1  -8 61.2740 3.66301   2
   7  -1  -8 117.257 4.81926   2
   7  -1  -8 123.391 8.62359   3
   7  -1  -8 120.659 3.96764   5
   7  -1  -8 124.112 5.91659   4
   6  -1  -8 208.578 7.88899   4
   6  -1  -8 199.665 10.7654   1
   6  -1  -8 205.411 6.77151   2
   6  -1  -8 210.109 9.02087   3
  -6   1   8 211.194 8.64978   1
   5  -1  -8 11.1610 5.12989   1
   5  -1  -8 9.22297 1.39573   2
   5  -1  -8 8.30095 1.86142   4
  -5   1   8 8.54241 1.80601   2
  -5   1   8 8.60221 3.15723   1
   4  -1  -8 352.563 10.0543   2
   4  -1  -8 334.366 11.1700   4
   4  -1  -8 349.706 16.5361   1
  -4   1   8 362.650 10.1870   2
  -4   1   8 345.876 13.0784   1
   3  -1  -8 1.92129 0.95707   2
   3  -1  -8 -8.1571 5.46029   1
   3  -1  -8 3.55821 1.42566   4
  -3   1   8 -0.1767 4.63874   1
   2  -1  -8 180.417 7.19667   4
   2  -1  -8 189.069 6.35090   2
   2  -1  -8 198.497 14.4711   1
  -2   1   8 181.064 13.0634   1
  -2   1   8 179.080 6.60245   2
  -2   1   8 195.662 6.82263   4
   1  -1  -8 0.75433 0.75797   3
   1  -1  -8 0.18877 1.21990   4
   1  -1  -8 -1.0450 7.49187   1
  -1   1   8 -0.5693 0.44311   5
  -1   1   8 0.22081 1.13284   2
  -1   1   8 -4.0637 7.26507   1
  -1   1   8 -0.6614 1.65382   4
   0  -1  -8 18.7476 1.96431   3
   0  -1  -8 13.2754 2.04528   4
   0  -1  -8 10.1679 9.12033   1
   0   1   8 16.0571 2.48898   4
   0   1   8 15.7302 1.93432   2
   0   1   8 16.8918 1.46371   5
   0   1   8 20.3573 9.38649   1
  -1  -1  -8 53.4060 3.97916   4
  -1  -1  -8 52.5332 12.6572   1
  -1  -1  -8 50.2612 3.18869   3
   1   1   8 52.1783 12.7368   1
   1   1   8 47.7436 2.62127   5
   1   1   8 57.9915 4.70829   4
   1   1   8 47.4117 3.79394   2
  -2  -1  -8 153.414 5.97247   3
  -2  -1  -8 183.530 21.6411   1
  -2  -1  -8 151.058 6.64798   4
   2   1   8 148.941 7.40520   4
   2   1   8 145.736 6.61652   2
   2   1   8 142.559 5.55646   5
   2   1   8 150.233 21.5728   1
  -3  -1  -8 -13.237 14.6884   1
  -3  -1  -8 1.21814 2.00227   4
  -3  -1  -8 2.36582 2.04830   3
   3   1   8 4.40984 16.3721   1
   3   1   8 -0.7394 1.56967   5
   3   1   8 1.59713 2.78378   2
   3   1   8 3.67310 4.24868   4
  -4  -1  -8 10.2843 2.49944   4
   4   1   8 4.81589 3.43933   5
   4   1   8 8.37155 4.46610   4
  -5  -1  -8 31.8371 3.72671   6
   5   1   8 34.2305 3.74548   5
   6   1   8 1.15300 3.16574   5
  10  -2  -8 37.9387 4.35959   2
  10  -2  -8 32.7282 4.24437   4
  10  -2  -8 40.9612 4.74610   6
  10  -2  -8 32.0009 4.16992   5
   9  -2  -8 10.2539 3.21243   6
   9  -2  -8 7.62419 2.35062   2
   9  -2  -8 13.5288 2.91429   4
   9  -2  -8 9.26574 1.81541   5
   8  -2  -8 93.7121 9.39900   3
   8  -2  -8 95.4163 6.64722   4
   8  -2  -8 93.1728 4.39711   2
   8  -2  -8 89.0363 3.65311   5
   7  -2  -8 2.09114 1.94369   4
   7  -2  -8 3.59087 3.53197   3
   7  -2  -8 -0.5148 1.06997   2
   6  -2  -8 128.875 7.25491   3
   6  -2  -8 112.018 8.68068   1
   6  -2  -8 119.314 4.60876   2
   6  -2  -8 124.259 5.89093   4
  -6   2   8 114.865 6.11848   1
   5  -2  -8 -5.0495 4.96838   1
   5  -2  -8 0.86237 1.42911   4
   5  -2  -8 -0.5323 0.82686   2
   5  -2  -8 -0.8953 1.98608   3
   4  -2  -8 119.613 4.39357   2
   4  -2  -8 122.781 5.74316   4
   4  -2  -8 101.104 10.8309   1
   4  -2  -8 114.724 5.16141   3
  -4   2   8 128.335 9.59726   1
  -4   2   8 126.176 4.49043   2
   3  -2  -8 31.2820 3.23980   4
   3  -2  -8 30.6808 2.34887   2
   3  -2  -8 49.5705 8.08342   1
  -3   2   8 34.3960 2.43205   2
  -3   2   8 36.2687 7.62341   1
  -3   2   8 36.6357 3.45923   4
   2  -2  -8 173.241 14.6544   1
   2  -2  -8 147.186 6.55412   4
  -2   2   8 164.518 6.66762   4
  -2   2   8 160.415 14.2646   1
   1  -2  -8 34.2654 3.41031   4
   1  -2  -8 34.5353 9.73135   1
  -1   2   8 35.9303 10.7131   1
  -1   2   8 34.4484 1.47606   5
  -1   2   8 40.2008 2.99601   2
  -1   2   8 30.8248 3.95931   4
   0  -2  -8 147.045 17.3822   1
   0  -2  -8 118.425 5.89143   4
   0   2   8 114.224 3.94652   5
   0   2   8 169.163 19.0490   1
   0   2   8 120.088 5.13985   2
   0   2   8 126.706 6.44003   4
  -1  -2  -8 -10.141 10.8094   1
  -1  -2  -8 8.57389 2.10974   4
   1   2   8 9.06861 1.35287   5
   1   2   8 16.5250 14.1419   1
   1   2   8 11.5546 3.27303   4
   1   2   8 10.0804 2.42950   2
  -2  -2  -8 61.6825 15.1233   1
  -2  -2  -8 49.2738 6.71664   4
   2   2   8 52.2592 6.57751   4
   2   2   8 51.0304 5.19890   2
   2   2   8 55.2490 18.3528   1
   2   2   8 49.0540 3.27872   5
  -3  -2  -8 1.46977 2.57994   6
  -3  -2  -8 -0.7362 2.11034   4
   3   2   8 6.78568 3.92537   2
   3   2   8 2.58434 4.38665   4
   3   2   8 3.48453 1.83568   5
  -4  -2  -8 26.8065 3.22042   4
  -4  -2  -8 31.1220 3.97411   6
   4   2   8 30.5143 3.33865   5
   5   2   8 8.60630 3.07103   5
  10  -3  -8 -0.7131 2.12159   2
  10  -3  -8 0.63863 3.24647   4
  10  -3  -8 -1.1325 2.07546   5
  10  -3  -8 8.78929 4.16042   6
   9  -3  -8 108.714 4.55778   5
   9  -3  -8 108.912 6.65134   4
   9  -3  -8 112.079 5.11590   2
   9  -3  -8 111.607 10.9250   3
   8  -3  -8 5.99821 2.90366   6
   8  -3  -8 8.49706 2.69434   4
   8  -3  -8 4.66039 1.52193   2
   8  -3  -8 4.58229 1.21462   5
   8  -3  -8 2.95732 4.76087   3
   7  -3  -8 56.3711 6.62022   3
   7  -3  -8 54.0745 4.52600   4
   7  -3  -8 55.6981 2.99358   2
   6  -3  -8 8.44169 1.31657   2
   6  -3  -8 6.61671 2.20135   4
   6  -3  -8 11.3574 4.75669   1
  -6   3   8 8.11463 3.08982   1
   5  -3  -8 20.4488 2.71094   3
   5  -3  -8 10.3039 6.12863   1
   5  -3  -8 21.7496 2.02464   2
   5  -3  -8 15.1664 2.35094   4
  -5   3   8 20.3748 2.03436   2
  -5   3   8 13.6892 5.05526   1
   4  -3  -8 9.27583 1.97501   4
   4  -3  -8 10.7874 1.48492   2
   4  -3  -8 14.5206 2.17364   3
   4  -3  -8 19.7775 7.06676   1
  -4   3   8 14.7899 1.72015   2
  -4   3   8 8.20532 6.28196   1
   3  -3  -8 87.1428 11.2393   1
   3  -3  -8 74.8851 4.72235   4
  -3   3   8 76.7381 3.41953   2
  -3   3   8 72.1372 12.6768   1
  -3   3   8 77.3625 4.90140   4
   2  -3  -8 9.84925 2.32693   4
   2  -3  -8 8.55676 8.47357   1
  -2   3   8 20.0234 10.3773   1
  -2   3   8 7.78488 2.35704   4
   1  -3  -8 92.1658 12.9958   1
   1  -3  -8 91.9420 5.29207   4
  -1   3   8 84.9006 4.11105   2
  -1   3   8 80.9395 2.85530   5
  -1   3   8 76.0925 5.76972   4
  -1   3   8 108.767 15.2543   1
   0  -3  -8 -8.4249 10.5816   1
   0  -3  -8 7.05990 2.16745   4
   0   3   8 6.67905 1.14337   5
   0   3   8 14.3349 13.3268   1
   0   3   8 7.89069 2.15248   2
  -1  -3  -8 38.6269 13.7836   1
  -1  -3  -8 6.43583 2.61766   6
  -1  -3  -8 11.3767 2.55745   4
   1   3   8 13.1394 1.66941   5
   1   3   8 13.3128 3.89207   4
   1   3   8 21.1867 16.1150   1
   1   3   8 15.3013 2.84214   2
  -2  -3  -8 36.8437 17.6677   1
   2   3   8 20.9386 19.7520   1
  -3  -3  -8 46.5644 4.67792   6
  -3  -3  -8 41.0006 4.89171   4
  -4  -3  -8 24.2084 4.12741   6
   4   3   8 23.1151 3.32436   5
  10  -4  -8 62.8936 4.38996   5
  10  -4  -8 63.3763 4.46206   2
  10  -4  -8 63.5716 7.04045   6
  10  -4  -8 65.0207 6.73788   4
   9  -4  -8 9.21792 3.01727   4
   9  -4  -8 4.35629 5.77882   3
   9  -4  -8 9.04576 3.34076   6
   9  -4  -8 6.90834 1.91888   2
   9  -4  -8 6.43077 1.70902   5
   8  -4  -8 86.2804 4.01459   2
   8  -4  -8 84.4120 8.71684   3
   8  -4  -8 91.9684 3.34180   5
   8  -4  -8 89.2087 6.51277   6
   7  -4  -8 4.12929 3.46283   3
   7  -4  -8 4.16807 2.21658   4
   7  -4  -8 1.32745 1.13139   2
   6  -4  -8 7.06949 2.73913   6
   6  -4  -8 8.89002 1.36097   2
   6  -4  -8 6.86838 2.50772   3
   6  -4  -8 9.24021 2.35725   4
   6  -4  -8 5.88717 5.28099   1
   5  -4  -8 197.427 6.28202   2
   5  -4  -8 202.142 8.86515   6
   5  -4  -8 206.901 6.85896   3
   5  -4  -8 184.077 13.6906   1
   5  -4  -8 190.910 8.13062   4
  -5   4   8 201.200 6.34641   2
   4  -4  -8 68.4325 9.66768   1
   4  -4  -8 64.7487 4.71676   4
  -4   4   8 74.6459 5.14921   4
  -4   4   8 65.4784 10.5787   1
  -4   4   8 70.8932 3.28520   2
   3  -4  -8 4.05988 1.83444   4
   3  -4  -8 -11.684 8.66959   1
  -3   4   8 10.6320 2.82371   4
  -3   4   8 12.6132 10.3761   1
  -3   4   8 9.10810 1.52352   2
   2  -4  -8 95.6221 14.2879   1
   2  -4  -8 109.379 6.25891   6
   2  -4  -8 100.141 5.78478   4
  -2   4   8 107.053 4.89515   2
  -2   4   8 101.517 14.6692   1
   1  -4  -8 37.4324 4.77617   6
   1  -4  -8 38.8370 13.1429   1
  -1   4   8 41.9089 3.45043   2
  -1   4   8 48.1790 2.21145   5
  -1   4   8 68.3744 17.0812   1
  -1   4   8 46.1604 6.28933   4
   0  -4  -8 1.85309 14.0105   1
   0  -4  -8 11.7901 2.56538   4
   0  -4  -8 15.7448 3.40915   6
   0   4   8 14.2681 1.58693   5
   0   4   8 9.75283 3.55552   4
   0   4   8 12.9408 2.95630   2
   0   4   8 6.75650 17.7904   1
  -1  -4  -8 -22.768 16.0060   1
  -1  -4  -8 2.44472 2.36049   4
  -1  -4  -8 1.65287 2.95150   6
   1   4   8 0.91469 2.96357   2
   1   4   8 25.3985 21.1650   1
   1   4   8 2.70906 1.34164   5
  -2  -4  -8 2.43051 4.50429   6
  -2  -4  -8 5.41050 2.49301   4
   2   4   8 0.47672 1.86152   5
   2   4   8 0.27044 3.75598   2
  -3  -4  -8 6.27179 3.68128   6
  -3  -4  -8 1.28480 2.74532   4
   3   4   8 3.59256 2.34486   5
  10  -5  -8 87.0876 7.73208   6
  10  -5  -8 78.2535 7.40354   4
  10  -5  -8 74.1155 4.67410   2
   9  -5  -8 17.5175 2.03236   5
   9  -5  -8 17.1935 2.07916   2
   9  -5  -8 19.6120 4.16741   6
   9  -5  -8 11.0206 3.16100   4
   9  -5  -8 22.3520 11.5843   3
   8  -5  -8 124.882 7.07425   4
   8  -5  -8 128.630 4.12808   5
   8  -5  -8 116.367 4.06623   5
   8  -5  -8 130.105 8.97080   3
   8  -5  -8 124.494 4.59048   2
   8  -5  -8 132.365 7.88399   6
   7  -5  -8 15.3251 1.67590   2
   7  -5  -8 12.5393 3.26759   6
   6  -5  -8 2.31501 2.53811   4
   6  -5  -8 3.83876 2.11168   3
   6  -5  -8 -0.4566 2.26156   6
   5  -5  -8 402.406 14.3549   4
   5  -5  -8 410.804 14.5808   6
  -5   5   8 434.026 13.5377   4
   4  -5  -8 315.308 11.9200   6
  -4   5   8 309.410 8.68356   2
  -4   5   8 311.762 11.2977   4
   3  -5  -8 62.5632 5.44407   6
   3  -5  -8 68.2963 5.03201   4
  -3   5   8 60.1287 3.21280   2
  -3   5   8 57.2268 6.15492   4
   2  -5  -8 152.132 7.46572   4
   2  -5  -8 223.642 27.5514   1
   2  -5  -8 158.980 8.01245   6
  -2   5   8 155.867 8.79300   4
  -2   5   8 162.015 6.23870   2
   1  -5  -8 0.25170 2.40654   4
   1  -5  -8 3.90073 15.7351   1
   1  -5  -8 -2.2717 2.45122   6
  -1   5   8 2.13680 1.96702   2
   0  -5  -8 52.5805 5.25787   4
   0  -5  -8 54.4281 5.59854   6
   0   5   8 49.1665 5.12813   2
   0   5   8 47.8704 3.06140   5
  -1  -5  -8 16.7595 3.70967   6
  -1  -5  -8 11.5218 3.09146   4
   1   5   8 11.6140 2.00330   5
   1   5   8 14.8275 4.60381   2
  -2  -5  -8 15.7226 3.67333   4
  -2  -5  -8 22.9439 4.33232   6
   2   5   8 20.2386 2.80815   5
  10  -6  -8 29.7265 5.07326   6
  10  -6  -8 24.1213 4.50239   4
   9  -6  -8 6.72207 2.65470   2
   9  -6  -8 6.56654 3.86480   6
   9  -6  -8 2.43570 7.17481   3
   9  -6  -8 5.47396 3.43628   4
   8  -6  -8 158.327 8.67691   3
   8  -6  -8 158.848 4.96243   2
   8  -6  -8 164.880 8.29586   4
   8  -6  -8 153.543 8.92076   6
   7  -6  -8 0.02203 2.42051   4
   7  -6  -8 -0.1283 2.89360   6
   6  -6  -8 166.382 8.71423   6
   6  -6  -8 159.639 7.91390   4
   5  -6  -8 99.0801 7.01736   6
   5  -6  -8 81.9747 5.90620   4
  -5   6   8 93.0079 7.19947   4
   4  -6  -8 0.36160 1.47625   5
   4  -6  -8 1.74521 3.00746   6
   4  -6  -8 -0.6396 2.07041   4
  -4   6   8 1.42639 1.16187   2
   3  -6  -8 -0.2708 2.05987   4
   3  -6  -8 2.73056 2.11713   5
   3  -6  -8 4.69266 2.60796   6
  -3   6   8 1.27738 1.40336   2
   2  -6  -8 85.7343 6.79030   6
   2  -6  -8 100.862 6.52116   4
   2  -6  -8 89.0657 5.79470   5
  -2   6   8 95.4232 4.68364   2
   1  -6  -8 4.50692 3.52650   5
   1  -6  -8 3.05881 3.01235   6
   1  -6  -8 3.02199 2.83057   4
  -1   6   8 1.00152 3.14759   2
   0  -6  -8 73.8270 6.21765   4
   0  -6  -8 71.9029 6.60737   6
   0   6   8 61.1556 3.95234   5
   0   6   8 65.9820 6.22846   2
  -1  -6  -8 4.25283 2.89601   4
  -1  -6  -8 11.2265 4.06403   6
   1   6   8 8.30463 2.44183   5
   9  -7  -8 38.9678 5.53431   6
   9  -7  -8 33.6540 4.81183   4
   8  -7  -8 69.7778 6.75467   4
   8  -7  -8 61.2749 7.25662   6
   7  -7  -8 12.7968 3.98959   6
   7  -7  -8 10.1292 3.29385   4
   6  -7  -8 2.26331 3.10998   6
   6  -7  -8 0.29494 2.93474   4
   5  -7  -8 33.8256 4.32287   6
   5  -7  -8 47.0384 3.67473   5
   5  -7  -8 55.8344 5.56175   4
   4  -7  -8 6.81454 2.62042   5
   4  -7  -8 11.6660 3.80865   6
   4  -7  -8 11.2604 3.27745   4
   3  -7  -8 9.37010 3.16074   4
   3  -7  -8 11.8476 3.27362   5
   3  -7  -8 10.9369 3.61214   6
   2  -7  -8 44.4939 6.11931   6
   2  -7  -8 36.8639 4.71734   4
   2  -7  -8 40.8423 4.80929   5
   1  -7  -8 13.5040 4.06647   6
   1  -7  -8 14.6769 3.59874   4
   0  -7  -8 5.87071 3.55564   4
   0  -7  -8 11.1586 3.98960   6
   8  -8  -8 1.79388 3.61614   4
   8  -8  -8 -5.8175 3.92680   6
   7  -8  -8 42.7677 4.76008   4
   7  -8  -8 24.4576 5.01652   6
   6  -8  -8 -0.3558 3.11279   4
   6  -8  -8 5.87849 3.88862   6
   5  -8  -8 113.587 8.18338   6
   5  -8  -8 112.350 7.66501   4
   4  -8  -8 8.68217 3.51992   4
   4  -8  -8 8.46471 3.83860   6
   3  -8  -8 22.7046 4.30768   6
   3  -8  -8 14.5906 3.65032   4
   2  -8  -8 0.96595 3.32659   4
   2  -8  -8 -1.4283 3.74269   6
   6  -9  -8 7.41945 3.97674   4
   6  -9  -8 6.84042 4.67272   6
   5  -9  -8 13.0995 5.02294   6
   5  -9  -8 8.72146 4.21298   4
   4  -9  -8 23.1045 4.91769   4
   4  -9  -8 23.9725 4.87488   6
   0  12  -9 11.6579 3.33379   2
  -1  12  -9 10.0444 3.23432   2
  -2  12  -9 1.16279 2.94306   2
  -3  12  -9 4.80236 3.23343   2
  -4  12  -9 67.9133 8.93518   3
   2  11  -9 7.25301 2.92218   2
   1  11  -9 4.40183 2.57977   2
   0  11  -9 4.46547 2.43158   2
  -1  11  -9 74.0122 5.48786   2
  -2  11  -9 6.64373 2.66119   2
  -3  11  -9 46.1079 4.17007   4
  -3  11  -9 42.5746 5.19078   2
  -4  11  -9 4.28997 2.26618   4
  -4  11  -9 11.7734 3.68303   3
  -5  11  -9 22.7065 5.19462   3
  -6  11  -9 49.1706 6.56079   3
   3  10  -9 3.72549 2.72315   2
   2  10  -9 57.0034 4.93725   2
   1  10  -9 4.79432 2.18376   2
   0  10  -9 54.0388 17.8248   1
   0  10  -9 52.6899 4.44823   2
   0 -10   9 48.0999 18.5968   1
  -1  10  -9 8.66119 2.31371   2
  -2  10  -9 21.6993 2.91732   2
  -3  10  -9 6.94625 2.01347   4
  -3  10  -9 5.81803 2.65252   2
  -4  10  -9 66.2970 6.53585   3
  -4  10  -9 56.7630 3.97342   4
  -5  10  -9 34.3710 5.42415   3
  -6  10  -9 41.5493 6.09312   3
   4   9  -9 44.3032 4.86027   2
   3   9  -9 34.3967 4.15480   2
   2   9  -9 22.6814 2.69291   2
   1   9  -9 16.1354 2.31094   2
   1   9  -9 19.0979 8.73469   1
  -1  -9   9 29.7848 23.3868   1
  -1  -9   9 18.5608 3.75509   5
   0   9  -9 7.50010 1.89544   2
   0   9  -9 5.21246 8.32649   1
   0  -9   9 10.0391 3.54442   2
   0  -9   9 5.15239 2.97204   5
  -1   9  -9 52.0021 10.4215   1
  -1   9  -9 54.3978 4.01056   2
   1  -9   9 37.5521 5.02673   2
   1  -9   9 47.3044 13.1617   1
   1  -9   9 46.4432 5.39087   5
  -2   9  -9 2.45627 13.5378   1
  -2   9  -9 0.35839 1.93159   2
  -2   9  -9 2.89684 1.59021   4
   2  -9   9 12.9729 11.4942   1
   2  -9   9 0.65489 2.74247   2
   2  -9   9 2.19731 3.22982   5
  -3   9  -9 4.12115 1.72828   4
  -3   9  -9 7.33110 2.42000   2
   3  -9   9 10.6287 3.07809   2
   3  -9   9 3.00357 3.13850   5
  -4   9  -9 42.2967 4.92267   3
  -4   9  -9 38.3170 3.36523   4
  -5   9  -9 3.67996 3.10230   3
  -5   9  -9 -0.1913 1.41615   4
  -6   9  -9 28.6720 5.81063   3
  -7   9  -9 33.5044 5.94167   3
   5   8  -9 1.77182 2.69238   2
   4   8  -9 130.194 6.28786   2
   3   8  -9 67.0734 4.52635   2
  -3  -8   9 66.5793 7.24872   5
   2   8  -9 68.0100 4.92534   6
   2   8  -9 53.1668 9.49586   1
   2   8  -9 62.3309 4.24096   2
   1   8  -9 49.3474 3.64397   2
   1   8  -9 44.7527 8.87650   1
   1   8  -9 41.5906 4.25802   6
  -1  -8   9 40.6043 5.05085   2
  -1  -8   9 54.2729 12.4994   1
  -1  -8   9 42.9390 4.93125   5
   0   8  -9 9.43114 2.44593   2
   0   8  -9 9.82652 7.69646   1
   0   8  -9 13.2921 2.47899   6
   0  -8   9 16.0500 2.72909   5
   0  -8   9 16.7201 10.2579   1
   0  -8   9 15.0843 3.04722   2
  -1   8  -9 25.2805 8.65148   1
  -1   8  -9 17.8796 2.57337   6
  -1   8  -9 16.2996 1.96433   4
   1  -8   9 17.1437 2.93675   2
   1  -8   9 20.5272 2.73487   5
   1  -8   9 23.6660 9.75332   1
  -2   8  -9 5.68523 2.14963   6
  -2   8  -9 -15.099 8.76832   1
  -2   8  -9 5.73101 1.60368   4
   2  -8   9 8.11705 8.97727   1
   2  -8   9 6.70713 2.80141   2
   2  -8   9 6.55811 2.42621   5
  -3   8  -9 15.0344 2.84341   6
  -3   8  -9 10.0222 1.82206   4
   3  -8   9 11.3928 2.88455   2
   3  -8   9 16.1586 10.2138   1
  -4   8  -9 105.181 4.69575   4
  -4   8  -9 106.604 7.10795   3
  -6   8  -9 30.1150 5.44030   3
  -7   8  -9 3.40404 4.66827   3
   6   7  -9 13.1759 4.63330   6
   6   7  -9 3.95948 2.34471   2
   6   7  -9 4.28210 2.44922   5
   5   7  -9 18.8730 2.76349   2
   5   7  -9 24.8456 3.56813   6
   4   7  -9 25.0888 3.30238   2
   4   7  -9 25.7281 3.15966   6
  -4  -7   9 23.0948 5.14056   5
   3   7  -9 3.89105 1.97874   6
   3   7  -9 -1.1413 1.46659   2
  -3  -7   9 4.74227 3.01479   5
   2   7  -9 0.53881 6.51385   1
   2   7  -9 3.94525 1.54483   2
   2   7  -9 3.86322 1.88079   6
  -2  -7   9 4.53387 2.45519   2
  -2  -7   9 -8.7342 8.93028   1
  -2  -7   9 5.65849 2.38419   5
   1   7  -9 0.48015 1.31420   2
   1   7  -9 -3.1674 6.50549   1
   1   7  -9 1.09215 1.87413   6
  -1  -7   9 -0.0359 2.97096   2
  -1  -7   9 10.8100 8.70784   1
  -1  -7   9 3.33041 1.99582   5
   0   7  -9 2.09965 1.31260   2
   0   7  -9 13.8778 6.94277   1
   0  -7   9 3.38251 1.80552   5
   0  -7   9 1.31576 7.74009   1
   0  -7   9 8.07121 2.41723   2
  -1   7  -9 26.4488 2.99320   2
  -1   7  -9 26.7021 8.68425   1
  -1   7  -9 19.9949 2.61567   4
   1  -7   9 26.6273 3.02057   2
   1  -7   9 14.5402 7.69123   1
   1  -7   9 29.3712 3.36974   5
  -2   7  -9 0.54655 1.70927   2
  -2   7  -9 2.26445 8.65425   1
  -2   7  -9 -0.0570 1.57478   6
  -2   7  -9 2.12788 1.27046   4
   2  -7   9 3.04209 7.54065   1
  -3   7  -9 29.2721 4.38425   3
  -3   7  -9 29.4206 3.39074   6
  -3   7  -9 30.5887 3.03381   4
  -3   7  -9 22.8979 11.5326   1
   3  -7   9 28.1261 3.19605   2
   3  -7   9 41.8976 10.7914   1
  -4   7  -9 6.69785 2.82625   3
  -4   7  -9 12.0049 2.74092   6
  -4   7  -9 9.02883 1.78503   4
   4  -7   9 9.92461 2.84108   2
  -5   7  -9 2.63597 2.74179   6
  -5   7  -9 3.42500 2.85247   3
  -5   7  -9 3.51574 1.49413   4
  -6   7  -9 13.9083 4.38507   6
  -6   7  -9 20.4809 4.64474   3
  -7   7  -9 17.4137 4.95894   3
   7  -7   9 24.4464 4.48842   5
   7   6  -9 117.818 6.73200   2
   7   6  -9 118.958 6.33821   5
   6   6  -9 42.8100 5.05147   6
   6   6  -9 37.5105 4.07835   2
   6   6  -9 38.2947 3.83406   5
  -6  -6   9 33.1795 6.46696   5
   5   6  -9 30.1138 3.46445   2
  -5  -6   9 36.1172 4.93424   5
   4   6  -9 122.420 5.53155   2
   4   6  -9 129.523 5.92255   6
  -4  -6   9 121.173 6.94501   5
   3   6  -9 80.1909 11.0094   1
   3   6  -9 116.244 4.67598   6
   3   6  -9 104.099 5.19318   2
  -3  -6   9 104.748 14.5403   1
  -3  -6   9 110.505 5.79525   5
  -3  -6   9 105.982 6.06341   2
   2   6  -9 70.2096 3.71985   6
   2   6  -9 69.9291 3.87598   2
   2   6  -9 76.4973 10.3065   1
  -2  -6   9 82.9279 16.0867   1
  -2  -6   9 68.2120 5.72950   2
  -2  -6   9 73.8649 4.28583   5
   1   6  -9 72.7573 3.92560   2
   1   6  -9 74.5525 3.69953   6
   1   6  -9 72.7253 9.16641   1
  -1  -6   9 74.0330 4.04704   5
  -1  -6   9 76.8544 4.66787   2
  -1  -6   9 66.7726 9.24626   1
   0   6  -9 227.340 7.03946   6
   0   6  -9 205.497 14.5958   1
   0   6  -9 210.173 7.35517   4
   0   6  -9 216.019 7.62923   2
   0  -6   9 216.009 7.70461   2
   0  -6   9 216.846 13.9601   1
   0  -6   9 211.288 7.14377   5
  -1   6  -9 48.7855 3.20382   6
  -1   6  -9 35.5097 9.08789   1
  -1   6  -9 52.9596 3.56760   2
  -1   6  -9 48.6735 3.23202   4
   1  -6   9 49.2361 3.36144   5
   1  -6   9 43.0754 3.95850   2
   1  -6   9 55.9555 8.20639   1
  -2   6  -9 237.186 7.39374   6
  -2   6  -9 243.669 19.3629   1
  -2   6  -9 221.406 7.71478   4
  -2   6  -9 218.471 8.30817   2
   2  -6   9 229.495 8.18570   2
   2  -6   9 229.392 14.5558   1
  -3   6  -9 6.10376 10.9240   1
  -3   6  -9 12.4632 1.98001   4
  -3   6  -9 13.7817 2.07285   6
  -3   6  -9 9.08377 2.44074   3
   3  -6   9 12.1589 2.71335   2
  -4   6  -9 123.919 5.21756   4
  -4   6  -9 129.023 8.04465   3
  -4   6  -9 125.629 6.24813   6
   4  -6   9 131.051 6.57921   2
  -5   6  -9 1.86624 2.87971   3
  -5   6  -9 3.74611 1.60626   4
  -6   6  -9 70.2803 7.72004   3
  -6   6  -9 73.2444 6.00394   6
   6  -6   9 65.5565 6.47100   5
  -7   6  -9 5.24115 4.70276   3
   7  -6   9 -9.2236 3.62368   5
   8   5  -9 -4.1975 2.48696   5
   8   5  -9 2.29827 2.73245   2
   7   5  -9 23.2476 3.14476   6
   7   5  -9 16.3433 2.70546   2
   7   5  -9 19.7536 2.62905   5
  -7  -5   9 19.1177 6.69023   5
   6   5  -9 6.43752 1.72334   5
   6   5  -9 3.85939 1.71968   2
   6   5  -9 7.93143 2.27747   6
  -6  -5   9 -0.3549 4.47764   5
   5   5  -9 46.3006 3.52478   6
   5   5  -9 46.8920 3.62983   2
  -5  -5   9 46.0939 6.02054   5
   4   5  -9 15.6042 2.02498   6
   4   5  -9 12.1614 6.38568   1
   4   5  -9 11.4794 2.07252   2
  -4  -5   9 12.1612 2.98191   2
  -4  -5   9 14.4540 2.77732   5
   3   5  -9 13.5940 1.74957   6
   3   5  -9 13.6961 2.02238   2
   3   5  -9 10.1499 5.97029   1
  -3  -5   9 13.5397 7.38402   1
  -3  -5   9 15.7876 2.90245   2
  -3  -5   9 14.4847 2.28035   5
   2   5  -9 21.3412 6.58923   1
   2   5  -9 24.3374 2.49995   6
   2   5  -9 24.2230 2.43577   2
  -2  -5   9 24.2886 6.71411   1
  -2  -5   9 23.7226 3.14664   5
  -2  -5   9 28.5973 3.04636   2
   1   5  -9 0.52494 1.03340   2
   1   5  -9 1.06894 5.87536   1
   1   5  -9 1.45556 1.26936   6
   1   5  -9 6.38086 1.55595   4
  -1  -5   9 -1.0701 1.19903   5
  -1  -5   9 6.45791 5.90526   1
  -1  -5   9 0.88344 1.78826   2
   0   5  -9 45.0517 2.82422   6
   0   5  -9 32.8023 8.40145   1
   0   5  -9 42.0373 3.02139   4
   0   5  -9 39.8566 3.17587   2
   0  -5   9 55.6626 7.51458   1
   0  -5   9 45.2515 3.65991   2
  -1   5  -9 12.1254 1.58875   6
  -1   5  -9 8.91658 1.92235   2
  -1   5  -9 4.86669 7.64748   1
  -1   5  -9 9.71606 1.73089   4
   1  -5   9 8.04847 6.40068   1
   1  -5   9 7.01485 1.93672   2
  -2   5  -9 1.39544 1.43530   6
  -2   5  -9 0.48600 1.39950   4
   2  -5   9 0.37303 6.53564   1
   2  -5   9 -0.8129 1.94336   2
  -3   5  -9 10.2723 1.97207   4
  -3   5  -9 8.97639 2.38226   3
  -3   5  -9 10.5864 1.91029   6
  -3   5  -9 12.7594 10.8648   1
   3  -5   9 0.76535 10.8837   1
   3  -5   9 11.2927 3.06396   2
  -4   5  -9 26.1958 3.76025   3
  -4   5  -9 24.0880 3.01499   4
  -4   5  -9 18.4117 23.1058   1
  -4   5  -9 26.6353 3.15667   6
   4  -5   9 32.7697 10.3484   1
   4  -5   9 21.6627 3.33614   2
  -5   5  -9 10.6792 3.11856   3
  -5   5  -9 13.2833 2.14350   4
  -5   5  -9 13.5382 2.47304   6
   5  -5   9 19.8202 3.16035   5
  -6   5  -9 12.1351 3.03199   6
  -6   5  -9 1.71812 1.55241   4
  -6   5  -9 2.73354 3.56305   3
   6  -5   9 -3.3243 3.18240   5
  -7   5  -9 16.1636 5.49090   3
   7  -5   9 9.94031 3.99790   5
   8   4  -9 19.6425 3.31887   2
   8   4  -9 17.9247 2.77580   5
   7   4  -9 17.4798 2.77220   2
   7   4  -9 15.1431 2.46564   6
   7   4  -9 12.6850 2.11758   5
  -7  -4   9 10.4555 4.84503   5
   6   4  -9 2.37653 1.48390   2
   6   4  -9 4.44892 1.99307   6
   6   4  -9 5.02729 1.51065   5
  -6  -4   9 7.97882 3.66179   5
   5   4  -9 33.3521 3.01647   2
   5   4  -9 39.0395 3.11876   6
  -5  -4   9 37.7207 4.88369   5
   4   4  -9 22.5304 2.55630   2
   4   4  -9 21.5982 6.11004   1
   4   4  -9 20.1472 2.45398   6
  -4  -4   9 19.3576 2.45072   5
  -4  -4   9 19.0257 2.93824   2
  -4  -4   9 20.9255 7.13591   1
   3   4  -9 172.500 5.50747   6
   3   4  -9 174.557 11.8149   1
   3   4  -9 156.993 6.02010   2
  -3  -4   9 161.656 14.7773   1
  -3  -4   9 164.401 6.51290   2
  -3  -4   9 149.504 5.64118   5
   2   4  -9 26.2901 2.65651   4
   2   4  -9 28.3055 2.52950   2
   2   4  -9 29.6620 2.45290   6
   2   4  -9 15.6919 6.07365   1
  -2  -4   9 29.2873 6.29149   1
  -2  -4   9 28.1355 2.36788   5
  -2  -4   9 31.5629 3.20289   2
   1   4  -9 46.4817 8.62198   1
   1   4  -9 56.7530 3.46631   4
   1   4  -9 56.7267 3.37198   2
   1   4  -9 59.1536 3.05380   6
  -1  -4   9 65.5590 8.40300   1
  -1  -4   9 60.0199 3.72183   2
  -1  -4   9 60.0996 2.90527   5
   0   4  -9 235.955 7.10070   6
   0   4  -9 223.985 7.89422   4
   0   4  -9 252.074 16.3095   1
   0   4  -9 225.364 7.92110   2
   0  -4   9 230.618 6.95688   5
   0  -4   9 231.126 7.82416   2
   0  -4   9 243.078 13.0821   1
  -1   4  -9 224.892 8.09448   2
  -1   4  -9 227.175 7.96622   4
  -1   4  -9 233.242 17.5436   1
  -1   4  -9 244.458 7.13866   6
   1  -4   9 228.270 13.4266   1
   1  -4   9 231.037 7.94391   2
  -2   4  -9 91.2596 4.52924   4
  -2   4  -9 90.8289 3.82829   6
  -2   4  -9 100.256 20.3553   1
  -2   4  -9 85.4639 4.94387   3
   2  -4   9 90.6939 4.94037   2
   2  -4   9 105.704 11.8385   1
  -3   4  -9 257.129 7.52916   6
  -3   4  -9 236.031 9.42656   3
  -3   4  -9 224.234 21.3504   1
  -3   4  -9 236.323 8.32497   4
   3  -4   9 236.133 9.46838   2
   3  -4   9 268.872 27.3516   1
  -4   4  -9 -10.323 19.6175   1
  -4   4  -9 5.47282 1.74508   6
  -4   4  -9 4.60042 1.77146   4
  -4   4  -9 2.49993 2.57030   3
   4  -4   9 2.40254 2.12134   5
   4  -4   9 -0.7248 2.76448   2
   4  -4   9 25.4462 10.4320   1
  -5   4  -9 92.5052 4.66473   6
  -5   4  -9 96.2905 7.12457   3
  -5   4  -9 96.9872 4.88367   4
   5  -4   9 94.4397 5.99777   5
  -6   4  -9 1.10775 3.66402   3
  -6   4  -9 5.40723 2.81421   6
   6  -4   9 3.25166 3.17441   5
  -7   4  -9 66.6003 9.12276   3
   7  -4   9 48.2146 5.60601   5
   9   3  -9 33.1699 3.59035   5
   9   3  -9 32.6660 4.02588   2
   8   3  -9 66.7350 4.45469   6
   8   3  -9 68.0003 4.36377   5
   8   3  -9 65.1993 4.89014   2
   7   3  -9 1.52349 1.90391   6
   7   3  -9 1.66830 1.49461   5
   7   3  -9 5.77555 1.91769   2
  -7  -3   9 6.42417 6.11167   5
   6   3  -9 353.267 10.0121   6
   6   3  -9 343.014 10.9279   2
   6   3  -9 352.642 10.0068   5
  -6  -3   9 328.957 13.1438   5
   5   3  -9 -0.4215 5.41447   1
   5   3  -9 3.44405 1.55928   6
   5   3  -9 3.67522 1.30904   2
  -5  -3   9 1.92362 2.17301   5
  -5  -3   9 0.65192 3.53914   2
   4   3  -9 77.7492 3.86265   2
   4   3  -9 77.9423 4.21359   4
   4   3  -9 67.9671 8.39190   1
  -4  -3   9 83.9589 9.19468   1
  -4  -3   9 77.5758 4.67049   2
  -4  -3   9 71.3253 3.90985   5
   3   3  -9 6.26679 1.67051   4
   3   3  -9 3.98452 1.14274   2
   3   3  -9 7.34518 5.54114   1
  -3  -3   9 13.1241 5.12953   1
  -3  -3   9 6.48369 1.66941   2
  -3  -3   9 6.25900 1.34627   5
   2   3  -9 0.18251 1.22369   4
   2   3  -9 0.04557 1.00452   2
   2   3  -9 -0.0262 5.46397   1
  -2  -3   9 -0.9120 4.54160   1
  -2  -3   9 -0.0649 0.87462   5
  -2  -3   9 0.84062 1.49575   2
   1   3  -9 144.234 5.63444   2
   1   3  -9 161.243 13.4769   1
   1   3  -9 144.996 5.91100   4
  -1  -3   9 150.409 5.68109   2
  -1  -3   9 137.438 5.72826   5
  -1  -3   9 152.385 10.3241   1
   0   3  -9 590.611 17.0007   2
   0   3  -9 594.737 17.1872   4
   0   3  -9 583.213 26.1169   1
   0  -3   9 609.794 21.7457   1
   0  -3   9 617.680 16.6810   2
  -1   3  -9 72.6609 3.39552   6
  -1   3  -9 70.1975 4.02362   4
  -1   3  -9 69.0810 12.0993   1
   1  -3   9 75.0886 10.6068   1
   1  -3   9 69.7970 4.12480   2
  -2   3  -9 204.310 6.58751   6
  -2   3  -9 192.093 7.29186   4
  -2   3  -9 198.117 18.6251   1
  -2   3  -9 196.577 7.64801   3
   2  -3   9 204.984 15.0475   1
   2  -3   9 181.546 6.82298   5
   2  -3   9 190.806 7.26641   2
  -3   3  -9 6.94200 2.33099   3
  -3   3  -9 10.7825 14.9897   1
  -3   3  -9 8.15074 1.94777   4
  -3   3  -9 7.91607 1.69544   6
   3  -3   9 6.56257 8.55729   1
   3  -3   9 5.37978 1.84495   5
   3  -3   9 5.47702 2.51072   2
  -4   3  -9 14.2061 1.93209   6
  -4   3  -9 9.43251 2.19254   4
  -4   3  -9 8.89663 2.66258   3
   4  -3   9 9.41488 2.51617   5
  -5   3  -9 37.5185 4.19638   4
  -5   3  -9 41.6116 3.54831   6
   5  -3   9 33.8240 4.54989   4
   5  -3   9 42.9355 4.96247   5
  -6   3  -9 1.62905 4.14238   3
   6  -3   9 -2.5857 3.45591   4
   6  -3   9 -3.4309 2.72755   5
  -7   3  -9 35.7161 6.28532   3
   7  -3   9 29.9502 5.02567   5
   9   2  -9 1.30803 2.56624   2
   8   2  -9 19.7585 2.66511   2
   8   2  -9 24.0564 3.21312   5
   8   2  -9 27.2465 2.73096   6
   7   2  -9 28.9682 2.57174   5
   7   2  -9 26.3249 3.20972   2
   7   2  -9 25.5000 3.40625   6
   6   2  -9 41.3204 2.38081   5
   6   2  -9 39.9358 3.64341   4
   6   2  -9 37.0389 3.20702   2
   5   2  -9 1.15713 5.46803   1
   5   2  -9 -0.9739 1.48444   4
   5   2  -9 0.19445 1.21743   2
  -5  -2   9 -0.0816 1.61650   5
  -5  -2   9 3.59110 4.86618   1
  -5  -2   9 -1.4602 2.23104   2
   4   2  -9 18.0460 6.24379   1
   4   2  -9 7.61316 1.84232   4
   4   2  -9 7.78513 1.41367   2
  -4  -2   9 9.19368 2.10225   2
  -4  -2   9 10.4862 1.39817   5
  -4  -2   9 10.7794 4.71560   1
   3   2  -9 254.198 8.75239   4
   3   2  -9 237.023 14.7116   1
   3   2  -9 256.190 8.09907   2
  -3  -2   9 258.064 8.15987   2
  -3  -2   9 245.902 6.81348   5
  -3  -2   9 234.834 11.7656   1
   2   2  -9 10.2223 1.55710   2
   2   2  -9 11.6887 6.68007   1
   2   2  -9 10.3420 1.95076   4
  -2  -2   9 15.3371 4.92060   1
  -2  -2   9 12.5673 1.89418   2
  -2  -2   9 10.8392 1.25035   5
   1   2  -9 411.704 21.9056   1
   1   2  -9 439.108 13.3481   4
   1   2  -9 432.114 12.7335   2
  -1  -2   9 434.077 12.5216   2
  -1  -2   9 436.270 11.2654   5
  -1  -2   9 448.251 17.5068   1
   0   2  -9 34.4984 3.19518   4
   0   2  -9 38.6048 9.72163   1
   0   2  -9 36.0486 3.03835   2
   0  -2   9 37.3723 7.41887   1
   0  -2   9 42.5415 3.35864   2
   0  -2   9 32.9567 2.25580   5
  -1   2  -9 1.02110 1.35089   4
  -1   2  -9 0.27740 1.28676   3
  -1   2  -9 15.6312 9.28103   1
   1  -2   9 0.37620 1.58991   2
   1  -2   9 2.29946 1.12724   5
   1  -2   9 -1.3457 7.02497   1
  -2   2  -9 24.3217 3.16851   4
  -2   2  -9 18.7409 2.81494   3
  -2   2  -9 12.6088 11.5370   1
   2  -2   9 29.3191 3.14197   2
   2  -2   9 22.8843 2.57985   4
   2  -2   9 21.3486 9.49929   1
   2  -2   9 20.6346 2.66329   5
  -3   2  -9 72.3807 15.3769   1
  -3   2  -9 59.3661 3.36533   6
  -3   2  -9 59.0023 4.78426   3
  -3   2  -9 54.6683 4.12353   4
   3  -2   9 52.8693 4.01732   5
   3  -2   9 60.5076 4.63057   4
   3  -2   9 56.5540 5.22508   2
   3  -2   9 53.6693 13.1534   1
  -4   2  -9 1.98572 1.67598   6
  -4   2  -9 1.73788 1.88034   4
  -4   2  -9 2.30420 2.52086   3
   4  -2   9 4.44310 2.18436   5
   4  -2   9 -0.4087 2.63489   4
  -5   2  -9 48.6253 3.66921   6
  -5   2  -9 51.2057 5.57326   3
  -5   2  -9 45.6477 4.46917   4
   5  -2   9 48.5560 6.35010   4
   5  -2   9 39.1716 5.18901   5
  -6   2  -9 0.12677 4.03788   3
   6  -2   9 13.1031 3.44632   5
   9   1  -9 32.2712 3.63661   6
   9   1  -9 37.6290 4.43883   2
   9   1  -9 22.0017 3.60115   4
   9   1  -9 32.2961 3.67031   5
   8   1  -9 454.296 12.6736   5
   8   1  -9 419.271 17.8223   1
   8   1  -9 474.609 14.6515   2
   8   1  -9 450.840 14.6611   4
   7   1  -9 35.3501 2.39939   5
   7   1  -9 45.0284 6.18395   3
   7   1  -9 30.2889 3.62668   2
   7   1  -9 35.5018 3.97420   4
   6   1  -9 477.196 12.0313   5
   6   1  -9 464.854 13.3511   2
   6   1  -9 468.740 21.7795   1
   6   1  -9 413.460 15.2899   4
   5   1  -9 3.01059 5.90991   1
   5   1  -9 -0.1851 1.13914   2
   5   1  -9 -0.8344 1.23919   4
  -5  -1   9 -0.2955 1.86091   2
  -5  -1   9 -1.5638 3.77549   1
   4   1  -9 620.805 18.1964   4
   4   1  -9 620.261 24.6073   1
   4   1  -9 616.093 17.2734   2
  -4  -1   9 655.208 17.3883   2
   3   1  -9 5.11973 1.66770   4
   3   1  -9 6.31940 1.37264   2
   3   1  -9 5.00401 6.11864   1
  -3  -1   9 4.16361 4.09311   1
  -3  -1   9 5.72387 1.65910   2
   2   1  -9 259.007 9.12673   4
   2   1  -9 260.423 16.0617   1
   2   1  -9 258.678 8.38297   2
  -2  -1   9 266.256 8.30174   2
  -2  -1   9 264.397 13.2512   1
   1   1  -9 78.3865 11.2007   1
   1   1  -9 56.5081 3.93883   4
   1   1  -9 58.2048 3.49730   2
  -1  -1   9 62.9885 3.55385   2
  -1  -1   9 57.0287 2.08608   5
  -1  -1   9 71.0440 9.86318   1
   0   1  -9 299.576 20.3165   1
   0   1  -9 291.318 9.12085   3
   0   1  -9 299.258 10.1577   4
   0  -1   9 299.715 9.25053   2
   0  -1   9 282.174 8.30156   5
   0  -1   9 305.459 17.3170   1
  -1   1  -9 37.6798 12.4692   1
  -1   1  -9 37.6285 12.4568   1
  -1   1  -9 49.3786 3.44353   3
  -1   1  -9 48.9555 3.93539   4
   1  -1   9 48.9973 10.5445   1
   1  -1   9 39.7593 2.62282   5
   1  -1   9 30.6540 3.65318   2
   1  -1   9 46.7753 3.97701   4
  -2   1  -9 139.008 6.20330   3
  -2   1  -9 136.640 6.33703   4
  -2   1  -9 125.810 17.3861   1
   2  -1   9 140.858 6.34981   2
   2  -1   9 140.519 6.30970   4
   2  -1   9 128.343 17.4427   1
   2  -1   9 132.976 5.40268   5
  -3   1  -9 4.62297 2.27499   3
  -3   1  -9 2.78246 15.0747   1
  -3   1  -9 3.63514 2.03522   4
   3  -1   9 16.7141 12.5120   1
   3  -1   9 6.09751 1.83637   5
   3  -1   9 6.82353 3.12413   2
   3  -1   9 7.65813 3.03513   4
  -4   1  -9 2.26719 1.80658   6
  -4   1  -9 -0.8812 2.59342   3
  -4   1  -9 -0.1129 2.19954   4
   4  -1   9 -1.9110 2.07011   5
   4  -1   9 4.16565 3.42348   4
  -5   1  -9 57.7750 3.99052   6
  -5   1  -9 55.9831 4.96018   4
   5  -1   9 56.0786 5.69833   5
   5  -1   9 69.3386 7.61093   4
  -6   1  -9 4.06963 4.55048   3
   6  -1   9 2.70954 3.56470   5
  10   0  -9 74.2113 4.92281   5
  10   0  -9 68.2247 7.65183   6
  10   0  -9 79.1337 6.04811   2
  10   0  -9 83.8901 7.28118   4
   9   0  -9 59.8080 3.96547   5
   9   0  -9 65.7532 4.84504   2
   9   0  -9 62.6524 5.90993   4
   8   0  -9 68.8208 4.21497   2
   8   0  -9 61.9747 5.24226   4
   8   0  -9 58.7796 3.11808   5
   7   0  -9 23.1693 3.11865   4
   7   0  -9 24.9604 5.12102   3
   7   0  -9 18.9928 2.25147   2
   7   0  -9 18.9404 1.77134   5
   6   0  -9 56.7845 8.12568   1
   6   0  -9 80.0858 3.91449   2
   6   0  -9 85.3502 4.89665   4
   5   0  -9 1.84286 1.75811   4
   5   0  -9 4.21524 6.29214   1
   5   0  -9 0.48176 1.08558   2
  -5   0   9 2.63513 1.98033   2
  -5   0   9 2.51240 3.69697   1
   4   0  -9 88.7976 4.97816   4
   4   0  -9 94.7061 4.03889   2
   4   0  -9 94.2609 11.6086   1
  -4   0   9 97.3396 9.24479   1
  -4   0   9 93.9027 4.54200   2
   3   0  -9 11.1862 7.23932   1
   3   0  -9 5.20427 1.56109   4
   3   0  -9 7.25933 1.35244   2
  -3   0   9 11.1222 5.23723   1
  -3   0   9 6.69215 1.64319   2
   2   0  -9 2.35676 1.63069   4
   2   0  -9 1.78337 1.10230   2
  -2   0   9 12.3056 6.13807   1
  -2   0   9 2.13290 1.42191   2
   1   0  -9 -3.7004 8.38622   1
   1   0  -9 2.91734 1.55891   4
  -1   0   9 4.60545 1.88710   4
  -1   0   9 0.74481 7.21836   1
  -1   0   9 4.41604 1.66592   2
   0   0  -9 53.2719 12.0407   1
   0   0  -9 50.8318 3.15354   3
   0   0  -9 48.7260 3.99024   4
   0   0   9 47.7132 2.32156   5
   0   0   9 57.2973 10.8291   1
   0   0   9 53.8776 4.28097   4
   0   0   9 50.9509 3.69528   2
  -1   0  -9 25.3217 12.2248   1
  -1   0  -9 37.9373 3.87802   4
  -1   0  -9 40.1520 3.25894   3
   1   0   9 24.4487 11.8730   1
   1   0   9 46.5323 4.60853   4
   1   0   9 40.4516 3.93995   2
   1   0   9 40.9978 2.60228   5
  -2   0  -9 2.74620 2.03447   4
  -2   0  -9 15.4747 14.3640   1
  -2   0  -9 2.21360 1.86964   3
   2   0   9 6.58582 2.81762   4
   2   0   9 4.38180 1.48168   5
   2   0   9 17.0956 13.0539   1
  -3   0  -9 18.1584 3.07241   4
  -3   0  -9 -14.745 16.2039   1
  -3   0  -9 23.8302 3.24155   3
   3   0   9 39.0464 17.0836   1
   3   0   9 29.3274 5.90879   4
   3   0   9 21.9926 2.59806   5
  -4   0  -9 2.15164 2.42300   4
  -4   0  -9 3.71394 2.77709   3
   4   0   9 0.88137 4.20216   4
  -5   0  -9 0.75353 2.59239   4
   5   0   9 -3.3642 2.60595   5
  10  -1  -9 3.65758 2.70613   5
  10  -1  -9 0.84740 3.56424   4
  10  -1  -9 -2.8979 2.57463   2
  10  -1  -9 3.84226 4.45979   6
   9  -1  -9 4.48741 2.12791   2
   9  -1  -9 5.83672 2.90318   4
   9  -1  -9 8.49565 1.69464   5
   8  -1  -9 25.7598 9.22198   3
   8  -1  -9 23.4140 3.58875   4
   8  -1  -9 19.6921 2.03445   5
   8  -1  -9 27.7282 3.17945   2
   7  -1  -9 103.113 5.83444   4
   7  -1  -9 111.424 11.2617   1
   7  -1  -9 100.836 8.50629   3
   7  -1  -9 94.2358 4.54137   2
   6  -1  -9 52.1679 7.91204   1
   6  -1  -9 73.3918 6.68956   3
   6  -1  -9 66.4857 4.92205   4
   6  -1  -9 72.3129 3.68844   2
   5  -1  -9 247.468 7.85196   2
   5  -1  -9 245.946 9.17183   4
   5  -1  -9 253.494 15.3968   1
  -5   1   9 241.189 10.6886   1
  -5   1   9 257.628 8.22924   2
   4  -1  -9 92.6026 12.3661   1
   4  -1  -9 81.1677 4.99434   4
   4  -1  -9 88.2302 3.89888   2
  -4   1   9 87.6507 8.65222   1
  -4   1   9 89.8684 4.19436   2
   3  -1  -9 181.509 6.24156   2
   3  -1  -9 164.132 7.22875   4
   3  -1  -9 179.383 15.5709   1
  -3   1   9 196.595 20.2249   1
  -3   1   9 178.529 6.11654   2
   2  -1  -9 7.02250 1.94192   4
   2  -1  -9 5.09076 1.53594   2
   2  -1  -9 5.08782 7.96080   1
  -2   1   9 18.1451 7.47240   1
  -2   1   9 7.17615 1.78511   2
  -2   1   9 8.10799 2.01534   4
   1  -1  -9 -0.6497 1.45529   4
   1  -1  -9 11.4155 9.71077   1
   1  -1  -9 2.48768 1.05453   3
  -1   1   9 4.97275 8.97911   1
  -1   1   9 1.41447 1.56891   2
  -1   1   9 3.06000 2.07873   4
   0  -1  -9 1.13168 10.9710   1
   0  -1  -9 25.9675 3.25336   4
   0  -1  -9 27.2740 2.50953   3
   0   1   9 25.5484 3.32483   2
   0   1   9 27.0384 1.79543   5
   0   1   9 24.4111 3.04150   4
   0   1   9 35.7911 11.7797   1
  -1  -1  -9 103.673 4.63688   3
  -1  -1  -9 92.8881 16.4240   1
  -1  -1  -9 106.368 5.86596   4
   1   1   9 119.482 16.7452   1
   1   1   9 104.069 5.49775   2
   1   1   9 97.3618 4.01969   5
   1   1   9 106.984 6.92958   4
  -2  -1  -9 2.02808 15.4390   1
  -2  -1  -9 7.23158 2.87667   4
  -2  -1  -9 9.17436 2.04148   3
   2   1   9 10.8798 1.84254   5
   2   1   9 7.09698 3.40628   4
   2   1   9 8.48317 3.27503   2
   2   1   9 5.46459 15.3747   1
  -3  -1  -9 65.8104 5.50144   4
   3   1   9 67.6095 4.41617   5
  -4  -1  -9 55.7115 5.46361   4
   4   1   9 59.5046 5.06556   5
   5   1   9 27.9591 3.91978   5
  10  -2  -9 -0.7780 4.06274   6
  10  -2  -9 5.74361 3.90545   4
  10  -2  -9 -0.0817 2.50163   2
   9  -2  -9 104.458 7.69784   6
   9  -2  -9 103.077 5.28185   2
   9  -2  -9 99.1372 4.08395   5
   9  -2  -9 113.126 7.46763   4
   8  -2  -9 92.5384 3.00353   5
   8  -2  -9 87.9558 6.06346   4
   8  -2  -9 86.9008 4.55603   2
   7  -2  -9 6.82832 1.64020   2
   7  -2  -9 6.47127 4.21902   1
   7  -2  -9 6.18832 2.27707   4
   7  -2  -9 12.2603 4.56527   3
   6  -2  -9 101.257 4.35893   2
   6  -2  -9 98.6349 6.44386   4
   6  -2  -9 112.821 7.44901   3
   6  -2  -9 103.134 12.7197   1
   5  -2  -9 67.3304 4.84647   4
   5  -2  -9 79.8307 5.35857   3
   5  -2  -9 61.3941 9.31546   1
   5  -2  -9 64.7330 3.43002   2
  -5   2   9 67.0560 8.29335   1
  -5   2   9 70.5134 3.99830   2
   4  -2  -9 24.7661 2.43156   2
   4  -2  -9 25.1046 8.26323   1
   4  -2  -9 28.1833 3.63295   4
   4  -2  -9 26.1796 2.83403   3
  -4   2   9 25.1865 2.88455   2
  -4   2   9 29.8365 6.51063   1
   3  -2  -9 1.80120 1.64587   3
   3  -2  -9 -1.1775 1.61116   4
   3  -2  -9 -0.1038 1.25700   2
   3  -2  -9 -0.5574 8.02533   1
  -3   2   9 15.7211 7.66946   1
  -3   2   9 -0.8972 1.35900   2
   2  -2  -9 99.2831 5.53224   4
   2  -2  -9 110.818 14.4115   1
  -2   2   9 104.594 5.75953   4
  -2   2   9 96.2512 4.42116   2
  -2   2   9 84.4405 12.7341   1
   1  -2  -9 236.059 20.7825   1
   1  -2  -9 200.594 8.40827   4
  -1   2   9 217.645 9.42699   4
  -1   2   9 196.067 5.73977   5
  -1   2   9 203.609 7.09149   2
   0  -2  -9 292.003 24.2481   1
   0   2   9 315.631 25.1890   1
   0   2   9 296.428 10.9566   4
   0   2   9 280.210 8.03113   5
   0   2   9 281.683 9.43642   2
  -1  -2  -9 11.2210 2.61184   4
  -1  -2  -9 22.2020 14.8492   1
   1   2   9 19.8002 4.10777   4
   1   2   9 13.0054 17.0280   1
   1   2   9 17.6899 2.22881   5
   1   2   9 12.4727 2.99865   2
  -2  -2  -9 -3.7181 2.15575   4
  -2  -2  -9 14.6337 17.4802   1
   2   2   9 -1.8231 20.0837   1
   2   2   9 2.98095 1.57964   5
   2   2   9 0.60314 3.25230   2
  -3  -2  -9 81.8624 6.12440   4
  -3  -2  -9 77.1390 6.83689   6
   3   2   9 69.6243 6.72337   5
  -4  -2  -9 23.4148 4.57219   6
  -4  -2  -9 19.3172 3.39720   4
   4   2   9 16.3857 3.20569   5
  10  -3  -9 20.6655 4.33894   4
  10  -3  -9 9.55151 2.76058   2
  10  -3  -9 12.1612 4.61972   6
   9  -3  -9 143.469 5.97497   2
   9  -3  -9 140.171 4.51637   5
   9  -3  -9 130.791 7.89588   4
   9  -3  -9 139.328 8.64587   6
   8  -3  -9 6.38428 4.95370   3
   8  -3  -9 9.20975 3.52388   6
   8  -3  -9 2.94468 1.70403   2
   8  -3  -9 1.86153 2.66752   4
   7  -3  -9 151.887 9.07581   3
   7  -3  -9 148.654 7.46070   4
   7  -3  -9 144.592 5.50329   2
   6  -3  -9 28.8366 2.61318   2
   5  -3  -9 9.54124 2.69765   3
   5  -3  -9 11.8115 2.64778   4
   5  -3  -9 11.4507 1.67598   2
  -5   3   9 10.9461 2.06227   2
   4  -3  -9 238.583 7.45973   3
   4  -3  -9 238.486 7.92386   2
   4  -3  -9 249.075 9.65824   4
   4  -3  -9 261.289 17.2726   1
  -4   3   9 256.445 7.74461   2
   3  -3  -9 23.8968 3.29363   4
   3  -3  -9 16.7225 10.0066   1
  -3   3   9 20.4242 3.28513   4
  -3   3   9 21.0792 2.22739   2
  -3   3   9 25.1355 9.51584   1
   2  -3  -9 59.9326 13.1111   1
  -2   3   9 65.0792 13.2255   1
  -2   3   9 62.3864 3.77646   2
  -2   3   9 60.0289 5.65175   4
   1  -3  -9 36.2841 4.36832   4
   1  -3  -9 39.1739 13.5792   1
  -1   3   9 39.3493 1.79815   5
  -1   3   9 52.6263 15.6833   1
  -1   3   9 34.8511 4.41552   4
  -1   3   9 34.3931 3.79111   2
   0  -3  -9 -27.146 13.7855   1
   0  -3  -9 5.84106 2.37291   4
   0   3   9 5.88989 2.41396   2
   0   3   9 4.06443 1.05743   5
   0   3   9 24.9398 16.9079   1
  -1  -3  -9 22.7798 18.4417   1
  -1  -3  -9 5.15896 2.58621   4
   1   3   9 5.63502 3.31363   2
   1   3   9 -5.4912 19.5130   1
   1   3   9 7.11378 1.56396   5
  -2  -3  -9 33.3945 4.72509   6
  -2  -3  -9 37.2125 4.35283   4
   2   3   9 39.0764 3.61053   5
  -3  -3  -9 72.6681 7.31970   6
  -3  -3  -9 69.4770 6.24593   4
   3   3   9 76.7144 5.15498   5
  10  -4  -9 30.9704 3.37836   2
  10  -4  -9 30.9008 5.29357   6
  10  -4  -9 21.4771 6.26420   4
   9  -4  -9 -10.738 6.08697   3
   9  -4  -9 -1.7101 3.81411   6
   9  -4  -9 4.23666 3.11823   4
   9  -4  -9 0.94548 1.99054   2
   8  -4  -9 55.3868 6.35532   3
   8  -4  -9 52.5972 3.49445   2
   8  -4  -9 54.8576 5.70019   4
   8  -4  -9 47.5656 6.48832   6
   7  -4  -9 20.6568 3.39927   4
   7  -4  -9 29.1420 4.49034   6
   7  -4  -9 25.8463 4.29621   3
   7  -4  -9 22.2479 2.71344   2
   6  -4  -9 25.1947 3.52092   3
   6  -4  -9 17.7219 2.98696   4
   6  -4  -9 18.3617 3.43595   6
   6  -4  -9 20.5050 2.50159   2
   5  -4  -9 0.62979 1.50111   3
   5  -4  -9 1.41107 2.01664   4
  -5   4   9 -1.5579 1.79623   2
   4  -4  -9 171.608 7.99893   4
  -4   4   9 172.015 7.90603   4
  -4   4   9 176.783 6.02032   2
   3  -4  -9 4.23251 2.30121   4
  -3   4   9 1.45566 3.05461   4
  -3   4   9 0.43513 1.63585   2
   2  -4  -9 144.924 7.99006   6
   2  -4  -9 151.645 7.50415   4
  -2   4   9 153.487 5.83576   2
   1  -4  -9 19.8158 3.60793   4
   1  -4  -9 23.7565 3.99859   6
  -1   4   9 24.2105 2.94691   2
   0  -4  -9 44.5040 5.40138   4
   0  -4  -9 48.7655 5.93821   6
   0   4   9 46.5428 2.84519   5
   0   4   9 44.3827 5.15486   2
  -1  -4  -9 13.8027 3.37218   4
  -1  -4  -9 21.4668 4.21348   6
   1   4   9 20.4109 2.19938   5
   1   4   9 18.8546 4.16172   2
  -2  -4  -9 17.4059 3.52855   4
  -2  -4  -9 12.5842 4.13394   6
   2   4   9 5.76389 4.54521   5
  10  -5  -9 -8.2148 4.51618   6
   9  -5  -9 76.7827 8.22087   6
   9  -5  -9 81.7387 7.64292   4
   9  -5  -9 102.385 4.70477   2
   8  -5  -9 4.08708 1.69758   2
   8  -5  -9 8.58047 4.56577   3
   8  -5  -9 11.2049 4.16624   6
   8  -5  -9 3.17295 2.88054   4
   7  -5  -9 49.6274 6.42439   6
   7  -5  -9 53.3470 3.25781   2
   7  -5  -9 53.9417 5.80013   4
   7  -5  -9 53.2814 5.70813   3
   6  -5  -9 27.0497 4.15060   6
   6  -5  -9 26.8160 3.64104   4
   5  -5  -9 34.9240 4.83312   4
   5  -5  -9 24.4347 4.12685   6
  -5   5   9 29.0355 3.14188   2
   4  -5  -9 19.7327 3.13540   4
   4  -5  -9 21.7302 4.17667   6
  -4   5   9 22.3914 2.91982   2
   3  -5  -9 27.2041 3.97483   4
   3  -5  -9 34.3614 4.72206   6
   2  -5  -9 1.97266 2.79912   4
   2  -5  -9 3.10491 2.93405   6
  -2   5   9 8.45225 2.26359   2
   1  -5  -9 53.0058 5.72926   4
   1  -5  -9 52.6389 6.36885   6
  -1   5   9 51.2083 4.99091   2
   0  -5  -9 -1.2328 3.37517   6
   0  -5  -9 2.81511 3.12133   4
   0   5   9 -1.7968 3.75943   2
   0   5   9 2.25781 1.59178   5
  -1  -5  -9 23.4916 4.68240   6
  -1  -5  -9 26.8883 4.52595   4
   1   5   9 18.6056 2.55993   5
   9  -6  -9 4.69038 3.90420   4
   9  -6  -9 1.39545 4.35476   6
   8  -6  -9 46.4018 6.41752   4
   8  -6  -9 47.5947 5.89061   6
   7  -6  -9 0.14045 3.68621   6
   7  -6  -9 2.22989 3.09074   4
   6  -6  -9 10.5571 3.54772   6
   6  -6  -9 -0.8356 3.04623   4
   5  -6  -9 81.5253 7.32006   6
   5  -6  -9 83.6663 6.64712   4
   4  -6  -9 92.4117 6.65918   4
   4  -6  -9 104.443 7.82649   6
   3  -6  -9 4.23733 3.43649   6
   3  -6  -9 5.37295 2.92793   4
  -3   6   9 10.1097 2.15348   2
   2  -6  -9 63.6930 6.83182   6
   2  -6  -9 46.5747 6.18563   4
  -2   6   9 50.2016 4.63017   2
   1  -6  -9 6.67107 3.80091   6
   1  -6  -9 2.49234 3.28186   4
   0  -6  -9 1.21495 3.87243   4
   0  -6  -9 0.28306 4.27418   6
   0   6   9 -4.6071 2.12838   5
   8  -7  -9 -1.9595 4.46731   6
   8  -7  -9 -5.9504 3.78178   4
   7  -7  -9 12.9508 4.67129   6
   7  -7  -9 2.73910 3.67998   4
   6  -7  -9 16.9728 3.90951   4
   6  -7  -9 4.84772 4.10235   6
   5  -7  -9 80.0340 7.90439   6
   5  -7  -9 80.5343 6.99509   4
   4  -7  -9 126.143 8.86512   6
   4  -7  -9 140.862 8.28169   4
   3  -7  -9 -4.3087 3.31255   4
   3  -7  -9 -0.9028 4.02985   6
   2  -7  -9 54.3380 7.47976   6
   2  -7  -9 45.8123 5.39122   4
   1  -7  -9 21.3656 5.05458   6
   1  -7  -9 14.6267 4.14049   4
   7  -8  -9 25.7373 5.71379   6
   7  -8  -9 31.6297 5.09092   4
   6  -8  -9 37.7409 6.34259   6
   6  -8  -9 36.8941 4.96037   4
   5  -8  -9 59.3023 7.74600   4
   5  -8  -9 55.4453 7.12301   6
   4  -8  -9 -7.3963 4.51515   6
   4  -8  -9 3.34627 3.81285   4
   1  11 -10 40.2325 4.32691   2
   0  11 -10 6.04567 3.03764   2
  -1  11 -10 1.63079 2.69239   2
  -2  11 -10 5.56174 2.99421   2
  -2  11 -10 2.48503 2.47458   4
  -3  11 -10 12.9463 3.03813   4
  -3  11 -10 13.0102 3.48764   2
  -4  11 -10 102.502 9.12490   3
  -5  11 -10 34.5354 6.74576   3
   3  10 -10 21.9829 3.87585   2
   2  10 -10 5.91061 2.42278   2
   1  10 -10 18.2814 2.93230   2
   0  10 -10 35.6304 4.53855   2
  -1  10 -10 18.7642 3.00581   2
  -2  10 -10 17.0820 2.64865   4
  -2  10 -10 15.2668 2.96417   2
  -3  10 -10 2.79759 2.91109   2
  -3  10 -10 0.85119 2.38440   4
  -5  10 -10 41.8037 5.40212   3
   4   9 -10 -0.0254 2.98059   2
   3   9 -10 213.058 8.72536   2
   2   9 -10 4.28397 2.10852   2
   1   9 -10 147.612 6.77830   2
   0   9 -10 10.8387 2.45604   2
   0   9 -10 36.3995 11.6389   1
   0  -9  10 -0.0060 13.2839   1
   0  -9  10 12.7897 3.43507   5
  -1   9 -10 316.538 26.0020   1
  -1   9 -10 307.635 10.0976   4
  -1   9 -10 302.062 10.7245   2
   1  -9  10 298.854 10.8509   5
  -2   9 -10 4.11489 2.05337   4
  -2   9 -10 3.88780 2.26765   2
  -3   9 -10 115.425 5.64328   4
  -3   9 -10 117.851 7.46825   3
  -4   9 -10 51.8637 6.60689   3
  -4   9 -10 48.8607 4.90193   4
  -5   9 -10 127.939 9.20229   3
  -6   9 -10 85.8275 10.1296   3
   5   8 -10 71.6990 5.89419   2
   4   8 -10 3.72421 2.41967   2
   3   8 -10 13.5379 2.57652   2
  -3  -8  10 15.2647 4.42400   5
   2   8 -10 -1.4036 1.69996   2
  -2  -8  10 2.99761 3.66600   5
   1   8 -10 57.1654 4.21163   2
   1   8 -10 57.0931 10.7666   1
  -1  -8  10 45.2567 13.5049   1
  -1  -8  10 52.2422 5.40393   5
   0   8 -10 4.46024 2.02726   2
   0   8 -10 1.59116 1.50435   4
   0   8 -10 16.6435 10.0419   1
   0  -8  10 0.72561 2.61357   5
   0  -8  10 0.93077 11.2544   1
  -1   8 -10 73.2568 4.66526   2
  -1   8 -10 71.5730 4.34723   4
  -1   8 -10 52.9326 12.2213   1
   1  -8  10 78.6564 12.6784   1
   1  -8  10 68.8647 5.32072   5
  -2   8 -10 16.7330 2.43081   4
  -2   8 -10 11.6315 2.73809   2
  -2   8 -10 36.1930 13.2351   1
   2  -8  10 3.69938 10.8613   1
   2  -8  10 16.8686 3.54182   5
  -3   8 -10 36.8868 5.17509   3
  -3   8 -10 36.2419 3.91556   4
  -4   8 -10 16.5041 3.55519   3
  -4   8 -10 11.3236 2.32707   4
  -5   8 -10 8.04165 3.74121   3
  -5   8 -10 2.29863 1.90376   4
  -6   8 -10 35.4050 5.88024   3
   6   7 -10 19.0654 3.18081   2
   5   7 -10 44.7218 4.58613   2
   4   7 -10 9.16270 2.35293   2
  -4  -7  10 12.4530 5.10417   5
   3   7 -10 104.778 5.44608   2
  -3  -7  10 106.375 6.96565   5
   2   7 -10 0.07364 1.65097   2
   2   7 -10 2.12781 3.41643   6
   2   7 -10 2.10185 9.29471   1
  -2  -7  10 1.88432 2.50151   5
   1   7 -10 97.3500 4.95292   2
   1   7 -10 117.264 14.4756   1
   1   7 -10 98.1451 4.93012   6
  -1  -7  10 99.4927 5.34875   5
  -1  -7  10 98.9720 12.8002   1
  -1  -7  10 97.5515 5.95257   2
   0   7 -10 44.0601 10.6535   1
   0   7 -10 67.4331 4.18420   4
   0   7 -10 68.4180 4.15553   6
   0   7 -10 62.1669 4.25301   2
   0  -7  10 64.2504 5.06303   2
   0  -7  10 72.4683 4.53838   5
   0  -7  10 80.2200 11.1696   1
  -1   7 -10 62.4117 12.3752   1
  -1   7 -10 60.8987 4.10965   4
  -1   7 -10 75.9828 4.58394   2
  -1   7 -10 77.0346 4.39619   6
   1  -7  10 65.0092 11.1918   1
   1  -7  10 68.6255 4.62711   5
   1  -7  10 72.2407 5.25696   2
  -2   7 -10 51.6829 3.96528   4
  -2   7 -10 49.9745 4.32749   2
  -2   7 -10 59.3278 13.4406   1
  -2   7 -10 51.2913 4.57536   6
   2  -7  10 67.5457 11.4223   1
   2  -7  10 48.2130 5.47831   2
  -3   7 -10 79.7076 4.63812   4
  -3   7 -10 78.3921 5.95599   3
  -4   7 -10 7.17385 2.28918   4
  -4   7 -10 6.26030 2.80053   3
  -6   7 -10 -1.9555 4.19249   3
   7   6 -10 51.3422 5.67737   2
   6   6 -10 1.44501 2.37052   2
  -6  -6  10 5.70277 5.80932   5
   5   6 -10 -1.2622 1.76614   2
   5   6 -10 0.53636 2.96323   6
  -5  -6  10 6.47576 4.32045   5
   4   6 -10 36.8060 3.74127   2
   4   6 -10 43.4553 3.92699   6
  -4  -6  10 54.2043 5.96702   5
   3   6 -10 106.795 5.17426   2
   3   6 -10 101.570 4.92177   6
  -3  -6  10 98.1934 5.79083   5
   2   6 -10 31.6559 3.28177   6
   2   6 -10 36.6510 9.35413   1
   2   6 -10 27.3533 3.15233   2
  -2  -6  10 32.1557 3.78924   2
  -2  -6  10 21.7387 9.04314   1
  -2  -6  10 30.2450 3.78636   5
   1   6 -10 63.6470 4.04654   4
   1   6 -10 61.3307 10.1565   1
   1   6 -10 52.3636 4.92301   2
   1   6 -10 70.7419 3.94585   6
  -1  -6  10 71.6745 4.10864   5
  -1  -6  10 77.2932 5.14295   2
   0   6 -10 4.86343 1.68508   6
   0   6 -10 5.50848 1.74649   4
   0   6 -10 9.65652 9.06002   1
   0  -6  10 0.18720 2.26877   2
   0  -6  10 6.82677 1.86484   5
   0  -6  10 7.41325 7.85973   1
  -1   6 -10 13.5220 2.50590   2
  -1   6 -10 18.3535 10.0504   1
  -1   6 -10 16.2035 2.16478   6
  -1   6 -10 12.4896 2.35676   4
   1  -6  10 8.56287 2.51053   2
   1  -6  10 13.1881 2.12611   5
   1  -6  10 18.5135 8.16349   1
  -2   6 -10 -5.7993 11.6511   1
  -2   6 -10 2.84515 1.84673   6
  -2   6 -10 2.69906 2.19662   2
  -2   6 -10 0.43148 1.63385   4
   2  -6  10 -1.8443 8.18685   1
   2  -6  10 7.30237 2.50435   2
  -3   6 -10 26.4210 15.5976   1
  -3   6 -10 -1.4863 2.05859   6
  -3   6 -10 -2.2822 2.13413   3
  -3   6 -10 -0.0764 1.78642   4
   3  -6  10 -15.587 11.2425   1
  -4   6 -10 41.4365 5.70946   3
  -4   6 -10 44.1034 4.32676   6
  -4   6 -10 39.8090 3.95062   4
  -5   6 -10 113.166 5.61207   4
  -5   6 -10 111.383 8.64776   3
  -6   6 -10 7.78616 4.70141   3
   6  -6  10 5.57886 3.53373   5
   7   5 -10 369.555 12.7519   2
   7   5 -10 356.975 11.4559   5
   7   5 -10 371.302 12.3381   6
   6   5 -10 92.9243 5.36720   2
   6   5 -10 98.6305 5.24194   6
  -6  -5  10 91.3339 8.98779   5
   5   5 -10 233.913 8.64354   2
   5   5 -10 248.399 7.96190   6
  -5  -5  10 219.937 9.76324   5
   4   5 -10 40.1254 3.44859   2
   4   5 -10 45.6106 3.53891   6
  -4  -5  10 36.9807 4.83961   5
   3   5 -10 152.509 5.74018   6
   3   5 -10 129.224 14.2227   1
   3   5 -10 128.391 5.76933   2
  -3  -5  10 146.234 6.82488   2
  -3  -5  10 134.879 5.86671   5
   2   5 -10 7.42836 7.86450   1
   2   5 -10 13.4948 2.22927   2
   2   5 -10 10.7029 1.92173   4
  -2  -5  10 20.4949 2.57805   5
  -2  -5  10 14.0217 7.21476   1
  -2  -5  10 11.2513 2.59038   2
   1   5 -10 63.4567 3.95719   2
   1   5 -10 84.2365 11.5878   1
   1   5 -10 66.7807 4.07435   4
  -1  -5  10 70.3074 9.24175   1
  -1  -5  10 67.3937 4.07890   5
   0   5 -10 16.1547 2.31198   4
   0   5 -10 20.0463 9.27858   1
   0   5 -10 15.5969 2.35514   2
   0   5 -10 15.3558 3.56271   6
   0  -5  10 17.7370 2.03702   5
   0  -5  10 15.9986 8.06370   1
  -1   5 -10 417.119 13.5558   6
  -1   5 -10 367.858 13.1602   2
  -1   5 -10 357.967 11.8821   4
  -1   5 -10 366.024 24.2060   1
   1  -5  10 371.557 11.8927   2
   1  -5  10 390.399 18.5247   1
  -2   5 -10 -0.0447 11.1863   1
  -2   5 -10 -1.7615 1.49221   4
  -2   5 -10 -1.1328 1.91248   3
  -2   5 -10 -0.8019 2.05581   6
   2  -5  10 2.50856 8.01907   1
   2  -5  10 4.86604 2.43793   2
  -3   5 -10 225.936 7.56025   6
  -3   5 -10 215.594 8.19828   4
  -3   5 -10 254.133 26.4117   1
  -3   5 -10 218.525 9.45226   3
   3  -5  10 247.224 18.3171   1
  -4   5 -10 6.20165 2.19020   4
  -4   5 -10 9.12587 2.43724   6
  -4   5 -10 8.19757 3.12763   3
  -5   5 -10 23.6297 2.84701   4
  -5   5 -10 18.6505 3.12586   6
  -5   5 -10 19.3238 4.17642   3
   5  -5  10 20.6510 3.70984   5
  -6   5 -10 42.7658 6.03371   3
   6  -5  10 51.9354 5.27790   5
   8   4 -10 22.3872 2.97360   5
   8   4 -10 19.7071 3.54293   2
   7   4 -10 10.2701 2.63132   6
   7   4 -10 8.18126 2.27593   2
   7   4 -10 8.73793 1.95880   5
  -7  -4  10 20.0661 5.15004   5
   6   4 -10 2.58655 2.22832   6
   6   4 -10 4.20547 1.78128   2
  -6  -4  10 3.24374 3.66608   5
   5   4 -10 2.89433 2.01674   6
   5   4 -10 0.55641 1.44389   2
  -5  -4  10 3.73709 2.69326   5
   4   4 -10 13.6134 1.94647   2
   4   4 -10 19.6487 2.58215   4
  -4  -4  10 23.0449 2.65872   5
  -4  -4  10 15.9698 2.99062   2
   3   4 -10 27.6856 2.96556   6
   3   4 -10 26.8128 2.73630   2
   3   4 -10 23.6464 3.09617   4
   3   4 -10 19.4086 8.08729   1
  -3  -4  10 29.4026 5.79127   2
  -3  -4  10 27.2082 3.12604   5
  -3  -4  10 24.6863 6.78564   1
   2   4 -10 3.89005 1.50206   2
   2   4 -10 3.14471 1.57142   4
   2   4 -10 -1.8339 7.54822   1
   2   4 -10 -0.0205 1.42064   6
  -2  -4  10 1.68519 1.88652   2
  -2  -4  10 7.97924 7.58502   1
  -2  -4  10 5.33565 1.85327   5
   1   4 -10 7.06125 1.56890   6
   1   4 -10 9.35098 2.02681   4
   1   4 -10 5.03031 8.38065   1
   1   4 -10 8.31169 1.67082   2
  -1  -4  10 10.3559 1.53429   5
  -1  -4  10 8.87895 2.27297   2
  -1  -4  10 9.90921 6.33832   1
   0   4 -10 43.9492 11.1128   1
   0   4 -10 36.9017 3.34022   2
   0   4 -10 29.2576 3.31910   4
   0   4 -10 35.3634 2.97329   6
   0  -4  10 43.5542 8.16821   1
   0  -4  10 36.4144 3.85258   2
   0  -4  10 36.2377 2.63375   5
  -1   4 -10 24.2694 11.1670   1
  -1   4 -10 18.8282 2.51193   2
  -1   4 -10 20.6217 2.67058   4
  -1   4 -10 23.9934 2.76534   6
   1  -4  10 28.1096 8.41503   1
  -2   4 -10 1.31478 1.99454   3
  -2   4 -10 -2.1134 1.72381   6
  -2   4 -10 0.32967 1.67995   4
  -2   4 -10 -11.174 11.7951   1
   2  -4  10 -2.2605 8.13568   1
   2  -4  10 -0.8037 2.09025   2
  -3   4 -10 17.2062 15.1417   1
  -3   4 -10 37.5668 4.84430   3
  -3   4 -10 25.5897 3.08989   4
   3  -4  10 27.8299 3.11153   5
   3  -4  10 48.4939 11.2642   1
  -4   4 -10 -0.3345 2.21039   6
  -4   4 -10 0.17408 2.08570   4
   4  -4  10 1.64460 2.26891   5
  -5   4 -10 20.1915 3.06420   6
  -5   4 -10 26.6642 3.18206   4
   5  -4  10 17.4015 3.34107   5
  -6   4 -10 -3.8956 2.33194   4
  -6   4 -10 4.54532 4.73668   3
   6  -4  10 10.9756 3.92599   5
   8   3 -10 8.50559 2.19436   5
   8   3 -10 7.70518 2.44200   2
   8   3 -10 14.6033 2.94703   6
   7   3 -10 78.2188 5.35400   4
   7   3 -10 71.5861 3.83482   5
   7   3 -10 76.1730 4.81876   6
   7   3 -10 70.6818 4.76765   2
   6   3 -10 62.4448 4.16283   6
   6   3 -10 60.6538 4.75994   4
   6   3 -10 54.5785 4.00717   2
   5   3 -10 67.0707 4.49708   4
   5   3 -10 58.4579 3.84149   2
   5   3 -10 58.8748 6.59238   6
  -5  -3  10 59.6835 4.48116   5
  -5  -3  10 59.6014 5.61137   2
   4   3 -10 39.5126 3.11222   2
   4   3 -10 21.2060 8.29092   1
  -4  -3  10 34.9174 3.85074   5
   3   3 -10 52.5347 10.0131   1
   3   3 -10 72.6099 3.81605   2
   3   3 -10 66.6641 4.30136   4
  -3  -3  10 79.6813 9.92012   1
  -3  -3  10 65.2940 4.52628   2
  -3  -3  10 66.4776 3.18996   5
   2   3 -10 14.5867 8.69207   1
   2   3 -10 0.31698 1.23329   2
   2   3 -10 -1.3285 1.44025   4
  -2  -3  10 0.41014 0.96651   5
  -2  -3  10 -0.3725 1.84687   2
   1   3 -10 122.187 5.82537   4
   1   3 -10 111.528 14.9359   1
   1   3 -10 126.836 5.50280   2
  -1  -3  10 129.893 5.62528   2
  -1  -3  10 126.876 11.2627   1
  -1  -3  10 123.817 4.09797   5
   0   3 -10 11.3250 2.07567   2
   0   3 -10 5.66976 10.1207   1
   0   3 -10 8.40250 1.97847   4
   0  -3  10 12.8210 7.04242   1
   0  -3  10 6.50288 2.03357   2
  -1   3 -10 16.9466 2.52230   3
  -1   3 -10 24.3353 2.84327   6
  -1   3 -10 26.3220 11.4443   1
  -1   3 -10 16.1257 2.46223   4
   1  -3  10 19.8587 8.40173   1
   1  -3  10 16.3243 2.00995   5
  -2   3 -10 7.83690 13.6280   1
  -2   3 -10 0.89099 1.92597   4
  -2   3 -10 -2.0397 1.61661   6
  -2   3 -10 1.29628 1.94152   3
   2  -3  10 -1.1063 1.58621   5
   2  -3  10 10.7236 9.40991   1
   2  -3  10 1.76054 2.44461   2
  -3   3 -10 26.0056 17.3531   1
  -3   3 -10 31.1260 3.85405   6
  -3   3 -10 32.1549 4.10029   4
  -3   3 -10 34.2437 4.06170   3
   3  -3  10 29.4039 12.2409   1
   3  -3  10 23.2600 2.91698   5
  -4   3 -10 23.8535 3.20817   4
  -4   3 -10 24.0609 3.87683   3
   4  -3  10 20.0965 3.27679   5
  -5   3 -10 9.87532 3.97177   3
  -5   3 -10 6.74197 2.89098   4
  -5   3 -10 7.74831 3.15196   6
   5  -3  10 5.01589 2.96905   5
  -6   3 -10 14.3503 5.42157   3
   6  -3  10 12.3668 3.89666   5
   9   2 -10 26.0667 3.64386   2
   9   2 -10 34.6537 4.49830   4
   9   2 -10 39.0519 4.28294   5
   8   2 -10 6.12434 2.41245   2
   8   2 -10 11.2962 2.19373   5
   8   2 -10 10.3285 3.16600   4
   8   2 -10 11.3229 2.74504   6
   7   2 -10 4.51184 1.30680   5
   7   2 -10 2.45889 1.96186   2
   7   2 -10 4.54205 2.39793   4
   6   2 -10 4.10970 1.67280   2
   6   2 -10 4.26378 2.07622   4
   5   2 -10 6.23410 1.60656   2
   5   2 -10 2.92709 1.73102   4
  -5  -2  10 8.02139 5.18212   2
   4   2 -10 10.6582 1.79404   2
   4   2 -10 3.68673 8.37790   1
   4   2 -10 7.85641 2.12020   4
  -4  -2  10 7.00116 2.32376   2
  -4  -2  10 20.9483 6.16949   1
   3   2 -10 36.9805 9.21616   1
   3   2 -10 55.9871 4.06950   4
   3   2 -10 53.3347 3.42002   2
  -3  -2  10 62.0536 7.53717   1
  -3  -2  10 57.2030 4.17814   2
   2   2 -10 59.4814 4.31830   4
   2   2 -10 67.8986 3.78139   2
   2   2 -10 79.5994 12.1077   1
  -2  -2  10 62.3549 4.06994   2
  -2  -2  10 61.7476 11.6338   1
   1   2 -10 25.8974 2.98543   2
   1   2 -10 23.3922 2.79931   4
   1   2 -10 23.1259 9.66950   1
  -1  -2  10 46.3413 7.96845   1
  -1  -2  10 33.2249 1.92182   5
  -1  -2  10 32.3418 1.76222   5
  -1  -2  10 32.7661 3.53679   2
   0   2 -10 23.8758 10.6669   1
   0   2 -10 30.6333 3.52570   4
   0  -2  10 32.1436 3.86014   2
   0  -2  10 29.4214 2.41092   5
   0  -2  10 28.5146 8.47665   1
  -1   2 -10 155.424 6.43512   3
  -1   2 -10 176.228 22.0025   1
  -1   2 -10 148.547 6.78703   4
   1  -2  10 143.793 5.48223   5
   1  -2  10 165.322 15.5480   1
  -2   2 -10 15.8314 2.77992   3
  -2   2 -10 16.1786 2.72552   4
  -2   2 -10 39.9614 15.4331   1
   2  -2  10 16.8434 2.30276   5
   2  -2  10 19.3883 11.5375   1
   2  -2  10 13.5827 3.03237   2
  -3   2 -10 139.998 6.76641   4
  -3   2 -10 152.441 7.70726   3
  -3   2 -10 147.002 5.75891   6
   3  -2  10 168.556 23.4210   1
   3  -2  10 135.500 6.35602   5
   3  -2  10 144.142 7.09784   4
  -4   2 -10 30.8596 5.04791   4
  -4   2 -10 24.0282 4.90847   6
  -4   2 -10 25.0984 4.11053   3
   4  -2  10 23.8774 3.89219   5
  -5   2 -10 15.2355 4.39030   3
  -5   2 -10 16.4918 3.16013   4
   5  -2  10 13.0424 3.53756   5
   5  -2  10 23.6409 4.76450   4
   9   1 -10 31.6700 3.63799   5
   9   1 -10 28.7859 3.60115   2
   9   1 -10 28.2691 4.39300   4
   8   1 -10 13.2054 3.13162   4
   8   1 -10 11.8949 1.61805   5
   8   1 -10 4.61435 2.30195   2
   7   1 -10 4.23327 1.79288   2
   7   1 -10 1.93085 2.41470   4
   6   1 -10 280.130 10.3167   4
   6   1 -10 260.578 9.26158   2
   5   1 -10 6.29086 2.18094   4
   5   1 -10 6.18949 1.58589   2
  -5  -1  10 8.81456 2.68113   2
   4   1 -10 73.1379 10.2450   1
   4   1 -10 61.5775 4.67193   4
   4   1 -10 69.5628 3.76228   2
  -4  -1  10 71.3197 4.49366   2
  -4  -1  10 76.8468 8.35050   1
   3   1 -10 41.9831 3.16607   2
   3   1 -10 48.4043 4.03624   4
   3   1 -10 37.5758 9.47468   1
  -3  -1  10 44.8534 6.69676   1
  -3  -1  10 48.5049 3.76605   2
   2   1 -10 14.2961 2.46163   4
   2   1 -10 14.7844 2.12298   2
   2   1 -10 14.5624 9.22590   1
  -2  -1  10 17.6875 2.32353   2
  -2  -1  10 14.8991 8.16311   1
   1   1 -10 126.317 6.27529   4
   1   1 -10 118.607 16.9515   1
   1   1 -10 133.790 5.78632   2
  -1  -1  10 126.981 5.59876   2
  -1  -1  10 142.280 13.5295   1
   0   1 -10 392.359 24.9834   1
   0   1 -10 384.032 11.4378   3
   0   1 -10 370.361 12.5466   4
   0  -1  10 399.614 21.1705   1
   0  -1  10 375.229 11.6398   2
   0  -1  10 349.803 10.2029   5
  -1   1 -10 50.2747 4.38415   4
  -1   1 -10 44.6874 3.94688   3
  -1   1 -10 76.9131 14.6956   1
   1  -1  10 43.4960 2.93469   5
   1  -1  10 41.3422 4.59919   4
   1  -1  10 59.5433 6.35090   2
   1  -1  10 53.9399 12.2217   1
  -2   1 -10 88.4363 18.4853   1
  -2   1 -10 102.831 5.74530   3
  -2   1 -10 96.8278 5.89040   4
   2  -1  10 92.4588 8.17431   4
   2  -1  10 106.419 16.4488   1
   2  -1  10 98.2867 6.10355   2
   2  -1  10 84.5469 4.49949   5
  -3   1 -10 6.07798 3.00211   4
  -3   1 -10 1.54151 2.61186   3
   3  -1  10 1.88334 3.39278   4
   3  -1  10 1.36466 1.96204   5
  -4   1 -10 18.1657 3.36947   4
  -4   1 -10 15.1507 5.08464   6
  -4   1 -10 22.5614 4.22376   3
   4  -1  10 17.3575 3.13572   5
   4  -1  10 13.3822 5.47243   4
  -5   1 -10 45.8671 5.55851   4
  -5   1 -10 45.4914 5.45121   3
   5  -1  10 48.7259 5.96686   5
   9   0 -10 29.8016 4.32788   4
   9   0 -10 40.2198 4.48293   2
   8   0 -10 34.7959 4.04161   4
   8   0 -10 32.1147 3.87704   2
   8   0 -10 39.4114 2.38462   5
   7   0 -10 123.705 6.97115   4
   7   0 -10 133.281 12.0419   3
   6   0 -10 17.4909 3.10553   4
   6   0 -10 14.4487 2.14582   2
   5   0 -10 24.5009 2.67359   2
   5   0 -10 23.0527 3.32829   4
  -5   0  10 21.4104 2.82212   2
   4   0 -10 10.4996 1.79561   2
   4   0 -10 9.31315 2.28795   4
   4   0 -10 -7.4225 7.91930   1
  -4   0  10 8.38478 2.11559   2
   3   0 -10 375.782 22.0138   1
   3   0 -10 361.107 12.3171   4
   3   0 -10 359.892 11.1236   2
  -3   0  10 371.076 10.9916   2
  -3   0  10 354.544 16.3707   1
   2   0 -10 19.3279 10.4924   1
   2   0 -10 3.64206 1.95714   4
   2   0 -10 4.23170 1.47966   2
  -2   0  10 -5.4255 6.95862   1
  -2   0  10 3.40962 1.93090   2
   1   0 -10 189.522 19.3488   1
   1   0 -10 203.642 6.80279   3
   1   0 -10 200.594 8.33691   4
  -1   0  10 200.163 20.7506   1
  -1   0  10 208.388 7.37786   2
   0   0 -10 11.7285 11.9591   1
   0   0 -10 2.03370 1.96402   4
   0   0 -10 -2.7448 1.46046   3
   0   0  10 -0.9331 0.88268   5
   0   0  10 4.69133 11.8801   1
   0   0  10 -1.8653 4.56815   4
   0   0  10 1.71157 2.08083   2
  -1   0 -10 3.23089 1.84370   3
  -1   0 -10 4.40968 14.4563   1
   1   0  10 -0.7621 2.40237   2
   1   0  10 2.87694 1.39766   5
   1   0  10 1.07626 2.82844   4
   1   0  10 1.30784 12.5453   1
  -2   0 -10 48.1694 18.9097   1
  -2   0 -10 33.8784 4.28171   3
  -2   0 -10 34.0596 4.63795   4
   2   0  10 34.7627 4.61869   4
   2   0  10 48.6919 17.1833   1
   2   0  10 24.9066 3.19920   5
  -3   0 -10 7.55592 2.88197   3
  -3   0 -10 6.68311 2.85545   4
   3   0  10 4.58655 2.33214   5
  -4   0 -10 0.48355 3.63396   3
  -4   0 -10 -1.3602 2.92664   4
   4   0  10 4.14052 2.80477   5
   9  -1 -10 0.34226 3.29252   4
   9  -1 -10 4.05885 2.44663   2
   8  -1 -10 208.399 13.5875   3
   8  -1 -10 196.582 7.58531   2
   8  -1 -10 205.858 9.55120   4
   7  -1 -10 11.9047 2.12257   2
   7  -1 -10 8.41058 3.01987   4
   7  -1 -10 5.99915 4.89361   3
   6  -1 -10 152.851 5.97381   2
   6  -1 -10 151.931 9.05425   3
   6  -1 -10 145.234 7.40104   4
  -6   1  10 152.664 7.01985   2
   5  -1 -10 0.96223 1.31406   2
   5  -1 -10 -1.6795 1.84755   4
  -5   1  10 1.55202 2.09913   2
   4  -1 -10 121.801 5.28622   2
   4  -1 -10 121.217 21.4991   1
  -4   1  10 130.289 5.51130   2
   3  -1 -10 -11.967 9.46123   1
   3  -1 -10 4.68014 2.55909   4
   3  -1 -10 3.15661 1.61512   2
  -3   1  10 5.23203 7.59726   1
  -3   1  10 5.69615 1.94262   2
   2  -1 -10 17.9590 11.5534   1
   2  -1 -10 10.5036 2.91314   4
  -2   1  10 12.1099 2.25902   2
  -2   1  10 21.7506 9.23703   1
   1  -1 -10 12.9450 1.73448   3
   1  -1 -10 13.5467 13.3771   1
  -1   1  10 9.83114 2.73319   4
  -1   1  10 13.0226 2.55012   2
  -1   1  10 25.1146 11.1275   1
   0  -1 -10 140.656 5.36236   3
   0  -1 -10 151.546 7.33741   4
   0  -1 -10 163.406 20.5967   1
   0   1  10 145.793 6.65110   2
   0   1  10 156.683 18.6070   1
   0   1  10 140.154 4.50331   5
   0   1  10 154.614 7.66843   4
  -1  -1 -10 11.0224 2.21322   3
  -1  -1 -10 63.4490 17.4327   1
  -1  -1 -10 14.3942 2.99087   4
   1   1  10 19.1746 16.2318   1
   1   1  10 13.4601 1.65985   5
   1   1  10 7.85255 2.98652   2
  -2  -1 -10 60.9285 5.76094   4
  -2  -1 -10 53.7552 4.46841   3
   2   1  10 66.5850 26.3798   1
   2   1  10 60.5051 3.90747   5
  -3  -1 -10 -0.0753 2.92999   4
   3   1  10 3.23652 2.30317   5
  -4  -1 -10 19.2816 4.85469   6
  -4  -1 -10 13.8162 5.27455   4
   4   1  10 13.1069 3.09425   5
   9  -2 -10 101.916 7.92826   4
   9  -2 -10 96.6714 8.57697   6
   9  -2 -10 99.2156 5.66851   2
   8  -2 -10 2.23078 6.13958   3
   8  -2 -10 9.45756 2.26315   2
   8  -2 -10 4.17342 3.16157   4
   7  -2 -10 66.8472 5.88867   4
   7  -2 -10 63.1195 8.64947   3
   7  -2 -10 56.5969 4.29952   2
   6  -2 -10 3.55208 1.53191   2
   6  -2 -10 -1.5206 3.63063   3
   6  -2 -10 3.77593 2.26542   4
  -6   2  10 -0.5626 2.42313   2
   5  -2 -10 58.0723 3.67817   2
   5  -2 -10 58.1880 5.77843   3
   5  -2 -10 67.0407 5.26283   4
  -5   2  10 70.5120 4.54436   2
   4  -2 -10 1.02599 1.56350   2
   4  -2 -10 -1.5113 2.07877   4
  -4   2  10 2.31038 1.90631   2
   3  -2 -10 84.6784 5.67594   4
   3  -2 -10 86.2055 4.16208   3
  -3   2  10 88.8999 4.60694   2
   2  -2 -10 -0.1192 2.06589   4
   2  -2 -10 6.16239 14.1088   1
  -2   2  10 1.45938 2.00452   2
  -2   2  10 2.04723 2.71097   4
   1  -2 -10 50.9807 15.0655   1
   1  -2 -10 26.2577 3.40571   4
  -1   2  10 52.2845 6.03023   4
  -1   2  10 41.1379 4.42586   2
   0  -2 -10 6.34372 2.62123   4
   0  -2 -10 1.98153 15.4837   1
   0   2  10 10.9719 4.74086   2
   0   2  10 5.99519 1.13594   5
  -1  -2 -10 -0.3438 18.9419   1
  -1  -2 -10 4.55765 2.46278   4
   1   2  10 -4.1153 3.07982   2
   1   2  10 -0.0560 1.39811   5
  -2  -2 -10 8.82785 3.36348   4
   2   2  10 10.7902 2.11470   5
  -3  -2 -10 4.13258 3.37141   4
  -3  -2 -10 3.05581 4.43478   6
   3   2  10 3.99451 2.56200   5
   9  -3 -10 2.98982 4.46191   2
   9  -3 -10 9.40753 3.71475   4
   9  -3 -10 0.27051 4.38451   6
   8  -3 -10 49.4804 6.81294   3
   8  -3 -10 42.2840 3.86416   2
   8  -3 -10 46.3464 6.13772   4
   8  -3 -10 36.4588 5.33746   6
   7  -3 -10 6.52975 1.89067   2
   7  -3 -10 -1.2893 2.55871   4
   7  -3 -10 2.71026 4.29072   3
   6  -3 -10 51.7788 3.68345   2
   6  -3 -10 61.4162 7.08672   3
   6  -3 -10 55.6986 5.62986   4
   5  -3 -10 56.6172 4.72094   3
   5  -3 -10 53.2897 5.38894   4
   5  -3 -10 60.3623 3.80001   2
  -5   3  10 59.2615 4.35209   2
   4  -3 -10 2.96624 2.24179   4
  -4   3  10 4.76577 2.07258   2
   3  -3 -10 7.94363 2.78046   4
  -3   3  10 6.22402 2.11122   2
   2  -3 -10 5.86153 2.70495   4
  -2   3  10 3.06512 2.12314   2
   1  -3 -10 11.7218 3.09524   4
  -1   3  10 17.5518 2.98399   2
   0  -3 -10 18.8871 3.40098   4
   0   3  10 17.7945 3.50579   2
   0   3  10 16.7879 2.11859   5
  -1  -3 -10 11.9155 4.10699   6
  -1  -3 -10 10.6728 3.16257   4
   1   3  10 10.6104 1.87954   5
  -2  -3 -10 -3.5444 3.57414   4
  -2  -3 -10 0.28918 4.17178   6
   2   3  10 -2.3851 2.18269   5
   9  -4 -10 69.0873 8.06476   4
   9  -4 -10 96.8301 5.29556   2
   9  -4 -10 84.1050 8.62632   6
   8  -4 -10 125.998 8.04789   4
   8  -4 -10 118.564 5.46955   2
   8  -4 -10 112.485 15.7636   3
   8  -4 -10 104.671 8.67768   6
   7  -4 -10 16.7901 3.60509   4
   7  -4 -10 26.6371 6.14654   3
   7  -4 -10 20.5142 4.45680   6
   7  -4 -10 14.2671 2.18896   2
   6  -4 -10 84.2083 7.51353   6
   6  -4 -10 93.2460 6.85658   4
   6  -4 -10 93.2750 4.59999   2
   6  -4 -10 80.4961 5.78533   3
   5  -4 -10 23.0364 3.68760   4
  -5   4  10 32.9457 3.51503   2
   4  -4 -10 -2.6298 2.52627   4
  -4   4  10 0.83507 2.07444   2
   3  -4 -10 10.8666 2.79385   4
  -3   4  10 17.9374 2.61673   2
   2  -4 -10 62.4694 6.05113   4
   2  -4 -10 47.6085 6.39274   6
  -2   4  10 74.0940 4.90502   2
   1  -4 -10 76.4003 7.40533   6
   1  -4 -10 83.2617 6.66986   4
  -1   4  10 91.2105 6.04094   2
   0  -4 -10 178.439 9.78416   6
   0  -4 -10 185.667 9.65994   4
   0   4  10 182.285 8.77922   2
  -1  -4 -10 -6.1647 4.10483   6
  -1  -4 -10 3.97853 3.76731   4
   1   4  10 2.22972 2.07971   5
   9  -5 -10 6.09391 4.25919   4
   9  -5 -10 2.74734 5.18583   6
   8  -5 -10 2.71163 3.16458   2
   8  -5 -10 -0.3119 4.06250   6
   8  -5 -10 -1.5233 3.61456   4
   7  -5 -10 4.35863 4.00169   6
   7  -5 -10 -1.6147 3.25833   4
   6  -5 -10 -2.0257 3.00170   4
   6  -5 -10 1.66429 3.77911   6
   5  -5 -10 51.5499 6.70294   6
   5  -5 -10 28.6990 4.00622   4
  -5   5  10 41.1436 4.14878   2
   4  -5 -10 135.679 8.82560   6
   4  -5 -10 129.098 7.95983   4
  -4   5  10 124.737 5.57518   2
   3  -5 -10 1.96291 3.71384   6
   3  -5 -10 1.13706 2.79748   4
  -3   5  10 0.30751 2.29953   2
   2  -5 -10 1.59955 3.74272   6
   2  -5 -10 6.45155 3.40576   4
  -2   5  10 9.74128 3.07556   2
   1  -5 -10 3.69389 3.60041   4
   1  -5 -10 -0.7158 3.92966   6
   0  -5 -10 33.1078 5.32215   6
   0  -5 -10 23.1935 4.41255   4
   8  -6 -10 72.9169 8.09378   4
   8  -6 -10 71.9310 9.42151   6
   7  -6 -10 101.866 8.29092   4
   7  -6 -10 98.3707 9.22055   6
   6  -6 -10 34.7359 5.41572   6
   6  -6 -10 37.7102 5.09505   4
   5  -6 -10 12.8931 3.85705   4
   5  -6 -10 18.0762 4.54414   6
   4  -6 -10 367.993 14.0181   4
   4  -6 -10 359.530 15.0792   6
   3  -6 -10 41.4078 5.16038   4
   3  -6 -10 38.1096 5.64055   6
   2  -6 -10 310.855 13.3352   4
   2  -6 -10 309.647 13.9426   6
   1  -6 -10 -2.0888 4.79660   6
   1  -6 -10 -3.8362 4.21179   4
   6  -7 -10 185.269 10.4327   4
   6  -7 -10 159.683 11.3456   6
   5  -7 -10 31.1125 5.85931   6
   5  -7 -10 30.5379 5.02349   4
   4  -7 -10 152.643 10.9968   6
   4  -7 -10 136.353 9.91608   4
   0  11 -11 9.06132 3.39650   2
  -1  11 -11 6.67751 3.07413   4
  -1  11 -11 9.80263 3.33611   2
  -2  11 -11 27.6301 3.68289   4
  -2  11 -11 21.4668 4.02657   2
  -3  11 -11 -0.4348 4.25542   3
   2  10 -11 2.63399 3.13002   2
   1  10 -11 67.3916 5.94640   2
   0  10 -11 2.91316 2.78576   2
  -1  10 -11 36.0709 3.84096   4
  -1  10 -11 42.2128 4.48295   2
  -2  10 -11 16.0694 3.69296   2
  -3  10 -11 1.12269 2.87382   4
  -4  10 -11 21.5166 5.56806   3
   3   9 -11 43.1374 5.43219   2
   2   9 -11 7.81283 2.69691   2
   1   9 -11 2.24473 2.38156   2
   0   9 -11 35.2089 4.39819   4
   0   9 -11 36.8974 3.98424   2
  -1   9 -11 2.11945 2.22875   4
  -1   9 -11 4.92889 2.48169   2
  -2   9 -11 1.62974 2.69043   2
  -2   9 -11 0.79112 2.52344   4
  -3   9 -11 0.40362 2.59308   4
  -3   9 -11 -0.1952 3.21223   3
  -4   9 -11 53.9994 7.62075   3
  -5   9 -11 34.9920 5.95914   3
   4   8 -11 42.5602 5.04730   2
   3   8 -11 30.8763 3.55655   2
  -3  -8  11 49.1062 5.48901   5
   2   8 -11 112.188 6.04720   2
  -2  -8  11 115.177 7.89700   5
   1   8 -11 2.05600 2.16882   2
   1   8 -11 3.99992 2.13747   4
   0   8 -11 3.12130 12.2344   1
   0   8 -11 7.36778 2.24455   4
   0   8 -11 4.11901 2.13269   2
  -1   8 -11 58.7502 5.05483   2
  -1   8 -11 63.7044 4.89784   4
  -1   8 -11 43.2970 15.3497   1
   1  -8  11 67.2881 5.94126   5
   1  -8  11 54.0860 13.5140   1
  -2   8 -11 108.628 6.06671   4
  -2   8 -11 112.428 6.66816   2
   2  -8  11 112.136 6.93127   5
  -3   8 -11 2.28199 3.20563   3
  -3   8 -11 -0.5013 2.36868   4
  -4   8 -11 53.1881 7.16897   3
  -4   8 -11 61.1145 5.16594   4
  -5   8 -11 2.90739 4.19059   3
   5   7 -11 -1.4251 2.70281   2
   4   7 -11 50.9096 4.75755   2
  -4  -7  11 59.2915 7.67975   5
   3   7 -11 71.0278 4.86123   2
  -3  -7  11 72.9754 6.74868   5
   2   7 -11 2.74103 1.86990   4
   2   7 -11 1.65626 2.10059   2
  -2  -7  11 6.57472 2.88683   5
   1   7 -11 22.2912 2.83160   4
   1   7 -11 25.0806 3.07524   2
  -1  -7  11 31.9425 3.42809   5
   0   7 -11 28.9057 4.81204   4
   0   7 -11 26.0421 3.40169   2
   0   7 -11 5.62838 12.5228   1
   0  -7  11 22.8994 3.04696   5
   0  -7  11 16.9062 11.2677   1
  -1   7 -11 43.8635 14.2165   1
  -1   7 -11 32.3763 4.20178   2
  -1   7 -11 34.0137 4.41782   4
   1  -7  11 37.6380 4.64266   5
  -2   7 -11 -0.2488 2.21631   4
  -2   7 -11 3.40051 2.67724   2
   2  -7  11 -0.7298 2.64454   5
  -3   7 -11 -4.7791 2.88605   3
  -3   7 -11 0.46008 2.33639   4
  -4   7 -11 55.7819 4.94343   4
  -4   7 -11 55.5614 6.21211   3
  -5   7 -11 18.2983 4.67574   3
   6   6 -11 72.4538 5.81343   2
   5   6 -11 22.8588 3.22475   2
  -5  -6  11 22.8708 6.51665   5
   4   6 -11 26.7806 3.22914   2
  -4  -6  11 22.5529 4.04370   5
   3   6 -11 2.85418 1.85857   2
   3   6 -11 0.42256 1.99729   4
  -3  -6  11 1.34508 2.62797   5
   2   6 -11 2.98953 1.79164   2
   2   6 -11 6.18610 2.10917   4
  -2  -6  11 2.79485 2.32639   5
   1   6 -11 8.99766 11.3308   1
   1   6 -11 4.18698 2.04265   2
   1   6 -11 2.25865 2.45953   4
  -1  -6  11 6.19073 2.21994   5
  -1  -6  11 -1.5855 8.53842   1
   0   6 -11 17.8068 2.51913   2
   0   6 -11 21.4106 2.75502   4
   0   6 -11 38.7747 12.4720   1
   0  -6  11 23.1873 2.66260   5
   0  -6  11 35.7101 10.1252   1
  -1   6 -11 -12.111 12.4131   1
  -1   6 -11 6.45191 2.35159   4
  -1   6 -11 7.30619 2.46571   2
   1  -6  11 -3.5590 9.72883   1
   1  -6  11 3.51192 2.14420   5
  -2   6 -11 39.2306 16.4515   1
  -2   6 -11 8.93624 2.57526   4
  -2   6 -11 10.3791 2.96080   3
   2  -6  11 2.57398 10.8828   1
  -3   6 -11 -2.2286 2.78336   3
  -3   6 -11 -3.9465 2.28085   4
  -4   6 -11 2.98137 2.66690   4
  -4   6 -11 3.40452 3.49782   3
  -5   6 -11 26.3686 5.40718   3
   5  -6  11 24.5249 4.26747   5
   7   5 -11 5.19634 3.11410   2
   6   5 -11 50.2817 4.77916   2
   5   5 -11 11.4974 2.83412   4
   5   5 -11 15.5380 2.63029   2
  -5  -5  11 11.1224 3.80201   5
   4   5 -11 1.84852 1.90359   2
   4   5 -11 2.27319 2.09665   4
  -4  -5  11 1.14044 5.36150   5
   3   5 -11 117.613 5.72454   2
   3   5 -11 132.081 6.43301   4
   2   5 -11 -1.4318 12.2406   1
   2   5 -11 3.78455 2.54153   6
   2   5 -11 3.02556 1.77166   4
   2   5 -11 -0.6934 1.71449   2
  -2  -5  11 2.07313 2.03481   5
   1   5 -11 66.1616 13.8468   1
   1   5 -11 98.6835 5.69009   4
   1   5 -11 88.7795 5.10125   2
   1   5 -11 113.392 5.02824   6
  -1  -5  11 101.160 5.92104   2
  -1  -5  11 80.9971 10.9932   1
   0   5 -11 68.4896 4.83418   4
   0   5 -11 59.7186 4.56997   2
   0   5 -11 76.8213 4.65870   6
   0   5 -11 55.9083 14.0263   1
   0  -5  11 71.8531 6.83329   2
   0  -5  11 60.8522 10.8509   1
   0  -5  11 60.3098 5.65786   5
  -1   5 -11 30.7191 4.02906   2
  -1   5 -11 45.0546 5.91428   6
  -1   5 -11 30.6039 4.05296   4
  -1   5 -11 45.5142 14.1867   1
   1  -5  11 35.5194 10.2971   1
  -2   5 -11 35.5306 16.3670   1
  -2   5 -11 13.7085 2.77803   4
   2  -5  11 7.39326 10.2686   1
  -3   5 -11 65.2647 5.23371   4
  -3   5 -11 55.1063 5.92270   3
  -4   5 -11 15.7712 4.24194   3
  -4   5 -11 13.6289 3.10079   4
   4  -5  11 20.4081 3.46292   5
  -5   5 -11 111.603 8.48703   4
  -5   5 -11 123.749 9.61041   3
   5  -5  11 115.984 7.86051   5
   7   4 -11 65.5181 5.33986   2
   7   4 -11 51.2864 5.82408   4
   6   4 -11 77.3047 5.11593   2
   6   4 -11 82.8879 5.86012   4
  -6  -4  11 79.4954 7.27164   5
   5   4 -11 6.06662 2.63832   4
   5   4 -11 8.18357 2.11144   2
  -5  -4  11 9.41476 3.01923   5
   4   4 -11 201.832 8.87322   6
   4   4 -11 160.449 7.40745   4
   4   4 -11 166.299 6.86184   2
  -4  -4  11 158.144 6.67090   5
   3   4 -11 75.0469 4.15934   6
   3   4 -11 66.5649 4.71879   4
   3   4 -11 67.9715 4.30585   2
  -3  -4  11 70.3245 5.48552   2
  -3  -4  11 65.6020 4.00706   5
   2   4 -11 86.4016 7.17738   4
   2   4 -11 105.543 4.72827   6
   2   4 -11 97.8583 5.04278   2
   2   4 -11 126.550 16.9706   1
  -2  -4  11 125.293 15.4818   1
  -2  -4  11 89.0800 4.03596   5
  -2  -4  11 96.5195 5.72435   2
   1   4 -11 14.0645 2.50034   4
   1   4 -11 14.8012 2.45415   2
   1   4 -11 32.0972 12.7638   1
   1   4 -11 15.3948 2.10938   6
  -1  -4  11 17.4548 7.94640   1
  -1  -4  11 19.4905 3.07376   2
  -1  -4  11 17.8277 1.88642   5
   0   4 -11 5.52786 1.93059   6
   0   4 -11 3.79776 1.91511   2
   0   4 -11 5.78543 2.15710   4
   0   4 -11 9.35647 12.2767   1
   0  -4  11 5.83529 9.52242   1
   0  -4  11 5.73361 2.63785   2
   0  -4  11 7.31112 1.59855   5
  -1   4 -11 98.9820 17.5651   1
  -1   4 -11 109.658 6.01454   4
  -1   4 -11 105.831 4.93092   6
  -1   4 -11 105.721 5.80255   3
   1  -4  11 118.140 15.2357   1
  -2   4 -11 40.3877 4.26231   6
  -2   4 -11 2.08096 16.1321   1
  -2   4 -11 33.9804 4.75899   3
  -2   4 -11 40.3030 4.54332   4
   2  -4  11 29.2595 3.21659   5
   2  -4  11 39.0031 11.5569   1
  -3   4 -11 4.96282 2.69135   4
   3  -4  11 8.38215 2.59983   5
  -4   4 -11 15.2069 4.04383   3
  -4   4 -11 19.7083 3.31380   4
   4  -4  11 21.3595 3.46618   5
  -5   4 -11 58.6709 5.82797   4
  -5   4 -11 45.3646 6.22211   3
   5  -4  11 51.7498 5.13779   5
   8   3 -11 8.22046 3.67859   4
   8   3 -11 8.15508 3.14671   2
   7   3 -11 141.125 6.80819   2
   7   3 -11 143.786 7.95566   4
   6   3 -11 54.3724 5.28388   4
   6   3 -11 60.5374 4.45987   2
   5   3 -11 92.4945 4.85713   2
   5   3 -11 89.6565 5.67601   4
  -5  -3  11 75.0725 4.44307   5
   4   3 -11 5.31779 1.84467   2
   4   3 -11 3.52358 1.94687   4
  -4  -3  11 2.42747 2.81007   2
  -4  -3  11 5.05461 1.62063   5
   3   3 -11 21.0502 3.04153   4
   3   3 -11 13.0416 2.31131   2
  -3  -3  11 26.7553 3.34012   2
  -3  -3  11 18.4262 2.14917   5
   2   3 -11 18.4260 10.1933   1
  -2  -3  11 -7.1471 6.35175   1
  -2  -3  11 -1.9616 2.16198   2
  -2  -3  11 0.55071 1.10699   5
   1   3 -11 0.76807 1.88913   4
  -1  -3  11 13.2980 7.63462   1
  -1  -3  11 0.23592 1.13142   5
  -1  -3  11 0.88908 2.41698   2
   0   3 -11 25.2233 3.34590   4
   0   3 -11 20.5162 3.06088   2
   0   3 -11 6.49188 12.5211   1
   0  -3  11 20.0665 2.44794   5
   0  -3  11 23.4460 3.23585   2
   0  -3  11 19.5387 8.99180   1
   0  -3  11 20.3237 2.00426   5
  -1   3 -11 191.249 6.76543   6
  -1   3 -11 178.610 7.67428   3
  -1   3 -11 185.175 24.3916   1
  -1   3 -11 176.562 7.92900   4
   1  -3  11 168.515 6.39065   5
   1  -3  11 171.364 17.7418   1
  -2   3 -11 9.73514 2.33552   6
  -2   3 -11 11.8433 2.97547   3
  -2   3 -11 10.2306 17.0793   1
  -2   3 -11 7.13847 2.56434   4
   2  -3  11 8.74713 12.1533   1
   2  -3  11 13.0114 2.38263   5
  -3   3 -11 80.9780 7.05535   3
  -3   3 -11 89.7201 7.32501   4
   3  -3  11 76.8583 5.59265   5
  -4   3 -11 4.49378 3.15204   4
  -4   3 -11 -1.0274 3.46683   3
   4  -3  11 0.05794 2.84473   5
  -5   3 -11 8.71303 5.00353   3
  -5   3 -11 11.0901 3.56119   4
   5  -3  11 7.57013 3.83270   5
   8   2 -11 18.2918 3.11124   2
   8   2 -11 15.7525 3.68032   4
   7   2 -11 -0.3212 2.11357   2
   7   2 -11 4.39488 2.98888   4
   6   2 -11 27.3998 3.62959   2
   6   2 -11 35.9415 4.14052   4
   5   2 -11 37.3836 3.43363   2
   5   2 -11 27.3248 3.46016   4
  -5  -2  11 35.3935 3.96104   2
   4   2 -11 26.9118 3.30631   4
   3   2 -11 41.4384 4.17485   4
   3   2 -11 45.0098 3.61736   2
  -3  -2  11 41.0547 5.02684   2
   2   2 -11 25.2030 11.9064   1
   2   2 -11 8.68511 1.94062   2
  -2  -2  11 13.1722 5.06577   2
  -2  -2  11 4.11672 6.69478   1
   1   2 -11 -0.9856 12.2745   1
   1   2 -11 13.6881 2.69748   2
   1   2 -11 11.9273 3.59839   4
  -1  -2  11 13.5528 1.30918   5
  -1  -2  11 13.2279 1.46738   5
  -1  -2  11 10.2679 2.60611   2
  -1  -2  11 17.9365 8.35362   1
   0   2 -11 134.594 19.6001   1
   0   2 -11 118.007 5.73122   3
   0   2 -11 122.404 7.56518   4
   0  -2  11 111.745 4.30493   5
   0  -2  11 122.252 6.28677   2
   0  -2  11 119.316 15.9234   1
  -1   2 -11 62.2106 4.84267   3
   1  -2  11 48.3990 3.41483   5
   1  -2  11 57.3922 14.1094   1
  -2   2 -11 13.8215 18.6150   1
  -2   2 -11 3.86480 2.50327   4
  -2   2 -11 1.48926 2.74435   3
   2  -2  11 -0.2409 1.83210   5
  -3   2 -11 41.1257 5.80944   3
  -3   2 -11 38.0794 4.27888   4
   3  -2  11 42.3529 4.67947   5
  -4   2 -11 3.09613 3.24326   4
   4  -2  11 -3.8928 3.03512   5
   8   1 -11 2.44206 2.49881   2
   8   1 -11 6.42922 3.36287   4
   7   1 -11 69.8461 6.20122   4
   7   1 -11 62.3008 4.61300   2
   6   1 -11 44.2419 5.02541   4
   6   1 -11 39.2193 3.69293   2
  -6  -1  11 45.7921 5.29089   2
   5   1 -11 10.1860 2.78930   4
  -5  -1  11 5.13367 2.85922   2
   4   1 -11 2.29539 2.08552   4
   4   1 -11 -2.3578 1.48044   2
   3   1 -11 27.3962 3.28805   2
   3   1 -11 17.6117 2.85331   4
  -3  -1  11 23.9969 3.08349   2
   2   1 -11 5.21262 1.96477   2
   2   1 -11 -18.218 11.4280   1
   2   1 -11 0.92309 2.00072   4
  -2  -1  11 3.15830 2.50309   2
   1   1 -11 67.4370 15.8811   1
   1   1 -11 66.3464 5.31811   4
  -1  -1  11 76.2221 5.56676   2
  -1  -1  11 72.0761 11.1561   1
   0   1 -11 55.3032 16.9019   1
   0   1 -11 37.6449 3.70061   3
   0   1 -11 29.8202 3.78908   4
   0  -1  11 33.7867 3.51902   2
   0  -1  11 32.6717 2.22672   5
   0  -1  11 40.4505 11.8198   1
  -1   1 -11 8.30373 2.65253   4
  -1   1 -11 21.3768 18.0740   1
  -1   1 -11 2.23096 2.39167   3
   1  -1  11 3.06581 13.2521   1
   1  -1  11 6.32363 1.57377   5
  -2   1 -11 0.63542 2.77423   4
  -2   1 -11 5.69458 2.66158   3
   2  -1  11 0.02657 1.80571   5
   2  -1  11 2.64876 24.7219   1
  -3   1 -11 31.6259 4.29725   3
  -3   1 -11 29.1198 4.14039   4
   3  -1  11 32.0733 3.44023   5
  -4   1 -11 0.02508 4.11211   3
  -4   1 -11 1.13972 3.97638   4
   4  -1  11 -6.2000 2.92356   5
   9   0 -11 64.5674 5.78737   2
   9   0 -11 62.4876 8.15175   4
   8   0 -11 4.57414 3.32023   4
   8   0 -11 2.72697 2.30923   2
   7   0 -11 63.5735 7.76602   3
   7   0 -11 53.5313 4.25985   2
   7   0 -11 57.8244 6.23937   4
   6   0 -11 24.7608 3.65253   2
   6   0 -11 19.9406 3.39894   4
  -6   0  11 26.6552 4.06700   2
   5   0 -11 54.1781 3.89844   2
   5   0 -11 55.7444 5.24052   4
  -5   0  11 48.5929 5.36664   2
   4   0 -11 20.7639 3.16873   4
   4   0 -11 20.0275 2.41562   2
  -4   0  11 23.7060 3.07739   2
   3   0 -11 103.305 5.10213   2
   3   0 -11 93.3903 6.09705   4
  -3   0  11 101.484 5.47694   2
   2   0 -11 0.09196 2.28491   4
  -2   0  11 1.32636 2.50711   2
   1   0 -11 43.0354 4.88991   4
   1   0 -11 43.3020 3.42176   3
   1   0 -11 36.4301 18.8104   1
  -1   0  11 43.7439 5.43787   2
   0   0 -11 17.8174 17.5921   1
   0   0 -11 60.3373 4.39184   3
   0   0 -11 62.7656 5.51593   4
   0   0  11 63.9738 5.65673   2
   0   0  11 60.4313 2.54770   5
  -1   0 -11 115.801 7.20191   4
  -1   0 -11 126.118 6.02611   3
  -1   0 -11 117.083 22.9085   1
   1   0  11 122.249 4.63772   5
  -2   0 -11 32.1890 4.18040   4
  -2   0 -11 28.8903 3.64424   3
   2   0  11 27.3852 2.74399   5
  -3   0 -11 91.7805 6.70047   3
  -3   0 -11 94.9829 7.14279   4
   3   0  11 76.9231 5.55180   5
   9  -1 -11 4.04115 2.75688   2
   9  -1 -11 8.90157 4.18149   4
   8  -1 -11 2.55642 3.37077   4
   8  -1 -11 0.07571 2.33609   2
   7  -1 -11 45.1306 4.08320   2
   7  -1 -11 41.8959 7.20777   3
   7  -1 -11 39.6285 4.58726   4
   6  -1 -11 58.1876 9.45677   3
   6  -1 -11 65.1505 4.39188   2
   6  -1 -11 61.7892 5.90756   4
  -6   1  11 83.1780 7.15853   2
   5  -1 -11 -1.1266 2.43105   4
   5  -1 -11 4.26646 1.87288   2
   5  -1 -11 0.04003 3.79883   3
  -5   1  11 5.66161 2.81517   2
   4  -1 -11 3.34494 2.24984   4
   4  -1 -11 -2.5876 1.72006   2
  -4   1  11 0.99546 2.38642   2
   3  -1 -11 71.1205 5.84475   4
   3  -1 -11 71.4139 4.70640   2
  -3   1  11 65.9830 4.92736   2
   2  -1 -11 -0.0612 2.18671   4
   2  -1 -11 2.21423 1.58958   3
  -2   1  11 6.86381 2.62062   2
   1  -1 -11 40.4955 3.28445   3
   1  -1 -11 36.9830 4.33636   4
  -1   1  11 41.4501 5.08503   2
   0  -1 -11 13.5311 2.12768   3
   0  -1 -11 17.7891 3.50095   4
   0   1  11 14.2669 3.20281   2
  -1  -1 -11 56.8107 5.91630   4
  -1  -1 -11 57.4072 4.07063   3
   1   1  11 41.1502 3.08677   5
  -2  -1 -11 0.07553 3.22154   4
   2   1  11 6.05143 2.12520   5
  -3  -1 -11 19.5158 4.43592   4
   3   1  11 14.3726 3.09091   5
   9  -2 -11 21.9453 5.54006   6
   9  -2 -11 7.93081 4.20583   4
   9  -2 -11 3.74303 2.74910   2
   8  -2 -11 20.0213 2.80571   2
   8  -2 -11 11.9092 3.96087   4
   8  -2 -11 14.8046 8.05596   3
   7  -2 -11 55.9176 4.40541   2
   7  -2 -11 60.4112 7.20771   3
   7  -2 -11 50.7983 6.29964   4
   6  -2 -11 15.9220 3.35815   4
   6  -2 -11 17.3011 2.51535   2
   6  -2 -11 27.8662 5.11273   3
  -6   2  11 24.9678 3.84261   2
   5  -2 -11 11.8646 3.13104   2
   5  -2 -11 11.6944 2.88087   4
   5  -2 -11 22.5831 4.04508   3
  -5   2  11 19.3254 4.19490   2
   4  -2 -11 27.0224 4.05616   4
   4  -2 -11 22.6735 2.91659   2
  -4   2  11 25.5842 3.19038   2
   3  -2 -11 219.296 9.74025   4
  -3   2  11 212.067 8.07291   2
   2  -2 -11 107.508 7.00170   4
  -2   2  11 116.016 6.27285   2
   1  -2 -11 130.941 7.76871   4
  -1   2  11 129.619 7.12383   2
   0  -2 -11 1.91907 2.89183   4
   0   2  11 -0.7876 1.06048   5
  -2  -2 -11 5.54540 3.85695   4
   2   2  11 2.58927 2.48714   5
   8  -3 -11 202.195 7.80752   2
   8  -3 -11 193.226 11.3555   6
   8  -3 -11 181.298 10.2756   4
   7  -3 -11 32.4560 4.08127   2
   7  -3 -11 23.7151 3.91986   4
   6  -3 -11 191.542 7.57385   2
   6  -3 -11 215.389 10.1275   4
   6  -3 -11 210.045 9.20520   3
  -6   3  11 197.468 8.65511   2
   5  -3 -11 1.35291 3.08001   4
   5  -3 -11 3.60968 2.53544   3
  -5   3  11 2.48562 2.73144   2
   4  -3 -11 85.0897 6.68498   4
  -4   3  11 82.8742 5.37580   2
   3  -3 -11 5.74589 2.81747   4
  -3   3  11 6.69603 2.70235   2
   2  -3 -11 17.7938 3.50047   4
  -2   3  11 12.5037 3.25564   2
   1  -3 -11 26.6352 4.06090   4
  -1   3  11 27.1404 4.13435   2
   0  -3 -11 89.9648 7.57433   4
  -1  -3 -11 10.5811 4.36263   4
  -1  -3 -11 10.6725 5.30499   6
   8  -4 -11 -6.3823 4.04544   4
   8  -4 -11 1.16229 2.51241   2
   8  -4 -11 -6.3043 4.73473   6
   7  -4 -11 2.93056 4.37387   6
   7  -4 -11 -1.2938 3.77437   4
   7  -4 -11 3.96448 2.51993   2
   6  -4 -11 -0.3518 3.66334   4
   6  -4 -11 -2.2545 3.84889   6
   5  -4 -11 -0.7011 3.56270   6
   5  -4 -11 9.85628 3.66839   4
  -5   4  11 7.02359 3.01093   2
   4  -4 -11 -0.5787 3.75550   6
   4  -4 -11 6.09527 3.19183   4
  -4   4  11 -3.1411 2.68726   2
   3  -4 -11 37.4481 4.98122   4
   3  -4 -11 35.6014 5.84290   6
  -3   4  11 40.9861 5.25157   2
   2  -4 -11 -1.8632 3.40320   4
   2  -4 -11 1.87588 3.92151   6
  -2   4  11 3.41253 3.56120   2
   1  -4 -11 16.6289 4.32845   4
   1  -4 -11 14.3407 4.99963   6
   0  -4 -11 0.39620 4.70660   6
   0  -4 -11 -4.9305 4.11452   4
   7  -5 -11 70.4179 9.40749   6
   7  -5 -11 59.9695 6.68685   4
   6  -5 -11 110.648 8.70926   4
   6  -5 -11 118.257 10.0412   6
   5  -5 -11 72.5094 8.67530   6
   5  -5 -11 80.6009 7.70494   4
   4  -5 -11 39.5858 6.23299   6
   4  -5 -11 33.6476 4.97343   4
   3  -5 -11 7.54627 4.58195   6
   3  -5 -11 1.54278 3.57767   4
   2  -5 -11 20.0426 4.54821   4
   2  -5 -11 31.0093 5.59719   6
   6  -6 -11 41.2497 5.98758   4
   6  -6 -11 34.9072 6.24729   6
   5  -6 -11 37.5214 6.83879   6
   4  -6 -11 156.983 11.8942   6
   4  -6 -11 148.848 10.1236   4
   0  10 -12 1.65251 3.34019   2
  -1  10 -12 1.36872 3.72079   2
  -1  10 -12 0.64296 3.38067   4
  -2  10 -12 -5.0224 3.66281   2
  -2  10 -12 -1.7195 3.67200   4
   2   9 -12 38.9164 4.30164   4
   2   9 -12 28.4949 3.87707   2
   1   9 -12 16.0529 3.21739   4
   1   9 -12 13.6305 4.92761   2
   0   9 -12 -3.2079 3.01162   2
   0   9 -12 0.96742 2.70469   4
  -1   9 -12 -0.3341 2.87564   4
  -1   9 -12 -4.8696 2.87663   2
  -2   9 -12 23.3455 3.97887   4
  -2   9 -12 18.9848 3.98841   2
  -3   9 -12 3.76541 4.35439   3
  -3   9 -12 8.73872 3.65377   4
   4   8 -12 3.89355 2.83807   2
   3   8 -12 14.5169 3.01338   2
   3   8 -12 18.1227 3.37542   4
   2   8 -12 16.5744 3.29662   2
   2   8 -12 14.9214 3.17482   4
  -2  -8  12 20.3518 4.95017   5
   1   8 -12 66.3070 5.62218   4
   1   8 -12 66.5008 5.53164   2
  -1  -8  12 68.4109 7.26279   5
   0   8 -12 1.62040 2.68099   4
   0   8 -12 -1.3502 2.30708   2
   0  -8  12 5.65848 3.68728   5
  -1   8 -12 98.6437 6.80295   4
  -1   8 -12 98.2726 6.72085   2
   1  -8  12 101.078 7.35437   5
  -2   8 -12 3.21329 3.56942   4
  -3   8 -12 7.79141 4.18929   3
  -3   8 -12 5.77996 3.19441   4
  -4   8 -12 2.69845 4.71937   3
   5   7 -12 -7.1548 2.98055   2
   4   7 -12 19.4327 2.92241   2
   4   7 -12 24.5795 3.57660   4
   3   7 -12 13.9333 2.94553   4
   3   7 -12 14.1472 2.75307   2
  -3  -7  12 19.6007 4.64781   5
   2   7 -12 17.1833 3.32054   4
   2   7 -12 21.7259 3.04165   2
  -2  -7  12 27.2154 4.58842   5
   1   7 -12 3.02749 2.52803   4
   1   7 -12 -4.1018 2.29703   2
  -1  -7  12 3.62688 3.08262   5
   0   7 -12 1.55024 2.53787   4
   0   7 -12 0.60434 2.40707   2
   0  -7  12 2.69971 2.94682   5
  -1   7 -12 1.52259 2.62445   4
  -1   7 -12 2.17883 2.62122   2
   1  -7  12 5.57559 2.99635   5
  -2   7 -12 17.6255 3.73047   3
   2  -7  12 23.2473 3.82646   5
  -3   7 -12 2.94454 3.66153   3
  -3   7 -12 -6.1027 2.86278   4
  -4   7 -12 54.3144 6.60442   3
  -4   7 -12 47.9438 4.74685   4
   5   6 -12 6.74075 2.52161   2
   5   6 -12 2.90361 2.86352   4
   4   6 -12 10.2415 3.01758   4
   4   6 -12 13.5178 2.66839   2
   3   6 -12 67.3466 5.44268   4
   3   6 -12 64.8214 4.93902   2
  -3  -6  12 66.7887 6.53880   5
   2   6 -12 75.1669 5.56092   4
   2   6 -12 56.1793 4.74516   2
  -2  -6  12 59.1763 5.65578   5
   1   6 -12 42.3370 4.50577   2
   1   6 -12 46.8493 4.96379   4
  -1  -6  12 39.1090 5.14618   5
   0   6 -12 6.47219 2.72144   2
   0   6 -12 1.59013 2.61238   4
   0  -6  12 4.75226 2.45540   5
  -1   6 -12 40.1800 4.98326   2
  -1   6 -12 41.1775 4.32094   4
  -1   6 -12 31.3709 18.7903   1
   1  -6  12 41.1825 3.67364   5
   1  -6  12 53.8415 14.3606   1
  -2   6 -12 18.7370 3.74335   3
  -3   6 -12 17.6683 4.29721   3
  -3   6 -12 15.8885 3.72778   4
  -4   6 -12 3.47671 4.36175   3
  -4   6 -12 9.21945 3.62960   4
   4  -6  12 7.29449 4.51293   5
   6   5 -12 48.5541 5.51120   2
   6   5 -12 57.8316 6.58130   4
   5   5 -12 -0.5820 2.37914   2
   5   5 -12 -0.8059 2.78319   4
   4   5 -12 42.5838 4.30292   2
   4   5 -12 34.2909 4.01085   4
  -4  -5  12 45.3780 6.70337   5
   3   5 -12 36.3946 4.15830   2
   3   5 -12 47.9324 5.03934   4
  -3  -5  12 38.9199 4.62083   5
   2   5 -12 7.14105 2.66520   4
   2   5 -12 -0.1577 2.20937   2
  -2  -5  12 4.13653 2.31219   5
   1   5 -12 25.3538 3.03970   2
   1   5 -12 34.1701 4.61011   4
   0   5 -12 16.0328 2.88124   2
   0   5 -12 13.8054 2.88148   4
   0  -5  12 10.0395 2.51205   5
  -1   5 -12 15.1658 18.8587   1
  -1   5 -12 18.6953 3.18214   4
   1  -5  12 21.3042 11.2994   1
   1  -5  12 22.6686 2.75470   5
  -2   5 -12 2.58467 2.92256   3
  -2   5 -12 -0.6384 3.06682   4
  -3   5 -12 -0.5543 3.41074   4
  -3   5 -12 3.24620 3.62247   3
  -4   5 -12 74.5130 7.67595   4
  -4   5 -12 49.5300 6.22917   3
   4  -5  12 50.5199 5.10096   5
   7   4 -12 76.9872 6.15881   2
   7   4 -12 75.0578 7.53939   4
   6   4 -12 93.9074 6.00009   2
   6   4 -12 98.3736 7.06979   4
   5   4 -12 5.12790 2.83697   4
   5   4 -12 1.21022 2.11743   2
   4   4 -12 30.9565 3.97377   2
   4   4 -12 36.7848 4.33262   4
   3   4 -12 2.89281 2.01440   2
   3   4 -12 1.22553 2.26190   4
  -3  -4  12 5.46723 3.38406   5
   2   4 -12 2.62424 2.62021   4
   2   4 -12 6.91892 2.38085   2
  -2  -4  12 6.04357 1.84251   5
   1   4 -12 10.0011 2.58630   2
   1   4 -12 4.42158 2.34005   4
  -1  -4  12 7.48391 1.81532   5
   0   4 -12 4.35845 2.51855   2
   0   4 -12 -2.5491 22.7675   1
   0   4 -12 6.12224 2.79165   4
   0  -4  12 5.76206 1.83561   5
  -1   4 -12 11.1611 3.03790   4
  -1   4 -12 12.5440 3.00842   3
  -1   4 -12 -4.0884 17.5901   1
   1  -4  12 14.9774 2.53859   5
   1  -4  12 14.5202 12.0760   1
  -2   4 -12 16.3884 3.67241   3
  -2   4 -12 15.4422 3.54523   4
   2  -4  12 18.3110 2.87121   5
  -3   4 -12 3.58036 3.79944   3
  -3   4 -12 6.81173 3.49117   4
   3  -4  12 5.63155 3.05883   5
  -4   4 -12 9.12377 4.77825   3
  -4   4 -12 13.7059 3.71865   4
   4  -4  12 14.3878 4.01706   5
   7   3 -12 44.1840 5.08062   2
   7   3 -12 29.9059 4.38171   4
   6   3 -12 78.7505 5.31485   2
   6   3 -12 64.4030 6.29032   4
   5   3 -12 47.0648 5.44534   4
   5   3 -12 41.5201 4.23970   2
   4   3 -12 3.56602 2.56674   4
   4   3 -12 0.59701 1.89759   2
   3   3 -12 254.137 9.24536   2
   3   3 -12 247.963 10.0576   4
   2   3 -12 18.7565 2.71406   2
   2   3 -12 24.5249 3.69578   4
   1   3 -12 170.361 7.51266   2
   1   3 -12 163.184 7.93687   4
  -1  -3  12 166.538 5.06025   5
  -1  -3  12 162.075 5.23567   5
   0   3 -12 43.3366 5.04803   4
   0   3 -12 47.7634 4.56808   3
   0  -3  12 34.0485 3.06362   5
   0  -3  12 35.2136 3.73814   5
  -1   3 -12 78.6196 6.23399   4
  -1   3 -12 82.4812 6.15789   3
  -1   3 -12 55.1465 21.9722   1
   1  -3  12 77.5789 4.61498   5
  -2   3 -12 -4.2177 2.96496   4
  -2   3 -12 2.07038 3.22777   3
   2  -3  12 2.92281 2.20413   5
  -3   3 -12 108.986 8.18591   3
  -3   3 -12 91.2550 7.28651   4
   3  -3  12 79.8011 6.19211   5
  -4   3 -12 10.5175 5.30268   3
  -4   3 -12 19.9460 4.40339   4
   4  -3  12 18.4558 3.91812   5
   7   2 -12 145.481 7.10498   2
   7   2 -12 135.546 8.58307   4
   6   2 -12 88.5985 5.46749   2
   6   2 -12 82.6977 6.82171   4
   5   2 -12 75.8071 4.92549   2
   5   2 -12 73.9827 6.40719   4
   4   2 -12 82.9653 6.10011   4
   4   2 -12 75.4301 4.99043   2
   3   2 -12 2.42963 1.83608   2
   3   2 -12 -1.5323 2.17673   4
   2   2 -12 8.03703 2.87859   4
   2   2 -12 3.99378 2.13602   2
   1   2 -12 40.7140 5.04123   4
   0   2 -12 7.39125 2.58368   3
   0   2 -12 -3.7329 2.40207   4
   0  -2  12 3.58228 1.38375   5
   0  -2  12 3.27347 1.68172   5
  -1   2 -12 214.861 9.14354   3
  -1   2 -12 204.921 9.51467   4
   1  -2  12 212.131 7.16419   5
  -2   2 -12 -3.1394 3.08739   4
  -2   2 -12 1.36391 3.53563   3
   2  -2  12 2.79829 2.20395   5
  -3   2 -12 41.9346 5.42861   3
  -3   2 -12 54.3432 6.79166   4
   3  -2  12 39.4078 4.10164   5
   8   1 -12 50.8546 5.64362   2
   8   1 -12 68.0903 8.23537   4
   7   1 -12 37.3788 4.91970   4
   7   1 -12 37.7250 4.53956   2
   6   1 -12 91.3566 7.34082   4
   6   1 -12 100.762 5.61978   2
   5   1 -12 44.6620 5.59618   4
   5   1 -12 36.9472 4.12011   2
   4   1 -12 41.8779 4.17899   2
   4   1 -12 32.5564 4.01150   4
  -4  -1  12 37.9242 4.90704   2
   3   1 -12 6.30813 2.33910   2
   3   1 -12 14.0349 3.05827   4
  -3  -1  12 9.06784 2.99186   2
   2   1 -12 28.4604 4.04884   4
   2   1 -12 29.9235 3.41581   2
  -2  -1  12 31.0789 4.44851   2
   1   1 -12 2.93467 2.82533   4
   1   1 -12 3.72324 2.11665   3
   0   1 -12 15.7943 2.92210   3
   0   1 -12 9.53169 3.19658   4
  -1   1 -12 128.166 7.18589   3
  -1   1 -12 117.597 7.69340   4
  -2   1 -12 130.951 8.01403   3
  -2   1 -12 153.263 8.39887   4
   2  -1  12 117.201 6.02982   5
  -3   1 -12 86.4024 8.47733   4
  -3   1 -12 93.2152 10.4232   3
   8   0 -12 -6.3915 3.86774   4
   8   0 -12 -3.7714 2.59811   2
   7   0 -12 22.8371 3.18143   2
   7   0 -12 24.4313 4.24713   4
   6   0 -12 16.7723 2.86076   2
   6   0 -12 15.6639 3.59211   4
   5   0 -12 17.9263 3.78853   4
   5   0 -12 15.1225 2.70829   2
  -5   0  12 20.1792 4.05902   2
   4   0 -12 -0.0727 2.81109   4
   4   0 -12 3.28252 2.18996   2
  -4   0  12 5.30052 3.22927   2
   3   0 -12 7.52304 2.98366   4
   3   0 -12 11.5775 2.57330   2
  -3   0  12 11.1165 3.27949   2
   2   0 -12 8.43433 2.87639   4
   2   0 -12 6.39575 2.01498   3
  -2   0  12 2.75127 3.12125   2
   1   0 -12 28.4682 4.01055   4
   1   0 -12 24.7414 2.85047   3
   0   0 -12 102.113 7.35487   4
   0   0 -12 101.224 5.69467   3
  -1   0 -12 11.0690 3.07815   3
  -1   0 -12 9.64855 3.50890   4
  -2   0 -12 10.3221 4.04770   4
   8  -1 -12 64.7842 6.53229   4
   8  -1 -12 69.7523 5.76781   2
   7  -1 -12 139.801 8.88458   4
   7  -1 -12 133.213 6.72130   2
   6  -1 -12 182.954 7.74920   2
   6  -1 -12 201.270 12.1544   3
   6  -1 -12 178.585 9.74854   4
  -6   1  12 191.748 9.52544   2
   5  -1 -12 27.9033 4.15372   4
   5  -1 -12 38.8469 5.74693   3
   5  -1 -12 31.8633 4.20278   2
  -5   1  12 34.7761 4.37587   2
   4  -1 -12 16.4199 3.70051   2
   4  -1 -12 15.5186 3.33259   4
  -4   1  12 23.9624 3.94943   2
   3  -1 -12 138.557 8.18297   4
  -3   1  12 143.327 7.53354   2
   2  -1 -12 49.3463 6.17870   4
   2  -1 -12 52.2173 3.82977   3
  -2   1  12 66.9105 6.24730   2
   1  -1 -12 102.833 4.44076   3
   1  -1 -12 94.1982 7.33421   4
   0  -1 -12 73.2608 7.15042   4
  -1  -1 -12 43.7058 5.40824   4
   8  -2 -12 17.5976 4.72194   4
   8  -2 -12 21.7179 3.59184   2
   7  -2 -12 1.39311 2.51743   2
   7  -2 -12 -4.7340 3.73113   4
   6  -2 -12 19.3014 4.50609   4
  -6   2  12 33.0695 4.89872   2
   5  -2 -12 4.44095 3.51822   4
   5  -2 -12 2.10998 2.72016   2
  -5   2  12 7.73325 3.78062   2
   4  -2 -12 7.21006 3.50077   4
  -4   2  12 17.8606 3.65068   2
   3  -2 -12 -3.3661 3.39257   4
  -3   2  12 -0.7883 3.20602   2
   2  -2 -12 7.62795 3.57661   4
  -2   2  12 0.63799 3.93215   2
   1  -2 -12 20.3992 4.51764   4
   0  -2 -12 4.87445 3.78450   4
   7  -3 -12 8.17379 4.30714   4
   7  -3 -12 20.3890 3.92905   2
   6  -3 -12 77.5534 7.84739   4
   6  -3 -12 68.5711 5.70829   2
   5  -3 -12 1.64145 3.51942   4
   4  -3 -12 28.5724 4.43967   4
   3  -3 -12 20.3704 4.38874   4
  -3   3  12 34.5568 4.37068   2
   2  -3 -12 44.0434 5.86301   4
   1  -3 -12 9.32811 4.20550   4
   6  -4 -12 -0.2833 5.24567   6
   6  -4 -12 4.08230 4.67766   4
   5  -4 -12 -6.8672 5.27949   6
   5  -4 -12 11.4223 4.34250   4
   4  -4 -12 19.1576 4.34240   4
   4  -4 -12 15.5432 6.09175   6
   3  -4 -12 20.7044 4.98786   4
   3  -4 -12 21.5148 6.18813   6
   2  -4 -12 51.8966 7.45641   6
   2  -4 -12 78.2075 8.50624   4
   0   9 -13 26.4903 4.57076   4
   0   9 -13 40.4445 5.15012   2
   2   8 -13 45.6539 4.96707   2
   2   8 -13 44.2314 5.04664   4
   1   8 -13 0.01607 3.07599   4
   1   8 -13 -0.1932 3.07355   2
   0   8 -13 -1.1381 3.64270   4
   0   8 -13 1.98132 3.26067   2
  -1   8 -13 60.3541 6.68826   4
  -1   8 -13 63.1590 7.03394   2
  -2   8 -13 -0.4819 3.67830   4
  -2   8 -13 -2.4664 4.31768   3
   4   7 -13 6.79366 3.87043   4
   4   7 -13 2.80552 3.42240   2
   3   7 -13 51.0278 6.10424   2
   3   7 -13 46.4289 6.40550   4
   2   7 -13 114.370 7.70409   4
   2   7 -13 127.259 7.32161   2
   1   7 -13 198.275 9.43524   4
   1   7 -13 204.162 9.14712   2
   0   7 -13 47.6852 5.99183   2
   0   7 -13 52.0538 5.12308   4
  -1   7 -13 22.0356 4.04328   2
  -1   7 -13 26.8542 4.20231   4
  -2   7 -13 266.608 12.6053   3
  -2   7 -13 287.567 11.5378   4
  -3   7 -13 39.6444 6.27924   3
  -3   7 -13 53.4465 7.35766   4
   4   6 -13 0.03031 2.98410   2
   4   6 -13 10.2748 3.87494   4
   3   6 -13 57.7247 6.23258   4
   3   6 -13 49.1989 5.45427   2
   2   6 -13 11.3591 2.96719   2
   2   6 -13 9.37353 3.17869   4
   1   6 -13 39.8308 5.20028   2
   1   6 -13 54.0297 5.85964   4
   0   6 -13 46.7202 5.59003   2
   0   6 -13 51.6818 6.07190   4
  -1   6 -13 52.9360 6.31968   3
  -1   6 -13 61.1626 6.48853   4
  -2   6 -13 36.3067 4.83274   4
  -2   6 -13 46.0217 5.75463   3
  -3   6 -13 2.97429 4.67683   3
  -3   6 -13 8.02966 4.05645   4
   3  -6  13 11.0950 3.97237   5
   5   5 -13 8.34472 3.02144   2
   5   5 -13 4.72473 3.77175   4
   4   5 -13 25.9404 3.89902   4
   4   5 -13 20.3664 3.15408   2
   3   5 -13 -0.2837 2.82278   4
   3   5 -13 -1.3228 2.31990   2
   2   5 -13 19.5490 3.25266   2
   2   5 -13 21.1514 3.78505   4
   1   5 -13 6.14793 3.22062   4
   1   5 -13 6.89298 2.64420   2
   0   5 -13 -5.2105 2.95832   2
   0   5 -13 0.89328 3.00197   4
  -1   5 -13 26.7116 4.44853   3
  -1   5 -13 29.8138 4.33430   4
   1  -5  13 22.8174 3.42451   5
  -2   5 -13 13.7872 4.03790   3
  -2   5 -13 17.3501 4.04230   4
   2  -5  13 9.77068 3.25132   5
  -3   5 -13 48.6996 5.42342   4
  -3   5 -13 57.3053 6.68549   3
   3  -5  13 50.6848 6.77159   5
   6   4 -13 -3.0794 2.78490   2
   6   4 -13 -1.0173 4.13548   4
   5   4 -13 2.32267 3.24377   4
   5   4 -13 2.43173 2.92179   2
   4   4 -13 10.3339 2.53635   2
   4   4 -13 6.28324 3.25255   4
   3   4 -13 70.2768 5.48175   2
   3   4 -13 58.0588 6.51408   4
   2   4 -13 64.6972 6.17835   4
   2   4 -13 60.5231 5.37382   2
   1   4 -13 80.3680 6.04332   2
   1   4 -13 70.7590 6.60737   4
   0   4 -13 15.6508 3.41569   4
  -1   4 -13 25.3076 4.31418   3
  -1   4 -13 26.3373 4.13095   4
  -2   4 -13 4.01212 3.92742   3
  -2   4 -13 1.00474 3.57331   4
   2  -4  13 2.54987 5.19950   5
  -3   4 -13 5.04777 4.95765   3
   3  -4  13 5.66034 3.52511   5
   6   3 -13 147.979 7.47315   2
   6   3 -13 136.456 9.30968   4
   5   3 -13 8.79531 3.64095   4
   5   3 -13 4.70253 2.57313   2
   4   3 -13 78.8869 6.72049   4
   4   3 -13 71.5316 5.55315   2
   3   3 -13 -0.1408 2.47760   2
   3   3 -13 0.09616 3.01591   4
   2   3 -13 9.24786 3.21241   4
   2   3 -13 9.79618 2.90668   2
   1   3 -13 3.33538 2.76920   2
   1   3 -13 -2.2272 3.00697   4
   0   3 -13 64.7132 5.86530   3
   0   3 -13 60.1511 6.53594   4
  -1   3 -13 1.38010 3.32596   4
  -1   3 -13 2.06742 4.05618   3
   1  -3  13 2.46947 2.20521   5
  -2   3 -13 -2.4807 4.31916   3
  -2   3 -13 -1.5873 3.94263   4
   2  -3  13 5.67191 3.18328   5
   7   2 -13 1.45603 4.37888   4
   6   2 -13 195.337 10.5861   4
   6   2 -13 185.103 8.33638   2
   5   2 -13 71.8146 7.13938   4
   5   2 -13 61.1998 5.45296   2
   4   2 -13 156.591 8.62614   4
   4   2 -13 144.775 7.26914   2
   3   2 -13 21.7232 4.04102   4
   3   2 -13 16.5292 3.33433   2
   2   2 -13 126.119 7.94047   4
   2   2 -13 124.700 7.12300   2
   1   2 -13 -0.2193 2.73636   3
   1   2 -13 -2.6714 2.89895   4
   0   2 -13 47.7840 6.52866   4
   0   2 -13 41.7254 5.66883   3
  -1   2 -13 21.4999 4.42481   4
  -1   2 -13 14.7570 4.29739   3
  -2   2 -13 95.1370 8.34108   3
  -2   2 -13 91.2518 8.36749   4
   7   1 -13 31.9083 4.08897   2
   7   1 -13 29.2206 5.17203   4
   6   1 -13 14.5669 4.36663   4
   6   1 -13 22.9984 3.40700   2
   5   1 -13 6.26296 2.72183   2
   5   1 -13 7.42372 3.50457   4
   4   1 -13 85.5593 7.27577   4
   4   1 -13 76.2685 5.73522   2
   3   1 -13 48.0944 6.42832   4
   3   1 -13 49.0837 5.21070   2
   2   1 -13 8.32732 3.37953   4
   1   1 -13 6.62773 3.08616   3
   1   1 -13 12.1734 3.75208   4
   0   1 -13 16.3485 3.70503   3
   0   1 -13 5.44196 3.54080   4
  -1   1 -13 6.92944 4.10508   4
   7   0 -13 22.3573 3.61491   2
   7   0 -13 15.8536 5.15154   4
   6   0 -13 93.1850 6.33516   2
   6   0 -13 89.0292 8.36327   4
   5   0 -13 -1.3357 2.60964   2
   5   0 -13 -1.4379 3.22643   4
   4   0 -13 26.5732 4.41748   4
   4   0 -13 42.2865 5.27134   2
   3   0 -13 6.41186 3.85990   4
   2   0 -13 2.90213 3.47920   4
   2   0 -13 1.45051 2.52893   3
   1   0 -13 -4.3925 3.22799   4
   1   0 -13 -0.8401 3.34672   3
   0   0 -13 -3.7422 3.70003   4
   6  -1 -13 13.8909 4.25884   4
   6  -1 -13 29.7064 3.92324   2
   5  -1 -13 1.11010 3.61129   4
   5  -1 -13 5.87900 3.00566   2
   4  -1 -13 11.1213 4.33434   4
   3  -1 -13 5.44304 3.93556   4
   2  -1 -13 0.75304 3.92723   4
   1  -1 -13 1.33828 4.02144   4
   6  -2 -13 118.628 10.0664   4
   6  -2 -13 135.250 7.71625   2
   5  -2 -13 15.4428 5.10059   4
   4  -2 -13 19.4934 4.85725   4
   3  -2 -13 0.20138 3.83742   4
   2  -2 -13 65.1586 8.50154   4
   3   6 -14 41.7286 5.23438   2
   3   6 -14 36.3666 5.39866   4
   2   6 -14 4.64521 3.97681   4
   2   6 -14 -2.0062 3.56097   2
   1   6 -14 191.054 10.1845   4
   1   6 -14 193.119 9.95755   2
   0   6 -14 17.3236 4.56175   2
   0   6 -14 10.8088 4.63626   4
   4   5 -14 7.87707 3.62435   2
   4   5 -14 -5.8211 4.26124   4
   3   5 -14 18.0388 4.19585   4
   3   5 -14 4.17121 3.26045   2
   2   5 -14 14.2315 4.07561   2
   2   5 -14 18.1595 4.40065   4
   1   5 -14 19.2581 4.03291   2
   1   5 -14 22.2066 4.40241   4
   0   5 -14 4.74937 4.01074   4
  -1   5 -14 6.68359 4.45728   3
  -1   5 -14 6.29061 4.30028   4
   4   4 -14 8.52163 4.32010   4
   4   4 -14 3.77110 3.48210   2
   3   4 -14 52.0333 6.01651   2
   3   4 -14 53.9465 7.40875   4
   2   4 -14 -0.1949 3.81760   4
   2   4 -14 0.02089 3.30513   2
   1   4 -14 33.5542 4.72686   2
   1   4 -14 52.4435 7.10936   4
   0   4 -14 -1.5504 3.96211   4
   0   4 -14 -2.5727 3.84374   3
   5   3 -14 23.3426 4.00330   2
   5   3 -14 26.2115 5.21134   4
   4   3 -14 12.8411 3.68493   2
   4   3 -14 21.9250 4.66390   4
   3   3 -14 0.33233 3.77627   4
   3   3 -14 1.18947 3.51673   2
   2   3 -14 23.7145 3.99171   2
   2   3 -14 20.2134 4.44162   4
   1   3 -14 4.12310 3.44968   3
   1   3 -14 0.52163 3.97765   4
   0   3 -14 10.6301 4.31906   4
   0   3 -14 1.60020 4.09840   3
   5   2 -14 18.7759 3.77268   2
   5   2 -14 17.0413 5.07738   4
   4   2 -14 -1.4448 4.36498   4
   4   2 -14 6.75981 3.46569   2
   3   2 -14 41.6227 5.43326   4
   3   2 -14 48.2529 5.98060   2
   2   2 -14 21.9246 4.84863   4
   1   2 -14 33.9750 7.05289   3
   1   2 -14 50.2138 6.00268   4
   0   2 -14 13.3781 6.66629   3
   0   2 -14 8.54480 4.66860   4
   5   1 -14 30.7724 5.44105   4
   5   1 -14 26.9117 4.27021   2
   4   1 -14 29.6850 4.57641   2
   4   1 -14 29.8986 4.82920   4
   3   1 -14 40.8380 6.08056   4
   2   1 -14 13.6623 4.44540   4
   1   1 -14 7.53225 4.44526   4
   4   0 -14 29.2400 5.32600   4
   4   0 -14 32.1532 4.59773   2
   3   0 -14 -4.1309 4.63035   4
   2   0 -14 13.8150 4.81853   4
   0   0   0    0.00    0.00   0
;
_shelx_hkl_checksum              32211
_shelx_res_file
;
TITL 353cgr
CELL  0.71073   8.1840   9.5399  10.2185  104.471  101.049  111.324
ZERR     2.00   0.0010   0.0012   0.0019    0.007    0.006    0.005
LATT   1
SFAC  C    H    N    Cl
UNIT  32 32 6 2
MERG   2
OMIT    -2.00  55.1
FMAP   2
PLAN   25
SIZE     0.120   0.140   0.140
ACTA
BOND   $H
CONF
HTAB
L.S.  20
TEMP  -173.10
MPLA 5 N13 C3b C3a C3 C2 C1
MPLA 4 C7 C6a C3b N13 C8 C8a C12a
MPLA C3b C3a C4 C5 C6 C6a
MPLA C8a C9 N10 C11 N12 C12a
WGHT    0.044500    0.470700
FVAR       0.96474
C1    1    0.861180    0.378920    0.100061    11.00000    0.01525    0.01678 =
         0.02550    0.00865    0.00883    0.00670
AFIX  23
H1A   2    0.990226    0.392110    0.124414    11.00000   -1.20000
H1B   2    0.863160    0.485191    0.108282    11.00000   -1.20000
AFIX   0
C2    1    0.753555    0.261679   -0.051172    11.00000    0.01945    0.02317 =
         0.02144    0.01171    0.01068    0.01062
AFIX  23
H2A   2    0.804611    0.306922   -0.119524    11.00000   -1.20000
H2B   2    0.622342    0.242286   -0.073189    11.00000   -1.20000
AFIX   0
C3    1    0.768687    0.104454   -0.064084    11.00000    0.01962    0.02339 =
         0.01851    0.00531    0.00740    0.01242
AFIX  23
H3A   2    0.663298    0.016527   -0.144463    11.00000   -1.20000
H3B   2    0.883545    0.112344   -0.086351    11.00000   -1.20000
AFIX   0
C3a   1    0.770216    0.062457    0.069327    11.00000    0.00984    0.01686 =
         0.01806    0.00380    0.00280    0.00695
C3b   1    0.769492    0.163425    0.195302    11.00000    0.00992    0.01271 =
         0.01746    0.00321    0.00122    0.00601
C4    1    0.776243   -0.081919    0.069299    11.00000    0.01491    0.01666 =
         0.02255    0.00120    0.00308    0.00946
AFIX  43
H4    2    0.778868   -0.151103   -0.014378    11.00000   -1.20000
AFIX   0
C5    1    0.778481   -0.126601    0.187742    11.00000    0.01660    0.01668 =
         0.03146    0.00760    0.00342    0.01022
AFIX  43
H5    2    0.779407   -0.226688    0.184526    11.00000   -1.20000
AFIX   0
C6    1    0.779376   -0.024300    0.311995    11.00000    0.01783    0.02394 =
         0.02348    0.01219    0.00439    0.01169
AFIX  43
H6    2    0.780308   -0.055251    0.393472    11.00000   -1.20000
AFIX   0
C6a   1    0.778917    0.123326    0.318054    11.00000    0.01314    0.01905 =
         0.01635    0.00502    0.00165    0.00833
C7    1    0.788110    0.242914    0.450853    11.00000    0.02075    0.02421 =
         0.01539    0.00620    0.00322    0.01083
AFIX  13
H7    2    0.876248    0.352042    0.458780    11.00000   -1.20000
AFIX   0
C8    1    0.596539    0.241454    0.433915    11.00000    0.02539    0.02384 =
         0.01456    0.00632    0.00818    0.01388
AFIX  23
H8A   2    0.503550    0.129248    0.406748    11.00000   -1.20000
H8B   2    0.595909    0.303243    0.527241    11.00000   -1.20000
AFIX   0
C8a   1    0.539115    0.310258    0.325140    11.00000    0.01574    0.01189 =
         0.01493    0.00069    0.00331    0.00588
C9    1    0.390513    0.348710    0.321982    11.00000    0.01432    0.01449 =
         0.01829    0.00079    0.00472    0.00504
CL9   4    0.249585    0.284873    0.423633    11.00000    0.01859    0.03049 =
         0.02767    0.00840    0.01196    0.00967
N10   3    0.340837    0.431870    0.248675    11.00000    0.01713    0.01831 =
         0.02765    0.00480    0.00583    0.01059
C11   1    0.454021    0.484181    0.175513    11.00000    0.02269    0.01732 =
         0.03217    0.01009    0.00905    0.01321
AFIX  43
H11   2    0.431338    0.553077    0.129073    11.00000   -1.20000
AFIX   0
N12   3    0.594904    0.450715    0.160329    11.00000    0.02039    0.01581 =
         0.02678    0.00941    0.00881    0.01084
C12a  1    0.633801    0.357150    0.228656    11.00000    0.01292    0.01108 =
         0.01677    0.00160    0.00220    0.00532
N13   3    0.771434    0.315686    0.198806    11.00000    0.01473    0.01388 =
         0.01705    0.00556    0.00547    0.00789
C71   1    0.854880    0.215490    0.588021    11.00000    0.03162    0.04357 =
         0.01977    0.01461    0.00661    0.01729
AFIX 137
H71A  2    0.973926    0.211059    0.595241    11.00000   -1.50000
H71B  2    0.764289    0.113883    0.587225    11.00000   -1.50000
H71C  2    0.869334    0.303905    0.669750    11.00000   -1.50000
AFIX   0
HKLF 4
REM  353cgr
REM R1 =  0.0384 for    2784 Fo > 4sig(Fo)  and  0.0446 for all    3157 data
REM    182 parameters refined using      0 restraints
END
WGHT      0.0445      0.4706
REM No hydrogen bonds found for HTAB generation
REM Highest difference peak  0.645,  deepest hole -0.271,  1-sigma level  0.055
Q1    1   0.8989  0.3588  0.5502  11.00000  0.05    0.65
Q2    1   0.7021  0.1726  0.4664  11.00000  0.05    0.45
Q3    1   0.4768  0.3419  0.3397  11.00000  0.05    0.33
Q4    1   0.7389  0.1030  0.1217  11.00000  0.05    0.30
Q5    1   0.7300  0.1222  0.2392  11.00000  0.05    0.29
Q6    1   0.5728  0.2778  0.3764  11.00000  0.05    0.27
Q7    1   0.8056  0.3035  0.0215  11.00000  0.05    0.26
Q8    1   0.7788  0.1757  0.3812  11.00000  0.05    0.26
Q9    1   0.5962  0.3362  0.2833  11.00000  0.05    0.26
Q10   1   0.7393  0.0381  0.3088  11.00000  0.05    0.24
Q11   1   0.7491  0.1797 -0.0587  11.00000  0.05    0.24
Q12   1   0.7730  0.0825  0.0029  11.00000  0.05    0.24
Q13   1   0.7587 -0.0829  0.2388  11.00000  0.05    0.24
Q14   1   0.7509 -0.0176  0.0606  11.00000  0.05    0.23
Q15   1   0.6052  0.4028  0.1905  11.00000  0.05    0.23
Q16   1   0.7647  0.2406  0.1996  11.00000  0.05    0.21
Q17   1   0.3793  0.4041  0.2907  11.00000  0.05    0.18
Q18   1   0.7412 -0.1117  0.1220  11.00000  0.05    0.17
Q19   1   0.7026  0.3392  0.2164  11.00000  0.05    0.16
Q20   1   0.6494  0.4830  0.0993  11.00000  0.05    0.16
Q21   1   0.5105  0.4420  0.1536  11.00000  0.05    0.15
Q22   1   0.4046  0.4537  0.2222  11.00000  0.05    0.15
Q23   1   0.8488  0.3552  0.1622  11.00000  0.05    0.15
Q24   1   0.1964  0.3363  0.4552  11.00000  0.05    0.14
Q25   1   0.2211  0.3487  0.3920  11.00000  0.05    0.14
;
_shelx_res_checksum              11214
_shelxl_version_number           2.014
loop_
_space_group_symop_operation_xyz
'x, y, z'
'-x, -y, -z'
loop_
_atom_site_type_symbol
_atom_site_label
_atom_site_fract_x
_atom_site_fract_y
_atom_site_fract_z
_atom_site_U_iso_or_equiv
_atom_site_adp_type
_atom_site_calc_flag
_atom_site_occupancy
C C1 0.8612(2) 0.37892(17) 0.10006(16) 0.0186(3) Uani d 1
H H1A 0.9902 0.3921 0.1244 0.022 Uiso calc 1
H H1B 0.8632 0.4852 0.1083 0.022 Uiso calc 1
C C2 0.7536(2) 0.26168(18) -0.05117(16) 0.0194(3) Uani d 1
H H2A 0.8046 0.3069 -0.1195 0.023 Uiso calc 1
H H2B 0.6223 0.2423 -0.0732 0.023 Uiso calc 1
C C3 0.7687(2) 0.10445(19) -0.06408(16) 0.0197(3) Uani d 1
H H3A 0.6633 0.0165 -0.1445 0.024 Uiso calc 1
H H3B 0.8835 0.1123 -0.0864 0.024 Uiso calc 1
C C3a 0.77022(18) 0.06246(17) 0.06933(15) 0.0153(3) Uani d 1
C C3b 0.76949(18) 0.16343(16) 0.19530(15) 0.0139(3) Uani d 1
C C4 0.7762(2) -0.08192(18) 0.06930(17) 0.0188(3) Uani d 1
H H4 0.7789 -0.1511 -0.0144 0.023 Uiso calc 1
C C5 0.7785(2) -0.12660(18) 0.18774(18) 0.0214(3) Uani d 1
H H5 0.7794 -0.2267 0.1845 0.026 Uiso calc 1
C C6 0.7794(2) -0.02430(19) 0.31199(17) 0.0204(3) Uani d 1
H H6 0.7803 -0.0553 0.3935 0.025 Uiso calc 1
C C6a 0.77892(19) 0.12333(17) 0.31805(15) 0.0165(3) Uani d 1
C C7 0.7881(2) 0.24291(19) 0.45085(16) 0.0203(3) Uani d 1
H H7 0.8762 0.3520 0.4588 0.024 Uiso calc 1
C C8 0.5965(2) 0.24145(19) 0.43391(16) 0.0200(3) Uani d 1
H H8A 0.5036 0.1292 0.4067 0.024 Uiso calc 1
H H8B 0.5959 0.3032 0.5272 0.024 Uiso calc 1
C C8a 0.53912(19) 0.31026(16) 0.32514(15) 0.0153(3) Uani d 1
C C9 0.39051(19) 0.34871(17) 0.32198(15) 0.0172(3) Uani d 1
Cl Cl9 0.24959(5) 0.28487(5) 0.42363(4) 0.02551(12) Uani d 1
N N10 0.34084(17) 0.43187(15) 0.24867(14) 0.0210(3) Uani d 1
C C11 0.4540(2) 0.48418(18) 0.17551(18) 0.0223(3) Uani d 1
H H11 0.4313 0.5531 0.1291 0.027 Uiso calc 1
N N12 0.59490(18) 0.45071(15) 0.16033(14) 0.0194(3) Uani d 1
C C12a 0.63380(19) 0.35715(16) 0.22866(15) 0.0146(3) Uani d 1
N N13 0.77143(16) 0.31569(14) 0.19881(13) 0.0146(2) Uani d 1
C C71 0.8549(3) 0.2155(2) 0.58802(18) 0.0308(4) Uani d 1
H H71A 0.9739 0.2111 0.5952 0.046 Uiso calc 1
H H71B 0.7643 0.1139 0.5872 0.046 Uiso calc 1
H H71C 0.8693 0.3039 0.6697 0.046 Uiso calc 1
loop_
_atom_site_aniso_label
_atom_site_aniso_U_11
_atom_site_aniso_U_22
_atom_site_aniso_U_33
_atom_site_aniso_U_12
_atom_site_aniso_U_13
_atom_site_aniso_U_23
C1 0.0153(7) 0.0168(7) 0.0255(8) 0.0067(6) 0.0088(6) 0.0087(6)
C2 0.0195(7) 0.0232(7) 0.0214(7) 0.0106(6) 0.0107(6) 0.0117(6)
C3 0.0196(7) 0.0234(7) 0.0185(7) 0.0124(6) 0.0074(6) 0.0053(6)
C3a 0.0098(6) 0.0169(7) 0.0181(7) 0.0070(5) 0.0028(5) 0.0038(5)
C3b 0.0099(6) 0.0127(6) 0.0175(7) 0.0060(5) 0.0012(5) 0.0032(5)
C4 0.0149(7) 0.0167(7) 0.0226(7) 0.0095(6) 0.0031(5) 0.0012(6)
C5 0.0166(7) 0.0167(7) 0.0315(8) 0.0102(6) 0.0034(6) 0.0076(6)
C6 0.0178(7) 0.0239(8) 0.0235(8) 0.0117(6) 0.0044(6) 0.0122(6)
C6a 0.0131(6) 0.0190(7) 0.0164(7) 0.0083(5) 0.0017(5) 0.0050(6)
C7 0.0208(7) 0.0242(8) 0.0154(7) 0.0108(6) 0.0032(6) 0.0062(6)
C8 0.0254(8) 0.0238(7) 0.0146(7) 0.0139(6) 0.0082(6) 0.0063(6)
C8a 0.0157(6) 0.0119(6) 0.0149(7) 0.0059(5) 0.0033(5) 0.0007(5)
C9 0.0143(7) 0.0145(7) 0.0183(7) 0.0050(5) 0.0047(5) 0.0008(5)
Cl9 0.01859(19) 0.0305(2) 0.0277(2) 0.00967(15) 0.01196(15) 0.00840(16)
N10 0.0171(6) 0.0183(6) 0.0277(7) 0.0106(5) 0.0058(5) 0.0048(5)
C11 0.0227(8) 0.0173(7) 0.0322(8) 0.0132(6) 0.0091(6) 0.0101(6)
N12 0.0204(6) 0.0158(6) 0.0268(7) 0.0108(5) 0.0088(5) 0.0094(5)
C12a 0.0129(6) 0.0111(6) 0.0168(7) 0.0053(5) 0.0022(5) 0.0016(5)
N13 0.0147(6) 0.0139(6) 0.0170(6) 0.0079(5) 0.0055(5) 0.0056(5)
C71 0.0316(9) 0.0436(10) 0.0198(8) 0.0173(8) 0.0066(7) 0.0146(8)
loop_
_atom_type_symbol
_atom_type_description
_atom_type_scat_dispersion_real
_atom_type_scat_dispersion_imag
_atom_type_scat_source
C C 0.0033 0.0016 'International Tables Vol C Tables 4.2.6.8 and 6.1.1.4'
H H 0.0000 0.0000 'International Tables Vol C Tables 4.2.6.8 and 6.1.1.4'
N N 0.0061 0.0033 'International Tables Vol C Tables 4.2.6.8 and 6.1.1.4'
Cl Cl 0.1484 0.1585 'International Tables Vol C Tables 4.2.6.8 and 6.1.1.4'
loop_
_geom_angle_atom_site_label_1
_geom_angle_atom_site_label_2
_geom_angle_atom_site_label_3
_geom_angle
N13 C1 C2 108.88(12)
N13 C1 H1A 109.9
C2 C1 H1A 109.9
N13 C1 H1B 109.9
C2 C1 H1B 109.9
H1A C1 H1B 108.3
C1 C2 C3 108.63(12)
C1 C2 H2A 110.0
C3 C2 H2A 110.0
C1 C2 H2B 110.0
C3 C2 H2B 110.0
H2A C2 H2B 108.3
C3a C3 C2 113.32(12)
C3a C3 H3A 108.9
C2 C3 H3A 108.9
C3a C3 H3B 108.9
C2 C3 H3B 108.9
H3A C3 H3B 107.7
C4 C3a C3b 117.88(13)
C4 C3a C3 118.93(13)
C3b C3a C3 123.18(13)
C6a C3b C3a 121.39(13)
C6a C3b N13 120.00(12)
C3a C3b N13 118.47(12)
C5 C4 C3a 121.63(14)
C5 C4 H4 119.2
C3a C4 H4 119.2
C4 C5 C6 119.65(14)
C4 C5 H5 120.2
C6 C5 H5 120.2
C5 C6 C6a 120.63(14)
C5 C6 H6 119.7
C6a C6 H6 119.7
C6 C6a C3b 118.74(13)
C6 C6a C7 123.40(13)
C3b C6a C7 117.86(13)
C6a C7 C71 114.46(13)
C6a C7 C8 108.77(12)
C71 C7 C8 110.18(13)
C6a C7 H7 107.7
C71 C7 H7 107.7
C8 C7 H7 107.7
C8a C8 C7 114.62(12)
C8a C8 H8A 108.6
C7 C8 H8A 108.6
C8a C8 H8B 108.6
C7 C8 H8B 108.6
H8A C8 H8B 107.6
C9 C8a C12a 113.28(13)
C9 C8a C8 119.95(13)
C12a C8a C8 126.48(13)
N10 C9 C8a 127.01(14)
N10 C9 Cl9 114.27(11)
C8a C9 Cl9 118.73(12)
C9 N10 C11 113.29(13)
N12 C11 N10 127.31(14)
N12 C11 H11 116.3
N10 C11 H11 116.3
C11 N12 C12a 117.62(13)
N12 C12a N13 114.68(13)
N12 C12a C8a 120.73(12)
N13 C12a C8a 124.58(13)
C12a N13 C3b 121.95(11)
C12a N13 C1 118.05(12)
C3b N13 C1 112.65(11)
C7 C71 H71A 109.5
C7 C71 H71B 109.5
H71A C71 H71B 109.5
C7 C71 H71C 109.5
H71A C71 H71C 109.5
H71B C71 H71C 109.5
loop_
_geom_bond_atom_site_label_1
_geom_bond_atom_site_label_2
_geom_bond_distance
C1 N13 1.4790(18)
C1 C2 1.521(2)
C1 H1A 0.9900
C1 H1B 0.9900
C2 C3 1.525(2)
C2 H2A 0.9900
C2 H2B 0.9900
C3 C3a 1.513(2)
C3 H3A 0.9900
C3 H3B 0.9900
C3a C4 1.396(2)
C3a C3b 1.4044(19)
C3b C6a 1.396(2)
C3b N13 1.4382(17)
C4 C5 1.379(2)
C4 H4 0.9500
C5 C6 1.392(2)
C5 H5 0.9500
C6 C6a 1.396(2)
C6 H6 0.9500
C6a C7 1.508(2)
C7 C71 1.525(2)
C7 C8 1.539(2)
C7 H7 1.0000
C8 C8a 1.509(2)
C8 H8A 0.9900
C8 H8B 0.9900
C8a C9 1.3892(19)
C8a C12a 1.426(2)
C9 N10 1.331(2)
C9 Cl9 1.7449(15)
N10 C11 1.335(2)
C11 N12 1.3293(19)
C11 H11 0.9500
N12 C12a 1.3485(18)
C12a N13 1.3834(17)
C71 H71A 0.9800
C71 H71B 0.9800
C71 H71C 0.9800
loop_
_geom_hbond_atom_site_label_D
_geom_hbond_atom_site_label_H
_geom_hbond_atom_site_label_A
_geom_hbond_site_symmetry_A
_geom_hbond_distance_DH
_geom_hbond_distance_HA
_geom_hbond_distance_DA
_geom_hbond_angle_DHA
_geom_hbond_publ_flag
C4 H4 Cg1 2_655 0.95 2.72 3.4323(18) 133 no
loop_
_geom_torsion_atom_site_label_1
_geom_torsion_atom_site_label_2
_geom_torsion_atom_site_label_3
_geom_torsion_atom_site_label_4
_geom_torsion
N13 C1 C2 C3 -64.95(14)
C1 C2 C3 C3a 35.82(16)
C2 C3 C3a C4 177.51(12)
C2 C3 C3a C3b -3.78(19)
C4 C3a C3b C6a 1.5(2)
C3 C3a C3b C6a -177.23(13)
C4 C3a C3b N13 177.33(12)
C3 C3a C3b N13 -1.4(2)
C3b C3a C4 C5 1.0(2)
C3 C3a C4 C5 179.80(13)
C3a C4 C5 C6 -1.6(2)
C4 C5 C6 C6a -0.3(2)
C5 C6 C6a C3b 2.7(2)
C5 C6 C6a C7 -177.27(14)
C3a C3b C6a C6 -3.3(2)
N13 C3b C6a C6 -179.11(12)
C3a C3b C6a C7 176.66(13)
N13 C3b C6a C7 0.88(19)
C6 C6a C7 C71 17.3(2)
C3b C6a C7 C71 -162.65(14)
C6 C6a C7 C8 -106.35(16)
C3b C6a C7 C8 73.65(16)
C6a C7 C8 C8a -69.36(16)
C71 C7 C8 C8a 164.43(13)
C7 C8 C8a C9 -165.69(13)
C7 C8 C8a C12a 7.7(2)
C12a C8a C9 N10 -5.3(2)
C8 C8a C9 N10 168.88(14)
C12a C8a C9 Cl9 174.96(10)
C8 C8a C9 Cl9 -10.83(18)
C8a C9 N10 C11 -1.9(2)
Cl9 C9 N10 C11 177.85(11)
C9 N10 C11 N12 6.0(2)
N10 C11 N12 C12a -2.0(2)
C11 N12 C12a N13 174.74(13)
C11 N12 C12a C8a -6.4(2)
C9 C8a C12a N12 9.4(2)
C8 C8a C12a N12 -164.32(14)
C9 C8a C12a N13 -171.79(13)
C8 C8a C12a N13 14.5(2)
N12 C12a N13 C3b -146.76(13)
C8a C12a N13 C3b 34.4(2)
N12 C12a N13 C1 1.07(18)
C8a C12a N13 C1 -177.77(13)
C6a C3b N13 C12a -62.33(18)
C3a C3b N13 C12a 121.78(14)
C6a C3b N13 C1 148.28(13)
C3a C3b N13 C1 -27.62(17)
C2 C1 N13 C12a -89.26(15)
C2 C1 N13 C3b 61.44(15)
