#------------------------------------------------------------------------------
#$Date: 2015-10-14 04:57:44 +0300 (Wed, 14 Oct 2015) $
#$Revision: 167923 $
#$URL: svn://www.crystallography.net/cod/cif/2/02/02/2020212.cif $
#------------------------------------------------------------------------------
#
# This file is available in the Crystallography Open Database (COD),
# http://www.crystallography.net/. The original data for this entry
# were provided by IUCr Journals, http://journals.iucr.org/.
#
# The file may be used within the scientific community so long as
# proper attribution is given to the journal article from which the
# data were obtained.
#
data_2020212
loop_
_publ_author_name
'Jimenez, Jorge'
'Chakraborty, Indranil'
'Mascharak, Pradip'
_publ_section_title
;
 Synthesis and structures of ruthenium di- and tricarbonyl complexes
 derived from 4,5-diazafluoren-9-one
;
_journal_coeditor_code           OV3067
_journal_issue                   11
_journal_name_full               'Acta Crystallographica Section C'
_journal_page_first
;
;
_journal_paper_doi               10.1107/S2053229615018100
_journal_volume                  71
_journal_year                    2015
_chemical_formula_iupac          '[Ru Cl2 (C11 H6 N2 O) (C O)3]'
_chemical_formula_moiety         'C14 H6 Cl2 N2 O4 Ru'
_chemical_formula_sum            'C14 H6 Cl2 N2 O4 Ru'
_chemical_formula_weight         438.18
_chemical_name_systematic
<i>fac</i>-Tricarbonyldichlorido(4,5-diazafluoren-9-one-\k<i>N</i>)ruthenium(II)
_space_group_crystal_system      triclinic
_space_group_IT_number           2
_space_group_name_Hall           '-P 1'
_space_group_name_H-M_alt        'P -1'
_symmetry_space_group_name_Hall  '-P 1'
_symmetry_space_group_name_H-M   'P -1'
_atom_sites_solution_hydrogens   geom
_atom_sites_solution_primary     direct
_atom_sites_solution_secondary   difmap
_audit_creation_method           SHELXL-2014/7
_cell_angle_alpha                90.43(3)
_cell_angle_beta                 108.60(4)
_cell_angle_gamma                98.41(2)
_cell_formula_units_Z            2
_cell_length_a                   7.458(2)
_cell_length_b                   9.701(2)
_cell_length_c                   11.594(9)
_cell_measurement_reflns_used    2934
_cell_measurement_temperature    296(2)
_cell_measurement_theta_max      25.97
_cell_measurement_theta_min      2.74
_cell_volume                     785.2(7)
_computing_cell_refinement
;
SAINT (Bruker, 2008)
;
_computing_data_collection
;
APEX2 (Bruker, 2008)
;
_computing_data_reduction
;
SAINT (Bruker, 2008)
;
_computing_molecular_graphics
;
SHELXTL (Bruker 2008) and OLEX2 (Dolomanov <i>et al.</i>, 2009)
;
_computing_publication_material
;
publCIF (Westrip, 2010)
;
_computing_structure_refinement
;
SHELXL2014 (Sheldrick, 2015)
;
_computing_structure_solution
;
SHELXS97 (Sheldrick, 2008)
;
_diffrn_ambient_temperature      296(2)
_diffrn_detector_area_resol_mean 8.33
_diffrn_measured_fraction_theta_full 0.996
_diffrn_measured_fraction_theta_max 0.987
_diffrn_measurement_device_type  'Bruker APEXII CCD'
_diffrn_measurement_method       '\w scans'
_diffrn_radiation_source         'fine-focus sealed tube'
_diffrn_radiation_type           MoK\a
_diffrn_radiation_wavelength     0.71073
_diffrn_reflns_av_R_equivalents  0.0486
_diffrn_reflns_limit_h_max       9
_diffrn_reflns_limit_h_min       -9
_diffrn_reflns_limit_k_max       11
_diffrn_reflns_limit_k_min       -11
_diffrn_reflns_limit_l_max       14
_diffrn_reflns_limit_l_min       -14
_diffrn_reflns_number            7433
_diffrn_reflns_theta_full        25.242
_diffrn_reflns_theta_max         25.658
_diffrn_reflns_theta_min         1.856
_exptl_absorpt_coefficient_mu    1.358
_exptl_absorpt_correction_T_max  0.7453
_exptl_absorpt_correction_T_min  0.6816
_exptl_absorpt_correction_type   multi-scan
_exptl_absorpt_process_details
;
(SADABS; Bruker, 2008)
;
_exptl_crystal_colour            colorless
_exptl_crystal_density_diffrn    1.853
_exptl_crystal_description       block
_exptl_crystal_F_000             428
_exptl_crystal_size_max          0.15
_exptl_crystal_size_mid          0.10
_exptl_crystal_size_min          0.08
_refine_diff_density_max         0.737
_refine_diff_density_min         -0.597
_refine_ls_extinction_method     none
_refine_ls_goodness_of_fit_ref   1.127
_refine_ls_hydrogen_treatment    constr
_refine_ls_matrix_type           full
_refine_ls_number_parameters     202
_refine_ls_number_reflns         2934
_refine_ls_number_restraints     1
_refine_ls_restrained_S_all      1.128
_refine_ls_R_factor_all          0.0562
_refine_ls_R_factor_gt           0.0372
_refine_ls_shift/su_max          0.001
_refine_ls_shift/su_mean         0.000
_refine_ls_structure_factor_coef Fsqd
_refine_ls_weighting_details     'w=1/[\s^2^(Fo^2^)] where P=(Fo^2^+2Fc^2^)/3'
_refine_ls_weighting_scheme      calc
_refine_ls_wR_factor_gt          0.0552
_refine_ls_wR_factor_ref         0.0596
_reflns_number_gt                2141
_reflns_number_total             2934
_reflns_threshold_expression     'I > 2\s(I)'
_cod_data_source_file            ov3067sup1.cif
_cod_data_source_block           2
_cod_original_cell_volume        785.1(7)
_cod_database_code               2020212
_shelx_space_group_comment
;
The symmetry employed for this shelxl refinement is uniquely defined
by the following loop, which should always be used as a source of
symmetry information in preference to the above space-group names.
They are only intended as comments.
;
_shelx_hkl_file
;
   0   0  -1    1.50    0.93
   0   0   1    2.75    1.08
   0   0  -2 1781.80   17.60
   0   0  -2 1579.20   20.80
   0   0   2 1823.10   22.40
   0   0   2 1885.90   17.60
   0   0  -3 1608.10   20.40
   0   0   3 1662.10   26.30
   0   0   3 1690.10   20.50
   0   0  -4   52.73    4.96
   0   0  -4   53.70    7.32
   0   0   4   65.91    6.87
   0   0   4   60.86    5.06
   0   0  -5 1308.50   24.00
   0   0  -5 1192.60   29.10
   0   0   5 1361.10   31.10
   0   0   5 1396.20   24.20
   0   0  -6  421.29   15.13
   0   0  -6  401.30   19.07
   0   0   6  440.37   19.81
   0   0   6  434.95   14.99
   0   0  -7  141.11   12.81
   0   0   7  140.67   12.79
   0   0  -8  279.77   14.62
   0   0  -8  247.83   18.10
   0   0   8  295.51   19.40
   0   0  -9   22.40    8.14
   0   0   9   32.10    9.67
   0   0 -10   84.86   15.22
   0   0  10   87.72   15.19
   0   0 -11    5.58    6.98
   0   0  11    3.52    5.96
   0   0 -12    1.08    7.36
   0   0  12   -2.03    5.59
   0   0 -13    6.43    7.24
   0   0  13    8.63    8.17
   0  -1  13   -0.49    6.67
   0   1 -13    2.88    6.43
   0  -1  12   28.62   10.61
   0   1 -12   19.88    9.19
   0  -1  11    3.96    6.05
   0   1 -11   -0.75    4.97
   0  -1  10   71.85   13.74
   0   1 -10   69.67   13.61
   0  -1   9  199.68   17.61
   0   1  -9  177.36   13.81
   0   1  -9  162.88   16.15
   0  -1   8   56.64   11.14
   0   1  -8   56.92    9.15
   0   1  -8   51.09   10.92
   0  -1   7  739.67   28.06
   0   1  -7  671.41   22.62
   0   1  -7  593.68   24.82
   0  -1   6  458.82   20.46
   0   1  -6  454.39   17.52
   0   1  -6  412.36   19.11
   0  -1   5  678.27   22.42
   0  -1   5  690.35   13.74
   0   1  -5  697.07   19.86
   0   1  -5  567.93   20.22
   0  -1   4 1194.00   26.40
   0  -1   4 1205.30   15.10
   0   1  -4 1179.20   23.50
   0   1  -4 1057.20   24.40
   0  -1   3  145.42    8.55
   0   1  -3  140.53    7.74
   0  -1   2 1050.50   18.10
   0   1  -2 1079.80   17.80
   0   1  -2  867.49   16.05
   0  -1   1 2114.20   19.70
   0   1  -1 1959.30   20.20
   0   1  -1 1639.00   17.60
   0   1   0   13.59    1.98
   0   1   0   17.79    2.20
   0  -1  -1 6540.40   37.20
   0   1   1 6384.40   52.30
   0   1   1 7069.20   39.00
   0   1   2  332.04   10.27
   0  -1  -3   40.42    3.09
   0  -1  -3   44.28    6.33
   0   1   3   43.58    5.20
   0   1   3   44.15    4.95
   0  -1  -4  215.81    7.48
   0  -1  -4  205.55   11.50
   0   1   4  191.15    9.85
   0  -1  -5   -1.61    1.38
   0  -1  -5    0.21    2.41
   0   1   5    4.92    3.62
   0   1   5    1.33    2.38
   0  -1  -6   40.55    4.76
   0  -1  -6   39.75    8.16
   0   1   6   49.94    8.85
   0   1   6   53.48    7.62
   0  -1  -7  107.21    7.84
   0  -1  -7   83.77   10.47
   0   1   7  138.32   12.59
   0   1   7  100.50    9.30
   0  -1  -8   96.89   14.56
   0   1   8  124.32   13.26
   0  -1  -9   12.55    6.76
   0   1   9   22.08    8.13
   0  -1 -10   65.15   13.68
   0   1  10   60.91   12.64
   0  -1 -11   48.17   12.28
   0   1  11   52.12   13.41
   0  -1 -12    8.88    7.73
   0   1  12    6.23    7.68
   0  -1 -13    4.15    7.09
   0   1  13    1.31    7.02
   0  -2  13    4.15    6.91
   0   2 -13    2.32    6.51
   0  -2  12   12.72    8.36
   0   2 -12    7.04    7.20
   0  -2  11   46.78   12.23
   0   2 -11   44.87   12.00
   0  -2  10    0.69    3.96
   0   2 -10    7.48    5.32
   0   2 -10   -0.24    4.34
   0  -2   9  100.24   15.36
   0   2  -9   95.07   11.61
   0   2  -9  101.37   15.70
   0  -2   8  213.36   17.09
   0   2  -8  213.39   15.14
   0   2  -8  198.49   16.12
   0  -2   7    5.04    4.30
   0   2  -7    1.93    3.40
   0   2  -7    5.89    4.32
   0  -2   6  252.88   15.72
   0   2  -6  258.68   14.61
   0  -2   5   12.42    4.66
   0   2  -5    3.31    2.88
   0   2  -5    6.52    3.60
   0  -2   4    5.81    3.52
   0   2  -4   -2.43    1.77
   0   2  -4    2.60    2.53
   0  -2   3    1.61    2.22
   0   2  -3    4.03    2.93
   0   2  -3    1.16    2.35
   0  -2   2   45.20    4.87
   0   2  -2   43.32    5.11
   0   2  -2   40.06    4.74
   0  -2   1 1854.20   22.50
   0   2  -1 1732.60   24.00
   0   2  -1 1674.20   22.60
   0   2   0  896.30   14.28
   0   2   0  874.25   15.09
   0   2   0  922.59   16.00
   0  -2  -1  703.12   11.68
   0  -2  -1  638.96   14.88
   0   2   1  683.08   13.29
   0   2   1  632.31   15.17
   0  -2  -2  586.41    9.29
   0  -2  -2  558.76   15.71
   0   2   2  583.62   14.34
   0   2   2  609.28   16.54
   0  -2  -3   14.81    2.09
   0  -2  -3   11.92    4.02
   0   2   3   13.58    3.70
   0   2   3   14.90    4.18
   0  -2  -4   28.44    2.79
   0  -2  -4   33.74    6.66
   0   2   4   30.78    5.66
   0   2   4   35.00    6.19
   0  -2  -5  170.08   12.33
   0   2   5  204.19   12.63
   0   2   5  186.08   11.98
   0  -2  -6   12.94    2.72
   0  -2  -6   19.73    5.98
   0   2   6   31.39    7.31
   0   2   6   27.01    6.52
   0  -2  -7  348.22   20.38
   0   2   7  400.61   20.95
   0   2   7  413.99   19.67
   0  -2  -8   44.33   10.26
   0   2   8   47.31    9.75
   0  -2  -9   -4.10    4.16
   0   2   9   -2.01    3.90
   0  -2 -10   52.64   12.27
   0   2  10   69.09   13.52
   0  -2 -11    7.22    6.87
   0   2  11   11.48    8.26
   0  -2 -12    3.70    6.28
   0   2  12    6.43    7.50
   0  -3  13    4.45    8.06
   0   3 -13   11.61    8.27
   0  -3  12   17.75    9.94
   0   3 -12    5.16    6.49
   0  -3  11   -1.19    5.29
   0   3 -11    5.39    5.50
   0   3 -11    1.95    5.49
   0  -3  10   22.71    9.05
   0   3 -10   16.89    7.47
   0   3 -10   16.76    7.90
   0  -3   9   -1.84    4.23
   0   3  -9    1.42    3.83
   0   3  -9    2.32    4.58
   0  -3   8  139.41   14.41
   0   3  -8  137.35   13.26
   0   3  -8  117.80   13.02
   0  -3   7   28.66    7.84
   0   3  -7   25.15    6.74
   0   3  -7   20.88    6.77
   0  -3   6   57.91   10.03
   0   3  -6   65.29   10.20
   0   3  -6   52.95    9.49
   0  -3   5  334.00   17.02
   0   3  -5  320.95   16.53
   0   3  -5  291.32   15.56
   0  -3   4   -0.29    2.49
   0   3  -4    1.27    2.81
   0   3  -4    1.27    2.49
   0  -3   3   17.82    4.33
   0  -3   3   16.12    2.25
   0   3  -3   16.11    4.56
   0   3  -3   13.74    4.13
   0  -3   2  359.07   13.11
   0   3  -2  346.12   14.13
   0   3  -2  323.08   12.85
   0   3  -1  514.38   14.20
   0   3  -1  482.07   15.28
   0   3  -1  452.91   14.45
   0   3   0 6955.10   48.40
   0   3   0 6797.10   51.20
   0   3   0 6844.00   53.20
   0  -3  -1 4057.70   35.80
   0   3   1 4046.70   37.90
   0   3   1 4018.80   44.50
   0  -3  -2    5.33    2.08
   0  -3  -2    5.59    3.04
   0   3   2    6.55    2.84
   0   3   2   13.11    4.36
   0  -3  -3  277.63    7.78
   0  -3  -3  270.11   13.66
   0   3   3  287.44   12.49
   0   3   3  287.15   14.25
   0  -3  -4  422.01    8.82
   0  -3  -4  406.37   18.12
   0   3   4  437.34   16.94
   0   3   4  450.05   18.84
   0  -3  -5  156.04   12.48
   0   3   5  165.88   11.85
   0   3   5  172.06   12.71
   0  -3  -6  411.84   21.27
   0   3   6  479.61   21.41
   0   3   6  420.00   20.50
   0  -3  -7   12.47    5.96
   0   3   7   19.57    6.73
   0   3   7   13.76    5.95
   0  -3  -8  283.42   20.57
   0   3   8  274.49   19.38
   0  -3  -9   23.26    8.78
   0   3   9   31.76    9.65
   0  -3 -10    6.97    5.78
   0   3  10    8.27    6.39
   0  -3 -11   25.77   10.25
   0   3  11   24.16    9.69
   0  -3 -12    4.89    7.34
   0   3  12   -2.29    6.34
   0  -4  12   17.73    9.98
   0   4 -12   27.43   10.50
   0   4 -12   11.04    7.68
   0  -4  11   14.63    8.13
   0   4 -11   24.56    9.57
   0   4 -11   29.32   10.33
   0  -4  10    9.25    6.61
   0   4 -10    1.60    4.68
   0   4 -10   -2.60    3.90
   0  -4   9  202.96   18.83
   0   4  -9  152.70   15.91
   0   4  -9  179.69   17.05
   0  -4   8   26.41    8.55
   0   4  -8   17.61    7.27
   0   4  -8   21.61    7.76
   0  -4   7  343.32   20.95
   0   4  -7  315.37   19.77
   0   4  -7  302.98   19.24
   0  -4   6  360.73   19.83
   0   4  -6  338.24   19.38
   0   4  -6  296.95   17.61
   0  -4   5   23.08    6.01
   0   4  -5   26.15    6.98
   0   4  -5   12.28    4.89
   0  -4   4  862.80   25.92
   0   4  -4  850.45   27.25
   0   4  -4  866.61   25.96
   0  -4   3 1343.70   29.70
   0   4  -3 1216.80   30.80
   0   4  -3 1175.50   28.50
   0  -4   2  454.69   16.12
   0   4  -2  427.78   17.41
   0   4  -2  419.24   16.35
   0   4  -1 3856.20   43.40
   0   4  -1 3530.70   46.00
   0   4  -1 3387.30   44.60
   0   4   0    5.79    2.72
   0   4   0    7.25    3.26
   0   4   0    5.25    3.16
   0  -4  -1 4571.20   45.10
   0   4   1 4593.70   46.20
   0   4   1 4370.50   52.80
   0  -4  -2 1731.60   25.70
   0  -4  -2 1592.40   33.40
   0   4   2 1720.10   29.90
   0   4   2 1621.50   34.60
   0  -4  -3  554.65   13.38
   0  -4  -3  475.97   19.65
   0   4   3  546.86   18.28
   0   4   3  532.72   21.21
   0  -4  -4   39.22    3.79
   0  -4  -4   48.83    8.96
   0   4   4   50.35    7.92
   0   4   4   42.84    8.51
   0  -4  -5   80.54   11.97
   0   4   5   68.37    8.34
   0   4   5   78.62   11.78
   0  -4  -6  242.76   17.53
   0   4   6  263.78   16.55
   0   4   6  271.84   18.01
   0  -4  -7  398.78   23.62
   0   4   7  409.71   21.97
   0  -4  -8   73.80   13.38
   0   4   8   85.65   13.49
   0  -4  -9   82.77   15.89
   0   4   9   97.30   15.95
   0  -4 -10   34.56   11.01
   0   4  10   27.98   10.28
   0  -4 -11    7.18    7.26
   0   4  11    6.17    6.99
   0  -4 -12   33.91   12.40
   0   4  12   42.23   12.22
   0  -5  12    1.68    7.02
   0   5 -12   10.69    8.00
   0   5 -12   -1.89    5.11
   0  -5  11   15.68    9.03
   0   5 -11    7.28    7.81
   0   5 -11   19.70    9.58
   0  -5  10   20.83    8.81
   0   5 -10   42.27   12.25
   0   5 -10   34.92   10.36
   0  -5   9    5.14    6.48
   0   5  -9   13.21    7.39
   0   5  -9   13.68    6.91
   0  -5   8  243.87   19.62
   0   5  -8  258.77   20.33
   0   5  -8  232.31   18.57
   0  -5   7   62.95   12.21
   0   5  -7   85.34   13.94
   0   5  -7   54.53   11.01
   0  -5   6  343.01   20.16
   0   5  -6  359.20   21.58
   0   5  -6  318.01   19.23
   0  -5   5  166.80   13.49
   0   5  -5  146.17   13.41
   0   5  -5  152.42   12.86
   0  -5   4   61.80    9.35
   0  -5   4   61.50    4.97
   0   5  -4   55.62    9.89
   0   5  -4   63.32    9.62
   0  -5   3  137.86   10.77
   0   5  -3  116.33   10.97
   0   5  -3  133.02   11.13
   0  -5   2  529.99   19.01
   0   5  -2  495.22   20.50
   0   5  -2  498.44   19.83
   0   5  -1  894.37   23.47
   0   5  -1  794.81   24.50
   0   5   0 1603.80   30.50
   0   5   0 1479.90   31.40
   0  -5  -1    2.01    2.36
   0   5   1    0.56    2.39
   0   5   1   -1.22    2.49
   0  -5  -2 1489.10   27.70
   0  -5  -2 1409.70   34.70
   0   5   2 1510.90   30.70
   0   5   2 1529.30   36.90
   0  -5  -3   44.38    5.14
   0  -5  -3   45.82    8.61
   0   5   3   49.17    7.64
   0   5   3   55.94   10.23
   0  -5  -4   40.20    4.71
   0  -5  -4   48.18    9.29
   0   5   4   49.07    8.10
   0   5   4   44.53    9.12
   0  -5  -5   42.60    9.76
   0   5   5   34.10    7.46
   0   5   5   37.93    8.89
   0  -5  -6  104.25   15.46
   0   5   6  104.26   11.40
   0  -5  -7   46.34   10.79
   0   5   7   33.46    8.79
   0  -5  -8  158.48   17.24
   0   5   8  139.13   14.87
   0  -5  -9    5.18    5.51
   0   5   9    2.72    4.02
   0  -5 -10   14.40    8.06
   0   5  10   19.83    8.58
   0  -5 -11   14.11    9.05
   0   5  11   -0.75    5.86
   0  -6  11   -3.90    4.92
   0   6 -11    6.73    7.97
   0   6 -11    5.01    6.55
   0  -6  10   30.42   10.96
   0   6 -10   16.70    8.99
   0   6 -10   15.44    8.17
   0  -6   9    7.63    6.44
   0   6  -9    5.96    5.66
   0   6  -9    1.40    5.40
   0  -6   8   38.79   10.75
   0   6  -8   41.25   11.14
   0   6  -8   44.83   11.11
   0  -6   7  176.02   16.32
   0   6  -7  196.89   18.05
   0   6  -7  191.41   16.97
   0  -6   6    5.30    4.99
   0   6  -6   10.90    6.15
   0   6  -6    5.13    5.10
   0  -6   5  239.64   16.75
   0   6  -5  217.48   17.46
   0   6  -5  198.01   15.59
   0  -6   4   12.39    5.32
   0   6  -4    8.84    5.18
   0   6  -4    9.57    5.03
   0  -6   3   28.92    6.69
   0   6  -3   23.55    6.81
   0   6  -3   21.49    6.31
   0  -6   2  229.89   13.79
   0   6  -2  238.97   15.83
   0   6  -2  231.99   15.14
   0   6  -1   63.23    7.66
   0   6  -1   63.16    9.91
   0   6   0  293.08   14.72
   0   6   0  282.52   15.62
   0  -6  -1  667.24   22.20
   0   6   1  655.15   21.75
   0  -6  -2   48.30    7.41
   0  -6  -2   46.60    9.26
   0   6   2   59.49    8.75
   0  -6  -3   36.79    6.28
   0  -6  -3   28.97    7.63
   0   6   3   45.34    7.99
   0  -6  -4   71.90   12.49
   0   6   4   69.11   10.23
   0  -6  -5    4.58    4.72
   0   6   5    1.10    3.48
   0  -6  -6   29.25    8.98
   0   6   6   21.48    7.05
   0  -6  -7   29.01    9.72
   0   6   7   30.08    8.69
   0  -6  -8   -3.28    4.37
   0   6   8    6.15    5.72
   0  -6  -9   29.18   10.89
   0   6   9   43.61   11.26
   0  -6 -10    2.21    6.34
   0   6  10   -4.14    4.27
   0  -6 -11   -1.98    5.03
   0  -7  11   11.99    8.59
   0   7 -11   29.12   11.21
   0   7 -11   18.96    9.26
   0  -7  10    5.10    6.44
   0   7 -10    2.27    6.07
   0   7 -10    4.81    6.66
   0  -7   9    1.55    5.34
   0   7  -9   13.01    8.17
   0   7  -9   -2.55    5.30
   0  -7   8   24.99    9.78
   0   7  -8   31.18   10.28
   0   7  -8   31.55    9.57
   0  -7   7   18.25    8.02
   0   7  -7   11.34    6.87
   0   7  -7    9.97    6.36
   0  -7   6  103.86   15.59
   0   7  -6   93.58   14.75
   0   7  -6   93.11   14.75
   0  -7   5   92.89   13.86
   0   7  -5   93.85   14.72
   0   7  -5   83.56   13.12
   0  -7   4   60.61   10.78
   0   7  -4   63.61   12.07
   0   7  -4   38.35    9.05
   0  -7   3  168.51   13.62
   0   7  -3  176.69   15.51
   0   7  -3  170.78   14.50
   0  -7   2  150.16   12.42
   0   7  -2  136.96   13.48
   0   7  -1  537.50   21.97
   0   7  -1  533.50   24.12
   0  -7   0  421.30   20.53
   0   7   0  418.13   19.12
   0  -7  -1  156.52   12.30
   0   7   1  163.06   12.50
   0  -7  -2  613.18   22.35
   0  -7  -2  615.87   27.40
   0   7   2  622.87   23.47
   0  -7  -3   25.07    8.10
   0   7   3   40.35    8.06
   0  -7  -4    9.53    6.00
   0   7   4    8.85    4.77
   0  -7  -5  203.79   18.39
   0   7   5  205.35   15.92
   0  -7  -6    9.33    6.69
   0   7   6   12.04    5.91
   0  -7  -7  112.22   18.64
   0   7   7  126.44   18.15
   0  -7  -8    8.58    7.09
   0  -7  -9   34.99   11.44
   0  -7 -10   13.66    8.67
   0  -8  10   39.60   13.57
   0   8 -10   59.37   15.35
   0   8 -10   55.52   14.62
   0  -8   9    0.17    7.17
   0   8  -9   -2.80    5.37
   0   8  -9    7.79    7.03
   0  -8   8   21.34    9.60
   0   8  -8    3.97    6.74
   0   8  -8   18.90    8.12
   0  -8   7  125.65   18.58
   0   8  -7  100.33   17.52
   0   8  -7  110.50   17.01
   0  -8   6    3.23    5.30
   0   8  -6   -0.52    5.66
   0   8  -6    4.83    5.11
   0  -8   5  158.41   15.88
   0   8  -5  163.73   17.35
   0   8  -5  154.50   15.92
   0  -8   4   82.37   13.30
   0   8  -4   73.05   13.44
   0   8  -4   71.21   13.14
   0  -8   3   79.79   12.51
   0   8  -3   68.17   12.98
   0  -8   2  449.11   22.03
   0   8  -2  419.36   24.12
   0  -8   0  653.77   27.53
   0   8   0  729.81   27.04
   0  -8  -1  139.47   12.74
   0   8   1  152.75   13.12
   0  -8  -2  197.02   17.51
   0   8   2  215.39   15.59
   0  -8  -3  216.32   18.84
   0  -8  -4    6.67    5.62
   0  -8  -5   40.91   11.89
   0  -8  -6   77.97   15.56
   0  -8  -7   17.54    9.16
   0  -8  -8   42.52   12.53
   0  -8  -9    8.94    8.43
   0  -9   9   29.62   12.52
   0   9  -9   27.97   11.28
   0   9  -9   19.83    9.75
   0  -9   8    5.61    6.52
   0   9  -8   -2.00    5.00
   0   9  -8   -0.11    4.93
   0  -9   7   74.46   15.42
   0   9  -7   87.07   17.71
   0  -9   6   63.73   13.18
   0   9  -6   48.39   13.37
   0   9  -6   47.18   12.09
   0  -9   5   16.47    7.75
   0   9  -5    5.94    6.45
   0   9  -5   23.39    8.50
   0  -9   4  101.31   15.70
   0   9  -4   82.07   15.65
   0  -9   3   20.75    7.64
   0   9  -3    8.97    6.93
   0  -9   1  149.57   15.58
   0  -9   0   25.47    7.80
   0  -9  -1  441.61   28.00
   0  -9  -2   -2.84    3.70
   0  -9  -3   39.61   11.12
   0  -9  -4   30.68   10.24
   0  -9  -5   -0.41    5.94
   0  -9  -6   16.48    8.27
   0  -9  -7   13.99    8.74
   0  10  -7   -1.07    6.89
   0  10  -7    3.90    6.15
   0  10  -6   60.77   15.16
   0  10  -6   46.56   12.46
   0  10  -5    7.66    7.48
   0 -10   3   13.48    7.54
   0 -10   2    1.14    5.12
   0 -10   1    2.53    4.17
   0 -10   0  101.77   15.86
   0 -10  -1   -0.52    5.43
   0 -10  -2   54.56   13.34
   0 -10  -3    8.76    7.38
   0 -10  -4    1.80    4.93
   0 -10  -5    6.37    7.33
   0 -10  -6    9.44    8.59
   0 -11   5   22.24    9.85
   0 -11   4   54.12   14.65
   0 -11   3    2.88    6.31
   0 -11   2   53.40   13.55
   0 -11   1   33.50   10.01
   0 -11  -1  116.90   19.81
   0 -11  -2   -1.65    5.91
   0 -11  -3   37.68   12.44
   1 -11  -4   20.04    9.79
   1 -11  -3   -1.10    6.12
   1 -11  -2   46.97   13.56
   1 -11   0   62.92   13.31
   1 -11   1   16.71    8.14
   1 -11   2    6.16    6.82
   1 -11   3    3.41    5.91
   1 -11   4    3.86    7.45
   1 -11   5    3.90    5.64
   1 -10  -6   21.83    9.72
   1 -10  -5    0.41    5.77
   1 -10  -4   31.95   10.47
   1 -10  -3   80.14   16.62
   1 -10  -2    3.02    5.02
   1 -10  -1   47.10   11.37
   1 -10   0   36.89   10.12
   1 -10   1   -1.02    4.00
   1 -10   2   68.14   14.52
   1 -10   3   37.22   11.05
   1 -10   4   12.02    7.52
  -1  10  -5   72.56   15.30
   1 -10   5   48.93   13.62
  -1  10  -6   17.40    8.59
   1 -10   6   15.47    8.62
  -1  10  -7   40.41   12.90
   1 -10   7   45.57   14.58
   1  -9  -8    9.76    8.66
   1  -9  -7   16.76    9.23
   1  -9  -6   -0.54    4.65
   1  -9  -5   75.57   15.76
   1  -9  -4   86.25   15.79
   1  -9  -3    6.23    6.20
   1  -9  -2  355.86   21.44
   1  -9  -1  155.80   14.93
   1  -9   0   42.58    9.94
   1  -9   1  124.79   14.81
   1  -9   2   12.75    6.75
   1  -9   3   87.72   15.48
  -1   9  -4  153.95   17.28
   1  -9   4  128.16   19.31
  -1   9  -5   44.30   11.91
   1  -9   5   28.90   10.04
  -1   9  -6   43.22   11.67
   1  -9   6   70.53   15.03
  -1   9  -7    2.23    5.67
  -1   9  -8   20.22    8.66
   1  -9   8   35.60   13.03
   1  -8  -9   28.68   10.44
   1  -8  -8   19.20    9.14
  -1   8   7    7.21    6.55
   1  -8  -7   -1.87    4.22
  -1   8   6  189.59   19.99
   1  -8  -6  191.91   19.33
  -1   8   5   46.29   11.44
   1  -8  -5   36.57   10.91
  -1   8   4  240.25   20.05
   1  -8  -4  218.42   19.01
  -1   8   3  275.67   20.67
   1  -8  -3  318.51   19.88
   1  -8  -3  265.61   20.56
  -1   8   2   61.04   12.06
   1  -8  -2   74.28   11.80
  -1   8   1  409.42   22.96
   1  -8  -1  397.21   21.73
  -1   8   0   35.73    9.06
   1  -8   0   25.62    7.61
   1  -8   1  149.57   14.61
   1  -8   2   81.74   13.70
  -1   8  -3   43.36   10.18
   1  -8   3   56.44   10.21
   1  -8   3   61.31   12.97
  -1   8  -4  211.17   18.63
   1  -8   4  239.93   17.11
  -1   8  -5   53.52   12.07
   1  -8   5   65.69   12.50
  -1   8  -6  155.12   18.32
   1  -8   6  163.29   16.52
  -1   8  -7   80.94   15.84
  -1   8  -7   63.07   13.88
   1  -8   7  103.02   16.54
  -1   8  -8    5.23    6.35
  -1   8  -8    8.81    7.32
   1  -8   8    7.73    6.75
  -1   8  -9   12.29    8.93
  -1   8  -9   -3.22    5.59
   1  -8   9    7.53    6.92
   1  -7 -10   11.23    8.60
   1  -7  -9    0.72    6.08
  -1   7   8   12.52    8.13
   1  -7  -8   26.14    9.90
  -1   7   7    5.14    5.68
   1  -7  -7    0.57    5.10
  -1   7   6   39.74   11.14
   1  -7  -6   53.92   11.98
  -1   7   5  100.67   16.03
   1  -7  -5   84.78   14.58
  -1   7   4   26.28    8.66
   1  -7  -4   17.39    6.98
  -1   7   3  544.97   26.50
   1  -7  -3  541.11   21.68
   1  -7  -3  477.59   25.05
  -1   7   2  133.16   13.40
   1  -7  -2  107.59   10.72
  -1   7   1  804.23   22.60
  -1   7   1  764.72   28.81
   1  -7  -1  747.41   27.17
  -1   7   0   69.70   11.02
   1  -7   0   66.09    7.35
   1  -7   0   56.41    9.85
  -1   7  -1   14.12    5.50
   1  -7   1   19.10    5.22
   1  -7   1   19.50    6.58
  -1   7  -2  202.99   16.25
   1  -7   2  261.61   14.84
   1  -7   2  236.16   17.35
  -1   7  -3   36.90    9.09
   1  -7   3   32.78    7.54
  -1   7  -4    0.50    3.84
  -1   7  -4   -0.18    3.81
   1  -7   4    4.22    3.82
  -1   7  -5  185.00   17.51
  -1   7  -5  139.93   15.26
   1  -7   5  181.14   15.25
  -1   7  -6   47.87   10.95
  -1   7  -6   43.17   10.67
   1  -7   6   59.01   12.39
  -1   7  -7   44.51   11.83
  -1   7  -7   49.94   12.40
   1  -7   7   64.14   12.98
  -1   7  -8   26.31    9.37
  -1   7  -8   31.51   10.24
   1  -7   8   34.37   10.74
  -1   7  -9   -3.40    5.12
  -1   7  -9    1.46    6.05
   1  -7   9   -0.48    5.27
  -1   7 -10   -2.29    5.26
  -1   7 -10   -3.23    4.93
   1  -7  10    1.59    5.76
   1  -6 -11    3.79    6.40
   1  -6 -10   31.59   11.11
  -1   6   9    1.59    5.15
   1  -6  -9    8.28    6.33
  -1   6   8   38.21   10.60
   1  -6  -8   19.45    8.34
  -1   6   7  190.37   15.03
  -1   6   7  191.68   17.85
   1  -6  -7  172.26   17.25
  -1   6   6    8.27    4.52
  -1   6   6    4.23    5.16
   1  -6  -6   15.20    7.12
  -1   6   5  268.52   14.75
  -1   6   5  271.43   19.50
   1  -6  -5  253.30   18.58
  -1   6   4  208.91   12.19
  -1   6   4  206.96   16.47
   1  -6  -4  193.89   11.80
   1  -6  -4  212.05   16.34
  -1   6   3    1.89    2.59
  -1   6   3   -0.49    3.03
   1  -6  -3    2.29    2.76
   1  -6  -3   10.88    5.20
  -1   6   2 1255.70   25.70
  -1   6   2 1214.60   34.70
   1  -6  -2 1144.20   29.70
  -1   6   1  471.96   20.87
   1  -6  -1  465.28   19.82
  -1   6   0   90.44    9.26
   1  -6   0   87.71    7.35
   1  -6   0   87.21    9.62
  -1   6  -1   55.86    8.46
   1  -6   1   61.23    6.69
   1  -6   1   50.71    9.16
  -1   6  -2   16.30    5.86
  -1   6  -2   11.31    4.01
   1  -6   2   14.10    4.85
   1  -6   2    9.61    5.14
  -1   6  -3   89.54   10.81
  -1   6  -3   68.79   10.85
   1  -6   3   84.63    8.92
  -1   6  -4  266.18   18.40
  -1   6  -4  266.41   18.18
   1  -6   4  291.62   16.91
  -1   6  -5    5.48    5.10
  -1   6  -5    1.24    4.34
   1  -6   5    1.34    3.67
  -1   6  -6  130.24   14.54
  -1   6  -6  131.94   14.39
   1  -6   6  135.22   13.81
  -1   6  -7   67.92   13.28
  -1   6  -7   58.26   12.65
   1  -6   7   68.05   12.79
  -1   6  -8   30.11   10.11
  -1   6  -8   32.96   10.14
   1  -6   8   39.67   11.01
  -1   6  -9   80.40   15.83
  -1   6  -9   84.56   15.94
   1  -6   9   86.67   16.60
  -1   6 -10    6.92    7.22
  -1   6 -10    0.29    5.43
   1  -6  10   -0.28    5.56
  -1   6 -11    6.00    6.84
  -1   6 -11    7.33    7.65
   1  -6  11    4.63    7.22
   1  -5 -12    8.46    8.42
  -1   5  11   18.13    8.59
   1  -5 -11    8.01    8.31
  -1   5  10   -0.94    4.08
  -1   5  10   -0.74    4.99
   1  -5 -10    1.86    5.96
  -1   5   9   18.45    7.43
  -1   5   9   16.91    8.60
   1  -5  -9   17.81    8.31
  -1   5   8  107.82   12.28
  -1   5   8   94.52   15.31
   1  -5  -8   93.44   15.86
  -1   5   7   -0.12    3.18
  -1   5   7    0.79    3.54
   1  -5  -7   -1.39    3.99
  -1   5   6  202.55   13.64
  -1   5   6  221.91   17.39
   1  -5  -6  190.54   16.11
  -1   5   5  340.93   15.76
  -1   5   5  327.10   19.57
   1  -5  -5  301.12   12.89
   1  -5  -5  302.07   18.86
  -1   5   4   58.10    6.37
  -1   5   4   57.19   10.15
   1  -5  -4   58.61    6.43
   1  -5  -4   53.69    9.67
  -1   5   3  955.18   21.53
  -1   5   3  908.64   29.17
   1  -5  -3  904.54   23.12
   1  -5  -3  888.54   28.83
  -1   5   2  176.18    8.87
  -1   5   2  169.74   12.35
   1  -5  -2  167.86   10.68
  -1   5   1  612.55   15.55
  -1   5   1  607.76   21.44
   1  -5  -1  600.18   20.45
  -1   5   0 1229.60   28.50
   1  -5   0 1271.70   23.00
   1  -5   0 1238.20   30.40
  -1   5  -1   -1.69    1.89
  -1   5  -1    1.23    2.32
   1  -5   1   -0.14    1.68
   1  -5   1   -1.79    2.07
  -1   5  -2  293.39   16.43
  -1   5  -2  292.33   16.32
  -1   5  -2  328.78   12.70
   1  -5   2  345.29   14.49
  -1   5  -3  191.24   13.99
  -1   5  -3  202.55   14.33
  -1   5  -3  219.75    9.34
   1  -5   3  213.21   12.71
  -1   5  -4  377.24   20.28
  -1   5  -4  356.05   19.47
   1  -5   4  400.62   18.68
  -1   5  -5 1144.70   36.40
  -1   5  -5 1028.40   34.20
   1  -5   5 1238.70   35.00
  -1   5  -6   38.05    9.07
  -1   5  -6   48.31   10.73
   1  -5   6   31.46    8.13
  -1   5  -7  227.94   18.63
  -1   5  -7  218.79   18.08
   1  -5   7  247.73   18.83
  -1   5  -8  100.37   16.18
  -1   5  -8   83.62   14.36
   1  -5   8   94.94   15.54
  -1   5  -9    4.01    5.93
  -1   5  -9    9.37    6.71
   1  -5   9   10.69    7.22
  -1   5 -10   96.85   16.77
  -1   5 -10   69.49   14.61
   1  -5  10   95.05   17.49
  -1   5 -11    4.83    7.28
  -1   5 -11   -1.85    6.37
   1  -5  11    0.00    6.13
  -1   4  12   16.74    8.66
   1  -4 -12   19.49    9.53
  -1   4  11    1.04    6.54
   1  -4 -11   10.94    7.40
  -1   4  10   88.30   14.90
  -1   4  10   70.31   13.65
   1  -4 -10   64.63   13.81
  -1   4   9   -2.03    3.63
  -1   4   9   -0.21    4.05
   1  -4  -9   -2.46    3.96
  -1   4   8   -0.52    3.74
  -1   4   8    2.09    4.49
   1  -4  -8    2.45    4.51
  -1   4   7  351.93   18.67
  -1   4   7  348.36   20.80
   1  -4  -7  301.85   20.06
  -1   4   6    3.84    3.62
  -1   4   6   -1.42    2.85
   1  -4  -6    4.78    2.59
   1  -4  -6    3.65    3.86
  -1   4   5  967.18   25.14
  -1   4   5  965.61   30.77
   1  -4  -5  942.97   20.78
   1  -4  -5  899.05   29.77
  -1   4   4  427.04   14.99
  -1   4   4  398.92   18.94
   1  -4  -4  389.39   13.65
   1  -4  -4  369.32   18.23
  -1   4   3  415.40   13.04
  -1   4   3  400.92   17.94
   1  -4  -3  405.82   14.16
   1  -4  -3  384.27   17.57
  -1   4   2 3948.80   35.00
  -1   4   2 3777.20   50.80
   1  -4  -2 3734.00   43.50
  -1   4   1  149.86    6.73
  -1   4   1  147.37   10.05
   1  -4  -1  152.60    9.66
  -1   4   0 1912.00   31.40
   1  -4   0 1984.40   24.60
   1  -4   0 1964.10   34.50
  -1   4  -1  537.63   19.24
  -1   4  -1  594.27   16.17
   1  -4   1  604.18   15.45
   1  -4   1  567.83   19.64
  -1   4  -2  175.82   11.86
  -1   4  -2  172.18   11.71
  -1   4  -2  185.83    8.30
   1  -4   2  181.76    9.89
  -1   4  -3  884.71   26.99
  -1   4  -3  861.88   26.62
  -1   4  -3  909.64   15.02
   1  -4   3  970.68   24.83
  -1   4  -4  262.02   15.77
  -1   4  -4  214.50   14.44
   1  -4   4  263.65   14.70
  -1   4  -5  380.04   19.77
  -1   4  -5  347.62   19.17
   1  -4   5  387.38   19.17
  -1   4  -6  416.93   21.80
  -1   4  -6  348.76   20.38
   1  -4   6  418.07   21.65
  -1   4  -7   22.16    7.44
  -1   4  -7   14.60    6.53
   1  -4   7    0.65    4.47
  -1   4  -8  119.71   13.58
  -1   4  -8  100.73   16.00
   1  -4   8  116.05   17.61
  -1   4  -9    6.27    5.53
  -1   4  -9    3.43    5.07
   1  -4   9    4.92    6.15
  -1   4 -10   -7.41    2.97
  -1   4 -10    1.29    4.70
   1  -4  10    0.70    5.30
  -1   4 -11   11.41    7.59
  -1   4 -11   12.67    7.86
   1  -4  11   15.66    8.90
  -1   4 -12    5.26    6.88
   1  -4  12   -1.00    5.75
  -1   3  13   -3.39    5.56
   1  -3 -13   -6.39    6.76
  -1   3  12   20.25    9.28
   1  -3 -12   10.40    7.94
  -1   3  11   19.59    8.35
  -1   3  11   26.33    9.52
   1  -3 -11   13.67    7.91
  -1   3  10  108.89   16.13
  -1   3  10  122.16   14.33
   1  -3 -10   95.80   16.93
  -1   3   9   25.58    8.25
  -1   3   9   15.12    6.84
   1  -3  -9   25.53    8.60
  -1   3   8   35.60    8.68
  -1   3   8   32.21    8.44
   1  -3  -8   31.03    9.18
  -1   3   7  246.25   15.61
  -1   3   7  277.43   17.42
   1  -3  -7  252.19   11.58
   1  -3  -7  268.12   18.06
  -1   3   6  180.99   12.26
  -1   3   6  206.79   14.27
   1  -3  -6  187.51    9.58
   1  -3  -6  176.73   13.82
  -1   3   5   58.50    6.84
  -1   3   5   66.64    8.19
   1  -3  -5   64.72    5.82
   1  -3  -5   74.00   10.72
  -1   3   4 2724.90   35.70
  -1   3   4 2559.80   43.10
   1  -3  -4 2573.60   31.80
   1  -3  -4 2496.40   42.70
  -1   3   3  339.26   10.90
  -1   3   3  342.65   15.14
   1  -3  -3  319.44   11.40
   1  -3  -3  313.42   14.36
  -1   3   2 1703.80   19.60
  -1   3   2 1757.90   31.20
   1  -3  -2 1690.50   26.00
  -1   3   1 1803.10   17.20
  -1   3   1 1755.20   28.70
   1  -3  -1 1709.90   27.20
  -1   3   0   46.42    5.77
  -1   3   0   43.41    4.94
   1  -3   0   47.29    3.62
   1  -3   0   47.01    5.78
  -1   3  -1    3.18    2.81
  -1   3  -1    2.81    2.03
   1  -3   1    3.74    2.07
   1  -3   1    1.62    2.65
  -1   3  -2   10.94    3.96
  -1   3  -2    6.46    3.44
  -1   3  -2    4.60    1.91
   1  -3   2    9.21    3.09
  -1   3  -3    1.91    2.66
  -1   3  -3    5.28    3.36
  -1   3  -3    2.62    1.43
   1  -3   3    3.67    2.88
  -1   3  -4  371.42   17.02
  -1   3  -4  281.45   15.44
   1  -3   4  376.02   16.73
  -1   3  -5  110.16   10.27
  -1   3  -5  103.29   10.71
   1  -3   5  129.95   11.37
  -1   3  -6  218.33   14.72
  -1   3  -6  188.71   14.81
   1  -3   6  217.45   15.68
  -1   3  -7    3.09    3.67
  -1   3  -7    2.57    4.03
   1  -3   7    1.47    4.01
  -1   3  -8    1.99    3.63
  -1   3  -8    2.33    4.60
   1  -3   8    2.31    4.35
  -1   3  -9   89.88   13.58
  -1   3  -9   68.72   13.08
   1  -3   9   65.80   13.53
  -1   3 -10   -5.69    3.11
  -1   3 -10    0.51    4.59
   1  -3  10    4.14    5.97
  -1   3 -11   -3.11    5.66
   1  -3  11    2.70    5.17
  -1   3 -12   17.28    9.91
   1  -3  12   11.32    8.52
  -1   2  13   16.42    9.54
   1  -2 -13    5.86    7.86
  -1   2  12    6.62    6.80
   1  -2 -12    1.99    5.77
  -1   2  11   54.70   12.74
   1  -2 -11   41.14   11.25
  -1   2  10   32.26   10.12
  -1   2  10   33.37    8.93
   1  -2 -10   31.93   10.23
  -1   2   9  124.63   13.55
  -1   2   9  113.90   12.10
   1  -2  -9  123.66   14.07
  -1   2   8  100.56   11.52
  -1   2   8  115.74   11.54
   1  -2  -8   88.86    8.32
   1  -2  -8   96.91   14.58
  -1   2   7    8.95    4.52
  -1   2   7    2.98    3.63
   1  -2  -7    3.66    2.63
   1  -2  -7    4.72    3.63
  -1   2   6  316.56   15.83
  -1   2   6  291.22   15.35
   1  -2  -6  298.57   12.28
   1  -2  -6  268.77   15.77
  -1   2   5  292.09   13.57
  -1   2   5  273.44   14.07
   1  -2  -5  276.19   11.01
   1  -2  -5  261.44   14.33
  -1   2   4   46.43    5.39
  -1   2   4   47.77    6.93
   1  -2  -4   46.95    4.84
   1  -2  -4   45.58    7.06
  -1   2   3 1578.10   22.10
  -1   2   3 1637.10   28.80
   1  -2  -3 1483.30   22.10
   1  -2  -3 1448.60   26.90
  -1   2   2   19.28    2.67
  -1   2   2   23.81    4.48
   1  -2  -2   20.92    3.76
  -1   2   1  306.30   10.71
   1  -2  -1  271.74    9.70
  -1   2   0 2997.00   33.30
  -1   2   0 3444.00   30.90
   1  -2   0 3520.10   35.20
  -1   2  -1 2916.80   34.50
  -1   2  -1 3329.30   26.70
   1  -2   1 3305.50   29.00
   1  -2   1 3263.30   36.10
  -1   2  -2  753.47   18.92
  -1   2  -2  691.57   18.83
  -1   2  -2  792.45   11.61
   1  -2   2  795.07   17.85
  -1   2  -3   19.57    4.52
  -1   2  -3   16.21    4.57
  -1   2  -3   20.44    2.48
   1  -2   3   26.70    4.92
  -1   2  -4    0.59    2.30
  -1   2  -4    1.89    2.93
  -1   2  -4    1.47    1.37
   1  -2   4    2.57    2.72
  -1   2  -5 1618.60   33.70
  -1   2  -5 1428.20   35.20
  -1   2  -5 1560.60   17.80
   1  -2   5 1613.70   36.90
  -1   2  -6   35.62    7.09
  -1   2  -6   26.78    6.90
   1  -2   6   35.49    8.10
  -1   2  -7  323.10   17.32
  -1   2  -7  307.81   19.64
   1  -2   7  353.55   20.83
  -1   2  -8   92.98   10.77
  -1   2  -8   85.37   14.23
   1  -2   8  115.83   13.43
  -1   2  -9    1.23    3.66
  -1   2  -9    0.04    4.60
   1  -2   9    1.89    4.49
  -1   2 -10   76.49   15.32
   1  -2  10  110.79   17.79
  -1   2 -11    5.20    6.19
   1  -2  11    9.29    7.51
  -1   2 -12   -5.13    4.58
   1  -2  12   -0.35    5.62
  -1   1  13    6.11    6.90
   1  -1 -13   -2.07    7.25
  -1   1  12   18.75    9.44
   1  -1 -12   18.38    9.15
  -1   1  11    0.35    4.93
   1  -1 -11    9.11    6.67
  -1   1  10   68.41   13.02
   1  -1 -10   77.94   15.01
  -1   1   9   14.47    6.79
  -1   1   9   21.09    6.47
   1  -1  -9   13.88    5.07
   1  -1  -9    9.12    6.32
  -1   1   8   10.37    5.45
  -1   1   8   12.72    4.91
   1  -1  -8   12.66    4.37
   1  -1  -8    9.74    5.47
  -1   1   7  160.61   12.83
  -1   1   7  165.71   11.44
   1  -1  -7  144.94   10.02
   1  -1  -7  154.35   12.74
  -1   1   6  230.79   13.77
  -1   1   6  226.62   12.38
   1  -1  -6  212.76   11.02
   1  -1  -6  201.83   13.32
  -1   1   5  935.82   24.00
  -1   1   5  914.48   22.58
   1  -1  -5  905.74   20.36
   1  -1  -5  793.45   22.95
  -1   1   4 1446.80   25.80
  -1   1   4 1404.30   25.70
   1  -1  -4 1403.80   23.20
   1  -1  -4 1272.40   25.70
  -1   1   3  294.06    9.98
  -1   1   3  286.55   10.87
   1  -1  -3  260.24   10.36
  -1   1   2 2457.40   21.20
  -1   1   2 2349.40   27.40
   1  -1  -2 2086.80   23.70
   1  -1  -2 2158.00   24.60
   1  -1  -1 2999.80   26.90
  -1   1   0  836.79   13.79
  -1   1   0  887.55   13.62
   1  -1   0  903.16   15.05
  -1   1  -1 5036.60   30.40
   1  -1   1 4686.20   33.80
   1  -1   1 5132.60   37.80
  -1   1  -2  293.28   11.49
  -1   1  -2  439.27    9.54
   1  -1   2  440.55   13.24
   1  -1   2  469.99   12.79
  -1   1  -3 1429.50   24.10
  -1   1  -3 1286.60   26.70
  -1   1  -3 1433.30   18.50
   1  -1   3 1388.30   27.10
  -1   1  -4 1284.20   24.90
  -1   1  -4 1155.10   28.20
  -1   1  -4 1282.90   19.60
   1  -1   4 1300.70   29.60
  -1   1  -5    4.96    2.87
  -1   1  -5   10.50    4.64
  -1   1  -5    6.93    2.64
   1  -1   5    6.97    4.09
  -1   1  -6 1459.00   30.80
  -1   1  -6 1303.20   36.00
   1  -1   6 1551.90   39.20
  -1   1  -7  239.67   13.83
  -1   1  -7  224.15   16.76
   1  -1   7  243.37   17.34
  -1   1  -8  256.15   15.26
  -1   1  -8  204.72   17.36
   1  -1   8  261.75   19.49
  -1   1  -9   77.44   14.55
   1  -1   9   88.50   15.48
  -1   1 -10   28.19    9.88
   1  -1  10   25.36    9.52
  -1   1 -11   51.68   12.76
   1  -1  11   60.54   14.60
  -1   1 -12    5.40    6.57
   1  -1  12   11.43    8.77
  -1   0  13    4.23    7.65
   1   0 -13   -6.45    5.03
  -1   0  12   18.59    9.02
   1   0 -12    9.33    7.75
  -1   0  11   28.27   10.01
   1   0 -11    2.79    6.04
  -1   0  10   10.51    6.72
   1   0 -10    1.39    4.01
   1   0 -10   -0.78    4.12
  -1   0   9  119.39   13.56
  -1   0   9  138.24   11.81
   1   0  -9  117.58   11.20
   1   0  -9  111.47   13.05
  -1   0   8   66.62   11.39
  -1   0   8   62.05    7.41
   1   0  -8   52.10    8.68
   1   0  -8   55.70   10.31
  -1   0   7    0.97    3.11
  -1   0   7   -1.52    1.88
   1   0  -7    1.71    2.58
   1   0  -7    1.50    2.85
  -1   0   6  404.88   18.17
  -1   0   6  416.86   14.78
   1   0  -6  400.51   15.98
   1   0  -6  348.08   16.54
  -1   0   5  416.97   16.65
  -1   0   5  392.32   13.26
   1   0  -5  406.11   14.84
   1   0  -5  378.55   15.32
  -1   0   4 3855.80   43.60
  -1   0   4 3925.90   37.40
   1   0  -4 3731.70   40.30
   1   0  -4 3384.30   39.00
  -1   0   3 5658.70   45.30
  -1   0   3 5506.30   40.10
   1   0  -3 5076.40   42.50
   1   0  -3 4833.00   38.70
  -1   0   2 1015.30   16.00
   1   0  -2  849.85   15.60
   1   0  -2  900.03   12.73
  -1   0   1 1794.10   19.50
   1   0  -1 1750.30   17.40
   1   0  -1 1582.00   18.60
  -1   0   0 2128.50   21.20
   1   0   0 1875.20   18.90
   1   0   0 1983.60   18.70
  -1   0  -1 1559.10   19.50
   1   0   1 1464.00   20.50
   1   0   1 1557.50   16.50
  -1   0  -2  503.26   14.27
   1   0   2  538.81   15.00
   1   0   2  602.72   11.40
  -1   0  -3  245.75   11.85
   1   0   3  257.60    8.59
  -1   0  -4 1142.50   19.80
  -1   0  -4  985.56   26.00
   1   0   4 1100.80   27.50
  -1   0  -5  706.99   17.37
  -1   0  -5  610.19   22.85
   1   0   5  689.42   24.17
  -1   0  -6   39.27    5.95
  -1   0  -6   29.57    7.50
   1   0   6   41.53    8.70
  -1   0  -7  271.46   13.03
  -1   0  -7  271.58   18.38
   1   0   7  271.67   18.60
  -1   0  -8    2.29    4.40
   1   0   8   -5.14    3.30
  -1   0  -9    5.59    5.45
   1   0   9    8.82    6.37
  -1   0 -10   40.74   11.24
   1   0  10   51.26   12.33
  -1   0 -11   -0.51    5.01
   1   0  11    1.38    5.19
  -1   0 -12    3.81    6.94
   1   0  12    4.57    6.42
  -1  -1  13   31.92   11.76
   1   1 -13   22.40    9.50
  -1  -1  12    4.28    7.28
   1   1 -12    9.43    7.20
  -1  -1  11   95.90   16.77
   1   1 -11   72.94   14.40
  -1  -1  10   32.46    9.52
   1   1 -10   36.84    8.84
   1   1 -10   14.15    7.39
  -1  -1   9    0.55    4.43
   1   1  -9    3.97    3.76
   1   1  -9    3.09    4.28
  -1  -1   8  557.90   25.60
  -1  -1   8  569.04   17.52
   1   1  -8  528.96   22.29
   1   1  -8  472.43   22.73
  -1  -1   7   49.83    9.03
  -1  -1   7   55.68    5.82
   1   1  -7   52.94    8.56
   1   1  -7   49.56    9.02
  -1  -1   6   94.70    9.57
  -1  -1   6   89.29    6.40
   1   1  -6   73.94    7.97
   1   1  -6   79.97    8.52
  -1  -1   5 2848.00   44.10
  -1  -1   5 2875.60   30.70
   1   1  -5 2810.10   41.50
   1   1  -5 2424.50   37.30
  -1  -1   4   71.66    7.11
  -1  -1   4   68.18    4.88
   1   1  -4   68.56    6.60
   1   1  -4   56.48    5.72
  -1  -1   3 4240.50   42.90
  -1  -1   3 4115.10   31.50
   1   1  -3 4171.10   42.60
   1   1  -3 3764.20   33.20
  -1  -1   2 2760.70   30.60
  -1  -1   2 2631.10   24.70
   1   1  -2 2505.80   29.40
   1   1  -2 2461.50   20.10
  -1  -1   1  698.24   13.32
   1   1  -1  713.42   14.40
   1   1  -1  651.02   13.24
  -1  -1   0 2896.80   20.90
  -1  -1   0 3102.50   29.90
   1   1   0 2947.10   29.30
   1   1   0 2963.50   23.40
  -1  -1  -1    3.24    1.96
   1   1   1    0.74    2.03
  -1  -1  -2   74.72    6.24
   1   1   2   57.18    5.89
  -1  -1  -3   -0.26    2.06
   1   1   3    0.87    2.59
   1   1   3    6.40    2.12
  -1  -1  -4  115.07    9.66
   1   1   4  123.65   10.00
   1   1   4  124.62    5.19
  -1  -1  -5  530.79   21.63
   1   1   5  605.71   23.04
  -1  -1  -6  146.77   13.06
   1   1   6  161.08   13.41
  -1  -1  -7   43.79   10.06
   1   1   7   55.64   10.56
  -1  -1  -8  111.82   16.11
   1   1   8  146.94   15.02
  -1  -1  -9    7.63    6.09
   1   1   9   11.46    6.97
  -1  -1 -10   -1.22    5.98
   1   1  10   -2.78    4.67
  -1  -1 -11   12.42    8.17
   1   1  11    6.81    6.96
  -1  -1 -12   -1.95    6.19
   1   1  12    5.67    7.26
  -1  -2  13    3.27    7.28
   1   2 -13    1.12    5.48
  -1  -2  12   75.60   15.84
   1   2 -12   68.14   14.40
  -1  -2  11   10.84    7.42
   1   2 -11    9.63    6.24
   1   2 -11   13.34    7.25
  -1  -2  10  132.60   15.52
   1   2 -10  163.37   15.38
   1   2 -10  103.45   15.85
  -1  -2   9   66.65   12.55
   1   2  -9   70.19   11.62
   1   2  -9   73.88   12.30
  -1  -2   8    4.73    4.56
   1   2  -8    5.59    4.13
   1   2  -8    7.64    4.77
  -1  -2   7  145.09   12.86
   1   2  -7  144.58   12.30
   1   2  -7  147.80   12.08
  -1  -2   6  153.85   12.25
   1   2  -6  146.94   11.55
   1   2  -6  137.77   10.81
  -1  -2   5  205.18   12.89
  -1  -2   5  199.51    7.48
   1   2  -5  202.63   12.53
   1   2  -5  176.10   10.65
  -1  -2   4 1852.90   34.20
  -1  -2   4 1778.30   21.10
   1   2  -4 1680.60   32.40
   1   2  -4 1614.20   27.30
  -1  -2   3  308.29   13.10
  -1  -2   3  296.69    9.04
   1   2  -3  205.85   10.92
   1   2  -3  257.69    9.72
  -1  -2   2  531.03   12.70
   1   2  -2  570.10   16.39
   1   2  -2  513.68   15.35
   1   2  -2  525.36   11.73
  -1  -2   1  130.46    7.20
   1   2  -1  131.96    7.77
   1   2  -1  108.36    6.75
  -1  -2   0  458.30   11.33
   1   2   0  467.31   14.15
   1   2   0  446.11   11.16
  -1  -2  -1   27.95    4.37
   1   2   1   29.95    5.10
   1   2   1   29.41    3.00
  -1  -2  -2  460.86   15.22
   1   2   2  496.41   16.49
  -1  -2  -3  109.09    8.78
   1   2   3   94.01    8.40
  -1  -2  -4   86.20    8.89
   1   2   4  100.58    9.45
  -1  -2  -5  209.33   14.52
   1   2   5  199.55   14.21
  -1  -2  -6  327.77   19.43
   1   2   6  318.74   18.84
  -1  -2  -7  257.55   18.73
   1   2   7  272.50   19.03
  -1  -2  -8  103.86   15.36
   1   2   8  104.78   15.18
  -1  -2  -9   10.01    7.80
   1   2   9   12.31    7.12
  -1  -2 -10   26.17   10.23
   1   2  10   44.93   12.45
  -1  -2 -11   11.72    8.54
   1   2  11    5.69    7.34
  -1  -2 -12   10.80    9.28
   1   2  12   15.44    9.41
  -1  -3  13    2.68    7.89
   1   3 -13    3.76    6.63
  -1  -3  12   -5.22    4.27
   1   3 -12   -5.95    3.75
   1   3 -12    1.83    5.65
  -1  -3  11   26.29    9.59
   1   3 -11   26.45    9.12
   1   3 -11   13.49    7.06
  -1  -3  10   94.62   15.68
   1   3 -10   96.94   15.00
   1   3 -10   87.68   14.50
  -1  -3   9   17.99    6.90
   1   3  -9   29.81    8.28
   1   3  -9   20.01    7.22
  -1  -3   8   82.72   12.87
   1   3  -8   94.13   11.47
   1   3  -8   85.77   12.57
  -1  -3   7   49.72   10.24
   1   3  -7   32.34    8.08
   1   3  -7   33.86    7.57
  -1  -3   6    7.09    4.44
  -1  -3   6    6.90    1.95
   1   3  -6   10.85    4.65
   1   3  -6    6.07    3.75
  -1  -3   5  479.29   20.28
  -1  -3   5  489.45   11.25
   1   3  -5  469.50   20.12
   1   3  -5  427.44   16.94
  -1  -3   4   94.23    8.93
  -1  -3   4   81.92    5.40
   1   3  -4   64.88    7.70
   1   3  -4   75.67    7.06
  -1  -3   3 2047.30   35.80
  -1  -3   3 1976.00   25.90
   1   3  -3 1889.30   35.20
   1   3  -3 1965.20   29.50
  -1  -3   2 1597.40   25.20
   1   3  -2 1675.90   30.90
   1   3  -2 1547.40   29.50
   1   3  -2 1585.10   24.70
   1   3  -1  838.84   21.01
   1   3  -1  722.71   18.59
   1   3   0 1227.60   25.60
   1   3   0 1376.80   22.90
  -1  -3  -1   34.91    5.71
   1   3   1   31.10    5.69
   1   3   1   30.72    3.65
  -1  -3  -2 1224.50   27.10
   1   3   2 1057.20   25.90
   1   3   2 1252.10   15.10
  -1  -3  -3  602.20   20.95
   1   3   3  630.56   21.45
  -1  -3  -4   40.38    7.99
   1   3   4   37.33    7.22
  -1  -3  -5  916.13   30.40
   1   3   5 1009.70   31.30
  -1  -3  -6  104.50   11.98
   1   3   6   98.81   11.49
  -1  -3  -7  314.44   21.21
   1   3   7  350.27   21.73
  -1  -3  -8  122.44   14.80
   1   3   8  163.30   16.45
  -1  -3  -9    9.29    7.51
   1   3   9   11.93    7.60
  -1  -3 -10   33.30   11.26
   1   3  10   38.94   11.82
  -1  -3 -11    2.97    7.10
   1   3  11    2.15    6.64
  -1  -3 -12    7.11    7.79
   1   3  12   -2.93    6.29
  -1  -4  13    3.86    7.88
   1   4 -13    0.24    6.32
   1   4 -13    5.29    7.47
  -1  -4  12   17.63    9.99
   1   4 -12   32.33   11.05
   1   4 -12   26.30   10.55
  -1  -4  11    1.73    5.43
   1   4 -11   17.92    7.93
   1   4 -11   -3.19    4.76
  -1  -4  10   -1.48    4.42
   1   4 -10   -5.91    3.85
   1   4 -10    3.59    4.05
  -1  -4   9   46.76   11.30
   1   4  -9   35.36    9.36
   1   4  -9   36.31    9.82
  -1  -4   8   25.72    8.21
   1   4  -8   23.26    7.85
   1   4  -8   15.92    6.53
  -1  -4   7  295.60   19.35
   1   4  -7  258.56   18.08
   1   4  -7  252.96   16.38
  -1  -4   6    9.92    5.11
   1   4  -6   13.43    5.80
   1   4  -6    6.88    4.31
  -1  -4   5  648.30   24.96
  -1  -4   5  625.55   14.08
   1   4  -5  640.06   25.18
   1   4  -5  629.32   21.76
  -1  -4   4  799.77   25.87
  -1  -4   4  751.11   17.05
   1   4  -4  737.35   25.65
   1   4  -4  747.87   22.07
  -1  -4   3  292.25   15.03
  -1  -4   3  292.71   11.78
   1   4  -3  252.35   14.42
   1   4  -3  256.87   12.35
   1   4  -2 3077.60   45.60
   1   4  -2 2936.20   44.90
   1   4  -2 2813.00   38.40
   1   4  -1  172.91   11.02
   1   4  -1  170.27   10.54
   1   4   0  315.72   14.53
   1   4   0  303.58   12.64
  -1  -4  -1 1093.70   26.30
   1   4   1 1065.60   26.70
   1   4   1 1058.90   20.90
  -1  -4  -2   14.02    4.86
   1   4   2   24.31    5.71
   1   4   2   19.33    3.40
  -1  -4  -3  644.07   10.97
  -1  -4  -3  590.23   22.40
   1   4   3  670.37   23.53
  -1  -4  -4  152.36   12.74
   1   4   4  158.94   12.52
  -1  -4  -5   90.23   13.39
   1   4   5   95.43   10.97
  -1  -4  -6  170.27   15.52
   1   4   6  221.56   17.00
  -1  -4  -7   16.91    7.53
   1   4   7   13.97    6.52
  -1  -4  -8   66.44   13.61
   1   4   8   72.49   13.56
  -1  -4  -9   30.12   10.35
   1   4   9   21.54    8.92
  -1  -4 -10   -2.33    6.06
   1   4  10    0.93    5.84
  -1  -4 -11    2.09    7.41
   1   4  11   14.88    9.42
  -1  -5  12   21.15   10.08
   1   5 -12   30.38   11.60
   1   5 -12   19.35    9.13
  -1  -5  11   62.27   14.94
   1   5 -11   66.48   14.74
   1   5 -11   64.38   13.88
  -1  -5  10   49.16   13.36
   1   5 -10   47.33   12.26
   1   5 -10   48.31   11.77
  -1  -5   9   95.62   16.96
   1   5  -9   87.42   15.03
   1   5  -9   78.52   13.56
  -1  -5   8   13.00    6.87
   1   5  -8   12.36    6.81
   1   5  -8   17.48    6.84
  -1  -5   7  142.34   14.53
   1   5  -7  103.88   15.36
   1   5  -7  110.03   11.88
  -1  -5   6  604.30   26.93
   1   5  -6  564.42   26.59
   1   5  -6  565.57   23.60
  -1  -5   5    2.11    3.59
   1   5  -5    3.06    3.58
   1   5  -5   -1.11    2.87
  -1  -5   4 1697.70   40.00
  -1  -5   4 1589.10   28.20
   1   5  -4 1648.00   41.00
   1   5  -4 1532.00   34.50
  -1  -5   3  408.52   19.00
  -1  -5   3  402.95   15.53
   1   5  -3  404.09   19.57
   1   5  -3  391.97   16.98
   1   5  -2  247.39   14.56
   1   5  -2  254.29   14.87
   1   5  -1 1000.00   27.80
   1   5  -1  987.22   26.94
   1   5   0  395.59   17.67
   1   5   0  373.81   15.75
  -1  -5  -1  151.24   11.32
   1   5   1  148.26   11.31
   1   5   1  155.34    9.57
  -1  -5  -2   84.31    9.40
   1   5   2   84.54    9.12
  -1  -5  -3   42.86    9.10
   1   5   3   35.75    7.42
  -1  -5  -4  176.28   14.53
   1   5   4  158.04   13.30
  -1  -5  -5   71.34   12.39
   1   5   5   80.57   12.25
  -1  -5  -6  159.21   15.86
   1   5   6  165.95   15.48
  -1  -5  -7   81.91   15.15
   1   5   7   95.59   15.46
  -1  -5  -8    5.05    6.11
   1   5   8    2.50    5.46
  -1  -5  -9    9.02    7.18
   1   5   9   22.79    8.70
  -1  -5 -10    5.03    7.19
   1   5  10    9.54    7.34
  -1  -5 -11   -4.49    6.72
  -1  -6  12    2.07    7.50
   1   6 -12    6.75    7.16
   1   6 -12    2.75    5.90
  -1  -6  11   43.65   13.41
   1   6 -11   33.96   11.87
   1   6 -11   15.73    8.14
  -1  -6  10   76.96   15.85
   1   6 -10   85.56   16.52
   1   6 -10   77.80   14.73
  -1  -6   9   36.00   10.84
   1   6  -9   38.82   11.28
   1   6  -9   42.72   10.84
  -1  -6   8    9.97    6.23
   1   6  -8   22.22    9.11
   1   6  -8   20.10    7.21
  -1  -6   7   12.68    6.79
   1   6  -7   20.30    7.83
   1   6  -7   23.98    7.91
  -1  -6   6   60.06   11.95
   1   6  -6   47.69   10.83
   1   6  -6   58.31   10.68
  -1  -6   5  244.20   17.57
   1   6  -5  224.43   17.50
   1   6  -5  247.56   16.25
  -1  -6   4   37.51    8.43
  -1  -6   4   47.42    7.40
   1   6  -4   27.48    7.55
   1   6  -4   25.82    6.98
  -1  -6   3  518.58   22.92
   1   6  -3  438.61   21.99
   1   6  -2  296.72   17.06
   1   6  -2  252.60   16.03
   1   6  -1   55.04    9.73
   1   6  -1   53.51    8.98
   1   6   0  250.87   15.38
   1   6   0  239.17   14.05
  -1  -6  -1    7.80    4.46
   1   6   1    4.62    3.56
   1   6   1    4.93    3.21
  -1  -6  -2   73.42    7.18
  -1  -6  -2   77.63   11.97
   1   6   2   68.89   10.55
  -1  -6  -3  263.86   17.64
   1   6   3  270.89   17.23
  -1  -6  -4   75.67   13.17
   1   6   4   84.43   12.88
  -1  -6  -5  148.32   15.44
   1   6   5  140.93   14.25
  -1  -6  -6  216.88   19.48
   1   6   6  190.55   17.11
  -1  -6  -7   22.03    9.35
   1   6   7   15.18    7.71
  -1  -6  -8   25.50   10.17
   1   6   8   31.96   10.16
  -1  -6  -9   13.25    8.92
   1   6   9   13.24    7.86
  -1  -6 -10    7.39    7.77
   1   6  10   11.25    7.93
  -1  -7  11    4.96    6.71
   1   7 -11    7.26    7.80
  -1  -7  10   30.99   11.50
   1   7 -10   24.27   10.23
   1   7 -10    1.19    5.79
  -1  -7   9   31.23   11.80
   1   7  -9   18.61    8.85
   1   7  -9   22.62    8.53
  -1  -7   8   -0.58    4.70
   1   7  -8    0.76    5.38
   1   7  -8    3.42    4.45
  -1  -7   7   99.92   17.18
   1   7  -7   60.27   13.06
   1   7  -7   65.83   12.45
  -1  -7   6   46.24   11.06
   1   7  -6   41.30   10.54
   1   7  -6   57.07   10.79
  -1  -7   5    7.49    5.22
   1   7  -5    1.99    5.12
   1   7  -5    2.86    4.39
  -1  -7   4  599.61   27.26
   1   7  -4  593.72   28.52
   1   7  -4  542.96   24.59
  -1  -7   3   84.69   12.94
   1   7  -3  100.53   12.19
   1   7  -2  450.80   22.52
   1   7  -2  417.58   22.24
   1   7  -1  480.77   22.76
   1   7  -1  453.69   21.93
   1   7   0   31.81    8.04
   1   7   0   27.55    6.88
  -1  -7  -1  261.35   17.73
   1   7   1  280.96   17.77
   1   7   1  285.00   15.91
  -1  -7  -2  128.62   13.59
   1   7   2  168.92   14.49
  -1  -7  -3   13.74    6.41
   1   7   3   14.67    6.60
  -1  -7  -4  188.99   17.59
   1   7   4  223.26   17.50
  -1  -7  -5   17.11    7.99
   1   7   5   27.16    8.56
  -1  -7  -6   96.71   16.53
   1   7   6  110.08   16.60
  -1  -7  -7   14.68    8.88
   1   7   7   18.80    8.49
  -1  -7  -8    3.15    7.20
   1   7   8    6.89    7.02
  -1  -7  -9   17.42    9.45
   1   7   9   25.03    9.87
  -1  -8  10    6.29    8.09
   1   8 -10   30.30   12.02
  -1  -8   9   14.37    8.58
   1   8  -9    6.75    7.42
  -1  -8   8   23.81    9.70
   1   8  -8   44.91   12.86
   1   8  -8   34.03   10.40
  -1  -8   7   17.44    8.58
   1   8  -7   14.12    7.81
   1   8  -7    9.56    6.68
  -1  -8   6  197.37   18.79
   1   8  -6  147.80   17.25
   1   8  -6  172.28   16.47
  -1  -8   5  133.73   15.19
   1   8  -5  108.86   17.00
   1   8  -5  128.67   14.27
  -1  -8   4   29.75    8.90
   1   8  -4   15.91    7.56
  -1  -8   3  400.21   23.01
   1   8  -3  356.55   23.09
   1   8  -2   83.89   13.26
   1   8  -2   58.41   11.73
   1   8  -1  170.31   15.19
   1   8  -1  167.41   14.98
   1   8   0  197.45   16.18
   1   8   0  179.29   14.91
  -1  -8  -1   78.33   13.47
   1   8   1   79.74   12.86
  -1  -8  -2  104.59   15.75
   1   8   2  100.98   12.35
  -1  -8  -3   10.70    6.46
   1   8   3    4.81    5.46
  -1  -8  -4   58.01   13.47
   1   8   4   64.50   12.47
  -1  -8  -5   59.65   14.41
   1   8   5   74.91   13.89
  -1  -8  -6    1.97    5.87
   1   8   6   -0.10    5.85
  -1  -8  -7   53.27   13.34
  -1  -8  -8   19.27    9.66
  -1  -9   9   -4.00    5.10
   1   9  -9    1.77    6.38
  -1  -9   8   25.68   10.10
   1   9  -8   12.02    9.43
  -1  -9   7   12.74    8.37
   1   9  -7   12.78    8.56
  -1  -9   6   16.20    8.11
   1   9  -6   -0.63    5.49
   1   9  -6    7.16    6.10
  -1  -9   5  237.48   20.69
   1   9  -5  243.72   22.80
  -1  -9   4    1.43    5.01
   1   9  -4    7.01    6.74
  -1  -9   3  272.62   20.88
   1   9  -3  244.98   20.83
   1   9  -2  123.31   14.78
   1   9  -1   48.53   10.84
   1   9  -1   46.75   10.82
  -1  -9   0   99.14   15.68
   1   9   0   83.56   13.67
  -1  -9  -1   31.94   10.02
   1   9   1   34.58    9.14
  -1  -9  -2   71.73   14.32
   1   9   2   78.47   14.63
  -1  -9  -3   50.58   12.32
  -1  -9  -4    4.88    6.44
  -1  -9  -5   25.80   10.18
  -1  -9  -6   25.73   11.13
  -1  -9  -7    0.10    6.30
  -1 -10   7   25.16   10.95
   1  10  -7   26.17   11.88
  -1 -10   6   -1.13    5.23
   1  10  -6    6.77    7.99
  -1 -10   5   -0.13    5.31
   1  10  -5    3.05    6.01
  -1 -10   4  147.80   17.10
   1  10  -4  119.60   19.42
  -1 -10   3   38.33   11.58
   1  10  -3   55.17   13.21
   1  10  -2   89.24   16.07
  -1 -10   0   30.37   10.55
  -1 -10  -1   16.12    8.38
  -1 -10  -2   33.23   11.46
  -1 -10  -3   -4.26    5.23
  -1 -10  -4   30.92   11.46
  -1 -10  -5   32.17   10.26
   1  11  -4   13.84    8.90
  -1 -11   1    0.21    8.10
  -1 -11   0   31.51   10.48
  -1 -11  -1    8.69    7.13
  -1 -11  -2    5.87    7.35
   2 -11  -5   64.49   16.90
   2 -11  -4   -1.15    5.74
   2 -11  -3   43.22   12.66
   2 -11  -1    7.28    6.36
   2 -11   0   59.45   14.04
   2 -11   1    8.62    7.38
   2 -11   2   23.58   10.26
   2 -11   3   61.53   16.04
   2 -11   4   -2.78    6.26
  -2  10   7   19.23   10.78
   2 -10  -7   19.62   10.75
  -2  10   6   50.62   14.32
   2 -10  -6   50.67   13.86
  -2  10   5   45.26   13.28
   2 -10  -5   18.88    8.86
  -2  10   4   46.55   12.76
   2 -10  -4   27.73   10.18
  -2  10   3    1.94    5.61
   2 -10  -3   -1.20    3.97
  -2  10   2   37.51   11.36
   2 -10  -2   30.21    9.26
  -2  10   1   58.75   12.95
   2 -10  -1   59.78   13.17
   2 -10   0   23.86    9.30
   2 -10   1   68.92   14.45
   2 -10   2   70.93   15.12
   2 -10   3   -1.32    4.96
  -2  10  -4   54.41   14.04
   2 -10   4   64.69   16.51
  -2  10  -5    0.49    5.51
   2 -10   5   12.81    8.71
  -2  10  -6    5.32    7.74
   2 -10   6    6.43    7.89
  -2   9   8    9.27    7.46
   2  -9  -8   26.67   10.86
  -2   9   7    6.09    7.52
   2  -9  -7    4.36    7.03
  -2   9   6   32.37   10.82
   2  -9  -6   18.12    8.97
  -2   9   5  179.80   19.87
   2  -9  -5  174.66   19.09
  -2   9   4    2.71    5.59
   2  -9  -4   -3.44    3.79
  -2   9   3   77.81   15.53
   2  -9  -3   76.71   12.98
  -2   9   2  107.28   17.37
   2  -9  -2   98.58   15.57
  -2   9   1    4.50    5.98
   2  -9  -1    8.18    6.26
  -2   9   0  171.23   15.98
   2  -9   0  148.74   16.35
   2  -9   1  129.77   15.47
   2  -9   2  176.78   18.36
  -2   9  -3   69.40   14.53
   2  -9   3   79.89   15.03
  -2   9  -4   -2.23    4.61
   2  -9   4    7.52    6.97
   2  -9   5  157.91   18.91
  -2   9  -6   -0.27    5.34
   2  -9   6   -4.56    4.77
  -2   9  -7   19.19    9.70
   2  -9   7   41.33   12.46
   2  -9   8   19.29    9.64
  -2   8  10    4.05    8.04
   2  -8 -10    8.94    7.15
  -2   8   9   10.63    8.54
   2  -8  -9    8.18    8.07
  -2   8   8   10.55    8.52
   2  -8  -8   13.93    8.30
  -2   8   7  181.80   19.68
   2  -8  -7  179.13   19.41
  -2   8   6    8.12    7.07
   2  -8  -6    5.66    6.17
  -2   8   5  127.02   15.49
   2  -8  -5   69.00   13.49
  -2   8   4  161.91   16.71
   2  -8  -4  142.80   13.64
   2  -8  -4  134.06   15.46
  -2   8   3    9.41    5.81
   2  -8  -3    9.32    5.45
  -2   8   2  331.42   21.40
   2  -8  -2  305.49   19.73
  -2   8   1   40.63   10.08
   2  -8  -1   19.93    7.53
  -2   8   0  155.93   14.11
   2  -8   0  160.59   15.43
  -2   8  -1  204.12   15.16
   2  -8   1  208.32   17.81
  -2   8  -2   14.69    6.98
   2  -8   2   15.87    7.32
  -2   8  -3  240.82   20.38
   2  -8   3  260.82   20.85
  -2   8  -4    7.97    5.95
   2  -8   4   27.73    9.86
  -2   8  -5   52.34   12.42
   2  -8   5   62.71   13.79
  -2   8  -6   60.54   13.39
   2  -8   6   83.69   15.50
  -2   8  -7    3.58    6.13
   2  -8   7    5.19    6.53
   2  -8   7   -1.50    4.37
  -2   8  -8   21.75    9.48
   2  -8   8   23.83    9.94
   2  -8   8   20.60    9.98
  -2   8  -9    2.54    7.10
   2  -8   9   12.26    8.99
   2  -8   9    5.34    7.36
  -2   7  11   14.68    9.73
   2  -7 -11    9.11    9.33
  -2   7  10    1.42    6.32
   2  -7 -10   -0.53    5.83
  -2   7   9   72.72   16.16
   2  -7  -9   45.06   12.20
  -2   7   8   65.93   14.70
   2  -7  -8   50.28   12.83
  -2   7   7   68.86   14.36
   2  -7  -7   62.88   13.82
   2  -7  -6  398.86   25.52
  -2   7   5    8.74    5.65
   2  -7  -5    6.65    4.85
   2  -7  -5    3.32    4.69
  -2   7   4  290.00   20.33
   2  -7  -4  277.87   17.03
   2  -7  -4  291.40   20.66
  -2   7   3   15.21    6.39
   2  -7  -3   17.12    5.98
  -2   7   2  162.89   14.46
   2  -7  -2  149.01   13.29
  -2   7   1  449.59   22.13
   2  -7  -1  433.57   22.22
  -2   7   0   70.80   10.87
   2  -7   0   71.47   11.59
  -2   7  -1  175.75   15.56
  -2   7  -1  200.49   13.65
   2  -7   1  195.70   16.05
  -2   7  -2  308.84   20.52
  -2   7  -2  341.25   16.52
   2  -7   2  342.87   21.52
  -2   7  -3   44.94    9.70
   2  -7   3   64.58    9.89
   2  -7   3   39.95    9.93
   2  -7   4  257.48   16.76
   2  -7   4  247.65   19.69
  -2   7  -5   20.19    8.25
   2  -7   5   27.45    7.91
   2  -7   5   20.86    8.15
  -2   7  -6   38.44   11.02
   2  -7   6   39.03    9.82
   2  -7   6   32.38   10.09
  -2   7  -7   45.03   11.96
   2  -7   7   65.40   13.18
   2  -7   7   73.34   14.93
  -2   7  -8    4.61    6.53
   2  -7   8   25.10    9.75
   2  -7   8    8.70    7.04
  -2   7  -9    7.89    6.94
   2  -7   9   14.80    8.06
   2  -7   9    6.29    6.55
   2  -7  10   12.26    8.39
   2  -7  10   14.36    8.51
  -2   6  11   15.31    9.77
   2  -6 -11    9.09    7.53
  -2   6  10   16.58    9.45
   2  -6 -10    6.82    6.53
  -2   6   9   35.11   11.08
   2  -6  -9   21.45    8.85
  -2   6   8   19.50    7.97
   2  -6  -8   20.43    8.21
  -2   6   7  136.20   15.22
   2  -6  -7  113.77   17.63
  -2   6   6  178.93   16.56
   2  -6  -6  156.93   15.62
  -2   6   5  438.99   24.19
   2  -6  -5  434.43   19.25
   2  -6  -5  395.05   22.79
  -2   6   4   49.89   10.40
   2  -6  -4   42.25    8.02
   2  -6  -4   40.40    9.03
  -2   6   3   14.69    6.04
   2  -6  -3   17.71    5.57
  -2   6   2   71.25   10.96
   2  -6  -2   65.76   10.15
  -2   6   1   26.93    7.02
   2  -6  -1   31.07    7.54
  -2   6   0  271.80   15.26
   2  -6   0  283.55   10.69
   2  -6   0  267.45   16.73
  -2   6  -1  474.48   23.07
  -2   6  -1  525.67   19.83
   2  -6   1  533.01   16.49
   2  -6   1  515.48   23.62
  -2   6  -2    2.84    3.60
  -2   6  -2    1.05    2.87
   2  -6   2    2.70    2.98
   2  -6   2    0.01    3.28
  -2   6  -3  413.17   22.68
   2  -6   3  500.59   19.97
   2  -6   3  431.16   23.16
  -2   6  -4   59.60   11.88
   2  -6   4   37.85    7.93
   2  -6   4   46.23   10.19
  -2   6  -5  234.88   18.83
   2  -6   5  244.39   16.91
   2  -6   5  215.50   17.92
  -2   6  -6   35.17   10.12
   2  -6   6   65.88   11.94
   2  -6   6   47.63   11.14
  -2   6  -7   -0.66    3.92
   2  -6   7   -0.57    4.17
   2  -6   7   -0.45    4.28
  -2   6  -8   40.71   11.39
   2  -6   8   47.88   11.41
   2  -6   8   46.18   11.80
  -2   6  -9   35.49   10.95
   2  -6   9   43.88   12.79
   2  -6   9   29.29   10.45
  -2   6 -10   -6.17    4.48
   2  -6  10    4.86    6.36
   2  -6  10   -0.47    5.25
  -2   5  12    6.68    7.20
   2  -5 -12    6.09    7.70
  -2   5  11    6.34    6.61
   2  -5 -11   -3.10    4.15
  -2   5  10   44.37   12.20
   2  -5 -10   26.82    9.98
  -2   5   9   10.64    6.78
   2  -5  -9   11.61    7.24
  -2   5   8   27.28    8.41
   2  -5  -8   21.49    8.61
  -2   5   7  333.91   17.52
  -2   5   7  309.60   20.92
   2  -5  -7  308.80   20.78
  -2   5   6  355.92   15.53
  -2   5   6  372.92   21.86
   2  -5  -6  342.51   16.27
   2  -5  -6  329.33   20.47
  -2   5   5    7.63    3.06
  -2   5   5   12.36    6.16
   2  -5  -5   10.15    4.26
   2  -5  -5   12.83    5.64
  -2   5   4  899.38   30.50
   2  -5  -4  864.42   25.35
   2  -5  -4  779.52   28.30
  -2   5   3   58.05    9.63
   2  -5  -3   57.79    8.59
  -2   5   2   35.89    7.57
   2  -5  -2   42.18    7.31
  -2   5   1  562.97   20.95
   2  -5  -1  565.73   10.52
   2  -5  -1  526.99   20.91
  -2   5   0  227.97   14.74
  -2   5   0  250.49   13.45
   2  -5   0  273.64    9.23
   2  -5   0  256.20   15.20
  -2   5  -1 1106.00   32.20
  -2   5  -1 1263.30   27.60
   2  -5   1 1273.30   23.40
   2  -5   1 1221.90   33.50
  -2   5  -2  480.24   22.03
  -2   5  -2  573.44   17.45
   2  -5   2  564.85   18.10
   2  -5   2  547.17   23.35
  -2   5  -3  123.85   12.13
  -2   5  -3  132.35    8.06
   2  -5   3  135.71   10.37
   2  -5   3  135.87   12.58
   2  -5   4  494.90   21.08
   2  -5   4  467.23   23.43
  -2   5  -5    9.77    5.32
   2  -5   5    1.90    3.33
   2  -5   5   13.77    6.27
  -2   5  -6  306.68   21.35
   2  -5   6  359.82   21.29
   2  -5   6  360.83   22.39
  -2   5  -7   29.40    9.05
   2  -5   7   39.99   10.08
   2  -5   7   35.57   10.00
  -2   5  -8    3.95    4.77
   2  -5   8   -1.36    4.57
   2  -5   8    1.78    4.83
  -2   5  -9   37.82   11.31
   2  -5   9   47.14   12.33
   2  -5   9   53.56   12.85
  -2   5 -10    4.05    5.24
   2  -5  10    2.57    6.33
   2  -5  10    1.87    5.98
  -2   5 -11    6.59    7.38
   2  -5  11   -5.18    5.34
   2  -4 -13    4.07    7.26
  -2   4  12   -0.01    5.56
   2  -4 -12    5.96    6.26
  -2   4  11   59.44   12.58
  -2   4  11   56.24   13.16
   2  -4 -11   37.60   11.44
  -2   4  10    9.79    6.62
  -2   4  10    7.96    5.87
   2  -4 -10   11.03    7.29
  -2   4   9   82.15   12.56
  -2   4   9   96.94   15.54
   2  -4  -9   70.43   14.02
  -2   4   8  222.36   15.26
  -2   4   8  207.15   17.22
   2  -4  -8  184.93   16.44
  -2   4   7   84.82    9.19
  -2   4   7   70.34   12.04
   2  -4  -7   73.55    8.20
   2  -4  -7   71.01   11.90
  -2   4   6  753.93   22.05
  -2   4   6  709.67   27.84
   2  -4  -6  740.84   22.58
   2  -4  -6  681.98   27.16
  -2   4   5  736.60   18.88
  -2   4   5  691.80   26.21
   2  -4  -5  653.02   20.92
   2  -4  -5  655.85   25.17
  -2   4   4   98.93    6.08
  -2   4   4   86.92    9.56
   2  -4  -4   88.84    8.43
   2  -4  -4  102.13    9.97
  -2   4   3  575.73   21.70
   2  -4  -3  546.33   19.13
  -2   4   2   76.85    8.18
   2  -4  -2   70.11    7.66
  -2   4   1  701.08   21.40
   2  -4  -1  730.65   22.69
  -2   4   0 1355.50   31.80
  -2   4   0 1409.00   28.40
   2  -4   0 1483.30   18.50
   2  -4   0 1453.30   32.60
  -2   4  -1  120.96   10.35
  -2   4  -1  152.49    9.17
   2  -4   1  161.51    8.10
   2  -4   1  150.26   11.33
  -2   4  -2  614.22   23.13
  -2   4  -2  666.34   17.12
   2  -4   2  650.75   18.57
   2  -4   2  661.59   23.64
  -2   4  -3  224.65   15.00
  -2   4  -3  240.42    9.67
   2  -4   3  254.06   13.44
   2  -4   3  249.43   15.46
  -2   4  -4  430.42   21.54
   2  -4   4  485.86   20.35
   2  -4   4  502.97   22.51
  -2   4  -5  340.93   20.35
   2  -4   5  401.40   20.32
   2  -4   5  398.59   21.04
  -2   4  -6   23.21    7.29
   2  -4   6   32.05    8.44
   2  -4   6   29.26    7.77
  -2   4  -7  109.15   13.58
   2  -4   7  115.45   13.29
   2  -4   7  143.31   14.24
  -2   4  -8   37.82   10.61
   2  -4   8   22.99    8.77
   2  -4   8   42.82   10.24
  -2   4  -9   -2.30    4.85
   2  -4   9   -3.08    4.22
   2  -4   9    2.85    4.91
  -2   4 -10   15.46    8.55
   2  -4  10   15.95    8.18
  -2   4 -11    2.06    6.34
   2  -4  11   -1.16    6.67
  -2   3  13    7.94    7.54
   2  -3 -13    8.35    7.56
  -2   3  12   23.30    9.01
   2  -3 -12   28.56    9.90
  -2   3  11    0.22    4.41
  -2   3  11   -4.94    3.38
   2  -3 -11   -2.36    4.70
  -2   3  10  173.55   16.26
  -2   3  10  194.62   17.31
   2  -3 -10  160.04   16.89
  -2   3   9    8.06    5.01
  -2   3   9   -0.52    3.72
   2  -3  -9   -1.96    4.00
  -2   3   8  137.60   12.29
  -2   3   8  143.49   13.82
   2  -3  -8  147.28   11.45
   2  -3  -8  131.75   13.38
  -2   3   7  931.24   27.41
  -2   3   7  915.62   30.97
   2  -3  -7  895.46   25.28
   2  -3  -7  826.43   29.81
  -2   3   6   69.41    7.45
  -2   3   6   75.24    9.24
   2  -3  -6   70.24    7.49
   2  -3  -6   87.06   12.22
  -2   3   5 2873.60   37.20
  -2   3   5 2839.40   48.90
   2  -3  -5 2647.80   40.20
   2  -3  -5 2599.50   45.70
  -2   3   4   72.46    5.49
  -2   3   4   76.42    8.44
   2  -3  -4   72.24    7.26
   2  -3  -4   74.15    7.94
  -2   3   3  415.14    8.84
  -2   3   3  419.81   17.18
   2  -3  -3  386.30   15.19
  -2   3   2  276.17   13.42
   2  -3  -2  269.99   12.73
  -2   3   1    2.24    2.71
   2  -3  -1    0.40    2.61
  -2   3   0 3855.50   48.30
  -2   3   0 4221.40   44.70
   2  -3   0 4356.50   29.60
   2  -3   0 4185.10   50.30
  -2   3  -1 1251.10   28.50
  -2   3  -1 1359.60   24.10
   2  -3   1 1342.30   21.80
   2  -3   1 1373.40   29.90
  -2   3  -2    7.04    3.75
  -2   3  -2    7.28    2.77
   2  -3   2    8.24    3.05
   2  -3   2    2.09    2.91
  -2   3  -3  521.19   21.03
  -2   3  -3  571.21   14.20
   2  -3   3  592.05   19.78
   2  -3   3  583.28   21.29
  -2   3  -4   22.00    6.43
  -2   3  -4   26.12    3.97
   2  -3   4   27.31    6.43
   2  -3   4   28.82    6.51
  -2   3  -5  103.01   11.42
   2  -3   5  113.53   11.28
   2  -3   5  131.88   11.74
  -2   3  -6  149.24   14.16
   2  -3   6  172.20   14.69
   2  -3   6  189.19   14.32
  -2   3  -7    1.37    4.24
   2  -3   7    1.96    4.63
   2  -3   7    6.73    4.46
  -2   3  -8   58.26   12.65
   2  -3   8   51.61   11.26
   2  -3   8   56.17   10.82
  -2   3  -9   19.31    8.37
   2  -3   9   14.20    8.10
   2  -3   9   21.06    7.50
  -2   3 -10    5.96    7.06
   2  -3  10    1.05    5.11
  -2   3 -11   12.89    8.02
   2  -3  11   11.39    8.32
  -2   2  13    5.62    6.56
   2  -2 -13    1.57    5.74
  -2   2  12   31.67   10.64
   2  -2 -12   24.98    9.49
  -2   2  11    0.73    5.09
  -2   2  11    0.08    3.83
   2  -2 -11    6.36    6.56
  -2   2  10    9.20    5.82
  -2   2  10    9.00    5.57
   2  -2 -10    0.36    4.29
  -2   2   9  179.23   15.00
  -2   2   9  212.08   16.02
   2  -2  -9  206.24   14.04
   2  -2  -9  187.26   16.20
  -2   2   8   14.68    5.77
  -2   2   8   21.64    6.74
   2  -2  -8   26.00    6.43
   2  -2  -8   20.55    7.08
  -2   2   7  171.27   12.44
  -2   2   7  169.88   12.99
   2  -2  -7  149.01   10.89
   2  -2  -7  143.72   12.36
  -2   2   6 1017.00   26.00
  -2   2   6 1023.30   28.90
   2  -2  -6  987.72   25.51
   2  -2  -6  962.39   28.03
  -2   2   5  128.38    8.61
  -2   2   5  128.18   10.15
   2  -2  -5  116.10    8.84
   2  -2  -5  100.36    9.01
  -2   2   4 1475.80   23.30
  -2   2   4 1382.20   30.10
   2  -2  -4 1337.90   27.20
   2  -2  -4 1298.10   27.30
  -2   2   3   42.43    3.76
  -2   2   3   41.06    6.76
   2  -2  -3   46.84    5.74
   2  -2  -3   43.42    6.31
  -2   2   2   18.60    4.65
   2  -2  -2   26.32    5.12
  -2   2   1 1710.20   26.90
  -2   2   1 1868.70   29.40
   2  -2  -1 1886.60   30.40
  -2   2   0 5538.30   50.10
  -2   2   0 5649.40   48.30
   2  -2   0 6050.60   37.10
   2  -2   0 5741.50   53.50
  -2   2  -1 1090.20   24.20
  -2   2  -1 1403.30   23.40
   2  -2   1 1430.00   22.80
   2  -2   1 1392.40   27.30
  -2   2  -2  557.92   19.03
  -2   2  -2  733.95   16.72
   2  -2   2  751.52   19.55
   2  -2   2  775.91   21.31
  -2   2  -3   67.68    9.43
  -2   2  -3   82.24    6.16
   2  -2   3   92.97    8.48
   2  -2   3   75.04    7.74
  -2   2  -4  228.58   14.60
  -2   2  -4  237.53   10.00
   2  -2   4  233.72   14.16
   2  -2   4  238.54   13.26
  -2   2  -5   63.43   10.26
  -2   2  -5   67.65    6.04
   2  -2   5   79.72   11.61
   2  -2   5   78.63    8.55
  -2   2  -6   64.03   10.99
   2  -2   6   75.39   11.72
   2  -2   6   89.80    9.50
  -2   2  -7  161.51   15.82
   2  -2   7  165.67   15.52
   2  -2   7  192.48   13.95
  -2   2  -8    3.80    5.23
   2  -2   8    6.99    5.90
   2  -2   8    9.96    5.23
  -2   2  -9    4.47    5.91
   2  -2   9   23.01    8.80
  -2   2 -10   55.11   13.06
   2  -2  10   79.72   15.48
  -2   2 -11   -2.41    5.22
   2  -2  11    7.39    7.35
  -2   1  13    7.47    7.51
   2  -1 -13   19.80    9.28
  -2   1  12    7.39    7.01
   2  -1 -12    0.54    5.17
  -2   1  11   30.11    9.56
   2  -1 -11   24.41    9.14
  -2   1  10    0.31    4.32
  -2   1  10   -0.74    3.42
   2  -1 -10    1.98    3.65
   2  -1 -10   -1.28    3.66
  -2   1   9    8.53    5.22
  -2   1   9    4.21    4.18
   2  -1  -9    6.53    4.23
   2  -1  -9    3.23    4.18
  -2   1   8  263.82   16.95
  -2   1   8  266.25   15.70
   2  -1  -8  260.06   15.30
   2  -1  -8  233.28   16.08
  -2   1   7  147.49   11.86
  -2   1   7  137.76   10.94
   2  -1  -7  148.42   11.26
   2  -1  -7  132.46   11.38
  -2   1   6   12.47    4.38
  -2   1   6    4.62    3.30
   2  -1  -6    5.14    3.30
   2  -1  -6    2.77    3.11
  -2   1   5 1256.70   26.50
  -2   1   5 1177.90   27.20
   2  -1  -5 1143.80   26.50
   2  -1  -5 1107.20   25.30
  -2   1   4   29.69    4.97
  -2   1   4   32.04    5.77
   2  -1  -4   23.32    4.67
   2  -1  -4   27.82    4.97
  -2   1   3   67.87    5.25
  -2   1   3   59.26    6.22
   2  -1  -3   53.57    6.08
   2  -1  -3   57.48    5.11
  -2   1   2   16.39    4.07
   2  -1  -2   18.30    3.03
   2  -1  -2   15.61    4.11
  -2   1   1  361.49   10.29
  -2   1   1  395.67   13.19
   2  -1  -1  411.49    9.86
   2  -1  -1  371.52   12.90
  -2   1   0  620.69   14.61
  -2   1   0  681.40   16.75
   2  -1   0  736.90   14.91
   2  -1   0  715.43   17.45
  -2   1  -1  717.02   17.82
  -2   1  -1  747.05   17.45
   2  -1   1  729.70   17.34
   2  -1   1  770.96   18.30
  -2   1  -2 1206.40   25.90
  -2   1  -2 1245.20   22.80
   2  -1   2 1285.20   24.30
  -2   1  -3 1542.00   32.60
  -2   1  -3 1683.60   27.40
   2  -1   3 1645.90   33.10
   2  -1   3 1754.30   29.60
  -2   1  -4   95.18    9.77
  -2   1  -4  102.32    7.67
   2  -1   4  114.46   10.37
   2  -1   4  127.55    8.93
  -2   1  -5  862.72   29.21
  -2   1  -5  924.22   22.54
   2  -1   5  943.05   30.34
   2  -1   5  961.50   24.55
  -2   1  -6   85.23   13.38
  -2   1  -6   68.09    7.27
   2  -1   6   89.25   13.12
   2  -1   6   69.69    7.70
  -2   1  -7   57.45   11.30
   2  -1   7   78.43   13.16
   2  -1   7   77.58    8.69
  -2   1  -8  175.98   17.48
   2  -1   8  211.58   18.68
  -2   1  -9   -1.20    4.15
   2  -1   9   -1.43    4.75
  -2   1 -10   -0.37    5.76
   2  -1  10   -2.28    4.50
  -2   1 -11   33.39   10.87
   2  -1  11   23.84   10.29
  -2   1 -12   -3.99    5.99
   2  -1  12    4.17    7.07
  -2   0  14    8.37    8.25
   2   0 -14   -2.65    5.70
  -2   0  13    2.90    6.87
   2   0 -13    1.21    5.72
  -2   0  12   43.98   12.23
   2   0 -12   28.48    9.85
  -2   0  11    4.88    5.63
   2   0 -11    1.25    4.06
   2   0 -11    5.70    5.50
  -2   0  10   42.17   10.60
   2   0 -10   61.77   11.20
   2   0 -10   42.35    9.92
  -2   0   9    7.08    5.27
  -2   0   9   22.25    6.13
   2   0  -9   16.57    6.31
   2   0  -9   15.56    6.54
  -2   0   8   26.28    7.37
  -2   0   8   44.39    7.82
   2   0  -8   38.17    7.91
   2   0  -8   31.32    7.74
  -2   0   7  895.95   28.52
  -2   0   7  897.17   24.66
   2   0  -7  860.79   26.86
   2   0  -7  794.99   25.28
  -2   0   6  715.91   23.41
  -2   0   6  745.31   21.41
   2   0  -6  715.24   23.15
   2   0  -6  697.43   21.38
  -2   0   5 2100.40   36.20
  -2   0   5 1944.40   32.50
   2   0  -5 2012.40   36.20
   2   0  -5 1879.00   30.60
  -2   0   4 2760.40   37.40
  -2   0   4 2661.50   36.10
   2   0  -4 2428.10   29.50
  -2   0   3   97.59    6.98
  -2   0   3   89.20    7.04
   2   0  -3   82.57    7.16
   2   0  -3   79.77    4.78
  -2   0   2 1107.60   21.90
   2   0  -2 1065.90   19.70
   2   0  -2 1015.80   21.30
   2   0  -2 1060.80   12.10
  -2   0   1 1265.30   13.70
  -2   0   1 1191.40   22.40
   2   0  -1 1290.70   21.00
   2   0  -1 1168.10   21.50
  -2   0   0 1724.20   20.90
  -2   0   0 1745.80   27.40
   2   0   0 1268.60   22.50
   2   0   0 1736.10   24.90
  -2   0  -1 5026.70   43.50
  -2   0  -1 5504.90   49.80
   2   0   1 5353.00   50.00
   2   0   1 5436.60   43.10
  -2   0  -2 1757.60   30.20
  -2   0  -2 1850.50   30.20
   2   0   2 1644.10   31.00
   2   0   2 1896.50   25.80
  -2   0  -3 1215.60   28.50
  -2   0  -3 1319.20   26.90
   2   0   3 1326.60   30.70
   2   0   3 1410.90   23.10
  -2   0  -4  448.19   19.37
  -2   0  -4  472.73   17.09
   2   0   4  488.60   20.59
   2   0   4  502.08   14.71
  -2   0  -5   15.31    6.00
  -2   0  -5   12.18    4.35
   2   0   5   18.97    6.22
   2   0   5   21.10    4.42
  -2   0  -6  231.13   16.88
  -2   0  -6  241.79   13.89
   2   0   6  243.79   17.42
   2   0   6  249.38   11.96
  -2   0  -7   85.64   13.95
  -2   0  -7   95.17    9.76
   2   0   7   99.66   15.01
  -2   0  -8   52.03   11.40
   2   0   8   52.28   11.39
  -2   0  -9   19.85    8.87
   2   0   9    2.48    4.91
  -2   0 -10    9.31    7.41
   2   0  10    4.37    6.81
  -2   0 -11   -0.24    5.36
   2   0  11   10.99    9.16
  -2  -1  13   12.97    9.07
   2   1 -13    9.86    7.50
  -2  -1  12   25.55   10.46
   2   1 -12   12.96    7.36
   2   1 -12   26.30    9.52
  -2  -1  11   91.04   15.63
   2   1 -11  114.92   16.61
   2   1 -11   66.90   13.34
  -2  -1  10    5.33    5.67
   2   1 -10    1.50    4.44
   2   1 -10    5.77    5.30
  -2  -1   9  448.39   24.37
   2   1  -9  443.54   22.86
   2   1  -9  416.88   21.95
  -2  -1   8  415.83   21.95
  -2  -1   8  369.36   15.70
   2   1  -8  397.69   20.59
   2   1  -8  342.63   18.26
  -2  -1   7  359.44   19.04
  -2  -1   7  357.37   14.70
   2   1  -7  342.96   17.99
   2   1  -7  297.59   15.50
  -2  -1   6 1852.50   39.20
  -2  -1   6 1788.60   30.90
   2   1  -6 1730.50   37.50
   2   1  -6 1607.80   31.30
  -2  -1   5 1425.00   31.70
  -2  -1   5 1335.80   25.70
   2   1  -5 1293.40   30.50
   2   1  -5 1172.70   23.20
  -2  -1   4 2714.60   40.20
  -2  -1   4 2620.70   34.70
   2   1  -4 2547.70   40.00
   2   1  -4 2291.10   26.60
  -2  -1   3 1666.00   27.30
   2   1  -3 1786.40   30.40
   2   1  -3 1632.50   30.00
   2   1  -3 1589.90   16.20
  -2  -1   2   20.08    4.55
   2   1  -2   21.68    4.47
   2   1  -2   21.29    4.62
  -2  -1   1   33.26    5.27
   2   1  -1   39.59    5.79
   2   1  -1   36.56    5.26
  -2  -1   0  452.31   10.56
  -2  -1   0  464.47   15.46
   2   1   0  454.32   15.29
   2   1   0  457.52   12.73
  -2  -1  -1  278.63   10.59
  -2  -1  -1  315.20   13.39
   2   1   1  294.57   13.10
   2   1   1  290.13    9.50
  -2  -1  -2 1366.80   26.80
  -2  -1  -2 1410.30   29.10
   2   1   2 1182.00   28.00
   2   1   2 1386.70   19.30
  -2  -1  -3   14.46    4.53
  -2  -1  -3   10.11    3.89
   2   1   3    6.25    4.12
   2   1   3    8.83    2.45
  -2  -1  -4   73.14   10.33
   2   1   4   69.07    9.96
   2   1   4   66.30    4.81
  -2  -1  -5   89.14   12.51
   2   1   5   72.29   10.90
   2   1   5   77.64    5.46
  -2  -1  -6   29.73    7.85
   2   1   6   48.56   10.08
  -2  -1  -7  100.48   15.09
   2   1   7   91.51   14.46
  -2  -1  -8    8.73    6.86
   2   1   8   17.72    7.70
  -2  -1  -9    8.72    6.52
   2   1   9   11.20    7.42
  -2  -1 -10   19.77    9.58
   2   1  10   15.13    8.77
  -2  -1 -11   -1.01    6.40
   2   1  11    1.79    6.32
  -2  -2  13   20.87    9.60
   2   2 -13    9.98    7.28
  -2  -2  12   36.51   11.44
   2   2 -12   39.26   11.39
   2   2 -12   34.37   10.10
  -2  -2  11   22.31    9.17
   2   2 -11   18.85    7.80
   2   2 -11   11.08    7.16
  -2  -2  10   29.52    9.34
   2   2 -10   26.45    8.30
   2   2 -10   34.88    9.44
  -2  -2   9   35.95    9.59
   2   2  -9   40.01    9.51
   2   2  -9   30.98    8.07
  -2  -2   8  195.24   15.92
   2   2  -8  205.61   15.70
   2   2  -8  203.06   14.19
  -2  -2   7  770.32   28.57
  -2  -2   7  796.05   20.34
   2   2  -7  727.23   27.27
   2   2  -7  681.77   22.84
  -2  -2   6   20.11    5.92
  -2  -2   6   15.65    4.03
   2   2  -6   16.86    5.94
   2   2  -6   14.66    4.28
  -2  -2   5  335.51   16.75
  -2  -2   5  326.91   12.79
   2   2  -5  332.25   16.64
   2   2  -5  312.69   12.23
  -2  -2   4  155.69   10.96
  -2  -2   4  159.21    9.18
   2   2  -4  163.09   11.36
   2   2  -4  155.17    7.41
  -2  -2   3   77.51    6.88
   2   2  -3   73.81    7.53
   2   2  -3   84.54    7.96
   2   2  -3   80.93    4.45
  -2  -2   2    1.85    2.47
   2   2  -2    5.06    3.11
   2   2  -2    2.26    2.61
  -2  -2   1   25.45    2.87
  -2  -2   1   24.07    5.19
   2   2  -1   16.03    4.24
   2   2  -1   29.59    5.13
  -2  -2   0    3.24    1.90
  -2  -2   0    4.63    3.18
   2   2   0    2.93    2.79
   2   2   0    5.00    2.39
  -2  -2  -1 1395.80   24.70
  -2  -2  -1 1395.70   30.10
   2   2   1 1465.30   31.00
   2   2   1 1421.90   20.60
  -2  -2  -2   14.60    4.31
   2   2   2   14.65    4.87
   2   2   2   12.38    2.44
  -2  -2  -3 1415.90   32.00
   2   2   3 1537.00   35.90
  -2  -2  -4    3.42    3.68
   2   2   4   -0.15    2.23
  -2  -2  -5   45.99    9.41
   2   2   5   49.37   10.14
  -2  -2  -6  197.44   16.50
   2   2   6  204.13   16.73
  -2  -2  -7   24.00    8.88
   2   2   7   30.21    8.72
  -2  -2  -8  121.44   18.12
   2   2   8  139.13   16.03
  -2  -2  -9   36.37   11.37
   2   2   9   40.23   11.65
  -2  -2 -10   -1.80    5.58
   2   2  10   -1.88    5.39
  -2  -2 -11    9.50    8.24
   2   2  11    2.46    6.15
  -2  -3  13    0.10    5.78
   2   3 -13    1.16    6.20
   2   3 -13    1.25    6.28
  -2  -3  12   12.23    8.29
   2   3 -12   20.02    8.55
   2   3 -12   17.52    8.66
  -2  -3  11   16.62    8.25
   2   3 -11    9.30    7.01
   2   3 -11    6.31    5.76
  -2  -3  10    3.30    4.72
   2   3 -10    1.55    4.73
   2   3 -10   -0.19    3.51
  -2  -3   9   -1.70    3.81
   2   3  -9   -1.88    3.47
   2   3  -9   -0.11    3.84
  -2  -3   8    1.42    3.69
   2   3  -8    6.35    4.68
   2   3  -8    0.19    3.34
  -2  -3   7   73.98   12.35
  -2  -3   7   73.03    6.73
   2   3  -7   74.32   11.53
   2   3  -7   68.88    8.30
  -2  -3   6  953.49   31.18
  -2  -3   6  919.03   21.24
   2   3  -6  906.93   30.42
   2   3  -6  879.20   23.88
  -2  -3   5   40.35    8.38
  -2  -3   5   40.42    5.94
   2   3  -5   35.29    7.78
   2   3  -5   35.12    5.68
  -2  -3   4  792.33   25.47
  -2  -3   4  711.70   19.43
   2   3  -4  659.86   23.34
   2   3  -4  713.58   17.03
  -2  -3   3    0.50    2.25
   2   3  -3    8.95    4.07
   2   3  -3    3.38    2.95
   2   3  -3    3.79    2.00
  -2  -3   2   87.93    7.85
   2   3  -2   90.48    8.66
   2   3  -2   84.21    7.91
  -2  -3   1  437.01   12.25
  -2  -3   1  440.20   17.10
   2   3  -1  319.02   15.31
   2   3  -1  419.26   15.23
  -2  -3   0   40.71    5.69
  -2  -3   0   30.99    6.22
   2   3   0   30.25    6.31
   2   3   0   27.75    4.77
  -2  -3  -1  369.49   14.25
   2   3   1  373.23   17.27
   2   3   1  383.52   11.85
  -2  -3  -2 2236.50   38.30
   2   3   2 2312.60   44.30
   2   3   2 2439.50   24.60
  -2  -3  -3   33.90    7.09
   2   3   3   41.57    8.42
  -2  -3  -4  555.88   23.33
   2   3   4  613.61   25.54
  -2  -3  -5    4.54    4.70
   2   3   5   10.45    5.29
  -2  -3  -6   60.36   11.73
   2   3   6   53.06   10.73
  -2  -3  -7   51.54   11.99
   2   3   7   47.97   11.26
  -2  -3  -8   -1.74    4.90
   2   3   8    3.35    5.70
  -2  -3  -9    6.34    6.88
   2   3   9   12.03    7.87
  -2  -3 -10   -5.20    5.51
   2   3  10    6.45    7.60
  -2  -3 -11    2.71    6.95
   2   3  11   -0.32    6.09
  -2  -4  13   -1.73    6.22
   2   4 -13    6.35    7.30
  -2  -4  12    1.32    5.50
   2   4 -12    0.86    5.23
   2   4 -12    3.12    6.98
  -2  -4  11   54.16   13.54
   2   4 -11   34.01   11.02
   2   4 -11   44.59   11.47
  -2  -4  10   36.35   10.86
   2   4 -10   59.92   12.91
   2   4 -10   58.20   11.82
  -2  -4   9   47.87   11.50
   2   4  -9   45.47   11.05
   2   4  -9   40.26    9.41
  -2  -4   8  184.37   16.73
   2   4  -8  179.88   16.45
   2   4  -8  167.50   13.58
  -2  -4   7   64.94   11.15
   2   4  -7   92.37   13.66
   2   4  -7   70.13    8.65
  -2  -4   6  629.97   26.85
  -2  -4   6  590.52   17.70
   2   4  -6  606.61   26.52
   2   4  -6  573.93   20.49
  -2  -4   5 1871.40   43.60
  -2  -4   5 1772.90   31.50
   2   4  -5 1810.50   43.20
   2   4  -5 1708.60   32.10
  -2  -4   4  102.63   10.60
  -2  -4   4  101.85    8.47
   2   4  -4  102.16   10.46
   2   4  -4  100.50    7.63
  -2  -4   3 1063.30   26.40
   2   4  -3 1205.30   32.50
   2   4  -3 1047.90   29.50
  -2  -4   2  342.81   15.91
   2   4  -2  354.84   17.52
   2   4  -2  357.04   16.50
  -2  -4   1  232.42   10.92
  -2  -4   1  212.65   13.25
   2   4  -1  217.14   13.76
   2   4  -1  215.27   12.20
  -2  -4   0  749.04   20.49
   2   4   0  802.97   26.04
   2   4   0  783.21   20.76
  -2  -4  -1    2.93    3.12
   2   4   1    4.96    3.76
   2   4   1    5.09    2.59
  -2  -4  -2 1160.60   29.90
   2   4   2 1263.20   34.70
   2   4   2 1254.90   20.40
  -2  -4  -3  316.98   17.34
   2   4   3  320.20   18.68
  -2  -4  -4  104.52   11.48
   2   4   4  121.52   12.49
  -2  -4  -5  306.77   19.84
   2   4   5  307.25   20.24
  -2  -4  -6    3.19    5.67
   2   4   6    2.25    4.37
  -2  -4  -7  132.11   15.78
   2   4   7  145.92   16.24
  -2  -4  -8   23.94    9.07
   2   4   8   27.20   10.05
  -2  -4  -9   -0.18    5.29
   2   4   9   -6.89    4.46
  -2  -4 -10   19.39    9.22
   2   4  10   25.91   11.28
  -2  -5  12   13.63    9.16
   2   5 -12   24.55   10.92
  -2  -5  11   -2.79    5.05
   2   5 -11    7.14    6.51
  -2  -5  10  104.95   17.56
   2   5 -10  137.47   16.94
  -2  -5   9    8.48    6.12
   2   5  -9   18.00    8.61
   2   5  -9   19.88    7.42
  -2  -5   8   59.53   12.68
   2   5  -8   74.55   13.83
   2   5  -8   71.83   11.81
  -2  -5   7  646.17   30.04
   2   5  -7  579.68   28.73
   2   5  -7  550.00   22.98
  -2  -5   6   34.48    8.85
   2   5  -6   17.22    6.48
   2   5  -6   25.20    6.26
  -2  -5   5  605.57   26.56
  -2  -5   5  543.49   19.04
   2   5  -5  545.16   25.47
   2   5  -5  515.02   19.47
  -2  -5   4  550.46   24.47
  -2  -5   4  473.89   18.60
   2   5  -4  505.59   23.34
   2   5  -4  520.96   18.63
  -2  -5   3  258.16   14.49
   2   5  -3  293.33   17.60
   2   5  -3  265.77   16.46
  -2  -5   2  220.73   14.05
   2   5  -2  241.14   15.69
   2   5  -2  225.51   14.42
  -2  -5   1    7.84    3.54
  -2  -5   1    5.19    4.01
   2   5  -1    8.12    4.33
   2   5  -1    6.41    3.62
  -2  -5   0   97.49    8.98
   2   5   0  107.36   10.82
   2   5   0  113.57    9.27
  -2  -5  -1  582.90   21.64
   2   5   1  611.79   25.02
   2   5   1  615.31   18.73
  -2  -5  -2    0.19    2.97
   2   5   2    0.68    3.68
  -2  -5  -3  502.61   23.08
   2   5   3  548.09   25.40
  -2  -5  -4   60.35   11.28
   2   5   4   62.72   11.70
  -2  -5  -5    4.53    5.31
   2   5   5    4.71    4.38
  -2  -5  -6  120.91   17.14
   2   5   6  122.46   14.65
  -2  -5  -7   15.47    8.84
   2   5   7   20.12    8.38
  -2  -5  -8    8.24    6.39
   2   5   8    0.66    6.24
  -2  -5  -9   19.85    9.54
   2   5   9   22.94   10.26
  -2  -5 -10    6.74    7.97
   2   5  10   -7.45    4.92
  -2  -6  12    3.63    7.32
   2   6 -12   10.45    8.38
  -2  -6  11   23.27   10.03
   2   6 -11   29.34   11.76
  -2  -6  10    7.54    7.33
   2   6 -10    3.74    6.09
  -2  -6   9  102.32   17.88
   2   6  -9  118.36   18.56
  -2  -6   8   -1.89    3.98
   2   6  -8    0.14    4.39
  -2  -6   7   39.52   10.32
   2   6  -7   25.77    8.53
   2   6  -7   48.14   10.12
  -2  -6   6  451.27   25.43
   2   6  -6  442.79   20.71
  -2  -6   5   21.18    7.17
  -2  -6   5   28.70    9.92
   2   6  -5   14.16    6.34
   2   6  -5   26.09    6.55
  -2  -6   4  171.69   15.10
  -2  -6   4  144.32   11.79
   2   6  -4  154.90   14.54
  -2  -6   3  100.91   10.57
   2   6  -3  118.78   12.61
   2   6  -3  108.53   11.66
  -2  -6   2    5.01    4.19
   2   6  -2    3.66    3.52
   2   6  -2    3.42    3.55
  -2  -6   1   44.46    7.93
   2   6  -1   53.10   10.13
   2   6  -1   46.20    8.40
  -2  -6   0  235.38   14.76
   2   6   0  228.77   16.46
   2   6   0  216.05   13.52
  -2  -6  -1   30.75    7.44
   2   6   1   35.33    8.60
   2   6   1   30.96    6.35
  -2  -6  -2  377.42   20.43
   2   6   2  356.70   21.18
  -2  -6  -3   95.56   14.09
   2   6   3   95.46   14.26
  -2  -6  -4  105.22   15.18
   2   6   4  114.51   16.50
  -2  -6  -5   62.46   12.72
   2   6   5   55.93   12.34
  -2  -6  -6    6.13    6.63
   2   6   6    4.46    5.77
  -2  -6  -7   17.90    8.78
   2   6   7    8.72    6.72
  -2  -6  -8   14.20    8.83
   2   6   8    9.07    7.54
  -2  -6  -9   -2.90    6.23
   2   6   9    6.66    7.17
  -2  -7  11    0.59    6.45
   2   7 -11    2.52    7.73
  -2  -7  10   14.96    9.17
   2   7 -10   15.29    8.75
  -2  -7   9    0.87    5.00
   2   7  -9   -1.24    5.03
  -2  -7   8   19.94    8.66
   2   7  -8   22.95    9.14
  -2  -7   7   75.07   14.62
   2   7  -7   61.38   13.49
  -2  -7   6    2.82    5.09
   2   7  -6    3.50    5.23
  -2  -7   5  378.11   23.92
   2   7  -5  324.70   22.54
  -2  -7   4   52.76   11.35
  -2  -7   4   49.97    9.87
   2   7  -4   49.30   10.95
  -2  -7   3    9.17    5.05
   2   7  -3   12.32    6.25
   2   7  -3    1.03    3.86
  -2  -7   2   94.64   11.53
   2   7  -2  110.74   12.92
   2   7  -2   97.88   13.98
  -2  -7   1  107.56   11.33
   2   7  -1  106.94   12.35
   2   7  -1  103.89   11.26
  -2  -7   0   46.82    9.51
   2   7   0   37.83    9.44
   2   7   0   46.19    8.66
  -2  -7  -1  397.00   21.55
   2   7   1  389.83   22.88
  -2  -7  -2  115.45   13.00
   2   7   2   88.42   14.54
  -2  -7  -3  209.10   17.53
   2   7   3  175.72   16.89
  -2  -7  -4    6.96    6.24
   2   7   4    2.63    5.04
  -2  -7  -5   37.58   10.46
   2   7   5   41.90   11.50
  -2  -7  -6   16.31    7.93
   2   7   6   22.36    9.29
  -2  -7  -7   -0.13    5.63
   2   7   7   -1.64    5.38
  -2  -7  -8    9.95    9.44
   2   7   8    4.83    7.48
  -2  -8  10   16.07    9.86
   2   8 -10   16.49    9.49
  -2  -8   9   32.85   11.77
   2   8  -9   53.27   14.59
  -2  -8   8   -3.55    4.38
   2   8  -8    5.20    6.74
  -2  -8   7   91.93   16.28
   2   8  -7   89.52   16.86
  -2  -8   6  203.07   19.42
   2   8  -6  193.61   20.03
  -2  -8   5   21.04    8.51
   2   8  -5   19.55    8.74
  -2  -8   4  570.43   30.07
   2   8  -4  529.57   28.99
  -2  -8   3   16.44    7.16
   2   8  -3    6.74    6.14
   2   8  -3   13.55    6.99
  -2  -8   2  229.75   18.31
   2   8  -2  203.06   17.78
   2   8  -2  237.17   18.39
  -2  -8   1   36.28    9.22
   2   8  -1   30.52    9.57
   2   8  -1   28.27    8.12
  -2  -8   0    2.31    4.31
   2   8   0   -1.29    4.35
  -2  -8  -1  336.84   21.67
   2   8   1  311.84   22.14
  -2  -8  -2   50.11   12.23
   2   8   2   43.17   11.01
  -2  -8  -3  139.18   16.06
   2   8   3  173.51   17.47
  -2  -8  -4   91.67   16.03
   2   8   4  109.07   17.21
  -2  -8  -5    6.35    6.55
   2   8   5   -2.34    5.12
  -2  -8  -6   54.59   13.82
   2   8   6   44.13   12.45
  -2  -8  -7    3.29    6.58
   2   8   7    2.98    6.58
  -2  -9   9   19.58   10.75
  -2  -9   8   46.15   14.15
   2   9  -8   47.45   14.20
  -2  -9   7    7.33    7.09
   2   9  -7    4.97    7.35
  -2  -9   6  110.86   18.53
   2   9  -6  134.46   21.34
  -2  -9   5   72.37   15.07
   2   9  -5  102.91   18.17
  -2  -9   4   13.62    7.21
   2   9  -4   40.51   11.46
   2   9  -3  154.38   16.92
  -2  -9   2   -0.85    4.57
   2   9  -2   -0.75    4.38
   2   9  -2   -1.29    4.46
   2   9  -1   51.65   11.50
  -2  -9   0   30.46   13.94
   2   9   0   31.13   10.14
  -2  -9  -1   -0.73    4.44
   2   9   1   -3.17    4.43
  -2  -9  -2   98.08   16.82
   2   9   2   93.30   16.41
  -2  -9  -3   13.37    8.46
   2   9   3   14.95    7.88
  -2  -9  -4   21.66   10.09
   2   9   4   22.88    9.55
  -2  -9  -5   21.32    9.34
   2   9   5   20.02    9.77
  -2 -10   7    4.20    6.57
  -2 -10   6    4.84    6.83
   2  10  -6    8.91    7.52
  -2 -10   5   47.00   13.85
   2  10  -5   41.06   12.53
  -2 -10   4   13.71    8.11
   2  10  -4   19.04    9.32
  -2 -10   3    8.06    7.36
   2  10  -3    5.15    6.38
   2  10  -2   16.20    8.50
  -2 -10   1    0.71    5.72
   2  10  -1    3.15    5.60
   2  10   0   -3.54    4.61
   2  10   1   66.87   14.68
  -2 -11   1    7.49   10.91
  -3  11   4   12.87    9.59
   3 -11  -4   30.93   12.28
  -3  11   3   23.52   10.18
  -3  11   2    1.17    5.43
   3 -11  -2   -0.67    5.60
   3 -11  -1   60.06   14.79
   3 -11   0   18.13    9.17
   3 -11   1   22.13   10.03
   3 -11   2   50.11   14.08
   3 -11   3   -0.70    6.30
  -3  10   7    5.79    7.82
   3 -10  -7   -0.61    5.43
  -3  10   6    7.14    7.78
   3 -10  -6   -0.87    4.91
  -3  10   5   11.88    8.28
   3 -10  -5    1.97    6.27
  -3  10   4    5.13    5.82
   3 -10  -4    3.59    6.16
  -3  10   3    0.25    5.11
   3 -10  -3    5.20    6.26
  -3  10   2   76.37   15.25
   3 -10  -2   87.61   16.07
  -3  10   1   11.73    7.49
   3 -10  -1   17.64    8.72
   3 -10   0   45.00   12.02
   3 -10   1   57.42   13.67
   3 -10   2    1.98    6.55
   3 -10   3   49.77   13.66
  -3  10  -4   16.28    9.01
   3 -10   4   32.95   12.39
  -3  10  -5   -9.79    4.60
   3 -10   5   -2.78    5.43
   3  -9  -9   27.99   11.75
  -3   9   8    6.81    7.19
   3  -9  -8    6.27    7.17
  -3   9   7   34.88   11.59
   3  -9  -7   41.26   12.70
  -3   9   6   46.74   13.41
   3  -9  -6   64.14   15.67
  -3   9   5   -0.96    4.62
   3  -9  -5    0.10    4.33
  -3   9   4   27.67   10.14
   3  -9  -4   31.53    9.24
  -3   9   3  134.72   16.04
   3  -9  -3  130.46   15.25
  -3   9   2    4.35    4.92
   3  -9  -2   -0.39    4.85
  -3   9   1  527.90   27.78
   3  -9  -1  536.70   29.77
  -3   9   0   61.76   12.40
   3  -9   0   42.51   11.36
   3  -9   1   98.18   16.50
   3  -9   2  100.93   17.39
  -3   9  -3   19.98    8.92
   3  -9   3   12.66    7.29
  -3   9  -4   22.45    9.52
   3  -9   4   46.71   13.46
  -3   9  -5   17.61    8.36
   3  -9   5   16.29    9.30
  -3   9  -6   -4.18    5.22
   3  -9   6    2.44    6.06
  -3   9  -7   18.62    9.77
   3  -9   7   28.28   11.79
  -3   8  10   58.29   15.07
   3  -8 -10   29.40   11.23
  -3   8   9   12.35    8.48
   3  -8  -9   -1.69    5.29
  -3   8   8   72.80   15.98
   3  -8  -8   82.35   17.29
  -3   8   7  151.20   18.60
   3  -8  -7  151.49   18.03
  -3   8   6   75.00   15.11
   3  -8  -6   92.27   17.11
  -3   8   5  207.97   19.76
   3  -8  -5  184.05   16.48
   3  -8  -5  156.74   17.02
  -3   8   4   -0.23    4.74
   3  -8  -4   -3.60    4.16
  -3   8   3   54.68   12.48
   3  -8  -3   52.57   11.12
  -3   8   2  246.00   19.01
   3  -8  -2  238.55   18.96
  -3   8   1   95.85   14.15
   3  -8  -1   69.07   13.39
  -3   8   0  563.33   25.95
   3  -8   0  530.12   28.27
   3  -8   1   -3.50    4.01
   3  -8   2  244.39   20.54
  -3   8  -3   29.92    8.57
   3  -8   3   44.65   11.62
  -3   8  -4   23.05    8.46
   3  -8   4   48.52   12.32
  -3   8  -5   76.70   14.72
   3  -8   5   93.73   16.78
  -3   8  -6    1.07    5.07
   3  -8   6    0.35    5.15
  -3   8  -7   -0.58    5.55
   3  -8   7    4.94    6.94
  -3   8  -8   23.81   11.21
   3  -8   8   21.26   10.18
  -3   7  11   -1.48    6.83
   3  -7 -11    3.72    7.21
  -3   7  10   30.55   11.35
   3  -7 -10   42.64   12.58
  -3   7   9   19.73    9.61
   3  -7  -9   24.79   10.20
  -3   7   8   -3.13    4.30
   3  -7  -8   -2.63    4.35
  -3   7   7  152.32   17.20
   3  -7  -7  137.96   16.24
  -3   7   6   -0.28    3.99
   3  -7  -6   -0.33    4.00
   3  -7  -6   -0.57    3.98
  -3   7   5  136.61   15.57
   3  -7  -5  128.78   13.25
   3  -7  -5  107.37   16.45
  -3   7   4   52.00   11.61
   3  -7  -4   56.37   11.11
  -3   7   3   60.93   11.92
   3  -7  -3   53.93   10.51
  -3   7   2  260.02   18.28
   3  -7  -2  237.11   17.45
  -3   7   1   60.69   11.16
   3  -7  -1   68.19   11.84
  -3   7   0  174.15   14.10
   3  -7   0  155.67   15.15
  -3   7  -1  401.85   24.28
  -3   7  -1  455.55   21.03
   3  -7   1  433.56   24.75
  -3   7  -2   22.04    7.59
   3  -7   2   30.09    8.99
  -3   7  -3   82.23   14.30
   3  -7   3  103.59   15.91
  -3   7  -4   44.39   11.25
   3  -7   4   64.95   13.54
  -3   7  -5   -2.05    4.31
   3  -7   5    5.87    5.65
  -3   7  -6   48.48   11.80
   3  -7   6   76.61   14.94
  -3   7  -7    4.12    6.40
   3  -7   7   11.88    7.52
   3  -7   7    8.64    6.78
  -3   7  -8   -4.26    5.29
   3  -7   8   -6.15    4.74
   3  -7   8   -4.45    4.58
  -3   7  -9    2.00    7.43
   3  -7   9    3.95    6.80
   3  -7   9    4.78    6.77
  -3   6  12    4.84    6.97
   3  -6 -12    1.43    5.92
  -3   6  11    6.64    7.95
   3  -6 -11   11.74    8.31
  -3   6  10    8.08    7.00
   3  -6 -10   -0.43    5.22
  -3   6   9  103.12   17.28
   3  -6  -9   89.05   16.22
  -3   6   8    6.28    5.59
   3  -6  -8   13.76    7.35
  -3   6   7   15.86    7.60
   3  -6  -7   11.07    5.61
   3  -6  -7   11.60    6.63
  -3   6   6  162.44   15.97
   3  -6  -6  165.29   13.96
   3  -6  -6  150.77   15.34
  -3   6   5    2.79    4.29
   3  -6  -5   -2.35    3.04
   3  -6  -5    0.13    3.57
  -3   6   4  104.65   12.14
   3  -6  -4   94.76   11.08
  -3   6   3   89.45   13.21
   3  -6  -3   87.28   12.50
  -3   6   2   82.06   11.88
   3  -6  -2   62.85   10.61
  -3   6   1  447.38   21.19
   3  -6  -1  431.35   22.17
  -3   6   0  515.04   24.98
  -3   6   0  595.64   23.34
   3  -6   0  539.81   25.21
  -3   6  -1   24.68    7.49
  -3   6  -1   28.50    6.76
   3  -6   1   22.25    7.27
  -3   6  -2  128.29   13.38
  -3   6  -2  134.23   10.73
   3  -6   2  145.75   14.35
  -3   6  -3   14.75    6.19
   3  -6   3   29.68    6.93
   3  -6   3   17.74    7.23
  -3   6  -4   41.52   10.94
   3  -6   4   53.35    9.53
   3  -6   4   53.55   11.47
  -3   6  -5  107.64   16.80
   3  -6   5  119.98   12.95
   3  -6   5  130.18   15.02
  -3   6  -6    0.45    4.56
   3  -6   6    6.62    5.81
   3  -6   6    1.51    5.20
  -3   6  -7   24.82    9.48
   3  -6   7   32.58   10.09
   3  -6   7   38.84   11.02
  -3   6  -8    4.27    6.33
   3  -6   8   11.12    7.27
   3  -6   8   15.15    8.23
  -3   6  -9   12.63    8.24
   3  -6   9    2.40    6.30
   3  -6   9    6.13    7.41
  -3   5  12    4.17    6.77
   3  -5 -12   -2.22    5.06
  -3   5  11   18.54    8.82
   3  -5 -11    7.48    7.41
  -3   5  10  129.11   19.48
   3  -5 -10  105.59   17.29
  -3   5   9    3.65    5.37
   3  -5  -9    5.63    6.08
  -3   5   8   70.69   13.50
   3  -5  -8   52.40   10.92
   3  -5  -8   64.59   12.66
  -3   5   7  274.63   19.99
   3  -5  -7  283.58   17.24
   3  -5  -7  273.64   19.64
  -3   5   6   13.16    6.54
   3  -5  -6   10.18    5.18
   3  -5  -6   15.43    6.44
  -3   5   5  146.35   13.80
   3  -5  -5  145.04   12.52
   3  -5  -5  145.87   13.45
  -3   5   4  174.35   14.44
   3  -5  -4  195.96   13.99
  -3   5   3    0.66    3.21
   3  -5  -3   -1.69    2.53
  -3   5   2  601.47   23.87
   3  -5  -2  580.22   23.68
  -3   5   1  160.31   12.37
   3  -5  -1  132.29   12.06
  -3   5   0 1565.10   39.70
  -3   5   0 1737.90   37.00
   3  -5   0 1741.40   22.10
   3  -5   0 1598.90   40.20
  -3   5  -1  188.28   14.71
  -3   5  -1  192.66   12.30
   3  -5   1  208.24   10.02
   3  -5   1  183.23   14.62
  -3   5  -2  112.28   12.08
  -3   5  -2  139.40   10.20
   3  -5   2  146.01   10.00
   3  -5   2  131.39   12.82
  -3   5  -3  212.18   16.62
  -3   5  -3  225.71   13.84
   3  -5   3  225.85   13.75
   3  -5   3  233.15   17.15
  -3   5  -4    3.83    5.05
   3  -5   4   14.85    5.54
   3  -5   4    9.71    5.47
  -3   5  -5  138.97   15.07
   3  -5   5  146.73   13.66
   3  -5   5  149.01   14.99
   3  -5   6  234.58   18.34
   3  -5   6  226.16   18.71
  -3   5  -7    8.80    6.16
   3  -5   7    0.43    4.41
   3  -5   7   -2.46    3.90
  -3   5  -8   25.35    8.97
   3  -5   8   45.12   11.91
   3  -5   8   37.10   10.51
  -3   5  -9   17.71    8.87
   3  -5   9   10.45    7.74
   3  -5   9    5.48    6.53
  -3   5 -10    2.97    6.96
   3  -5  10    6.78    8.18
   3  -4 -13    7.12    6.78
  -3   4  12   49.96   12.80
   3  -4 -12   34.47   11.19
  -3   4  11   34.30   10.65
   3  -4 -11   41.83   11.46
  -3   4  10    0.58    5.20
   3  -4 -10    7.68    6.91
  -3   4   9  355.81   23.42
   3  -4  -9  358.73   23.47
  -3   4   8   70.28   12.89
   3  -4  -8   80.81   11.52
   3  -4  -8   65.72   12.25
  -3   4   7  316.69   17.33
  -3   4   7  268.62   18.79
   3  -4  -7  272.07   16.54
   3  -4  -7  258.90   17.83
  -3   4   6  461.83   15.64
  -3   4   6  481.21   23.82
   3  -4  -6  444.65   20.31
   3  -4  -6  439.85   21.66
  -3   4   5   66.61    5.33
  -3   4   5   72.68   11.28
   3  -4  -5   57.02    9.10
   3  -4  -5   60.11    9.92
  -3   4   4  862.05   28.97
   3  -4  -4  824.05   26.60
  -3   4   3  350.36   17.98
   3  -4  -3  305.02   16.35
  -3   4   2  487.93   20.29
   3  -4  -2  490.14   20.68
  -3   4   1 1139.70   30.50
  -3   4   1 1292.10   31.40
   3  -4  -1 1210.90   32.30
  -3   4   0  504.02   20.91
  -3   4   0  515.59   19.19
   3  -4   0  516.89   12.50
   3  -4   0  492.18   21.16
  -3   4  -1 5105.30   68.00
  -3   4  -1 5567.80   59.80
   3  -4   1 5624.30   50.40
   3  -4   1 5277.10   69.50
  -3   4  -2   31.30    7.52
  -3   4  -2   26.64    5.48
   3  -4   2   23.85    5.24
   3  -4   2   21.70    6.33
  -3   4  -3  228.79   16.24
  -3   4  -3  249.24   12.20
   3  -4   3  213.65   13.32
   3  -4   3  233.62   15.99
  -3   4  -4  182.65   15.61
   3  -4   4  193.03   14.06
   3  -4   4  198.97   15.47
  -3   4  -5  117.93   13.51
   3  -4   5  125.13   12.65
   3  -4   5  128.83   13.28
  -3   4  -6   55.32   11.62
   3  -4   6   49.23   10.60
   3  -4   6   58.73   11.87
  -3   4  -7   93.13   16.11
   3  -4   7  141.77   15.87
   3  -4   7  130.74   14.36
  -3   4  -8   -2.04    5.23
   3  -4   8   -5.87    3.51
   3  -4   8    3.30    5.08
  -3   4  -9   -2.62    5.69
   3  -4   9    1.52    5.88
  -3   4 -10   12.28    8.61
   3  -4  10   20.00    9.07
   3  -3 -13    8.45    7.44
  -3   3  12    3.03    5.83
  -3   3  12    6.98    5.75
   3  -3 -12    1.39    4.65
  -3   3  11   79.15   13.78
  -3   3  11   93.54   16.21
   3  -3 -11   59.58   13.03
  -3   3  10   48.52   10.35
  -3   3  10   37.49    9.77
   3  -3 -10   32.96    9.65
  -3   3   9   96.87   11.25
  -3   3   9  102.85   12.85
   3  -3  -9  103.77   11.39
   3  -3  -9  108.95   16.08
  -3   3   8  449.02   20.29
  -3   3   8  424.80   23.16
   3  -3  -8  413.40   20.54
   3  -3  -8  426.82   22.62
  -3   3   7   12.00    4.59
  -3   3   7    7.89    5.19
   3  -3  -7   12.21    5.01
   3  -3  -7    8.46    4.89
  -3   3   6  209.48   11.27
  -3   3   6  220.93   15.53
   3  -3  -6  225.92   14.37
   3  -3  -6  196.08   13.67
  -3   3   5  386.73   12.84
  -3   3   5  385.28   19.30
   3  -3  -5  343.57   17.00
   3  -3  -5  365.12   17.31
  -3   3   4  332.93    9.80
  -3   3   4  319.93   17.14
   3  -3  -4  298.64   15.62
   3  -3  -4  327.49   15.53
  -3   3   3  409.08    8.23
  -3   3   3  393.67   18.05
   3  -3  -3  377.88   17.35
  -3   3   2  217.79   13.14
   3  -3  -2  211.85   13.13
  -3   3   1  107.87    9.06
  -3   3   1  106.84    9.16
   3  -3  -1  123.85    5.42
   3  -3  -1  104.36    9.63
  -3   3   0  759.26   23.41
  -3   3   0  840.16   23.36
   3  -3   0  823.44   16.87
   3  -3   0  848.41   25.78
  -3   3  -1   47.79    8.22
  -3   3  -1   42.05    6.68
   3  -3   1   42.12    5.88
   3  -3   1   52.44    8.72
  -3   3  -2  208.29   13.93
  -3   3  -2  256.54   12.65
   3  -3   2  259.48   13.02
   3  -3   2  249.26   14.92
  -3   3  -3   24.76    7.11
  -3   3  -3   30.36    5.68
   3  -3   3   23.34    5.84
   3  -3   3   29.90    7.08
  -3   3  -4   60.53   10.58
  -3   3  -4   58.23    6.70
   3  -3   4   65.56   10.14
   3  -3   4   54.69    9.40
  -3   3  -5    0.52    4.01
   3  -3   5   16.00    6.18
   3  -3   5   16.34    5.93
  -3   3  -6   34.21    8.97
   3  -3   6   51.96   10.86
   3  -3   6   46.91    9.49
  -3   3  -7   -1.43    4.46
   3  -3   7    0.50    4.59
   3  -3   7    1.12    4.18
  -3   3  -8   39.00   11.55
   3  -3   8   39.85   11.39
  -3   3  -9    4.56    6.61
   3  -3   9    3.86    6.59
  -3   3 -10    2.46    6.37
   3  -3  10    5.39    7.45
  -3   2  13   12.30    8.42
   3  -2 -13    5.59    6.67
  -3   2  12   33.27   10.75
   3  -2 -12   22.72    8.88
  -3   2  11   12.44    7.02
  -3   2  11    9.55    6.18
   3  -2 -11   13.09    7.50
  -3   2  10   88.88   13.92
  -3   2  10   92.15   14.43
   3  -2 -10   77.27   12.78
   3  -2 -10   71.87   13.21
  -3   2   9   61.23   10.79
  -3   2   9   43.64    9.70
   3  -2  -9   56.08   10.38
   3  -2  -9   49.98   10.39
  -3   2   8  183.90   13.84
  -3   2   8  184.72   14.82
   3  -2  -8  162.98   13.68
   3  -2  -8  157.78   13.55
  -3   2   7  230.23   13.78
  -3   2   7  225.62   15.60
   3  -2  -7  222.77   14.77
   3  -2  -7  226.43   14.56
  -3   2   6    5.41    3.30
  -3   2   6    6.92    4.31
   3  -2  -6    9.22    4.32
   3  -2  -6    5.01    3.53
  -3   2   5   76.47    6.74
  -3   2   5   60.91    9.23
   3  -2  -5   74.57   10.14
   3  -2  -5   62.11    7.12
  -3   2   4   57.60    5.32
  -3   2   4   65.69    8.02
   3  -2  -4   52.33    8.26
   3  -2  -4   49.44    6.09
  -3   2   3   11.66    2.91
  -3   2   3   15.01    4.88
   3  -2  -3   15.29    4.70
  -3   2   2  152.67   10.79
   3  -2  -2  163.25    6.98
   3  -2  -2  137.25   10.31
  -3   2   1  195.68   10.41
  -3   2   1  209.62   12.10
   3  -2  -1  218.93    8.64
   3  -2  -1  216.33   12.54
  -3   2   0  484.70   16.86
  -3   2   0  514.14   18.00
   3  -2   0  542.22   15.09
   3  -2   0  521.31   19.04
  -3   2  -1  726.29   22.02
  -3   2  -1  730.58   21.05
   3  -2   1  740.72   19.88
   3  -2   1  701.39   22.24
  -3   2  -2   63.46    7.85
  -3   2  -2   71.46    7.44
   3  -2   2   75.40    7.71
   3  -2   2   83.82    8.52
  -3   2  -3  147.64   12.14
  -3   2  -3  171.51   10.71
   3  -2   3  177.25   12.41
   3  -2   3  169.24   11.87
  -3   2  -4   38.74    8.63
  -3   2  -4   44.46    6.95
   3  -2   4   47.20    8.98
   3  -2   4   43.40    7.76
  -3   2  -5   17.61    6.89
  -3   2  -5   16.19    4.87
   3  -2   5   26.58    7.42
   3  -2   5   24.60    6.54
  -3   2  -6  163.02   15.65
   3  -2   6  206.34   17.12
   3  -2   6  185.94   13.99
  -3   2  -7   49.72   11.41
   3  -2   7   55.49   12.53
   3  -2   7   61.90   12.80
  -3   2  -8   48.00   12.01
   3  -2   8   73.49   14.60
  -3   2  -9    2.08    5.68
   3  -2   9    4.49    6.50
  -3   2 -10   -4.81    6.20
   3  -2  10   -0.14    6.38
  -3   2 -11    5.38    7.81
   3  -2  11    9.68    9.12
  -3   1  14    8.60    7.55
   3  -1 -14   -0.99    5.72
  -3   1  13   -0.20    5.39
   3  -1 -13    3.89    5.99
  -3   1  12   10.84    7.70
   3  -1 -12   11.76    7.39
  -3   1  11   80.47   14.69
   3  -1 -11   81.45   13.81
   3  -1 -11   54.50   11.66
  -3   1  10    8.87    5.97
  -3   1  10    2.59    4.54
   3  -1 -10    7.61    5.14
   3  -1 -10    3.25    4.60
  -3   1   9  108.92   12.15
  -3   1   9   94.44   11.19
   3  -1  -9  105.96   11.94
   3  -1  -9   98.29   13.64
  -3   1   8  237.26   15.89
  -3   1   8  232.07   15.67
   3  -1  -8  208.26   15.23
   3  -1  -8  172.37   13.46
  -3   1   7   75.21    8.74
  -3   1   7   76.28    9.23
   3  -1  -7   80.06   11.38
   3  -1  -7   65.18    7.99
  -3   1   6   58.71    7.24
  -3   1   6   62.53    9.38
   3  -1  -6   65.17    9.93
   3  -1  -6   52.78    6.47
  -3   1   5  176.14   10.60
  -3   1   5  169.49   12.03
   3  -1  -5  157.56   11.81
   3  -1  -5  169.02    9.76
  -3   1   4  414.97   14.41
  -3   1   4  399.32   17.29
   3  -1  -4  394.38   17.29
   3  -1  -4  416.90   13.40
  -3   1   3  721.39   22.17
   3  -1  -3  788.63   18.23
   3  -1  -3  696.26   21.87
  -3   1   2   59.96    7.09
   3  -1  -2   60.74    5.52
   3  -1  -2   75.08    7.70
  -3   1   1 1362.10   22.70
  -3   1   1 1313.20   28.60
   3  -1  -1 1455.00   24.80
   3  -1  -1 1273.80   27.90
  -3   1   0 1124.60   22.80
  -3   1   0 1160.00   26.80
   3  -1   0 1117.60   23.60
   3  -1   0 1115.70   25.90
  -3   1  -1 1446.30   28.70
  -3   1  -1 1485.10   30.50
   3  -1   1 1536.00   30.20
   3  -1   1 1510.10   30.20
  -3   1  -2 1589.00   33.20
  -3   1  -2 1595.60   32.10
   3  -1   2 1680.30   34.60
   3  -1   2 1670.60   32.10
  -3   1  -3   76.08    8.89
  -3   1  -3   79.40    8.15
   3  -1   3   77.72    9.06
   3  -1   3   71.78    7.61
  -3   1  -4  153.75   12.99
  -3   1  -4  159.19   11.18
   3  -1   4  190.35   14.24
   3  -1   4  183.92   11.72
  -3   1  -5  419.08   22.36
  -3   1  -5  432.34   18.53
   3  -1   5  444.79   22.90
   3  -1   5  416.18   17.90
  -3   1  -6   -0.93    3.40
  -3   1  -6    0.31    3.41
   3  -1   6    2.30    4.44
   3  -1   6    0.94    3.11
  -3   1  -7  153.90   16.15
   3  -1   7  181.16   17.47
  -3   1  -8   22.08    9.27
   3  -1   8   36.94   10.85
  -3   1  -9   18.90    8.81
   3  -1   9   22.03    9.38
  -3   1 -10    5.64    6.07
   3  -1  10    1.33    5.61
  -3   1 -11    3.57    7.05
   3  -1  11    6.49    7.30
  -3   0  14   -0.79    6.45
   3   0 -14    2.42    7.27
  -3   0  13   12.43    8.71
   3   0 -13   16.93    8.33
  -3   0  12   23.42   10.02
   3   0 -12   28.11    9.57
   3   0 -12   12.93    7.31
  -3   0  11   49.84   11.83
   3   0 -11   41.71   10.45
   3   0 -11   28.82    9.24
  -3   0  10  248.84   19.42
  -3   0  10  248.31   16.65
   3   0 -10  222.46   17.70
   3   0 -10  238.32   17.74
  -3   0   9    2.16    4.27
  -3   0   9   -2.33    2.73
   3   0  -9    0.48    3.80
   3   0  -9   -5.83    2.33
  -3   0   8  660.33   26.71
  -3   0   8  681.78   24.75
   3   0  -8  618.30   26.06
   3   0  -8  581.43   22.50
  -3   0   7  611.58   23.86
  -3   0   7  577.75   21.94
   3   0  -7  530.65   22.99
   3   0  -7  513.94   19.05
  -3   0   6  190.70   12.72
  -3   0   6  163.32   11.78
   3   0  -6  172.68   12.76
   3   0  -6  152.87    9.57
  -3   0   5  859.51   24.27
  -3   0   5  799.89   24.06
   3   0  -5  771.48   25.14
   3   0  -5  768.33   17.84
  -3   0   4   77.38    7.57
  -3   0   4   65.45    7.68
   3   0  -4   77.91    8.34
   3   0  -4   58.73    4.62
  -3   0   3 1319.60   29.40
   3   0  -3 1452.70   28.10
   3   0  -3 1268.70   29.30
   3   0  -3 1296.10   15.90
  -3   0   2 3835.60   49.40
   3   0  -2 4119.20   45.90
   3   0  -2 3575.30   46.90
  -3   0   1   32.01    3.59
  -3   0   1   32.69    6.47
   3   0  -1   37.47    5.96
   3   0  -1   29.51    5.34
  -3   0   0 4124.30   39.40
  -3   0   0 3952.50   50.70
   3   0   0 4351.50   50.90
   3   0   0 4131.30   47.30
  -3   0  -1  228.29   11.20
  -3   0  -1  216.46   12.71
   3   0   1  238.33   13.14
   3   0   1  232.40   11.45
  -3   0  -2  847.91   23.67
  -3   0  -2  891.87   25.40
   3   0   2  897.80   26.76
   3   0   2  883.76   21.66
  -3   0  -3  791.99   25.40
  -3   0  -3  811.67   25.02
   3   0   3  878.32   28.31
   3   0   3  859.47   21.58
  -3   0  -4   79.47    9.66
  -3   0  -4   70.74    8.66
   3   0   4   73.74   11.53
   3   0   4   68.39    7.06
  -3   0  -5   36.47    9.01
  -3   0  -5   35.87    7.61
   3   0   5   33.71    8.52
   3   0   5   44.90    7.20
  -3   0  -6  177.92   16.00
  -3   0  -6  197.39   14.41
   3   0   6  212.08   17.63
  -3   0  -7    4.35    5.14
  -3   0  -7    3.88    4.88
   3   0   7   -0.45    4.30
  -3   0  -8  112.49   17.39
   3   0   8   97.09   16.66
  -3   0  -9    4.26    5.54
   3   0   9    5.83    5.92
  -3   0 -10    1.56    6.47
   3   0  10    0.12    5.42
  -3   0 -11   10.41    8.47
   3   0  11    8.41    7.80
  -3  -1  14    2.03    7.67
  -3  -1  13   -4.75    6.08
   3   1 -13    8.35    6.96
  -3  -1  12   66.29   14.40
   3   1 -12   51.44   12.42
   3   1 -12   58.02   12.78
  -3  -1  11    0.43    5.82
   3   1 -11    3.73    5.34
   3   1 -11    2.80    5.16
  -3  -1  10   46.21   11.33
   3   1 -10   41.05   10.01
   3   1 -10   54.60   10.67
  -3  -1   9  334.48   21.44
  -3  -1   9  339.88   17.65
   3   1  -9  282.83   19.28
   3   1  -9  297.52   17.60
  -3  -1   8   21.51    6.67
  -3  -1   8   16.58    5.43
   3   1  -8   15.85    6.19
   3   1  -8   16.93    5.48
  -3  -1   7  822.29   28.77
  -3  -1   7  813.00   25.01
   3   1  -7  750.80   28.28
   3   1  -7  712.61   21.50
  -3  -1   6  394.33   19.06
  -3  -1   6  384.95   17.03
   3   1  -6  396.42   19.69
   3   1  -6  353.50   13.29
  -3  -1   5  235.84   13.96
  -3  -1   5  208.36   12.60
   3   1  -5  219.89   14.14
   3   1  -5  207.50    8.57
  -3  -1   4  432.06   17.39
   3   1  -4  455.99   18.22
   3   1  -4  396.33    8.44
  -3  -1   3   -2.85    2.13
   3   1  -3   -1.86    1.95
   3   1  -3    2.42    3.01
  -3  -1   2   27.81    6.08
   3   1  -2   33.20    6.25
   3   1  -2   35.35    6.17
  -3  -1   1 1657.40   18.10
  -3  -1   1 1649.20   33.70
   3   1  -1 1818.70   34.30
   3   1  -1 1610.90   30.40
  -3  -1   0    0.97    2.06
  -3  -1   0    1.58    3.05
   3   1   0   -0.95    2.23
   3   1   0    0.57    2.24
  -3  -1  -1  921.53   21.52
  -3  -1  -1  978.99   27.43
   3   1   1  928.31   26.80
   3   1   1  897.16   20.85
  -3  -1  -2  135.92   10.09
  -3  -1  -2  142.87   11.43
   3   1   2  127.53   11.01
   3   1   2  135.64    8.31
  -3  -1  -3  170.19   12.36
  -3  -1  -3  187.70   13.25
   3   1   3  197.84   14.38
   3   1   3  178.59    9.15
  -3  -1  -4   23.44    6.93
  -3  -1  -4   17.75    5.89
   3   1   4   23.04    6.96
   3   1   4   31.07    5.39
  -3  -1  -5   20.20    7.31
  -3  -1  -5   22.14    6.84
   3   1   5   17.73    6.37
  -3  -1  -6   -1.07    4.07
  -3  -1  -6   -2.14    3.28
   3   1   6   -0.10    3.38
  -3  -1  -7   93.09   15.52
  -3  -1  -7   95.88   14.02
   3   1   7   75.25   13.27
  -3  -1  -8   -4.17    5.08
   3   1   8    3.35    5.42
  -3  -1  -9    9.52    7.00
   3   1   9    8.25    6.62
  -3  -1 -10   -9.76    4.25
   3   1  10   -2.77    5.71
  -3  -2  13    2.73    6.67
   3   2 -13    1.13    5.30
  -3  -2  12    9.19    7.93
   3   2 -12   11.17    7.69
  -3  -2  11  197.40   19.40
   3   2 -11  195.14   19.00
  -3  -2  10    0.33    4.02
   3   2 -10    3.79    4.98
   3   2 -10    4.62    5.21
  -3  -2   9  108.24   15.84
   3   2  -9  100.63   15.16
   3   2  -9   93.42   10.63
  -3  -2   8  157.95   14.67
  -3  -2   8  136.99   10.96
   3   2  -8  146.52   14.43
   3   2  -8  131.27   10.72
  -3  -2   7    1.07    3.36
  -3  -2   7    2.59    3.01
   3   2  -7    1.42    2.94
   3   2  -7    4.27    2.90
  -3  -2   6  251.52   16.26
  -3  -2   6  238.94   13.51
   3   2  -6  230.72   15.80
   3   2  -6  237.51   10.66
  -3  -2   5   63.42    9.80
  -3  -2   5   65.75    7.69
   3   2  -5   62.57    9.90
   3   2  -5   62.03    4.79
  -3  -2   4   65.98    7.71
   3   2  -4   87.07    9.17
   3   2  -4   73.44    8.81
  -3  -2   3   84.04    8.71
   3   2  -3   69.31    8.06
   3   2  -3   67.68    9.31
  -3  -2   2  306.30   15.49
   3   2  -2  295.51   15.27
   3   2  -2  298.24   14.64
  -3  -2   1  164.16    6.44
  -3  -2   1  173.01   12.04
   3   2  -1  176.70   12.08
   3   2  -1  179.60   10.82
  -3  -2   0  121.15    7.26
  -3  -2   0  120.15   10.53
   3   2   0  120.65   10.44
   3   2   0  123.79    8.64
  -3  -2  -1   18.79    4.69
  -3  -2  -1   25.53    6.45
   3   2   1   25.67    6.41
   3   2   1   19.48    4.14
  -3  -2  -2  326.26   15.24
  -3  -2  -2  329.50   17.84
   3   2   2  301.08   17.37
   3   2   2  332.15   11.87
  -3  -2  -3    9.84    4.69
  -3  -2  -3    8.75    4.81
   3   2   3   13.95    5.50
   3   2   3    9.79    2.95
  -3  -2  -4   18.19    6.39
  -3  -2  -4   24.84    7.22
   3   2   4   20.82    6.89
  -3  -2  -5  106.64   14.95
  -3  -2  -5   94.58   11.55
   3   2   5  101.42   12.33
  -3  -2  -6   10.72    6.12
  -3  -2  -6    3.85    4.79
   3   2   6    7.37    5.77
  -3  -2  -7   29.73    9.85
  -3  -2  -7   21.94    7.91
   3   2   7   19.11    8.69
  -3  -2  -8    9.31    7.68
  -3  -2  -8   15.64    7.16
   3   2   8   12.89    7.86
  -3  -2  -9   -0.58    6.08
   3   2   9   -1.38    4.79
  -3  -2 -10   13.52    8.89
   3   2  10    7.79    9.29
  -3  -3  13    8.81    7.99
   3   3 -13    8.34    7.13
  -3  -3  12   14.47    8.72
   3   3 -12   24.93    9.51
  -3  -3  11    0.64    4.96
   3   3 -11    4.29    5.97
  -3  -3  10  176.60   18.15
   3   3 -10  178.12   17.80
  -3  -3   9   21.86    8.11
   3   3  -9   19.06    7.55
  -3  -3   8   14.33    6.48
   3   3  -8   18.90    7.27
  -3  -3   7  253.82   18.03
  -3  -3   7  236.56   13.64
   3   3  -7  230.87   17.39
   3   3  -7  215.10   12.11
  -3  -3   6   77.13   11.61
  -3  -3   6   86.41    8.90
   3   3  -6   87.83   10.65
   3   3  -6   78.82    6.68
  -3  -3   5   60.87   10.66
  -3  -3   5   57.75    8.63
   3   3  -5   42.90    8.40
   3   3  -5   47.36    4.52
  -3  -3   4  242.12   14.01
   3   3  -4  271.48   16.42
   3   3  -4  237.18   15.25
  -3  -3   3   28.45    2.84
  -3  -3   3   29.97    6.67
   3   3  -3   29.24    7.25
   3   3  -3   34.18    7.21
  -3  -3   2  795.02   13.51
  -3  -3   2  787.63   25.52
   3   3  -2  818.78   27.19
   3   3  -2  802.95   24.61
  -3  -3   1  815.89   16.54
  -3  -3   1  855.38   27.42
   3   3  -1  893.94   28.30
   3   3  -1  845.10   23.67
  -3  -3   0 1075.30   22.30
  -3  -3   0 1044.00   31.20
   3   3   0 1134.80   32.50
   3   3   0 1052.40   24.60
  -3  -3  -1  761.30   21.52
  -3  -3  -1  792.63   28.02
   3   3   1  790.63   28.15
   3   3   1  772.29   19.52
  -3  -3  -2  120.73   10.26
  -3  -3  -2  126.64   12.31
   3   3   2  137.81   12.89
   3   3   2  135.47    7.81
  -3  -3  -3  599.96   23.60
  -3  -3  -3  578.71   25.76
   3   3   3  631.77   27.35
  -3  -3  -4   46.79    9.85
  -3  -3  -4   39.06    9.26
   3   3   4   49.99   10.19
  -3  -3  -5    4.44    4.67
  -3  -3  -5   -0.51    3.82
   3   3   5    4.86    5.23
  -3  -3  -6  242.25   19.83
  -3  -3  -6  249.34   19.51
   3   3   6  253.88   20.76
  -3  -3  -7    8.73    6.57
  -3  -3  -7   10.28    6.34
   3   3   7    6.47    6.51
  -3  -3  -8   56.60   13.24
  -3  -3  -8   35.36   10.19
   3   3   8   40.92   12.25
  -3  -3  -9    9.94    8.45
  -3  -3  -9   25.46   10.52
   3   3   9   25.90    9.91
  -3  -3 -10    2.78    7.27
   3   3  10    8.73    7.96
  -3  -4  13    0.32    6.79
   3   4 -13    5.82    7.24
  -3  -4  12   21.55    9.98
   3   4 -12   16.81    9.12
  -3  -4  11   23.65    9.87
   3   4 -11   32.23   10.41
  -3  -4  10   11.16    6.88
   3   4 -10   14.62    8.01
  -3  -4   9  327.02   23.49
   3   4  -9  365.11   24.55
  -3  -4   8   12.99    6.03
   3   4  -8    8.02    6.35
  -3  -4   7  115.07   13.24
  -3  -4   7  112.82   12.77
   3   4  -7  104.03   12.68
  -3  -4   6  571.64   26.75
  -3  -4   6  590.65   21.72
   3   4  -6  585.16   27.21
  -3  -4   5   19.70    6.57
  -3  -4   5   23.77    6.22
   3   4  -5   20.01    6.81
  -3  -4   4  653.82   23.65
   3   4  -4  696.91   27.64
   3   4  -4  610.57   25.16
  -3  -4   3  376.72   18.56
   3   4  -3  412.98   21.05
   3   4  -3  402.65   19.62
  -3  -4   2  118.17    7.20
  -3  -4   2  123.22   11.39
   3   4  -2  128.49   12.19
   3   4  -2  113.06   10.33
  -3  -4   1 1439.80   25.90
  -3  -4   1 1477.60   38.10
   3   4  -1 1348.00   37.40
   3   4  -1 1465.80   32.90
  -3  -4   0  268.86   12.76
  -3  -4   0  244.38   16.51
   3   4   0  274.18   17.51
   3   4   0  233.52   12.67
  -3  -4  -1  882.35   25.00
  -3  -4  -1  908.15   31.96
   3   4   1  912.94   31.90
   3   4   1  911.08   22.33
  -3  -4  -2  252.70   15.17
  -3  -4  -2  276.61   18.65
   3   4   2  261.76   18.08
  -3  -4  -3   45.51    9.18
  -3  -4  -3   44.18   10.09
   3   4   3   48.60   10.33
  -3  -4  -4  119.72   12.98
  -3  -4  -4  129.48   14.27
   3   4   4  140.70   14.96
  -3  -4  -5   25.73    8.86
  -3  -4  -5   26.81    8.74
   3   4   5   23.08    8.28
  -3  -4  -6    1.94    5.08
  -3  -4  -6   -2.38    4.45
   3   4   6   -2.88    4.69
  -3  -4  -7   88.72   16.23
  -3  -4  -7   69.56   14.31
   3   4   7   57.19   13.82
  -3  -4  -8    8.08    7.21
  -3  -4  -8   -4.15    4.45
   3   4   8    6.70    7.61
  -3  -4  -9    6.08    8.66
  -3  -4  -9    4.86    7.56
   3   4   9   14.01    8.31
  -3  -5  12   -3.26    3.67
   3   5 -12   -1.55    5.53
  -3  -5  11   74.04   15.88
   3   5 -11   67.86   15.27
  -3  -5  10  107.14   17.64
   3   5 -10  103.71   17.90
  -3  -5   9   11.34    7.13
   3   5  -9    7.92    7.23
  -3  -5   8  269.48   21.51
   3   5  -8  254.63   20.92
  -3  -5   7   51.99   11.31
   3   5  -7   46.59   11.04
  -3  -5   6  260.36   19.45
  -3  -5   6  261.04   15.55
   3   5  -6  274.61   19.96
  -3  -5   5  194.52   16.78
  -3  -5   5  199.42   14.02
   3   5  -5  180.75   15.66
  -3  -5   4   -0.61    2.97
   3   5  -4   -1.76    3.21
   3   5  -4   -5.01    2.43
  -3  -5   3  169.43   13.73
   3   5  -3  165.78   14.60
   3   5  -3  156.60   13.57
  -3  -5   2  293.87   12.98
  -3  -5   2  283.64   17.98
   3   5  -2  311.51   19.48
   3   5  -2  289.94   16.89
  -3  -5   1   52.19    7.66
  -3  -5   1   41.51    9.23
   3   5  -1   50.23    9.45
   3   5  -1   34.79    7.37
  -3  -5   0  291.21   14.78
  -3  -5   0  298.54   19.39
   3   5   0  334.92   20.48
   3   5   0  302.61   15.32
  -3  -5  -1   14.34    5.11
  -3  -5  -1   20.56    7.32
   3   5   1   17.72    6.75
  -3  -5  -2  321.97   18.22
  -3  -5  -2  338.17   21.92
   3   5   2  358.16   22.15
  -3  -5  -3   12.47    6.10
  -3  -5  -3    9.65    6.30
   3   5   3    5.94    5.12
  -3  -5  -4   -2.08    4.31
   3   5   4   -2.70    3.36
  -3  -5  -5   22.66    8.12
   3   5   5   12.59    6.93
  -3  -5  -6   57.47   13.01
   3   5   6   43.25   11.44
  -3  -5  -7    2.75    6.22
   3   5   7    1.65    5.92
  -3  -5  -8    5.73    7.35
  -3  -5  -8   16.28    8.71
   3   5   8   16.28    8.84
  -3  -5  -9   -7.09    4.76
  -3  -6  12    7.30    7.97
  -3  -6  11    1.92    5.93
   3   6 -11   10.78    7.32
  -3  -6  10   64.85   15.17
   3   6 -10   63.40   14.97
  -3  -6   9   50.87   13.12
   3   6  -9   45.89   12.62
  -3  -6   8   23.85    9.43
   3   6  -8   17.76    8.23
  -3  -6   7   46.57   11.55
   3   6  -7   43.51   12.00
  -3  -6   6   29.39    9.39
   3   6  -6   32.70    9.71
  -3  -6   5   79.12   13.38
  -3  -6   5   89.54   12.73
   3   6  -5   84.28   13.69
  -3  -6   4   35.48    8.38
   3   6  -4   16.72    7.64
   3   6  -4   25.12    8.25
  -3  -6   3   12.41    5.70
   3   6  -3   12.29    6.72
   3   6  -3    9.23    5.51
  -3  -6   2   79.58   12.98
   3   6  -2   48.58   10.35
   3   6  -2   67.86   11.38
  -3  -6   1   71.66   12.56
   3   6  -1  101.54   12.63
   3   6  -1   86.19   10.17
  -3  -6   0    2.12    3.56
  -3  -6   0    8.85    5.87
   3   6   0    3.29    4.80
  -3  -6  -1  370.52   19.53
  -3  -6  -1  342.29   22.65
   3   6   1  367.12   23.13
  -3  -6  -2    2.82    4.36
  -3  -6  -2    1.92    4.98
   3   6   2   -2.05    3.38
  -3  -6  -3   38.22    9.48
   3   6   3   50.81   11.72
  -3  -6  -4   51.43   11.50
   3   6   4   49.13   12.12
  -3  -6  -5   10.90    7.34
   3   6   5    8.48    6.94
  -3  -6  -6   11.40    7.57
   3   6   6   17.66    9.20
  -3  -6  -7   18.90    9.50
   3   6   7   28.19   10.70
  -3  -6  -8   -1.39    7.30
   3   6   8   -0.06    6.97
  -3  -7  11    8.59    8.18
   3   7 -11   18.99   10.78
  -3  -7  10    8.66    8.06
   3   7 -10   -2.42    5.42
  -3  -7   9   60.95   14.37
   3   7  -9   55.53   14.11
  -3  -7   8   67.03   15.94
   3   7  -8   52.49   12.80
  -3  -7   7    1.10    4.72
   3   7  -7   -2.84    4.33
  -3  -7   6   69.62   14.33
   3   7  -6   61.50   13.64
  -3  -7   5  203.78   18.84
   3   7  -5  181.35   17.84
  -3  -7   4   16.25    6.78
   3   7  -4   17.65    7.89
   3   7  -4   16.08    7.59
  -3  -7   3  437.03   24.28
   3   7  -3  419.24   25.63
   3   7  -3  431.39   24.27
  -3  -7   2   42.08   10.23
   3   7  -2   51.46   11.61
   3   7  -2   47.08   10.26
  -3  -7   1  226.45   18.97
   3   7  -1  262.82   20.40
   3   7  -1  253.07   17.36
  -3  -7   0  304.58   22.14
   3   7   0  301.36   22.07
  -3  -7  -1   -2.01    4.49
   3   7   1    3.11    4.60
  -3  -7  -2  246.25   18.46
  -3  -7  -2  231.01   20.94
   3   7   2  238.46   20.40
  -3  -7  -3    7.00    5.45
   3   7   3    8.18    6.67
  -3  -7  -4   13.99    8.03
   3   7   4   22.62    9.08
  -3  -7  -5   40.11   11.57
   3   7   5   50.50   13.22
  -3  -7  -6   -3.97    6.30
   3   7   6    4.75    7.28
  -3  -7  -7    5.62    8.44
   3   7   7   10.08    8.68
  -3  -8  10   47.55   14.64
  -3  -8   9   26.12   11.84
   3   8  -9   33.00   12.04
  -3  -8   8   23.17   10.29
   3   8  -8   27.45   10.83
  -3  -8   7  133.45   21.92
   3   8  -7  157.01   18.96
  -3  -8   6    5.96    6.43
   3   8  -6    1.76    4.92
  -3  -8   5   65.95   14.91
   3   8  -5   70.19   14.68
  -3  -8   4  122.67   14.77
   3   8  -4  117.56   18.55
   3   8  -4  133.66   19.23
  -3  -8   3    8.80    6.93
   3   8  -3   16.18    8.02
   3   8  -3   14.78    7.21
  -3  -8   2  244.66   20.42
   3   8  -2  229.61   20.34
   3   8  -2  219.87   18.03
  -3  -8   1   -3.64    4.86
   3   8  -1    1.45    4.45
  -3  -8   0  129.04   19.52
   3   8   0  113.24   17.84
  -3  -8  -1   57.03   13.65
   3   8   1   63.16   14.11
  -3  -8  -2   49.54   13.27
   3   8   2   68.08   14.56
   3   8   3   49.59   12.73
   3   8   4    0.63    6.29
  -3  -8  -5   -3.44    7.31
   3   8   5    4.24    6.73
  -3  -9   8    4.64    7.20
   3   9  -8    6.32    8.50
  -3  -9   7   24.27   10.48
   3   9  -7   32.35   11.73
  -3  -9   6   17.49    8.90
   3   9  -6   20.00    9.59
  -3  -9   5   12.76    9.57
   3   9  -5   30.82   11.10
   3   9  -4   64.08   14.18
  -3  -9   3    4.22    5.80
   3   9  -3    3.60    5.29
   3   9  -3   12.44    6.92
  -3  -9   2   53.65   12.91
   3   9  -2   81.81   15.83
  -3  -9   1   43.34   12.85
   3   9  -1   46.23   12.62
  -3  -9   0    0.74    5.62
   3   9   0   -0.65    5.35
  -3  -9  -1   93.47   17.76
   3   9   1   79.80   16.02
  -3  -9  -2   16.73   10.09
   3   9   2    1.79    6.43
  -3  -9  -3   10.46    8.68
   3   9   3   13.37    8.42
   3   9   4   17.35    9.60
  -3 -10   5   11.88    8.19
   3  10  -5    5.15    7.66
  -3 -10   4    0.68    5.58
   3  10  -4    0.78    6.46
   3  10  -3   12.43    8.48
  -3 -10   2   12.50    9.02
   3  10  -2   20.34   10.10
  -3 -10   1    1.62    6.91
   3  10  -1    1.52    6.20
  -3 -10   0   47.93   14.33
   3  10   0   63.50   14.67
  -3 -10  -1    6.18    7.74
   3  10   1   -3.37    6.21
  -4  11   3   10.02    7.37
   4 -11  -3   -2.62    5.74
   4 -11  -2   82.19   17.57
   4 -11  -1   53.71   14.63
   4 -11   0   20.84   11.77
   4 -11   1    3.87    8.12
   4 -10  -7    2.74    7.16
  -4  10   6   50.80   14.40
   4 -10  -6   49.95   14.78
  -4  10   5    9.70    8.04
   4 -10  -5   11.59    8.01
  -4  10   4    0.80    5.85
   4 -10  -4   -5.73    5.19
  -4  10   3   55.64   14.19
   4 -10  -3   45.52   12.37
  -4  10   2   12.65    8.16
   4 -10  -2   15.28    9.07
   4 -10  -1   76.89   16.00
   4 -10   0   85.09   17.61
   4 -10   1   -4.75    3.89
   4 -10   2   18.63    9.67
  -4  10  -3   18.43    9.28
   4 -10   3   25.00   10.56
  -4  10  -4    0.29    6.28
   4 -10   4    0.99    6.48
  -4   9   8    0.78    6.21
   4  -9  -8   -0.33    6.08
  -4   9   7   72.88   16.13
   4  -9  -7   49.15   13.28
  -4   9   6   28.41   10.78
   4  -9  -6   33.95   11.65
  -4   9   5   37.83   11.82
   4  -9  -5   56.45   12.44
   4  -9  -5   48.38   12.42
  -4   9   4  157.57   18.63
   4  -9  -4  171.31   18.38
  -4   9   3    2.90    6.82
   4  -9  -3   -0.70    4.56
  -4   9   2  204.48   19.30
   4  -9  -2  156.13   17.86
  -4   9   1   55.77   12.87
   4  -9  -1   68.46   15.03
   4  -9   0   48.83   12.35
   4  -9   1  143.65   17.93
  -4   9  -2    9.67    7.35
   4  -9   2   11.34    7.27
  -4   9  -3   38.46   12.27
   4  -9   3   40.88   12.42
  -4   9  -4   49.50   13.68
   4  -9   4   61.06   14.89
  -4   9  -5    2.43    5.98
   4  -9   5    5.13    7.03
   4  -9   6   31.66   12.34
  -4   8  10    8.41    7.92
   4  -8 -10    1.88    6.23
  -4   8   9   65.66   16.01
   4  -8  -9   49.61   13.86
  -4   8   8   14.57    8.80
   4  -8  -8   13.47    8.95
  -4   8   7   -6.49    3.90
   4  -8  -7   -3.09    4.95
  -4   8   6  183.96   19.86
   4  -8  -6  187.69   17.76
   4  -8  -6  168.67   18.65
  -4   8   5   53.26   12.55
   4  -8  -5   58.35   12.48
   4  -8  -5   30.30   10.32
  -4   8   4  219.46   19.98
   4  -8  -4  198.26   18.55
  -4   8   3  108.88   16.85
   4  -8  -3  118.96   17.81
  -4   8   2   48.89   11.43
   4  -8  -2   39.43   11.02
  -4   8   1  349.23   22.27
   4  -8  -1  317.15   23.13
  -4   8   0    4.37    4.76
   4  -8   0    7.68    5.40
  -4   8  -1  131.50   16.21
   4  -8   1  139.08   16.67
  -4   8  -2   45.69   12.50
   4  -8   2   49.91   12.06
  -4   8  -3    0.66    5.32
   4  -8   3   -2.09    4.41
  -4   8  -4   38.59   10.94
   4  -8   4   48.60   12.52
  -4   8  -5   20.18    8.80
   4  -8   5   23.53    9.95
  -4   8  -6   13.12    8.55
   4  -8   6   13.28    8.56
  -4   8  -7    9.06    8.83
   4  -8   7    8.04    8.58
  -4   7  11    8.89    8.21
   4  -7 -11   15.79    9.12
  -4   7  10   39.51   13.16
   4  -7 -10   49.10   13.72
  -4   7   9   27.71   10.69
   4  -7  -9   14.71    8.95
  -4   7   8   16.22    8.31
   4  -7  -8   10.19    7.51
  -4   7   7   29.07    9.90
   4  -7  -7   31.73    9.13
   4  -7  -7   37.37   11.09
  -4   7   6   57.31   13.05
   4  -7  -6   51.98   11.22
   4  -7  -6   83.08   15.59
  -4   7   5   88.32   15.44
   4  -7  -5  112.79   16.32
   4  -7  -5   96.66   16.08
  -4   7   4    7.30    5.98
   4  -7  -4   10.99    6.40
  -4   7   3  288.71   20.79
   4  -7  -3  282.14   20.48
  -4   7   2   21.50    7.54
   4  -7  -2   23.76    8.42
  -4   7   1  198.51   16.35
   4  -7  -1  199.89   18.08
  -4   7   0  193.43   17.53
  -4   7   0  218.73   16.64
   4  -7   0  207.36   18.30
  -4   7  -1   -0.98    3.58
  -4   7  -1    6.32    4.44
   4  -7   1   -3.66    3.58
  -4   7  -2   11.64    6.73
   4  -7   2    8.91    5.54
  -4   7  -3   32.55    9.63
   4  -7   3   45.52   11.25
  -4   7  -4    1.63    5.18
   4  -7   4   10.42    6.66
  -4   7  -5   29.24   10.23
   4  -7   5   18.06    8.62
  -4   7  -6   15.73    8.53
   4  -7   6   25.98   10.01
  -4   7  -7   12.17    8.10
   4  -7   7   27.17   10.39
   4  -7   8    5.91    6.73
   4  -6 -12   16.40    9.35
  -4   6  11    2.01    6.98
   4  -6 -11    1.91    6.31
  -4   6  10   39.81   12.13
   4  -6 -10   27.88   10.35
  -4   6   9   17.99    8.24
   4  -6  -9   16.77    7.91
  -4   6   8   36.33   10.10
   4  -6  -8   49.90   11.30
   4  -6  -8   50.73   12.51
  -4   6   7   64.31   13.42
   4  -6  -7   71.47   12.72
   4  -6  -7   63.52   12.88
  -4   6   6   17.30    7.59
   4  -6  -6   23.21    7.66
   4  -6  -6   19.47    7.49
  -4   6   5   93.16   15.25
   4  -6  -5   76.78   12.73
   4  -6  -5   60.69   12.14
  -4   6   4  314.36   21.06
   4  -6  -4  262.61   18.68
  -4   6   3   43.37   10.00
   4  -6  -3   32.56    8.56
  -4   6   2  313.45   19.70
   4  -6  -2  287.42   19.75
  -4   6   1   91.03   10.90
   4  -6  -1   82.86   13.21
  -4   6   0   25.45    8.17
  -4   6   0   48.17    9.43
   4  -6   0   35.48    9.22
  -4   6  -1  554.75   27.65
  -4   6  -1  622.69   24.81
   4  -6   1  601.07   29.02
  -4   6  -2   12.80    6.16
   4  -6   2    8.85    5.58
  -4   6  -3    4.53    5.31
   4  -6   3    3.31    5.59
  -4   6  -4  118.55   18.19
   4  -6   4  133.94   15.67
  -4   6  -5   26.02    9.21
   4  -6   5   25.64    9.44
  -4   6  -6   61.29   14.25
   4  -6   6   82.78   15.73
  -4   6  -7   16.14    8.27
   4  -6   7   15.91    8.21
   4  -6   7   24.33    9.52
  -4   6  -8    7.55    7.83
   4  -6   8   14.45    7.82
   4  -6   8    7.20    6.54
  -4   5  12    7.89    7.51
   4  -5 -12   -0.82    6.01
  -4   5  11   20.79    9.72
   4  -5 -11   28.06   10.52
  -4   5  10   15.52    8.58
   4  -5 -10   21.20    8.80
  -4   5   9   81.23   15.66
   4  -5  -9   64.53   12.03
   4  -5  -9   43.43   10.94
  -4   5   8   74.47   14.25
   4  -5  -8   64.82   11.88
   4  -5  -8   84.97   14.29
  -4   5   7   58.96   12.42
   4  -5  -7   46.83   10.25
   4  -5  -7   50.57   10.99
  -4   5   6  161.13   15.68
   4  -5  -6  146.99   14.23
   4  -5  -6  156.16   14.57
  -4   5   5  765.80   31.56
   4  -5  -5  704.13   28.67
   4  -5  -5  768.91   29.65
  -4   5   4   77.57   12.85
   4  -5  -4   77.41   12.12
  -4   5   3  766.26   29.64
   4  -5  -3  690.90   28.40
  -4   5   2  159.66   13.68
   4  -5  -2  156.47   14.19
  -4   5   1  153.56   13.61
  -4   5   1  126.72   12.05
   4  -5  -1  140.28   13.53
  -4   5   0  812.59   30.45
  -4   5   0  886.21   29.08
   4  -5   0  875.42   32.60
  -4   5  -1    9.52    5.63
  -4   5  -1   13.98    5.28
   4  -5   1   16.74    6.45
  -4   5  -2  358.89   21.87
  -4   5  -2  408.51   19.15
   4  -5   2  399.07   19.50
   4  -5   2  380.65   22.51
  -4   5  -3  194.11   17.35
   4  -5   3  216.41   14.54
   4  -5   3  226.35   18.08
  -4   5  -4   15.87    6.79
   4  -5   4   19.26    6.77
   4  -5   4   16.04    7.04
  -4   5  -5   81.44   15.08
   4  -5   5   99.70   12.37
   4  -5   5  110.20   16.20
  -4   5  -6    7.49    7.11
   4  -5   6    9.78    6.34
   4  -5   6    5.48    5.89
  -4   5  -7   39.51   12.00
   4  -5   7   48.85   12.09
   4  -5   7   36.72   11.29
  -4   5  -8   16.29    8.22
   4  -5   8   16.04    8.90
   4  -5   8   24.58    9.75
  -4   5  -9   10.00    7.67
   4  -5   9    9.73    7.26
  -4   4  13   22.36    9.99
   4  -4 -13   17.47    9.35
  -4   4  12   41.97   12.95
   4  -4 -12   51.56   12.86
  -4   4  11    3.11    6.51
   4  -4 -11    4.42    6.41
  -4   4  10   59.27   13.20
   4  -4 -10   60.29   11.92
   4  -4 -10   49.04   11.89
  -4   4   9   77.08   13.86
   4  -4  -9   62.62   11.89
   4  -4  -9   75.03   13.95
  -4   4   8  115.83   14.36
   4  -4  -8   93.65   13.50
   4  -4  -8   96.10   14.55
  -4   4   7  208.59   17.39
   4  -4  -7  208.99   16.31
   4  -4  -7  219.30   16.45
  -4   4   6   79.38   13.31
   4  -4  -6   50.79    9.90
   4  -4  -6   70.93   11.62
  -4   4   5  311.60   19.54
   4  -4  -5  308.18   18.69
   4  -4  -5  300.08   17.41
  -4   4   4  907.95   31.68
   4  -4  -4  867.03   30.30
  -4   4   3  279.89   17.49
   4  -4  -3  252.51   16.82
  -4   4   2  870.25   29.34
   4  -4  -2  804.71   29.10
  -4   4   1  337.47   17.95
  -4   4   1  344.29   18.30
   4  -4  -1  339.06   10.66
   4  -4  -1  350.70   19.61
  -4   4   0  185.09   14.01
  -4   4   0  190.28   13.48
   4  -4   0  198.41    9.80
   4  -4   0  197.62   15.27
  -4   4  -1  389.15   20.46
  -4   4  -1  395.28   18.61
   4  -4   1  404.04   15.88
   4  -4   1  412.44   21.68
  -4   4  -2   28.60    8.24
  -4   4  -2   33.69    6.99
   4  -4   2   31.57    6.67
   4  -4   2   30.01    7.91
  -4   4  -3  121.85   13.34
  -4   4  -3  107.24   10.15
   4  -4   3  111.69   10.88
   4  -4   3  106.96   12.19
  -4   4  -4   91.17   14.72
   4  -4   4   96.58   11.51
   4  -4   4   85.85   13.81
  -4   4  -5   22.91    8.06
   4  -4   5   16.83    6.93
   4  -4   5   27.49    8.67
  -4   4  -6   34.94   10.40
   4  -4   6   49.83   11.56
   4  -4   6   47.01   10.88
  -4   4  -7    1.33    5.00
   4  -4   7    4.72    5.90
   4  -4   7    4.08    5.16
  -4   4  -8   32.39   10.66
   4  -4   8   31.51   10.34
  -4   4  -9   -5.36    5.15
   4  -4   9   -2.66    6.42
   4  -3 -13   -5.71    4.93
  -4   3  12   25.90    9.33
   4  -3 -12   27.18   10.28
  -4   3  11   93.15   16.60
   4  -3 -11   89.44   15.56
  -4   3  10   41.74   10.90
   4  -3 -10   47.86   10.73
   4  -3 -10   46.74   11.19
  -4   3   9   48.13   10.71
   4  -3  -9   62.46   11.96
   4  -3  -9   41.86   10.14
  -4   3   8    9.55    5.88
   4  -3  -8    7.97    5.25
   4  -3  -8    9.39    4.82
  -4   3   7  335.13   15.81
  -4   3   7  326.33   20.49
   4  -3  -7  338.77   20.11
   4  -3  -7  312.24   17.94
  -4   3   6  164.90   10.08
  -4   3   6  151.58   13.95
   4  -3  -6  159.74   13.72
   4  -3  -6  149.27   12.12
  -4   3   5    2.74    2.58
  -4   3   5    3.60    3.98
   4  -3  -5    0.85    3.68
   4  -3  -5    2.45    3.29
  -4   3   4 1276.80   21.00
  -4   3   4 1247.60   35.70
   4  -3  -4 1158.70   33.90
  -4   3   3  262.39   16.50
   4  -3  -3  273.27   16.70
  -4   3   2  390.13   19.32
   4  -3  -2  396.92   11.66
   4  -3  -2  349.65   18.70
  -4   3   1  506.73   19.96
  -4   3   1  561.49   22.35
   4  -3  -1  594.24   15.80
   4  -3  -1  554.11   23.25
  -4   3   0  169.38   12.47
  -4   3   0  171.15   12.62
   4  -3   0  202.92   10.67
   4  -3   0  163.53   13.14
  -4   3  -1  372.67   18.72
  -4   3  -1  369.72   17.84
   4  -3   1  404.29   16.52
   4  -3   1  382.37   19.86
  -4   3  -2  220.55   15.61
  -4   3  -2  231.91   14.30
   4  -3   2  231.07   13.97
   4  -3   2  236.49   16.21
  -4   3  -3   15.02    6.63
  -4   3  -3   15.44    5.27
   4  -3   3   20.78    6.43
   4  -3   3   15.93    6.10
  -4   3  -4   24.72    8.19
  -4   3  -4   29.10    6.79
   4  -3   4   22.95    7.15
   4  -3   4   30.11    8.03
  -4   3  -5   51.46   11.42
   4  -3   5   96.43   14.18
   4  -3   5   77.01   12.38
  -4   3  -6   28.71    9.82
   4  -3   6   24.90    8.46
   4  -3   6   39.35    9.58
  -4   3  -7   18.39    8.45
   4  -3   7   20.10    8.65
  -4   3  -8    6.57    7.38
   4  -3   8   -2.71    4.45
  -4   3  -9   17.72    9.69
   4  -3   9   25.78   10.95
   4  -2 -13   11.07    8.15
  -4   2  12    3.06    6.10
  -4   2  12    1.09    5.53
   4  -2 -12    6.35    5.83
  -4   2  11   92.97   14.87
  -4   2  11   87.72   15.43
   4  -2 -11   93.15   15.45
   4  -2 -11   66.62   13.09
  -4   2  10   67.18   12.01
  -4   2  10   63.88   12.17
   4  -2 -10   75.01   13.42
   4  -2 -10   59.12   11.52
  -4   2   9  107.09   12.04
  -4   2   9   88.49   13.88
   4  -2  -9  113.74   13.31
   4  -2  -9  103.90   11.85
  -4   2   8   85.38    9.81
  -4   2   8   94.90   11.82
   4  -2  -8   91.49   13.42
   4  -2  -8  102.56   10.83
  -4   2   7    2.53    3.37
  -4   2   7    8.53    5.08
   4  -2  -7    3.94    4.25
   4  -2  -7    2.39    3.18
  -4   2   6   19.83    5.21
  -4   2   6   23.94    7.05
   4  -2  -6   25.53    7.10
   4  -2  -6   22.40    5.66
  -4   2   5  667.51   19.41
  -4   2   5  639.07   25.49
   4  -2  -5  595.38   24.48
   4  -2  -5  550.71   18.96
  -4   2   4   42.38    6.04
  -4   2   4   32.49    7.39
   4  -2  -4   39.62    8.37
  -4   2   3  716.21   25.75
   4  -2  -3  767.49   18.66
   4  -2  -3  674.54   24.92
  -4   2   2  267.20   12.65
  -4   2   2  240.99   14.92
   4  -2  -2  272.73   11.50
   4  -2  -2  237.63   14.99
  -4   2   1   33.55    6.33
  -4   2   1   43.14    8.28
   4  -2  -1   36.75    5.93
   4  -2  -1   37.26    8.09
  -4   2   0  274.14   14.23
  -4   2   0  267.31   15.41
   4  -2   0  272.81   13.23
   4  -2   0  272.03   15.83
  -4   2  -1    5.06    3.64
  -4   2  -1    5.87    3.97
   4  -2   1    9.18    4.01
   4  -2   1   10.64    4.51
  -4   2  -2   12.32    5.20
  -4   2  -2   12.79    5.10
   4  -2   2   14.70    5.22
   4  -2   2   11.75    5.08
  -4   2  -3  354.77   19.81
  -4   2  -3  338.92   17.45
   4  -2   3  367.62   19.50
   4  -2   3  341.93   18.31
  -4   2  -4    0.41    4.30
  -4   2  -4    1.57    3.85
   4  -2   4    7.69    4.76
   4  -2   4    9.68    5.12
  -4   2  -5   44.03   10.64
   4  -2   5   49.53   10.98
   4  -2   5   39.88    8.51
  -4   2  -6   43.78   10.85
   4  -2   6   45.13   10.80
  -4   2  -7   20.07    8.96
   4  -2   7   36.38   10.47
  -4   2  -8   61.91   14.14
   4  -2   8   66.41   14.52
  -4   2  -9    4.49    7.41
   4  -2   9   10.80    7.04
  -4   1  13    6.28    7.81
  -4   1  12   46.78   12.07
   4  -1 -12   66.59   13.57
  -4   1  11   25.40    9.37
  -4   1  11   19.55    7.97
   4  -1 -11   15.15    7.63
   4  -1 -11   19.44    7.96
  -4   1  10   -0.54    4.01
  -4   1  10    5.65    4.92
   4  -1 -10    1.65    5.17
   4  -1 -10   -0.05    4.07
  -4   1   9  198.10   15.79
  -4   1   9  186.68   15.88
   4  -1  -9  175.31   16.06
   4  -1  -9  159.99   13.52
  -4   1   8   -1.74    2.70
  -4   1   8   -0.26    2.85
   4  -1  -8   -1.67    2.96
   4  -1  -8    5.54    3.52
  -4   1   7  249.20   15.17
  -4   1   7  234.33   16.43
   4  -1  -7  239.87   16.95
   4  -1  -7  221.30   12.96
  -4   1   6  266.40   14.70
  -4   1   6  265.98   16.97
   4  -1  -6  220.62   15.68
   4  -1  -6  201.65   11.24
  -4   1   5   12.41    4.28
  -4   1   5    2.38    3.77
   4  -1  -5    8.26    4.94
   4  -1  -5    8.63    3.37
  -4   1   4 1389.60   35.50
   4  -1  -4 1439.00   29.60
   4  -1  -4 1302.80   34.60
   4  -1  -4 1372.20   24.00
  -4   1   3  104.27   10.39
   4  -1  -3  122.27    8.93
   4  -1  -3  104.61   10.56
  -4   1   2  853.04   19.11
  -4   1   2  818.26   26.66
   4  -1  -2  912.97   23.22
   4  -1  -2  795.98   25.98
  -4   1   1  313.07   12.73
  -4   1   1  310.52   16.78
   4  -1  -1  360.24   15.33
   4  -1  -1  316.98   16.53
  -4   1   0  345.02   14.62
  -4   1   0  380.83   18.47
   4  -1   0  412.50   17.26
   4  -1   0  379.95   17.83
  -4   1  -1  933.28   25.84
  -4   1  -1  984.06   29.28
   4  -1   1 1020.10   28.70
   4  -1   1  949.99   27.59
  -4   1  -2  116.73   10.69
  -4   1  -2  115.54   10.83
   4  -1   2  107.58   10.61
   4  -1   2   97.30    9.81
  -4   1  -3  329.32   18.55
  -4   1  -3  288.51   16.76
   4  -1   3  319.94   18.90
   4  -1   3  315.90   16.43
  -4   1  -4  314.12   19.69
  -4   1  -4  276.46   16.86
   4  -1   4  312.47   20.04
   4  -1   4  301.49   16.56
  -4   1  -5   17.90    7.35
  -4   1  -5   14.62    6.12
   4  -1   5   15.74    6.93
  -4   1  -6  141.75   16.00
   4  -1   6  167.57   17.25
  -4   1  -7   57.49   12.80
   4  -1   7   51.86   12.42
  -4   1  -8   44.19   11.86
   4  -1   8   24.89   10.44
  -4   1  -9   36.67   11.85
   4  -1   9   20.20    9.74
  -4   0  13    6.32    7.40
   4   0 -13    1.87    6.63
  -4   0  12   10.62    7.45
   4   0 -12   -0.08    5.48
  -4   0  11  154.60   16.88
   4   0 -11  188.90   18.40
  -4   0  10   -0.24    4.39
  -4   0  10    0.85    4.06
   4   0 -10   -2.22    4.57
  -4   0   9    4.24    4.54
  -4   0   9    4.75    4.39
   4   0  -9    3.84    5.14
   4   0  -9    2.69    6.59
  -4   0   8   50.40    9.94
  -4   0   8   69.63   11.23
   4   0  -8   57.20   11.19
   4   0  -8   45.56    7.67
  -4   0   7    4.89    3.96
  -4   0   7   -0.61    3.27
   4   0  -7    0.45    3.01
   4   0  -7    2.15    3.00
  -4   0   6 1111.00   31.10
  -4   0   6 1042.10   31.70
   4   0  -6 1002.40   32.80
   4   0  -6  966.71   21.07
  -4   0   5  214.27   13.39
  -4   0   5  195.55   14.01
   4   0  -5  209.73   14.97
   4   0  -5  178.49    7.94
  -4   0   4  869.24   28.03
   4   0  -4  955.51   26.49
   4   0  -4  844.36   28.11
   4   0  -4  840.71   14.22
  -4   0   3 1346.10   34.40
   4   0  -3 1467.80   32.10
   4   0  -3 1255.10   33.00
  -4   0   2    2.48    1.75
  -4   0   2   -0.38    2.86
   4   0  -2    0.66    2.70
   4   0  -2   -1.88    2.16
  -4   0   1 1510.60   24.10
  -4   0   1 1456.20   35.90
   4   0  -1 1580.70   34.50
   4   0  -1 1467.20   33.80
  -4   0   0   24.42    5.01
  -4   0   0   17.77    5.74
   4   0   0   22.70    6.12
   4   0   0   27.37    6.05
  -4   0  -1   58.39    7.17
  -4   0  -1   65.36   10.41
   4   0   1   65.83    9.80
   4   0   1   64.10    7.76
  -4   0  -2  612.74   22.24
  -4   0  -2  629.03   24.71
   4   0   2  638.45   25.48
   4   0   2  602.97   21.00
  -4   0  -3  268.06   16.58
  -4   0  -3  272.70   17.15
   4   0   3  280.97   18.33
   4   0   3  301.04   15.14
  -4   0  -4   59.33   11.17
  -4   0  -4   62.03   10.67
   4   0   4   74.58   12.88
  -4   0  -5   69.98   12.44
  -4   0  -5   78.16   12.19
   4   0   5   79.22   13.77
  -4   0  -6    3.02    4.90
  -4   0  -6   -3.17    3.59
   4   0   6    3.68    4.82
  -4   0  -7   11.67    7.20
   4   0   7    6.25    6.09
  -4   0  -8    6.33    7.00
   4   0   8    1.51    6.30
  -4   0  -9    1.32    5.78
   4   0   9    0.91    5.96
  -4  -1  13   35.16   12.19
   4   1 -13   53.12   14.08
  -4  -1  12   16.14    8.90
   4   1 -12    7.61    6.87
  -4  -1  11   59.78   12.90
   4   1 -11   69.50   14.06
  -4  -1  10  355.66   23.52
   4   1 -10  342.40   23.33
  -4  -1   9   18.28    7.52
  -4  -1   9   30.92    8.06
   4   1  -9   14.15    6.66
  -4  -1   8  267.51   18.47
  -4  -1   8  287.99   17.82
   4   1  -8  267.10   19.16
  -4  -1   7  109.89   11.86
  -4  -1   7  107.25   11.18
   4   1  -7  110.97   12.40
  -4  -1   6   19.06    6.24
  -4  -1   6   22.61    6.39
   4   1  -6   13.22    5.48
  -4  -1   5 1455.00   36.60
   4   1  -5 1533.50   37.30
   4   1  -5 1408.80   38.10
  -4  -1   4  396.93   19.46
   4   1  -4  408.99   19.01
   4   1  -4  380.82   19.36
  -4  -1   3 1117.80   31.90
   4   1  -3 1169.60   31.20
   4   1  -3 1054.10   30.50
  -4  -1   2  502.51   21.71
   4   1  -2  528.44   21.13
   4   1  -2  512.08   20.73
  -4  -1   1    4.67    2.21
  -4  -1   1   10.98    4.97
   4   1  -1    9.04    4.62
   4   1  -1    7.97    3.94
  -4  -1   0  442.47   14.58
  -4  -1   0  440.64   20.96
   4   1   0  477.50   21.14
   4   1   0  396.90   17.15
  -4  -1  -1   34.80    6.45
  -4  -1  -1   25.63    6.95
   4   1   1   35.45    7.76
   4   1   1   37.64    6.72
  -4  -1  -2    2.66    3.39
  -4  -1  -2    4.29    3.91
   4   1   2    2.29    3.52
   4   1   2    2.02    2.83
  -4  -1  -3   90.28   10.31
  -4  -1  -3   82.85   12.34
   4   1   3   96.37   11.79
   4   1   3   81.33    9.02
  -4  -1  -4   45.37    9.45
  -4  -1  -4   56.41   10.76
   4   1   4   64.54   12.17
  -4  -1  -5   13.10    6.97
  -4  -1  -5   16.80    7.16
   4   1   5    8.88    5.98
  -4  -1  -6   22.05    8.85
  -4  -1  -6   31.76    9.05
   4   1   6   29.27    9.27
  -4  -1  -7   42.24   11.50
  -4  -1  -7   26.86    9.02
   4   1   7   28.14   10.05
  -4  -1  -8   12.15    7.05
   4   1   8    7.85    8.04
  -4  -1  -9    6.79    7.11
   4   1   9   -0.70    6.24
  -4  -2  13    6.35    7.77
   4   2 -13    3.25    7.21
  -4  -2  12   69.76   15.22
   4   2 -12   60.24   13.69
  -4  -2  11   80.26   15.40
   4   2 -11   43.92   11.86
  -4  -2  10    2.53    5.12
   4   2 -10    2.84    4.63
  -4  -2   9  167.56   16.53
  -4  -2   9  149.65   13.34
   4   2  -9  165.65   16.78
  -4  -2   8    5.89    4.99
  -4  -2   8   13.63    5.88
   4   2  -8    7.44    5.10
  -4  -2   7   32.42    8.57
  -4  -2   7   34.99    8.39
   4   2  -7   36.76    9.52
  -4  -2   6  165.78   14.19
  -4  -2   6  144.03   12.53
   4   2  -6  155.16   14.38
  -4  -2   5   87.40   10.07
   4   2  -5   89.76   10.59
   4   2  -5   85.68   10.47
  -4  -2   4  448.74   20.87
   4   2  -4  485.28   22.13
   4   2  -4  442.38   21.24
  -4  -2   3  101.41   10.76
   4   2  -3  149.45   12.58
   4   2  -3  123.01   11.22
  -4  -2   2  100.26   10.69
   4   2  -2  112.81   11.01
   4   2  -2  116.50   10.70
  -4  -2   1  164.82    7.34
  -4  -2   1  171.96   13.86
   4   2  -1  193.85   14.24
   4   2  -1  157.97   11.62
  -4  -2   0   -0.60    2.27
  -4  -2   0   -0.82    3.26
   4   2   0   -1.87    2.46
   4   2   0    2.95    2.92
  -4  -2  -1  226.81   12.45
  -4  -2  -1  230.67   16.63
   4   2   1  254.07   17.18
   4   2   1  247.28   13.11
  -4  -2  -2  114.13   10.52
  -4  -2  -2  131.31   13.18
   4   2   2  132.09   13.31
   4   2   2  124.44    9.24
  -4  -2  -3    0.64    3.66
  -4  -2  -3   -0.05    3.67
   4   2   3    2.37    3.91
  -4  -2  -4  131.92   13.63
  -4  -2  -4  132.18   13.95
   4   2   4  118.51   14.05
  -4  -2  -5  104.01   15.57
  -4  -2  -5   92.20   14.81
   4   2   5  119.36   14.83
  -4  -2  -6   32.43    9.99
  -4  -2  -6   25.80    9.55
   4   2   6   33.04   10.18
  -4  -2  -7   77.90   15.26
  -4  -2  -7   79.04   15.15
   4   2   7   65.62   14.17
  -4  -2  -8   -0.50    5.28
   4   2   8   11.49    8.33
  -4  -2  -9   11.50    8.54
   4   2   9    9.01    8.84
  -4  -3  13   -0.38    6.42
   4   3 -13    9.75    7.85
  -4  -3  12   -2.77    3.94
   4   3 -12    6.65    7.79
  -4  -3  11   47.96   12.72
   4   3 -11   50.54   12.96
  -4  -3  10  101.03   16.91
   4   3 -10  113.76   17.85
  -4  -3   9    5.27    5.25
   4   3  -9   -5.73    2.72
  -4  -3   8    9.00    5.60
  -4  -3   8    0.69    3.62
   4   3  -8    1.15    3.80
  -4  -3   7   40.89    9.56
  -4  -3   7   57.68   10.20
   4   3  -7   36.24    9.01
  -4  -3   6  132.23   13.46
  -4  -3   6  145.46   12.78
   4   3  -6  143.22   14.11
  -4  -3   5  389.82   20.12
   4   3  -5  457.84   23.48
   4   3  -5  382.17   21.56
  -4  -3   4   50.54    9.65
   4   3  -4   50.68   10.00
   4   3  -4   51.61   10.04
  -4  -3   3  925.16   30.99
   4   3  -3  999.21   33.13
   4   3  -3  945.78   30.50
  -4  -3   2  332.06   19.22
   4   3  -2  350.62   19.91
   4   3  -2  312.05   17.07
  -4  -3   1  344.08   20.09
   4   3  -1  370.39   20.63
   4   3  -1  337.23   16.95
  -4  -3   0  273.36   12.35
  -4  -3   0  271.57   18.23
   4   3   0  280.85   18.44
   4   3   0  287.52   14.94
  -4  -3  -1   27.59    6.11
  -4  -3  -1   25.27    8.02
   4   3   1   27.63    7.95
   4   3   1   37.43    6.51
  -4  -3  -2  243.74   15.02
  -4  -3  -2  232.27   17.97
   4   3   2  252.55   18.81
  -4  -3  -3  238.59   16.48
  -4  -3  -3  247.48   19.05
  -4  -3  -4   -2.90    3.75
  -4  -3  -4   -1.20    3.96
   4   3   4    1.46    4.08
  -4  -3  -5   73.98   13.44
  -4  -3  -5   66.66   13.16
   4   3   5   75.56   14.48
  -4  -3  -6   34.36   10.53
  -4  -3  -6   46.29   12.03
   4   3   6   27.76   10.11
  -4  -3  -7   18.67    9.35
  -4  -3  -7   38.98   11.39
   4   3   7   35.37   10.98
  -4  -3  -8    3.97    7.43
  -4  -3  -8   14.10    8.30
   4   3   8    7.60    7.48
  -4  -4  12   16.45    8.75
   4   4 -12   16.62    9.78
  -4  -4  11   -0.12    4.80
   4   4 -11    2.17    5.87
  -4  -4  10   66.83   15.01
   4   4 -10   38.99   11.64
  -4  -4   9  107.10   16.95
   4   4  -9  139.37   16.98
  -4  -4   8   32.55    9.55
   4   4  -8   20.56    7.49
  -4  -4   7  102.57   16.08
  -4  -4   7   94.16   12.93
   4   4  -7   73.35   13.19
  -4  -4   6  119.47   13.71
  -4  -4   6  124.46   12.44
   4   4  -6  103.23   15.59
  -4  -4   5  463.10   22.60
   4   4  -5  505.15   26.17
   4   4  -5  465.80   24.55
  -4  -4   4  603.26   25.96
   4   4  -4  619.58   28.19
   4   4  -4  596.17   26.51
  -4  -4   3   12.95    6.12
   4   4  -3   20.01    6.98
   4   4  -3   23.99    7.04
  -4  -4   2  558.45   25.87
   4   4  -2  597.32   27.42
   4   4  -2  622.11   24.77
  -4  -4   1   53.14   10.45
   4   4  -1   59.87   11.20
   4   4  -1   53.34    8.98
  -4  -4   0  106.11   12.79
   4   4   0  104.46   12.48
   4   4   0  102.47    9.85
  -4  -4  -1  263.38   19.55
   4   4   1  214.99   17.71
  -4  -4  -2    8.72    5.25
  -4  -4  -2    0.99    5.63
   4   4   2   12.96    6.54
  -4  -4  -3   45.43    9.84
  -4  -4  -3   36.47   10.13
   4   4   3   40.77   10.26
  -4  -4  -4   86.93   14.02
  -4  -4  -4   86.75   15.71
   4   4   4   78.10   14.64
  -4  -4  -5    9.59    6.06
  -4  -4  -5    1.64    4.94
   4   4   5   10.75    7.31
  -4  -4  -6   32.74   10.93
  -4  -4  -6   29.29   10.01
   4   4   6   26.99   10.82
  -4  -4  -7    2.27    5.40
  -4  -4  -7    7.08    6.48
   4   4   7   -0.05    5.37
  -4  -4  -8   -0.70    6.80
  -4  -4  -8   10.29    8.43
   4   4   8   11.16    8.24
  -4  -5  12   44.36   13.81
   4   5 -12   29.58   11.50
  -4  -5  11   63.89   15.52
   4   5 -11   70.92   15.78
  -4  -5  10    2.39    5.42
   4   5 -10    4.66    5.88
  -4  -5   9  121.60   19.08
   4   5  -9  102.95   17.16
  -4  -5   8    6.69    5.88
   4   5  -8   22.59    8.94
  -4  -5   7   80.58   14.39
   4   5  -7   91.14   15.26
  -4  -5   6  119.24   14.53
  -4  -5   6  172.21   15.04
   4   5  -6  165.59   16.88
  -4  -5   5   20.97    7.20
   4   5  -5   27.87    9.13
   4   5  -5   30.54    9.16
  -4  -5   4  551.61   26.20
   4   5  -4  583.60   29.09
   4   5  -4  543.73   26.47
  -4  -5   3  162.11   15.34
   4   5  -3  188.83   17.16
   4   5  -3  159.71   14.55
  -4  -5   2  251.87   18.76
   4   5  -2  275.18   20.03
   4   5  -2  266.76   17.45
  -4  -5   1  164.36   16.02
   4   5  -1  174.69   13.62
  -4  -5   0   13.23    6.64
   4   5   0    8.18    5.85
  -4  -5  -1   24.24    8.56
   4   5   1   24.53    8.44
  -4  -5  -2  104.51   16.12
   4   5   2  118.70   14.75
  -4  -5  -3   -1.34    4.54
   4   5   3   -3.29    4.15
  -4  -5  -4   19.73    8.20
  -4  -5  -4   21.85    8.59
   4   5   4   42.38   11.80
  -4  -5  -5   40.89   10.83
  -4  -5  -5   32.81   11.00
   4   5   5   23.11    9.20
  -4  -5  -6   -2.89    6.02
  -4  -5  -6   -1.22    6.00
   4   5   6    4.07    6.62
  -4  -5  -7    7.15    8.61
  -4  -5  -7   10.53    7.95
   4   5   7    4.75    8.23
  -4  -6  11    9.39    8.12
   4   6 -11   24.63   11.77
  -4  -6  10   81.23   18.27
   4   6 -10   68.15   15.66
  -4  -6   9   -2.06    4.96
   4   6  -9    5.36    5.74
  -4  -6   8   31.96   11.16
   4   6  -8   24.69    9.94
  -4  -6   7    8.09    6.64
   4   6  -7   10.48    7.65
  -4  -6   6   20.57    8.78
  -4  -6   6   19.14    7.50
   4   6  -6   24.30    9.25
  -4  -6   5   84.87   13.68
   4   6  -5   89.86   15.66
   4   6  -5   84.62   14.65
  -4  -6   4  164.13   16.11
   4   6  -4  169.79   17.46
   4   6  -4  156.19   15.80
  -4  -6   3  168.14   16.44
   4   6  -3  135.28   15.63
   4   6  -3  173.48   15.91
  -4  -6   2  309.08   22.12
   4   6  -2  315.38   22.89
   4   6  -2  320.24   19.79
  -4  -6   1   24.67    8.96
   4   6  -1   33.89    9.77
  -4  -6   0   45.39   11.68
   4   6   0   37.04   10.36
  -4  -6  -1   84.04   15.58
   4   6   1   92.85   15.50
  -4  -6  -2    1.31    5.03
   4   6   2    5.22    5.83
  -4  -6  -3   92.70   16.94
   4   6   3   82.51   15.52
  -4  -6  -4   26.63   11.14
   4   6   4   34.93   11.07
  -4  -6  -5    4.00    6.94
   4   6   5   13.54    8.71
  -4  -6  -6   18.93   10.03
   4   6   6   40.60   13.45
  -4  -7  10    3.38    6.79
   4   7 -10   -2.95    6.37
  -4  -7   9   43.33   13.53
   4   7  -9   44.67   13.57
  -4  -7   8   16.74    9.40
   4   7  -8   11.03    8.84
  -4  -7   7   19.10    9.05
   4   7  -7   11.07    8.13
  -4  -7   6   61.92   13.96
   4   7  -6   46.84   12.40
  -4  -7   5    4.76    5.68
   4   7  -5    0.35    4.69
   4   7  -5   -1.08    4.13
  -4  -7   4  177.33   17.46
   4   7  -4  175.69   18.66
   4   7  -4  172.34   17.73
  -4  -7   3   97.75   16.09
   4   7  -3  115.37   18.02
   4   7  -3   96.06   15.20
  -4  -7   2   66.50   14.03
   4   7  -2   79.91   15.15
   4   7  -2   98.31   24.07
  -4  -7   1  134.12   20.25
   4   7  -1  124.60   18.42
  -4  -7   0    6.26    6.23
   4   7   0    1.60    5.55
  -4  -7  -1   52.15   13.26
   4   7   1   77.60   15.93
  -4  -7  -2   23.64    9.48
   4   7   2   27.17   10.67
  -4  -7  -3    3.30    6.41
   4   7   3   -0.77    5.74
  -4  -7  -4   47.29   14.05
   4   7   4   40.96   12.94
  -4  -7  -5    7.23    7.96
   4   7   5    4.90    8.01
  -4  -8   9    2.67    8.05
   4   8  -9   15.31   10.41
  -4  -8   8   50.27   14.63
   4   8  -8   48.67   14.65
  -4  -8   7   -0.36    5.34
   4   8  -7    5.45    7.01
  -4  -8   6   41.81   12.45
   4   8  -6   51.47   13.54
   4   8  -5   91.65   16.70
  -4  -8   4   21.54    9.47
   4   8  -4   24.87   10.13
   4   8  -4   23.11    9.14
  -4  -8   3  215.48   20.93
   4   8  -3  221.17   21.62
   4   8  -3  221.52   19.91
  -4  -8   2    4.43    5.94
   4   8  -2   -1.29    5.24
  -4  -8   1   97.63   17.88
   4   8  -1   90.22   17.22
  -4  -8   0   44.13   13.43
   4   8   0   36.03   11.77
  -4  -8  -1    3.96    6.83
   4   8   1    0.55    6.17
  -4  -8  -2   45.93   13.55
   4   8   2   48.24   14.09
  -4  -8  -3   16.62   10.19
   4   8   3   12.18    9.25
  -4  -8  -4   13.11   10.19
  -4  -9   7   35.65   12.51
  -4  -9   6   14.95    9.03
   4   9  -6   -1.15    6.79
  -4  -9   5   50.69   14.79
   4   9  -5   58.72   14.74
   4   9  -4   19.22    9.53
   4   9  -4   11.34    7.91
  -4  -9   3   43.05   12.70
   4   9  -3   43.27   13.61
  -4  -9   2   43.45   13.45
   4   9  -2   47.22   13.50
  -4  -9   1    3.61    7.43
   4   9  -1    3.83    6.71
  -4  -9   0   17.91    8.91
   4   9   0   23.96   11.08
  -4  -9  -1    6.25    8.43
   4   9   1    5.14    7.33
   5 -10  -6   38.74   13.64
  -5  10   5    4.36    7.55
   5 -10  -5    2.37    7.40
   5 -10  -5   -1.89    6.46
  -5  10   4   66.93   16.75
   5 -10  -4   58.01   14.58
  -5  10   3    8.87    7.68
   5 -10  -3    4.17    7.33
  -5  10   2   -6.04    5.86
   5 -10  -2    6.36    7.34
   5 -10  -1   34.10   12.37
   5 -10   0   29.38   11.83
   5 -10   1   12.10    8.68
   5 -10   2   64.37   16.84
  -5   9   8    2.80    7.56
   5  -9  -8   16.53    9.60
  -5   9   7   35.93   12.85
   5  -9  -7   30.85   11.40
  -5   9   6   36.75   12.67
   5  -9  -6   47.47   12.84
   5  -9  -6   36.38   12.29
  -5   9   5  144.39   22.08
   5  -9  -5  120.42   19.42
  -5   9   4    6.84    6.83
   5  -9  -4   11.83    7.78
  -5   9   3  100.86   17.46
   5  -9  -3   97.22   17.81
  -5   9   2   91.67   16.38
   5  -9  -2   42.00   12.12
  -5   9   1    1.10    5.09
   5  -9  -1   -2.33    6.07
   5  -9   0   89.22   18.08
   5  -9   1   41.90   12.84
  -5   9  -2   20.84    9.41
   5  -9   2   10.84    9.01
  -5   9  -3   17.98    9.35
   5  -9   3   17.94    9.03
  -5   9  -4    5.59    6.93
   5  -9   4    9.80    8.04
  -5   8   9   36.70   13.67
   5  -8  -9   44.24   13.26
  -5   8   8    2.64    6.32
   5  -8  -8    3.10    6.49
  -5   8   7   79.81   16.07
   5  -8  -7   91.58   16.65
   5  -8  -7   90.57   17.59
  -5   8   6   75.88   15.81
   5  -8  -6   67.69   14.28
   5  -8  -6   61.64   13.99
  -5   8   5   97.57   17.36
   5  -8  -5   85.12   15.68
  -5   8   4  162.25   17.84
   5  -8  -4  126.07   19.27
  -5   8   3    5.42    6.04
   5  -8  -3    6.54    6.72
  -5   8   2   78.44   14.92
   5  -8  -2   72.17   14.40
  -5   8   1   22.24    8.30
   5  -8  -1   21.39    8.90
   5  -8   0   19.98    9.24
  -5   8  -1   78.42   15.52
   5  -8   1   98.89   17.18
  -5   8  -2    7.42    7.40
   5  -8   2    2.28    5.53
  -5   8  -3   33.29   11.14
   5  -8   3   16.11    8.76
  -5   8  -4    3.75    6.84
   5  -8   4    5.54    7.33
  -5   8  -5   10.53    8.29
   5  -8   5   15.10    9.03
  -5   7  10    1.67    6.15
   5  -7 -10    4.68    6.83
  -5   7   9   63.37   14.88
   5  -7  -9   61.72   14.40
  -5   7   8   13.43    8.33
   5  -7  -8   10.90    7.23
   5  -7  -8   22.95    9.19
  -5   7   7    4.56    6.10
   5  -7  -7   13.19    7.74
   5  -7  -7    3.91    4.80
  -5   7   6  197.39   19.72
   5  -7  -6  173.08   18.29
   5  -7  -6  174.55   17.70
  -5   7   5   -3.24    3.46
   5  -7  -5   -4.38    4.58
  -5   7   4  292.65   22.33
   5  -7  -4  310.39   23.45
  -5   7   3   30.28   10.04
   5  -7  -3   43.85   11.63
  -5   7   2   48.53   11.48
   5  -7  -2   43.77   11.54
  -5   7   1   38.76    9.89
   5  -7  -1   48.07   12.35
  -5   7   0  152.52   16.76
  -5   7   0  169.84   15.70
   5  -7   0  159.86   17.60
  -5   7  -1   75.55   14.82
   5  -7   1   83.48   15.81
  -5   7  -2   87.03   15.34
   5  -7   2   85.00   15.71
  -5   7  -3    5.02    5.14
   5  -7   3   -0.87    4.62
  -5   7  -4   37.95   11.36
   5  -7   4   34.98   11.48
  -5   7  -5   15.77    8.91
   5  -7   5   21.13    9.37
  -5   7  -6    1.97    5.96
   5  -7   6   -3.14    5.36
  -5   6  11   17.56    9.85
   5  -6 -11    6.08    6.50
  -5   6  10    1.26    5.79
   5  -6 -10    4.00    5.73
  -5   6   9   -1.38    5.66
   5  -6  -9    3.93    5.88
   5  -6  -9   -3.91    3.65
  -5   6   8   79.12   15.77
   5  -6  -8   67.38   13.18
   5  -6  -8   55.87   12.68
  -5   6   7   57.19   12.91
   5  -6  -7   56.24   12.12
   5  -6  -7   51.20   11.75
  -5   6   6    0.20    4.74
   5  -6  -6    3.20    5.95
   5  -6  -6    5.77    5.57
  -5   6   5  254.92   20.67
   5  -6  -5  245.73   19.76
  -5   6   4   32.16    9.60
   5  -6  -4   32.88    9.71
  -5   6   3  126.24   14.67
   5  -6  -3  135.16   15.30
  -5   6   2  126.47   14.06
   5  -6  -2  116.48   17.36
  -5   6   1   17.87    6.99
   5  -6  -1   11.76    6.87
  -5   6   0    5.95    5.51
  -5   6   0    7.71    5.42
   5  -6   0    9.52    6.37
  -5   6  -1  653.03   31.61
  -5   6  -1  721.16   29.20
   5  -6   1  625.15   31.70
  -5   6  -2    3.80    5.67
   5  -6   2    0.43    5.24
  -5   6  -3  100.05   16.99
   5  -6   3   78.47   14.52
  -5   6  -4    9.74    6.88
   5  -6   4    0.43    5.37
  -5   6  -5   12.18    7.59
   5  -6   5   26.37    9.82
  -5   6  -6   25.18   10.00
   5  -6   6   21.95    9.05
  -5   6  -7   -1.33    5.09
   5  -6   7   -0.43    5.19
  -5   5  12   23.24   10.67
   5  -5 -12   10.39    8.20
  -5   5  11   18.76    9.57
   5  -5 -11   14.20    8.37
  -5   5  10   17.52    8.36
   5  -5 -10   22.01    8.53
   5  -5 -10   13.90    7.53
  -5   5   9   38.07   11.25
   5  -5  -9   23.92    9.01
   5  -5  -9   29.24    9.14
  -5   5   8   35.40   10.61
   5  -5  -8   22.57    8.00
   5  -5  -8   21.74    8.37
  -5   5   7  147.64   16.77
   5  -5  -7  139.24   15.37
   5  -5  -7  144.31   14.79
  -5   5   6  222.00   19.34
   5  -5  -6  247.21   19.49
   5  -5  -6  244.99   17.99
  -5   5   5    3.73    4.64
   5  -5  -5   14.35    6.86
  -5   5   4  526.25   27.13
   5  -5  -4  504.31   26.68
  -5   5   3   43.00    9.64
   5  -5  -3   45.16   10.57
  -5   5   2   55.20   11.00
   5  -5  -2   76.82   13.71
  -5   5   1  173.29   15.35
  -5   5   1  189.08   16.17
   5  -5  -1  163.58   15.92
  -5   5   0    6.56    5.12
  -5   5   0   12.13    6.13
   5  -5   0    1.74    4.33
  -5   5  -1  101.56   15.54
  -5   5  -1   99.27   11.91
   5  -5   1  114.09   16.77
  -5   5  -2  165.77   16.32
  -5   5  -2  176.47   14.74
   5  -5   2  176.31   17.44
  -5   5  -3   27.92    9.39
   5  -5   3   30.84    9.15
  -5   5  -4  116.42   18.02
   5  -5   4  114.53   17.05
  -5   5  -5    0.83    5.83
   5  -5   5   -1.69    4.53
  -5   5  -6   60.52   14.08
   5  -5   6   55.58   13.10
  -5   5  -7   11.68    8.69
   5  -5   7    6.43    6.70
   5  -5   7    4.43    6.83
  -5   4  12    2.22    6.35
  -5   4  11   61.63   14.73
   5  -4 -11   63.68   13.78
   5  -4 -11   51.91   12.82
  -5   4  10   41.58   11.94
   5  -4 -10   38.56   10.85
   5  -4 -10   29.82    9.34
  -5   4   9   13.88    7.73
   5  -4  -9   14.05    7.77
   5  -4  -9   23.14    8.30
  -5   4   8  243.34   20.85
   5  -4  -8  227.22   19.38
   5  -4  -8  197.98   16.58
  -5   4   7   38.44   10.18
   5  -4  -7   45.84   10.73
   5  -4  -7   43.21    9.69
  -5   4   6  321.92   22.05
   5  -4  -6  290.16   20.38
   5  -4  -6  275.48   17.68
  -5   4   5  447.85   24.89
   5  -4  -5  397.03   23.48
  -5   4   4  283.83   19.46
   5  -4  -4  228.66   17.92
  -5   4   3  658.14   28.75
   5  -4  -3  630.10   28.52
  -5   4   2    7.53    4.79
   5  -4  -2   10.71    5.90
  -5   4   1  100.96   11.20
  -5   4   1  115.53   12.51
   5  -4  -1  105.07   15.12
  -5   4   0  401.37   21.48
  -5   4   0  434.17   22.32
   5  -4   0  425.97   23.79
  -5   4  -1    6.77    5.50
  -5   4  -1    3.32    4.65
   5  -4   1    4.56    5.53
  -5   4  -2  228.99   18.11
  -5   4  -2  241.80   16.73
   5  -4   2  254.69   16.02
   5  -4   2  242.97   19.03
  -5   4  -3   85.93   14.37
   5  -4   3   92.36   11.38
   5  -4   3   92.82   14.56
  -5   4  -4   45.78   11.20
   5  -4   4   56.98   11.09
   5  -4   4   43.88   10.80
  -5   4  -5   42.85   11.13
   5  -4   5   54.50   11.71
   5  -4   5   55.08   12.08
  -5   4  -6    5.17    6.31
   5  -4   6    1.64    5.73
   5  -4   6   -3.86    3.99
  -5   4  -7    1.60    6.60
   5  -4   7    3.58    6.99
  -5   4  -8   14.16    8.74
   5  -4   8   12.43    8.89
  -5   3  13   11.74    9.28
  -5   3  12   44.52   12.54
   5  -3 -12   34.39   16.98
  -5   3  11   -1.99    4.52
   5  -3 -11    0.98    5.14
  -5   3  10   88.79   16.04
   5  -3 -10   94.83   15.50
   5  -3 -10   86.62   18.47
  -5   3   9   20.08    8.27
   5  -3  -9   21.30    8.64
   5  -3  -9   26.73    8.12
  -5   3   8  118.43   14.56
   5  -3  -8  147.54   15.28
   5  -3  -8  139.58   13.18
  -5   3   7  519.34   27.24
   5  -3  -7  483.41   26.05
   5  -3  -7  488.71   22.18
  -5   3   6    3.23    4.06
   5  -3  -6   -0.39    4.05
   5  -3  -6    2.48    3.34
  -5   3   5  356.49   21.73
   5  -3  -5  366.13   21.80
   5  -3  -5  380.34   17.99
  -5   3   4  280.84   19.16
   5  -3  -4  274.23   19.03
  -5   3   3  299.80   19.29
   5  -3  -3  250.32   17.77
  -5   3   2  257.76   15.13
  -5   3   2  267.20   18.23
   5  -3  -2  287.14   12.78
   5  -3  -2  272.74   18.37
  -5   3   1   36.99    7.99
  -5   3   1   33.23    8.23
   5  -3  -1   40.95    6.68
   5  -3  -1   41.03    9.23
  -5   3   0    0.13    3.48
  -5   3   0    0.25    3.44
   5  -3   0    1.41    2.92
   5  -3   0   -0.54    3.87
  -5   3  -1  207.77   15.56
  -5   3  -1  226.82   16.33
   5  -3   1  252.48   15.20
   5  -3   1  207.94   16.59
  -5   3  -2   32.66    8.93
  -5   3  -2   31.42    8.46
   5  -3   2   32.05    7.62
   5  -3   2   37.23    9.30
  -5   3  -3  138.68   14.71
  -5   3  -3  120.68   12.69
   5  -3   3  132.54   13.33
   5  -3   3  156.16   15.13
  -5   3  -4   -0.16    4.33
   5  -3   4    3.51    4.62
   5  -3   4   -2.60    3.97
  -5   3  -5    5.57    5.98
   5  -3   5    8.04    6.30
   5  -3   5    4.28    5.86
  -5   3  -6   31.64    9.85
   5  -3   6   25.29    8.95
  -5   3  -7    3.87    6.91
   5  -3   7   12.99    7.80
  -5   3  -8   12.61    8.23
   5  -3   8    9.38    8.32
  -5   2  12   23.58    9.66
   5  -2 -12    3.61    6.86
  -5   2  11   46.10   12.03
   5  -2 -11   37.20   10.98
  -5   2  10    0.03    4.84
   5  -2 -10    3.25    5.07
  -5   2   9   10.10    6.75
   5  -2  -9   21.51    8.38
  -5   2   8   77.72   12.81
  -5   2   8   81.95   14.25
   5  -2  -8   76.03   13.39
  -5   2   7   18.87    5.91
  -5   2   7    9.29    6.25
   5  -2  -7   19.99    7.55
   5  -2  -7   12.76    5.22
  -5   2   6  566.26   20.72
  -5   2   6  499.34   25.62
   5  -2  -6  494.88   25.39
   5  -2  -6  524.76   19.63
  -5   2   5    9.32    4.33
  -5   2   5    6.47    5.05
   5  -2  -5    4.42    4.17
   5  -2  -5   10.70    4.16
  -5   2   4  152.91   14.34
   5  -2  -4  130.59    9.73
   5  -2  -4  113.40   12.38
  -5   2   3   26.07    7.55
   5  -2  -3   32.87    6.05
   5  -2  -3   26.61    7.76
  -5   2   2   49.59    7.68
  -5   2   2   36.81    8.75
   5  -2  -2   44.53    7.37
   5  -2  -2   48.82    9.61
  -5   2   1   78.33    8.58
  -5   2   1   87.14   10.79
   5  -2  -1   80.90    8.50
   5  -2  -1   89.10   11.05
  -5   2   0  217.19   13.88
  -5   2   0  211.56   15.74
   5  -2   0  219.10   13.89
   5  -2   0  211.41   16.05
  -5   2  -1   -2.37    3.18
  -5   2  -1    1.09    4.08
   5  -2   1   -0.77    2.83
   5  -2   1   -1.71    3.35
  -5   2  -2  295.21   18.46
  -5   2  -2  337.63   19.94
   5  -2   2  354.98   19.94
   5  -2   2  356.45   20.51
  -5   2  -3   20.50    7.27
  -5   2  -3   16.65    6.67
   5  -2   3   19.08    7.11
   5  -2   3   10.52    5.80
  -5   2  -4  206.18   17.66
  -5   2  -4  218.38   16.69
   5  -2   4  200.89   17.37
   5  -2   4  207.55   16.72
  -5   2  -5    2.85    5.55
   5  -2   5    3.66    5.01
  -5   2  -6    2.13    5.73
   5  -2   6    4.64    5.97
  -5   2  -7   20.15    9.20
   5  -2   7   25.09   10.23
  -5   2  -8   10.95    8.26
   5  -2   8   10.53    8.61
   5  -1 -13   21.01   10.34
  -5   1  12    0.70    5.57
   5  -1 -12    2.10    5.99
  -5   1  11   23.80    8.95
  -5   1  11   28.04    9.75
   5  -1 -11   16.32    7.88
  -5   1  10   31.81    9.10
  -5   1  10   24.65    9.09
   5  -1 -10   26.37    9.31
  -5   1   9    1.63    4.39
  -5   1   9    0.11    4.40
   5  -1  -9   -4.60    3.79
  -5   1   8   44.93    9.46
  -5   1   8   44.98   10.28
   5  -1  -8   50.89   11.24
  -5   1   7  140.87   12.49
  -5   1   7  140.70   14.18
   5  -1  -7  151.75   15.05
  -5   1   6   12.63    5.36
  -5   1   6   11.05    5.95
   5  -1  -6   13.16    6.29
  -5   1   5  755.70   29.91
   5  -1  -5  719.10   29.46
  -5   1   4   -1.11    3.16
   5  -1  -4    1.42    2.73
   5  -1  -4    3.48    4.19
  -5   1   3  646.51   27.11
   5  -1  -3  708.41   23.45
   5  -1  -3  685.01   27.63
  -5   1   2   51.73    6.99
  -5   1   2   34.51    8.26
   5  -1  -2   49.24    8.27
   5  -1  -2   46.97    9.27
  -5   1   1   21.24    5.16
  -5   1   1   23.74    7.29
   5  -1  -1   14.22    5.24
   5  -1  -1   17.94    6.06
  -5   1   0  275.97   14.61
  -5   1   0  274.40   18.20
   5  -1   0  304.65   17.40
   5  -1   0  256.29   16.75
  -5   1  -1  196.19   13.58
  -5   1  -1  198.68   15.59
   5  -1   1  207.03   15.18
   5  -1   1  193.77   14.66
  -5   1  -2   35.44    8.56
  -5   1  -2   39.86    9.10
   5  -1   2   51.62   10.33
   5  -1   2   47.51    9.30
  -5   1  -3  329.20   20.28
  -5   1  -3  316.13   20.20
   5  -1   3  321.14   20.89
   5  -1   3  328.07   19.14
  -5   1  -4   10.21    6.02
  -5   1  -4    0.38    4.35
   5  -1   4    2.49    4.93
  -5   1  -5   90.06   15.06
  -5   1  -5  107.67   15.56
   5  -1   5  102.29   16.46
  -5   1  -6   16.05    7.92
   5  -1   6    2.08    5.09
  -5   1  -7    7.31    6.65
   5  -1   7   -3.41    5.09
  -5   1  -8   10.66    7.47
   5  -1   8    4.61    7.27
  -5   0  13   -3.02    6.48
   5   0 -13    7.61    7.45
  -5   0  12   39.55   11.37
   5   0 -12   24.68    9.99
  -5   0  11   48.15   11.26
  -5   0  11   68.05   13.46
   5   0 -11   61.76   14.10
  -5   0  10   77.40   13.83
  -5   0  10   85.52   14.68
   5   0 -10   92.86   15.98
  -5   0   9  169.02   16.02
  -5   0   9  174.61   16.28
   5   0  -9  162.60   16.81
  -5   0   8    7.89    5.33
  -5   0   8    8.01    5.82
   5   0  -8    6.75    5.42
  -5   0   7  534.41   24.29
  -5   0   7  450.15   23.80
   5   0  -7  439.45   24.73
  -5   0   6  519.94   23.05
  -5   0   6  492.98   24.65
   5   0  -6  441.67   24.08
  -5   0   5  250.46   17.83
   5   0  -5  290.04   17.14
   5   0  -5  243.24   17.66
  -5   0   4 1207.90   37.10
   5   0  -4 1273.20   34.00
   5   0  -4 1036.20   34.30
  -5   0   3   33.55    8.56
   5   0  -3   34.03    7.34
   5   0  -3   25.50    7.40
  -5   0   2  533.64   24.97
   5   0  -2  593.22   23.58
   5   0  -2  506.70   23.20
  -5   0   1  445.18   15.20
  -5   0   1  442.38   22.88
   5   0  -1  490.83   21.97
   5   0  -1  467.45   21.91
  -5   0   0    6.44    3.49
  -5   0   0    9.20    5.53
   5   0   0   -0.93    2.99
   5   0   0    8.08    4.76
  -5   0  -1  351.57   17.17
  -5   0  -1  330.57   20.36
   5   0   1  352.59   20.38
   5   0   1  303.23   17.35
  -5   0  -2  140.86   12.46
  -5   0  -2  116.38   13.23
   5   0   2  136.62   13.97
   5   0   2  118.96   11.47
  -5   0  -3  129.80   13.35
  -5   0  -3  131.87   13.67
   5   0   3  118.25   13.84
  -5   0  -4   75.16   13.21
  -5   0  -4   79.00   13.76
   5   0   4   74.90   13.70
  -5   0  -5    2.71    5.19
  -5   0  -5    0.98    5.01
   5   0   5   -3.97    4.15
  -5   0  -6   47.11   11.56
  -5   0  -6   76.53   20.14
   5   0   6   47.24   12.97
  -5   0  -7   21.75    9.28
   5   0   7    8.95    7.49
  -5   0  -8    5.23    7.13
   5   0   8    5.14    6.25
  -5  -1  13    3.90    8.10
   5   1 -13   14.28    9.21
  -5  -1  12   11.22    7.34
   5   1 -12   12.19    7.93
  -5  -1  11   98.11   16.98
   5   1 -11   94.99   17.74
  -5  -1  10   60.90   13.11
  -5  -1  10   65.65   12.36
   5   1 -10   63.34   14.21
  -5  -1   9  179.04   16.82
  -5  -1   9  182.57   16.49
   5   1  -9  167.08   17.42
  -5  -1   8  108.68   13.09
  -5  -1   8   95.18   14.36
   5   1  -8  129.32   14.94
  -5  -1   7    6.91    4.84
  -5  -1   7    7.36    5.40
   5   1  -7    2.89    4.34
  -5  -1   6  835.07   30.84
  -5  -1   6  761.92   30.27
   5   1  -6  743.77   31.25
  -5  -1   5  203.65   16.25
   5   1  -5  208.43   15.59
   5   1  -5  200.28   16.18
  -5  -1   4  239.29   17.34
   5   1  -4  271.16   17.34
   5   1  -4  230.00   17.05
  -5  -1   3  318.93   19.95
   5   1  -3  354.91   19.49
   5   1  -3  336.27   19.64
  -5  -1   2    8.15    5.15
   5   1  -2    0.00    3.26
   5   1  -2    5.80    4.59
  -5  -1   1   21.67    6.67
   5   1  -1   27.56    7.65
   5   1  -1   21.18    6.33
  -5  -1   0  222.41   17.11
   5   1   0  247.19   17.35
   5   1   0  225.39   15.19
  -5  -1  -1   53.24    8.46
  -5  -1  -1   49.52   10.70
   5   1   1   43.87    9.68
   5   1   1   66.58   10.07
  -5  -1  -2  174.21   13.73
  -5  -1  -2  177.42   16.09
   5   1   2  178.76   16.48
  -5  -1  -3   50.88   10.13
  -5  -1  -3   49.28   10.98
   5   1   3   54.48   11.61
  -5  -1  -4   48.86   10.65
  -5  -1  -4   59.51   12.55
   5   1   4   41.78   10.88
  -5  -1  -5    6.37    6.12
  -5  -1  -5   21.56    7.99
   5   1   5    4.45    5.55
  -5  -1  -6    6.08    5.87
  -5  -1  -6   -3.95    4.88
   5   1   6    5.73    6.13
  -5  -1  -7   20.65    8.86
   5   1   7    4.10    6.51
  -5  -1  -8    1.62    6.86
   5   1   8    8.44    8.71
  -5  -2  13    5.95    7.12
   5   2 -13   20.98   10.06
  -5  -2  12   17.68    8.17
   5   2 -12   17.90    9.20
  -5  -2  11    7.73    6.61
   5   2 -11    3.29    6.08
  -5  -2  10   48.39   11.97
   5   2 -10   43.10   11.21
  -5  -2   9  117.98   17.18
  -5  -2   9  118.13   13.92
   5   2  -9  104.12   16.80
  -5  -2   8   84.97   14.46
  -5  -2   8  100.56   14.57
   5   2  -8  109.92   17.24
  -5  -2   7   68.58   12.35
  -5  -2   7   74.24   12.87
   5   2  -7   61.70   12.73
  -5  -2   6   18.84    6.99
   5   2  -6   19.69    7.51
  -5  -2   5  257.70   18.20
   5   2  -5  287.08   19.11
  -5  -2   4  128.73   13.70
   5   2  -4  132.88   13.20
   5   2  -4  105.20   12.14
  -5  -2   3   25.04    7.86
   5   2  -3   33.77    8.40
   5   2  -3   25.87    7.52
  -5  -2   2   77.42   13.14
   5   2  -2  104.09   15.03
   5   2  -2   85.80   12.37
  -5  -2   1   89.31   13.60
   5   2  -1  104.41   12.23
   5   2  -1   83.86   11.70
  -5  -2   0    2.48    4.84
   5   2   0    8.19    5.32
   5   2   0    3.37    3.60
  -5  -2  -1  346.80   22.47
   5   2   1  330.88   21.86
   5   2   1  311.12   16.73
  -5  -2  -2   -0.33    3.98
   5   2   2    0.14    3.57
  -5  -2  -3   77.41   12.75
  -5  -2  -3   75.46   13.80
   5   2   3   75.18   14.27
  -5  -2  -4   25.25    8.29
  -5  -2  -4   32.10    9.55
   5   2   4   13.83    7.25
  -5  -2  -5   32.78   10.05
  -5  -2  -5   25.69    9.39
   5   2   5   26.34    9.53
  -5  -2  -6   16.09    7.69
  -5  -2  -6   15.44    7.89
   5   2   6    8.41    7.18
  -5  -2  -7  -13.01    4.55
  -5  -2  -7   -0.30    5.79
   5   2   7   -8.49    4.21
  -5  -3  12   -3.72    5.47
   5   3 -12   -2.89    6.21
  -5  -3  11   11.56    7.44
   5   3 -11   17.78    9.59
  -5  -3  10    0.65    5.22
   5   3 -10   10.36    6.82
  -5  -3   9   30.98   10.43
   5   3  -9   23.61    8.79
  -5  -3   8   67.91   13.93
  -5  -3   8   56.80   11.52
   5   3  -8   62.10   12.37
  -5  -3   7    3.38    5.01
  -5  -3   7   10.55    5.88
   5   3  -7    8.26    5.81
  -5  -3   6  288.71   19.84
   5   3  -6  273.22   20.45
   5   3  -6  271.29   20.32
  -5  -3   5    7.77    5.68
   5   3  -5    0.02    3.80
   5   3  -5    4.19    4.51
  -5  -3   4  301.29   20.35
   5   3  -4  270.09   19.41
   5   3  -4  268.37   19.12
  -5  -3   3   26.42    8.85
   5   3  -3   31.57    8.72
   5   3  -3   12.82    5.71
  -5  -3   2   23.98    8.26
   5   3  -2   23.55    7.50
   5   3  -2   32.25    8.15
  -5  -3   1  121.83   14.13
   5   3  -1  117.11   13.43
   5   3  -1  105.37   11.39
  -5  -3   0  118.06   14.00
   5   3   0  137.62   14.75
   5   3   0  106.57   11.02
  -5  -3  -1   16.63    7.46
   5   3   1   26.19    8.46
  -5  -3  -2  306.68   22.47
   5   3   2  293.14   22.31
  -5  -3  -3   19.54    8.36
   5   3   3   29.18    9.49
  -5  -3  -4   57.74   13.30
   5   3   4   65.77   14.54
  -5  -3  -5    3.54    6.31
   5   3   5    6.47    7.52
  -5  -3  -6   15.51    8.45
  -5  -3  -6    2.04    6.20
   5   3   6   13.07    8.72
  -5  -3  -7   15.23    7.86
  -5  -3  -7    4.43    7.25
   5   3   7    4.96    7.07
  -5  -4  12   -0.09    5.07
   5   4 -12    2.24    6.46
  -5  -4  11   25.51   10.62
   5   4 -11   28.98   11.89
  -5  -4  10   92.72   17.04
   5   4 -10   96.88   17.86
  -5  -4   9    6.59    6.21
   5   4  -9    8.99    7.35
  -5  -4   8  180.28   18.61
  -5  -4   8  165.31   15.68
   5   4  -8  158.23   18.30
  -5  -4   7   33.97    9.82
  -5  -4   7   38.71    9.69
   5   4  -7   23.19    8.08
  -5  -4   6  154.11   15.61
   5   4  -6  165.35   17.10
   5   4  -6  181.86   17.71
  -5  -4   5  497.09   26.40
   5   4  -5  584.43   30.23
   5   4  -5  534.94   27.95
  -5  -4   4   13.10    6.86
   5   4  -4   10.76    6.08
   5   4  -4   10.02    6.13
  -5  -4   3  670.67   31.08
   5   4  -3  746.47   33.33
   5   4  -3  669.56   29.12
  -5  -4   2   51.76   11.86
   5   4  -2   49.27   11.16
   5   4  -2   56.57   10.59
  -5  -4   1  151.23   16.25
   5   4  -1  165.90   16.69
   5   4  -1  135.30   12.84
  -5  -4   0   83.61   14.49
   5   4   0   86.14   14.36
  -5  -4  -1  118.15   17.42
   5   4   1  118.79   17.83
  -5  -4  -2  128.29   19.09
   5   4   2  157.29   17.56
  -5  -4  -3   80.04   15.20
   5   4   3   69.48   14.27
  -5  -4  -4   10.62    7.91
   5   4   4   22.05    9.86
  -5  -4  -5   18.24    8.25
   5   4   5   37.96   12.52
  -5  -4  -6    1.17    6.28
   5   4   6    9.35    8.19
  -5  -5  11   -0.07    5.26
   5   5 -11   -1.59    6.87
  -5  -5  10   62.30   15.21
   5   5 -10   53.92   14.42
  -5  -5   9   75.69   15.32
   5   5  -9   85.25   16.90
  -5  -5   8    5.25    6.41
   5   5  -8   -2.81    5.92
  -5  -5   7  212.09   20.41
  -5  -5   7  219.62   18.61
   5   5  -7  197.43   19.82
  -5  -5   6   -0.94    4.55
   5   5  -6    8.52    6.77
   5   5  -6    7.39    6.62
  -5  -5   5   98.65   15.51
   5   5  -5  137.08   16.23
   5   5  -5  106.20   16.55
  -5  -5   4  144.98   16.23
   5   5  -4  161.51   15.92
  -5  -5   3    3.80    5.53
   5   5  -3    1.75    4.27
   5   5  -3   -6.09    3.43
  -5  -5   2  109.69   17.37
   5   5  -2  110.29   16.97
   5   5  -2  106.13   12.57
  -5  -5   1   44.78   11.83
  -5  -5   0   -1.51    4.74
   5   5   0    4.51    6.07
  -5  -5  -1   75.91   15.56
   5   5   1   50.15   12.49
  -5  -5  -2   28.70   10.50
   5   5   2   19.14    9.12
  -5  -5  -3   31.17   10.91
   5   5   3   26.93    9.88
  -5  -5  -4    6.11    6.98
   5   5   4   32.96   12.49
  -5  -5  -5    3.50    6.30
   5   5   5    1.35    6.14
  -5  -6  10   -4.10    4.81
   5   6 -10    7.65    7.32
  -5  -6   9   13.54    8.25
   5   6  -9   26.93   10.69
  -5  -6   8   21.03    9.61
   5   6  -8   40.85   12.54
  -5  -6   7    1.36    4.74
   5   6  -7    0.52    5.36
  -5  -6   6   58.16   12.80
   5   6  -6   95.14   16.94
   5   6  -6   75.29   14.90
  -5  -6   5   19.00    7.57
   5   6  -5    2.35    5.22
   5   6  -5   -1.09    4.82
  -5  -6   4   39.48   10.53
   5   6  -4   28.73    9.81
   5   6  -4   47.70   11.49
  -5  -6   3   60.96   13.61
   5   6  -3   50.34   12.78
   5   6  -3   38.16   10.34
  -5  -6   2    1.26    5.71
   5   6  -2    0.73    5.22
  -5  -6   1    6.25    6.90
   5   6  -1   17.88    8.32
  -5  -6   0   57.45   14.22
   5   6   0   55.67   13.29
  -5  -6  -1   13.29    8.32
   5   6   1    9.12    7.62
  -5  -6  -2   77.29   16.66
   5   6   2   62.13   14.80
  -5  -6  -3    7.21    7.66
   5   6   3    4.43    6.78
  -5  -6  -4   20.85   10.75
   5   6   4   30.33   11.88
  -5  -7   9   14.43    9.35
   5   7  -9    7.04    9.19
  -5  -7   8   10.56    8.19
   5   7  -8   34.60   11.38
  -5  -7   7   69.70   16.50
   5   7  -7   46.87   13.52
   5   7  -6    0.75    5.82
  -5  -7   5   97.90   17.22
   5   7  -5   99.23   17.82
   5   7  -5   87.64   16.74
  -5  -7   4   48.26   12.89
   5   7  -4   54.36   14.21
   5   7  -4   30.51   10.45
  -5  -7   3   43.09   12.70
   5   7  -3   36.76   11.92
  -5  -7   2  114.70   20.10
   5   7  -2  108.66   19.01
  -5  -7   1   15.35    8.35
   5   7  -1   11.02    7.26
  -5  -7   0   13.46    9.38
   5   7   0    7.71    7.53
  -5  -7  -1   84.45   17.51
   5   7   1   75.56   16.57
  -5  -7  -2   -6.91    5.85
   5   7   2   -1.04    6.03
  -5  -7  -3   49.74   14.62
   5   7   3   62.47   16.46
  -5  -8   7   53.50   16.35
   5   8  -7   44.93   14.09
  -5  -8   6   73.64   17.51
   5   8  -6   71.01   15.95
   5   8  -5   13.14    8.47
   5   8  -5    4.25    6.93
  -5  -8   4  135.76   20.54
   5   8  -4  122.60   20.93
  -5  -8   3    6.45    7.26
   5   8  -3    9.14    7.27
  -5  -8   2   43.30   13.36
   5   8  -2   33.70   12.02
  -5  -8   1   14.45    9.34
   5   8  -1   25.04   10.88
  -5  -8   0   -3.39    6.25
   5   8   0    2.33    6.14
  -5  -8  -1   19.77   10.80
   5   8   1   26.20   11.33
  -6   9   6   87.57   18.14
   6  -9  -6   82.92   17.37
   6  -9  -6   60.66   15.53
  -6   9   5    3.35    6.97
   6  -9  -5   -0.62    7.13
  -6   9   4   22.58    9.66
   6  -9  -4    1.14    7.36
  -6   9   3   85.73   17.73
   6  -9  -3   66.08   15.67
  -6   9   2    1.10    5.28
   6  -9  -2    3.25    6.11
   6  -9  -1  104.83   21.12
   6  -9   0   19.11   10.40
   6  -9   1   77.78   17.69
  -6   8   8   96.28   19.12
   6  -8  -8   97.22   18.65
   6  -8  -8   87.68   17.67
  -6   8   7   30.61   11.53
   6  -8  -7   48.33   12.75
   6  -8  -7   32.87   11.15
  -6   8   6   16.42    9.26
   6  -8  -6   39.76   12.06
   6  -8  -6   27.99   10.86
  -6   8   5  126.04   20.61
   6  -8  -5  122.56   19.40
  -6   8   4    5.11    6.05
   6  -8  -4    6.32    7.15
  -6   8   3   33.44   10.63
   6  -8  -3   29.41   11.46
  -6   8   2   61.83   13.53
   6  -8  -2   43.93   13.40
  -6   8   1   10.39    6.65
   6  -8  -1   15.39    9.52
   6  -8   0   69.67   15.59
  -6   8  -1   21.37   10.14
   6  -8   1   20.12    9.42
  -6   8  -2  135.24   21.30
   6  -8   2  116.83   20.12
  -6   8  -3    0.28    6.74
   6  -8   3    2.98    6.67
   6  -7 -10   11.94    7.70
  -6   7   9   18.81    9.91
   6  -7  -9   20.27    9.71
   6  -7  -9   36.21   11.72
  -6   7   8    2.86    6.27
   6  -7  -8    9.73    7.51
   6  -7  -8   12.07    7.77
  -6   7   7   64.32   14.13
   6  -7  -7   66.14   14.74
   6  -7  -7   75.87   15.20
  -6   7   6    7.86    7.65
   6  -7  -6   -1.61    5.86
   6  -7  -6   -4.41    3.40
  -6   7   5   14.01    7.28
   6  -7  -5    8.70    7.53
  -6   7   4   79.02   15.15
   6  -7  -4   76.26   14.97
  -6   7   3   -3.64    3.74
   6  -7  -3    1.89    6.09
  -6   7   2   16.45    8.39
   6  -7  -2   16.79    9.18
  -6   7   1    4.27    5.71
   6  -7  -1   12.40    7.66
  -6   7   0    2.82    6.06
  -6   7   0    4.54    5.70
   6  -7   0    8.21    6.60
  -6   7  -1   70.83   15.05
   6  -7   1   70.74   15.22
  -6   7  -2    5.35    6.81
   6  -7   2   -2.15    4.84
  -6   7  -3   19.38    9.22
   6  -7   3   30.83   11.28
  -6   7  -4   10.74    8.11
   6  -7   4   21.10    9.75
  -6   6  10    0.47    6.50
   6  -6 -10   11.50    7.90
   6  -6 -10   -3.55    4.71
  -6   6   9    4.81    7.57
   6  -6  -9   16.61    9.06
   6  -6  -9   21.91    8.98
  -6   6   8   38.86   12.39
   6  -6  -8   38.02   11.02
   6  -6  -8   29.46    9.83
  -6   6   7   11.22    8.02
   6  -6  -7   37.58   11.39
   6  -6  -7   41.97   11.10
  -6   6   6   70.91   13.99
   6  -6  -6   81.95   15.82
   6  -6  -6   76.11   14.42
  -6   6   5   25.56    9.40
   6  -6  -5   11.07    7.37
  -6   6   4    3.24    5.88
   6  -6  -4   -0.44    5.26
  -6   6   3  122.07   17.72
   6  -6  -3  103.58   17.13
  -6   6   2   80.83   14.89
   6  -6  -2   74.62   14.70
  -6   6   1  105.62   16.33
   6  -6  -1   69.38   13.81
  -6   6   0   61.71   13.11
  -6   6   0   78.62   13.78
   6  -6   0   40.04   11.28
  -6   6  -1   12.80    7.41
   6  -6   1   23.25    9.33
  -6   6  -2  123.35   18.54
   6  -6   2  115.28   19.00
  -6   6  -3   10.62    7.55
   6  -6   3    5.67    7.15
  -6   6  -4    0.36    6.37
   6  -6   4    4.38    6.30
  -6   6  -5   10.02    7.99
   6  -6   5   21.74    9.62
  -6   5  11   -4.26    6.46
   6  -5 -11    4.18    6.21
  -6   5  10   82.23   17.02
   6  -5 -10   82.34   16.53
  -6   5   9    5.60    6.64
   6  -5  -9   12.16    7.19
  -6   5   8   73.01   14.68
   6  -5  -8   71.12   14.39
   6  -5  -8   47.54   11.61
  -6   5   7  170.32   18.87
   6  -5  -7  177.38   18.66
   6  -5  -7  182.99   16.74
  -6   5   6    3.85    5.38
   6  -5  -6   -3.72    4.40
   6  -5  -6    3.79    4.34
  -6   5   5  100.57   15.79
   6  -5  -5  123.10   18.14
   6  -5  -4  231.21   20.62
  -6   5   3    5.97    6.06
   6  -5  -3    7.84    6.21
  -6   5   2  202.32   18.44
   6  -5  -2  206.59   19.28
  -6   5   1  107.15   13.29
  -6   5   1  108.99   16.36
   6  -5  -1  123.13   17.85
  -6   5   0  173.08   16.66
  -6   5   0  194.40   17.60
   6  -5   0  175.17   18.19
  -6   5  -1  128.66   18.50
  -6   5  -1  118.08   16.95
   6  -5   1  122.51   18.36
  -6   5  -2   13.15    7.80
   6  -5   2   22.31    9.05
  -6   5  -3   81.80   15.00
   6  -5   3  124.91   19.29
  -6   5  -4    7.93    6.54
   6  -5   4    5.14    6.11
  -6   5  -5   -3.70    5.24
   6  -5   5    0.98    6.26
  -6   5  -6   23.00    9.89
  -6   4  12   24.35   10.94
   6  -4 -12   28.13   10.33
  -6   4  11   87.32   17.98
   6  -4 -11   76.62   16.29
  -6   4  10    2.07    6.52
   6  -4 -10   -4.57    4.68
  -6   4   9  205.77   20.85
   6  -4  -9  217.83   21.05
  -6   4   8   27.53   10.30
   6  -4  -8   25.30    9.59
  -6   4   7  245.68   21.30
   6  -4  -7  216.47   20.18
   6  -4  -6  256.67   21.08
  -6   4   5    1.78    4.95
   6  -4  -5    0.51    4.77
  -6   4   4  174.54   16.98
   6  -4  -4  202.36   18.43
  -6   4   3  169.81   16.70
   6  -4  -3  175.05   17.61
  -6   4   2    1.56    4.80
   6  -4  -2    2.36    5.02
  -6   4   1  258.07   18.25
  -6   4   1  252.44   19.53
   6  -4  -1  232.95   19.77
  -6   4   0    4.72    4.93
  -6   4   0    3.49    4.92
   6  -4   0   10.45    6.80
  -6   4  -1  267.40   19.84
  -6   4  -1  309.95   21.07
   6  -4   1  279.98   21.72
  -6   4  -2   26.61    8.66
  -6   4  -2   38.02    9.96
   6  -4   2   43.86   11.14
  -6   4  -3   16.92    8.07
   6  -4   3   17.95    8.42
  -6   4  -4   51.90   12.54
   6  -4   4   62.19   13.26
  -6   4  -5   -3.62    5.01
   6  -4   5    6.99    6.46
  -6   4  -6   -1.61    6.44
  -6   3  12   -0.10    6.13
   6  -3 -12    0.93    6.90
  -6   3  11   64.75   15.23
   6  -3 -11   80.13   16.73
  -6   3  10   34.07   11.03
   6  -3 -10   19.66    9.20
  -6   3   9    1.29    4.59
   6  -3  -9   -1.62    5.02
  -6   3   8  147.69   17.32
   6  -3  -8  146.37   17.23
  -6   3   7   16.20    7.23
   6  -3  -7    3.81    5.45
  -6   3   6  233.22   19.87
   6  -3  -6  246.23   20.15
  -6   3   5   79.95   14.02
   6  -3  -5  100.56   15.69
  -6   3   4    4.83    4.65
   6  -3  -4    2.33    4.48
  -6   3   3   73.76   13.23
   6  -3  -3   72.90   13.25
  -6   3   2  128.65   12.04
  -6   3   2  105.41   15.92
   6  -3  -2  120.10   17.38
  -6   3   1   -0.14    3.62
  -6   3   1    1.62    4.40
   6  -3  -1    0.75    4.26
  -6   3   0  130.46   13.26
  -6   3   0  130.46   14.48
   6  -3   0  113.85   16.83
  -6   3  -1   -0.30    3.70
  -6   3  -1    7.45    5.35
   6  -3   1    4.68    4.95
   6  -3   1   -1.15    4.51
  -6   3  -2   97.33   14.84
  -6   3  -2   98.14   14.90
   6  -3   2  104.26   12.56
   6  -3   2   99.92   15.82
  -6   3  -3   53.41   12.10
  -6   3  -3   55.24   11.74
   6  -3   3   51.15   11.29
   6  -3   3   55.19   12.20
  -6   3  -4    3.75    5.83
   6  -3   4    0.11    4.73
   6  -3   4   -0.47    5.24
  -6   3  -5    5.56    6.66
   6  -3   5   -0.51    5.40
  -6   3  -6    2.84    6.36
   6  -3   6   22.03    9.11
  -6   2  12   15.33    8.56
   6  -2 -12    4.67    7.73
  -6   2  11   -3.86    5.65
   6  -2 -11    1.67    6.46
  -6   2  10  126.63   19.69
   6  -2 -10  129.83   19.95
  -6   2   9    5.18    5.90
   6  -2  -9   16.64    8.10
  -6   2   8   32.93   10.13
   6  -2  -8   48.69   11.63
  -6   2   7   65.66   13.01
   6  -2  -7   56.58   12.64
  -6   2   6   32.85    9.39
   6  -2  -6   35.32    9.87
  -6   2   5   90.34   14.94
   6  -2  -5   94.90   15.39
  -6   2   4  161.30   16.08
   6  -2  -4  179.18   16.70
  -6   2   3   11.61    6.77
   6  -2  -3   14.30    5.31
   6  -2  -3   11.83    6.04
  -6   2   2   30.70    8.70
   6  -2  -2   28.17    7.01
   6  -2  -2   35.14    9.54
  -6   2   1  202.80   17.43
   6  -2  -1  252.51   16.18
   6  -2  -1  225.44   18.34
  -6   2   0   61.30   10.56
  -6   2   0   59.15   11.86
   6  -2   0   67.58   11.15
   6  -2   0   68.46   12.63
  -6   2  -1   59.10   10.87
  -6   2  -1   61.05   12.31
   6  -2   1   72.39   12.42
   6  -2   1   58.72   11.98
  -6   2  -2   -3.82    3.41
  -6   2  -2   -1.19    4.28
   6  -2   2    3.37    4.61
   6  -2   2    0.28    4.55
  -6   2  -3   53.97   11.52
  -6   2  -3   44.10   10.92
   6  -2   3   62.67   12.23
   6  -2   3   58.67   12.66
  -6   2  -4   19.55    8.05
   6  -2   4   31.41    9.82
  -6   2  -5    5.38    5.89
   6  -2   5   -0.74    4.53
  -6   2  -6   12.63    8.12
   6  -2   6    9.95    7.13
  -6   1  12    4.59    7.02
   6  -1 -12    6.71    8.10
  -6   1  11   51.35   13.43
   6  -1 -11   40.71   12.29
  -6   1  10   67.19   14.16
   6  -1 -10   68.32   15.12
  -6   1   9  126.55   18.42
   6  -1  -9  101.89   16.92
  -6   1   8   67.74   11.94
  -6   1   8   59.46   12.71
   6  -1  -8   64.76   13.16
  -6   1   7    8.88    5.43
  -6   1   7   15.51    7.49
   6  -1  -7    9.41    5.81
  -6   1   6  218.33   15.64
  -6   1   6  196.72   17.90
   6  -1  -6  202.78   18.35
  -6   1   5  135.14   14.89
   6  -1  -5  133.17   12.23
   6  -1  -5  125.89   14.56
  -6   1   4   19.23    7.55
   6  -1  -4   21.46    6.53
   6  -1  -4   24.72    8.20
  -6   1   3  385.98   23.55
   6  -1  -3  384.79   19.84
   6  -1  -3  357.66   22.57
  -6   1   2   51.99   11.52
   6  -1  -2   50.70    9.59
   6  -1  -2   45.60   10.16
  -6   1   1  164.86   16.28
   6  -1  -1  182.88   14.67
   6  -1  -1  179.27   16.21
  -6   1   0  237.63   19.07
   6  -1   0  294.17   19.36
   6  -1   0  268.71   19.23
  -6   1  -1  240.74   19.38
   6  -1   1  236.92   18.29
   6  -1   1  271.00   19.46
  -6   1  -2  215.32   16.69
  -6   1  -2  221.09   19.06
   6  -1   2  227.42   18.77
   6  -1   2  181.84   16.33
  -6   1  -3    3.26    5.18
  -6   1  -3    2.99    5.33
   6  -1   3    3.99    5.35
  -6   1  -4   46.32   11.59
  -6   1  -4   53.42   12.46
   6  -1   4   46.37   12.10
  -6   1  -5   21.26    8.83
   6  -1   5   30.81   10.42
  -6   1  -6    7.67    7.40
   6  -1   6    8.58    6.87
  -6   0  12   18.25    8.78
   6   0 -12   20.79   10.47
  -6   0  11    8.65    6.96
  -6   0  11   19.63    9.49
   6   0 -11   16.50    9.33
  -6   0  10  133.35   15.94
  -6   0  10  119.65   18.26
   6   0 -10  108.56   18.08
  -6   0   9   60.59   12.49
  -6   0   9   71.87   14.46
   6   0  -9   48.46   12.09
  -6   0   8  294.52   20.44
  -6   0   8  252.37   20.74
   6   0  -8  276.64   22.53
  -6   0   7   57.31   11.11
  -6   0   7   56.06   12.38
   6   0  -7   51.38   11.94
  -6   0   6  116.05   17.28
   6   0  -6  103.47   16.17
  -6   0   5  404.41   24.37
   6   0  -5  430.69   22.47
   6   0  -5  398.06   24.34
  -6   0   4  110.89   16.31
   6   0  -4  125.41   12.84
   6   0  -4  114.18   13.71
  -6   0   3  156.72   16.21
   6   0  -3  154.86   14.00
   6   0  -3  151.12   15.25
  -6   0   2  398.62   24.38
   6   0  -2  385.57   21.59
   6   0  -2  388.33   22.84
  -6   0   1    3.93    5.22
   6   0  -1    9.66    5.74
   6   0  -1    7.91    5.75
  -6   0   0  214.73   18.57
   6   0   0  208.89   17.12
   6   0   0  230.32   17.48
  -6   0  -1  123.08   18.17
   6   0   1  135.51   15.03
   6   0   1  131.08   13.70
  -6   0  -2  100.99   15.95
   6   0   2  139.53   16.23
  -6   0  -3   74.04   14.24
   6   0   3   67.93   13.67
  -6   0  -4    2.11    5.23
   6   0   4   10.72    6.82
  -6   0  -5   -1.40    4.95
  -6   0  -5    1.18    5.05
   6   0   5    2.07    5.28
  -6   0  -6   10.48    7.65
   6   0   6   14.74    8.86
  -6  -1  12   19.23    8.96
   6   1 -12   26.91   11.46
  -6  -1  11   16.08    8.69
   6   1 -11   14.46    8.27
  -6  -1  10   57.42   13.07
  -6  -1  10   43.78   11.98
   6   1 -10   38.13   11.59
  -6  -1   9  213.60   19.33
  -6  -1   9  215.11   19.57
   6   1  -9  193.55   20.11
  -6  -1   8    0.85    4.94
  -6  -1   8    3.57    4.85
   6   1  -8   -1.96    3.86
  -6  -1   7  184.98   16.83
  -6  -1   7  173.35   17.31
   6   1  -7  170.71   17.81
  -6  -1   6  138.08   15.59
   6   1  -6  124.64   14.08
   6   1  -6  135.25   15.35
  -6  -1   5   70.15   13.07
   6   1  -5   70.73   12.39
   6   1  -5   75.71   13.16
  -6  -1   4  151.26   16.07
   6   1  -4  118.69   13.33
   6   1  -4  115.62   13.81
  -6  -1   3  120.44   14.48
   6   1  -3  152.78   14.81
   6   1  -3  133.59   14.01
  -6  -1   2    1.74    4.26
   6   1  -2   -1.87    3.15
   6   1  -2   -3.39    3.20
  -6  -1   1  186.07   17.55
   6   1  -1  211.52   17.56
   6   1  -1  184.41   15.91
  -6  -1   0   11.16    6.70
   6   1   0   11.74    6.58
   6   1   0    6.83    5.14
  -6  -1  -1   61.44   12.56
   6   1   1   64.18   12.88
  -6  -1  -2    9.63    7.51
   6   1   2   20.78    8.80
  -6  -1  -3   28.82    9.91
   6   1   3   30.79   10.38
  -6  -1  -4    2.36    6.37
   6   1   4    1.45    6.14
  -6  -1  -5    1.84    5.76
   6   1   5    2.47    6.49
  -6  -1  -6   -2.89    5.10
   6   1   6   -2.41    4.50
  -6  -2  12   11.49    7.31
   6   2 -12    8.93    9.09
  -6  -2  11   29.77   10.70
   6   2 -11   48.47   14.27
  -6  -2  10   36.23   11.30
  -6  -2  10   21.39    8.60
   6   2 -10   37.63   11.92
  -6  -2   9   16.56    8.45
  -6  -2   9    6.11    6.86
   6   2  -9   21.60    9.43
  -6  -2   8   95.33   15.80
  -6  -2   8   94.11   15.50
   6   2  -8   76.11   14.85
  -6  -2   7    9.00    6.17
  -6  -2   7   11.72    6.43
   6   2  -7    4.67    5.78
  -6  -2   6   14.08    7.39
   6   2  -6   14.98    6.59
   6   2  -6   14.67    7.38
  -6  -2   5  108.88   16.32
   6   2  -5  109.68   13.68
   6   2  -5  114.60   17.09
  -6  -2   4    2.62    5.02
   6   2  -4    2.37    5.19
   6   2  -4    0.83    4.12
  -6  -2   3   45.67   11.01
   6   2  -3   72.46   13.30
   6   2  -3   67.34   12.41
  -6  -2   2   39.67   10.74
   6   2  -2   69.86   13.29
   6   2  -2   49.10   10.58
  -6  -2   1    5.44    5.82
   6   2  -1    3.19    4.93
   6   2  -1    0.76    4.00
  -6  -2   0   31.95   10.05
   6   2   0   54.49   11.98
   6   2   0   58.77   13.96
  -6  -2  -1    3.51    5.37
   6   2   1    3.98    5.59
  -6  -2  -2  155.01   17.86
   6   2   2  171.12   18.84
  -6  -2  -3   -1.12    5.63
   6   2   3   -4.84    4.67
  -6  -2  -4    1.22    6.30
   6   2   4    6.85    6.87
  -6  -2  -5   12.66    8.08
   6   2   5   15.40    8.35
  -6  -2  -6    2.91    7.32
   6   2   6    5.77    7.10
  -6  -3  12    7.35    7.30
  -6  -3  11    0.72    5.63
   6   3 -11   -0.86    6.66
  -6  -3  10   39.41   11.53
   6   3 -10   41.15   11.90
  -6  -3   9  102.73   17.86
  -6  -3   9  114.27   17.69
   6   3  -9   82.21   15.94
  -6  -3   8    4.67    5.85
  -6  -3   8    8.52    6.48
   6   3  -8    4.73    6.26
  -6  -3   7  103.37   16.94
  -6  -3   7  132.90   15.77
   6   3  -7  117.17   18.42
  -6  -3   6    5.09    6.20
   6   3  -6   -1.17    3.95
   6   3  -6   -1.00    4.75
  -6  -3   5   41.17   10.81
   6   3  -5   32.65   10.09
   6   3  -5   45.89   11.64
  -6  -3   4  318.91   23.29
   6   3  -4  333.05   23.36
   6   3  -4  290.18   21.37
  -6  -3   3   10.56    6.62
   6   3  -3   13.73    7.17
   6   3  -3    7.45    5.78
  -6  -3   2  343.56   24.58
   6   3  -2  382.57   25.27
   6   3  -2  346.25   21.75
  -6  -3   1   83.60   15.44
   6   3  -1   91.61   16.10
   6   3  -1   91.81   13.81
  -6  -3   0   66.95   14.43
   6   3   0   74.96   14.73
  -6  -3  -1  107.74   17.77
   6   3   1  115.22   18.04
  -6  -3  -2   -0.38    5.31
   6   3   2   -0.70    5.47
  -6  -3  -3   70.54   15.80
   6   3   3   76.97   16.16
  -6  -3  -4    0.90    5.79
   6   3   4   10.02    7.85
  -6  -3  -5   -0.31    5.54
   6   3   5   -6.09    4.77
  -6  -4  11   20.44   10.13
   6   4 -11   30.98   12.43
  -6  -4  10   -4.81    5.65
   6   4 -10   -5.73    6.41
  -6  -4   9  105.95   19.52
   6   4  -9  121.66   20.29
  -6  -4   8   81.75   16.62
  -6  -4   8   91.00   15.83
   6   4  -8   81.56   16.66
  -6  -4   7   38.62   11.69
  -6  -4   7   34.91   10.83
   6   4  -7   41.37   11.81
  -6  -4   6  173.13   18.51
   6   4  -6  203.49   19.82
   6   4  -6  217.38   20.52
  -6  -4   5    2.28    5.95
   6   4  -5   -0.99    4.08
   6   4  -5    4.37    5.04
  -6  -4   4   41.01   11.66
   6   4  -4   63.52   13.64
   6   4  -4   47.59   11.46
  -6  -4   3  187.66   19.49
   6   4  -3  212.87   20.00
   6   4  -3  151.87   16.07
  -6  -4   2    4.76    6.81
   6   4  -2    8.49    6.64
   6   4  -2   12.43    7.11
  -6  -4   1  163.29   18.50
   6   4  -1  154.19   18.06
  -6  -4   0   23.62    9.33
   6   4   0   14.46    7.99
  -6  -4  -1   37.59   11.82
   6   4   1   45.34   12.35
  -6  -4  -2   54.53   13.94
   6   4   2   35.81   11.08
  -6  -4  -3    8.57    7.87
   6   4   3   13.74    7.72
  -6  -4  -4    3.73    7.53
   6   4   4   13.12    9.06
  -6  -5  10   48.19   13.79
   6   5 -10   54.01   15.00
  -6  -5   9   12.40    8.04
   6   5  -9   12.92    8.87
  -6  -5   8   81.44   16.86
   6   5  -8   94.78   18.12
  -6  -5   7    6.46    7.31
  -6  -5   7   10.85    7.00
   6   5  -7    4.04    6.66
  -6  -5   6   39.22   11.40
   6   5  -6   36.20   12.00
   6   5  -6   46.01   12.70
  -6  -5   5   76.73   16.13
   6   5  -5   66.97   15.23
   6   5  -5   64.49   13.99
  -6  -5   4    4.97    5.65
   6   5  -4    1.24    5.62
   6   5  -4    0.25    4.61
  -6  -5   3   37.91   11.42
   6   5  -3   57.84   13.54
   6   5  -3   51.30   11.66
  -6  -5   2   52.05   13.75
   6   5  -2   43.34   11.66
  -6  -5   1   -4.76    4.74
   6   5  -1   -1.92    4.77
  -6  -5   0   35.08   12.00
   6   5   0   62.61   14.85
  -6  -5  -1   -1.40    6.13
   6   5   1   -1.85    5.45
  -6  -5  -2   25.89   11.11
   6   5   2   31.93   11.74
  -6  -5  -3   10.45    8.28
   6   5   3   13.66    9.51
  -6  -6   9   22.95   10.51
   6   6  -9   21.67   11.40
  -6  -6   8   -3.72    5.20
   6   6  -8   -2.24    7.47
  -6  -6   7   50.27   14.48
   6   6  -7   46.50   13.57
  -6  -6   6   -0.37    6.07
   6   6  -6    4.64    6.25
   6   6  -6   13.29    8.37
  -6  -6   5    4.68    6.16
   6   6  -5    6.10    6.33
   6   6  -5   -3.93    5.18
  -6  -6   4   37.33   12.42
   6   6  -4   26.55   10.88
   6   6  -4   48.92   11.92
  -6  -6   3   45.31   12.93
   6   6  -3   21.04   10.33
  -6  -6   2    2.10    6.79
   6   6  -2    0.54    6.59
  -6  -6   1   59.50   15.39
   6   6  -1   54.15   15.02
  -6  -6   0   -0.13    7.06
   6   6   0    0.16    6.00
  -6  -6  -1   18.73   10.53
   6   6   1   35.68   12.61
  -6  -6  -2   12.46    9.68
   6   6   2    6.87    7.50
  -6  -7   7   12.18    8.20
   6   7  -7   11.21    8.88
  -6  -7   6   16.25   10.03
   6   7  -6   35.67   13.09
   6   7  -6   48.67   13.73
  -6  -7   5   40.50   12.79
   6   7  -5   34.04   11.88
   6   7  -5   59.09   14.50
  -6  -7   4    3.38    7.26
   6   7  -4   -0.74    5.99
  -6  -7   3   68.46   16.32
   6   7  -3   86.67   18.73
  -6  -7   2   26.22   11.43
   6   7  -2   20.15   10.38
  -6  -7   1   16.30   10.77
   6   7  -1   29.82   11.62
  -6  -7   0   36.23   13.45
  -7   8   6   42.31   13.07
   7  -8  -6   35.81   12.76
   7  -8  -6   23.00   10.65
  -7   8   5   36.93   12.33
   7  -8  -5   32.21   11.98
  -7   8   4   23.54    9.25
   7  -8  -4    5.13    7.90
  -7   8   3   54.46   14.09
   7  -8  -3   55.59   15.53
  -7   8   2   13.37    7.48
   7  -8  -2    5.72    8.89
   7  -8  -1   57.33   15.80
   7  -8   0   12.23   10.24
  -7   7   8   19.78   11.25
   7  -7  -8   14.66    9.42
  -7   7   7   17.85    9.78
   7  -7  -7   11.52    8.83
  -7   7   6    9.20    7.89
   7  -7  -6   11.95    8.86
   7  -7  -6    5.62    6.14
  -7   7   5   24.01    9.57
   7  -7  -5   22.79   10.40
  -7   7   4   23.32   10.35
   7  -7  -4   17.20    8.82
  -7   7   3   62.95   15.08
   7  -7  -3   81.27   17.48
  -7   7   2   30.30   10.23
   7  -7  -2   17.19    9.57
  -7   7   1   11.53    7.19
   7  -7  -1   23.25    9.57
  -7   7   0   78.40   15.92
   7  -7   0   81.21   16.94
  -7   7  -1    2.20    5.98
   7  -7   1   -3.65    5.82
  -7   7  -2   -3.38    5.75
   7  -7   2    0.60    6.80
  -7   6   9   12.46    9.60
   7  -6  -9   16.29    9.99
  -7   6   8   -4.07    5.20
   7  -6  -8    8.58    8.00
  -7   6   7   27.69   10.75
   7  -6  -7   44.39   13.31
  -7   6   6   46.09   12.67
   7  -6  -6   17.35    8.80
  -7   6   5    4.10    5.36
   7  -6  -5    1.93    5.56
  -7   6   4  111.04   18.58
   7  -6  -4  103.20   18.19
  -7   6   3   24.01    9.07
   7  -6  -3   34.61   11.34
  -7   6   2   63.43   14.04
   7  -6  -2   62.24   14.48
  -7   6   1   75.30   15.34
   7  -6  -1   39.15   12.41
  -7   6   0   -5.39    4.47
  -7   6   0    2.91    5.67
   7  -6   0    2.86    6.93
  -7   6  -1   23.75    9.71
   7  -6   1   39.44   12.05
  -7   6  -2   15.49    8.95
   7  -6   2   18.09    9.89
  -7   6  -3    6.93    7.12
   7  -6   3    1.91    6.06
  -7   5  10   25.35   11.10
   7  -5 -10   17.84    9.17
  -7   5   9   -1.75    6.11
   7  -5  -9   11.02    7.96
  -7   5   8   73.18   16.15
   7  -5  -8   76.20   16.49
  -7   5   7   17.51    9.45
   7  -5  -7   28.67   10.57
  -7   5   6   54.67   12.95
   7  -5  -6   64.78   14.95
  -7   5   5  109.84   18.29
   7  -5  -5  153.54   18.68
  -7   5   4    5.89    7.31
   7  -5  -4   20.98    9.63
  -7   5   3  195.98   20.01
   7  -5  -3  162.20   18.92
  -7   5   2   23.14    9.29
   7  -5  -2   48.01   12.89
  -7   5   1   94.27   15.58
  -7   5   1   95.35   16.67
   7  -5  -1   83.28   16.74
  -7   5   0   73.42   14.21
  -7   5   0   56.73   12.93
   7  -5   0   40.95   12.99
  -7   5  -1    2.55    5.12
  -7   5  -1    7.62    6.86
   7  -5   1   -3.14    5.92
  -7   5  -2   18.28    8.25
   7  -5   2   40.58   13.26
  -7   5  -3   26.56   10.26
   7  -5   3   26.67   10.04
  -7   5  -4   -1.38    6.22
   7  -5   4   -4.63    5.89
  -7   4  11   -3.97    6.78
   7  -4 -11    3.26    6.90
  -7   4  10   95.88   18.80
   7  -4 -10   87.18   18.32
  -7   4   9   11.26    8.44
   7  -4  -9   14.15    9.55
  -7   4   8   11.80    8.37
   7  -4  -8    3.21    7.58
  -7   4   7   65.07   14.77
   7  -4  -7   71.32   15.68
  -7   4   6   49.31   12.53
   7  -4  -6   54.13   13.77
  -7   4   5  152.42   17.77
   7  -4  -5  129.74   19.32
  -7   4   4  102.21   17.10
   7  -4  -4  110.53   17.69
  -7   4   3   54.29   12.62
   7  -4  -3   74.21   15.07
  -7   4   2  126.91   18.82
   7  -4  -2  141.26   20.37
  -7   4   1    9.37    6.85
   7  -4  -1    4.04    7.06
  -7   4   0  100.43   16.73
   7  -4   0   92.46   16.99
  -7   4  -1   12.36    7.74
  -7   4  -1   13.15    7.82
   7  -4   1   14.67    8.66
  -7   4  -2    2.80    5.48
   7  -4   2    7.23    7.01
  -7   4  -3   10.97    7.16
   7  -4   3   12.23    8.40
  -7   4  -4   24.42   10.14
  -7   3  11   49.04   14.66
   7  -3 -11   54.71   14.61
  -7   3  10    4.25    6.87
   7  -3 -10    2.78    6.46
  -7   3   9  144.56   21.65
   7  -3  -9  121.60   20.25
  -7   3   8   -0.91    4.77
   7  -3  -8   -0.24    4.68
  -7   3   7   35.34   11.46
   7  -3  -7   48.77   12.68
  -7   3   6   75.53   14.83
   7  -3  -6   69.50   14.78
  -7   3   5   42.35   11.79
   7  -3  -5   68.74   13.74
  -7   3   4   85.02   15.05
   7  -3  -4  145.92   17.28
  -7   3   3  113.95   17.81
   7  -3  -3  138.26   19.72
  -7   3   2  102.34   17.34
   7  -3  -2   96.32   16.45
  -7   3   1   81.71   15.24
   7  -3  -1  105.41   17.29
  -7   3   0    7.55    5.89
   7  -3   0    1.54    6.21
  -7   3  -1   24.96    9.51
   7  -3   1   41.42   11.97
  -7   3  -2   14.10    7.57
   7  -3   2    4.17    6.11
   7  -3   3    2.14    6.52
  -7   3  -4    4.17   11.07
  -7   2  11   31.63   12.21
   7  -2 -11   22.65   10.02
  -7   2  10   80.39   16.67
   7  -2 -10   62.17   14.88
  -7   2   9    6.99    6.88
   7  -2  -9    3.61    6.95
  -7   2   8   52.86   13.47
   7  -2  -8   31.64   11.21
  -7   2   7    4.59    5.67
   7  -2  -7    4.47    6.66
  -7   2   6   -3.01    4.40
   7  -2  -6    3.72    5.07
  -7   2   5  100.88   17.65
   7  -2  -5   75.43   14.62
  -7   2   4   91.27   16.47
   7  -2  -4  108.73   17.06
  -7   2   3   97.41   16.94
   7  -2  -3   98.52   16.05
  -7   2   2   69.08   14.02
   7  -2  -2   64.62   13.86
  -7   2   1   13.25    7.56
   7  -2  -1   16.17    7.58
  -7   2   0   69.70   14.32
   7  -2   0   74.89   14.31
  -7   2  -1   16.34    7.97
   7  -2   1   15.89    7.49
   7  -2   1   21.70    8.99
  -7   2  -2    4.75    6.32
   7  -2   2   16.51    8.01
   7  -2   2   11.57    7.31
  -7   2  -3   42.17   11.24
   7  -2   3   38.04   10.83
   7  -2   4   -1.48    5.79
  -7   1  11   15.14    9.14
   7  -1 -11   -1.51    7.26
  -7   1  10   22.43    9.88
   7  -1 -10    4.67    6.79
  -7   1   9  116.86   19.27
   7  -1  -9  124.89   19.69
  -7   1   8    1.28    6.09
   7  -1  -8    2.38    6.42
  -7   1   7   20.67    8.73
   7  -1  -7   19.07    8.01
  -7   1   6  142.73   17.28
   7  -1  -6  125.91   19.03
  -7   1   5   16.28    7.90
   7  -1  -5    3.98    5.38
  -7   1   4  190.70   19.02
   7  -1  -4  218.79   17.53
   7  -1  -4  232.83   20.89
  -7   1   3   24.94    9.02
   7  -1  -3   33.64    9.07
   7  -1  -3   37.69   10.99
  -7   1   2  238.32   21.27
   7  -1  -2  244.09   18.45
   7  -1  -2  220.29   19.81
  -7   1   1   64.89   14.25
   7  -1  -1  111.25   16.15
   7  -1  -1   49.30   11.78
  -7   1   0   45.98   12.26
   7  -1   0   42.44   10.61
   7  -1   0   28.71   10.07
  -7   1  -1   50.45   12.59
   7  -1   1   52.01   12.19
   7  -1   1   79.23   14.22
  -7   1  -2   22.24    8.73
   7  -1   2   26.31    9.16
  -7   1  -3    0.93    6.17
   7  -1   3    1.97    5.95
  -7   1  -4   30.34   11.51
   7  -1   4   27.73   10.33
  -7   0  11   58.28   14.83
   7   0 -11   60.41   16.21
  -7   0  10    8.33    7.28
   7   0 -10   -0.88    5.91
  -7   0   9   33.82   11.31
   7   0  -9   29.33   11.75
  -7   0   8  172.30   17.09
  -7   0   8  164.29   18.74
   7   0  -8  131.88   19.92
  -7   0   7   -1.17    4.37
  -7   0   7    7.51    6.65
   7   0  -7    6.16    6.64
  -7   0   6   74.68   15.02
   7   0  -6   93.08   14.61
   7   0  -6   52.98   12.81
  -7   0   5  174.63   18.73
   7   0  -5  191.27   17.14
   7   0  -5  145.05   17.08
  -7   0   4   61.97   13.63
   7   0  -4   67.61   12.62
   7   0  -4   62.78   13.71
  -7   0   3  190.93   19.15
   7   0  -3  239.20   18.98
   7   0  -3  228.29   20.01
  -7   0   2    2.61    5.75
   7   0  -2   -2.79    3.50
   7   0  -2   -0.61    4.38
  -7   0   1  133.25   20.03
   7   0  -1  134.93   15.26
   7   0  -1  131.49   15.75
  -7   0   0    6.13    6.63
   7   0   0   10.03    6.62
   7   0   0    7.90    6.19
  -7   0  -1   -2.46    5.29
   7   0   1    1.16    5.44
  -7   0  -2   37.50   11.23
   7   0   2   61.62   14.01
  -7   0  -3   -4.16    5.07
   7   0   3    8.59    6.88
  -7   0  -4   -1.70    5.61
   7   0   4    6.25    6.99
  -7  -1  11   27.62    9.86
  -7  -1  11   14.91    9.22
   7   1 -11   14.93    9.82
  -7  -1  10  119.54   18.77
  -7  -1  10  113.53   19.04
   7   1 -10  122.97   20.39
  -7  -1   9   -0.80    4.99
  -7  -1   9    7.36    7.25
   7   1  -9    0.06    6.22
  -7  -1   8   69.00   13.80
  -7  -1   8   57.99   13.87
   7   1  -8   42.85   12.27
  -7  -1   7   47.90   11.89
  -7  -1   7   37.88   11.32
   7   1  -7   46.35   12.40
  -7  -1   6   -3.91    4.49
   7   1  -6   -2.29    4.57
   7   1  -6   -1.04    4.84
  -7  -1   5   91.45   17.03
   7   1  -5   89.23   14.65
   7   1  -5  103.10   17.16
  -7  -1   4  162.45   18.31
   7   1  -4  142.67   15.85
   7   1  -4  146.96   16.78
  -7  -1   3   77.64   15.18
   7   1  -3  113.03   17.13
   7   1  -3   97.46   16.34
  -7  -1   2  130.42   19.59
   7   1  -2  138.28   16.08
   7   1  -2  137.79   15.86
  -7  -1   1   33.36   10.67
   7   1  -1   36.28   10.54
   7   1  -1   39.00   10.50
  -7  -1   0   27.32   10.13
   7   1   0   34.62   10.73
  -7  -1  -1    5.92    7.15
   7   1   1   -2.43    4.76
  -7  -1  -2   -2.29    6.00
   7   1   2    4.57    7.03
  -7  -1  -3    3.84    7.88
   7   1   3   16.29    9.02
  -7  -1  -4    4.34    7.37
   7   1   4   11.75    8.11
  -7  -2  11    2.10    6.64
   7   2 -11   14.95    9.78
  -7  -2  10    2.10    6.33
  -7  -2  10    0.58    6.69
   7   2 -10    8.48    7.87
  -7  -2   9   86.18   16.69
  -7  -2   9   89.02   16.22
   7   2  -9   74.48   15.92
  -7  -2   8   29.65   10.44
  -7  -2   8   21.08    9.55
   7   2  -8   21.45    9.77
  -7  -2   7    1.42    6.47
   7   2  -7    5.28    7.41
  -7  -2   6   54.04   13.32
   7   2  -6   47.19   11.91
   7   2  -6   34.87   11.25
  -7  -2   5   30.33   10.40
   7   2  -5   53.76   12.48
   7   2  -5   18.55    8.96
  -7  -2   4   26.72   10.05
   7   2  -4   38.43   11.11
   7   2  -4   23.38    8.98
  -7  -2   3  174.71   19.43
   7   2  -3  199.55   19.24
   7   2  -3  179.68   18.28
  -7  -2   2   13.73    7.86
   7   2  -2   28.26    9.84
   7   2  -2   19.41    8.16
  -7  -2   1   92.84   17.41
   7   2  -1  110.41   17.83
  -7  -2   0    1.86    6.12
   7   2   0    7.72    6.73
  -7  -2  -1    8.08    6.45
   7   2   1    3.82    6.70
  -7  -2  -2   34.54   11.92
   7   2   2   40.74   12.10
  -7  -2  -3   -1.08    4.98
   7   2   3   -0.84    5.46
  -7  -3  10   25.53   10.63
   7   3 -10   24.57   11.47
  -7  -3   9    0.88    5.91
  -7  -3   9   -2.27    5.86
   7   3  -9    0.77    5.79
  -7  -3   8   47.99   12.86
  -7  -3   8   13.73    8.61
   7   3  -8   38.79   12.60
  -7  -3   7   55.85   13.95
   7   3  -7   43.78   12.61
   7   3  -7   65.93   15.26
  -7  -3   6   19.70    9.22
   7   3  -6    5.35    6.86
   7   3  -6    3.93    6.94
  -7  -3   5   64.52   14.79
   7   3  -5   74.80   15.85
   7   3  -5   64.39   13.93
  -7  -3   4   11.17    8.85
   7   3  -4    6.35    6.86
   7   3  -4    6.09    6.42
  -7  -3   3   97.97   17.97
   7   3  -3   88.09   16.94
   7   3  -3   75.56   14.47
  -7  -3   2   41.89   13.30
   7   3  -2   33.20   10.94
  -7  -3   1   23.99   10.47
   7   3  -1   54.32   14.05
  -7  -3   0   41.97   12.47
   7   3   0   43.76   13.02
  -7  -3  -1   -8.00    4.13
   7   3   1   -5.46    4.76
  -7  -3  -2   10.44    7.29
   7   3   2    9.39    7.81
  -7  -3  -3   -1.30    7.50
   7   3   3    1.85    7.21
  -7  -4   9   44.71   13.03
   7   4  -9   21.11   11.40
  -7  -4   8   -0.61    5.58
  -7  -4   8    2.08    6.47
   7   4  -8    1.37    7.47
  -7  -4   7   57.01   13.73
   7   4  -7   78.64   16.89
   7   4  -7   82.49   17.19
  -7  -4   6   15.34    9.16
   7   4  -6   28.81   11.32
   7   4  -6   24.80   10.06
  -7  -4   5   28.37   11.25
   7   4  -5   38.25   11.63
   7   4  -5   54.62   13.71
  -7  -4   4  127.36   20.47
   7   4  -4   96.12   17.98
   7   4  -4  127.98   18.70
  -7  -4   3   -1.63    6.08
   7   4  -3   -1.66    5.24
   7   4  -3    0.46    9.70
  -7  -4   2  183.78   21.38
   7   4  -2  168.83   20.33
  -7  -4   1    2.31    7.46
   7   4  -1   10.28    7.57
  -7  -4   0    7.40    7.78
   7   4   0   10.07    7.99
  -7  -4  -1   15.25    8.68
   7   4   1    8.96    7.95
  -7  -4  -2    5.49    7.38
  -7  -5   8   29.88   10.94
  -7  -5   8   33.25   11.04
   7   5  -8   35.43   13.21
  -7  -5   7   -4.13    6.24
   7   5  -7    1.52    6.86
  -7  -5   6   44.29   13.59
   7   5  -6   36.67   12.99
   7   5  -6   44.24   13.05
  -7  -5   5   10.59    9.30
   7   5  -5    2.49    5.39
   7   5  -5   15.79    8.64
  -7  -5   4   25.55   10.32
   7   5  -4   12.94    8.69
   7   5  -4   29.53   11.41
  -7  -5   3   57.09   15.36
   7   5  -3   53.85   14.74
  -7  -5   2    2.40    7.42
   7   5  -2    4.22    5.98
  -7  -5   1   31.91   12.13
   7   5  -1   36.09   12.19
  -7  -5   0    0.95    6.61
   7   5   0    1.27    5.86
  -7  -6   5   22.84   12.16
  -7  -6   4   39.13   13.73
   7   6  -4   13.14    8.46
  -7  -6   3   15.81   10.28
  -8   6   7   14.54    9.00
   8  -6  -7   22.70   10.90
  -8   6   6    4.23    6.11
   8  -6  -6    5.91    7.37
  -8   6   5   42.96   12.82
   8  -6  -5   84.67   18.10
  -8   6   4    6.90    7.18
   8  -6  -4    9.00    7.42
  -8   6   3   25.13   10.57
   8  -6  -3   12.82    9.27
  -8   6   2   15.01    9.18
   8  -6  -2   19.38   10.11
  -8   6   1    7.34    8.06
   8  -6  -1    5.50    8.81
  -8   5   8   11.02    8.98
   8  -5  -8    8.21    8.40
  -8   5   7   13.86    9.02
   8  -5  -7    6.86    7.22
  -8   5   6   93.37   18.12
   8  -5  -6   90.04   17.87
  -8   5   5    0.60    5.72
   8  -5  -5   -0.67    6.07
  -8   5   4  110.87   18.99
   8  -5  -4  131.32   21.48
  -8   5   3   12.76    7.71
   8  -5  -3    5.14    7.63
  -8   5   2   11.22    7.58
   8  -5  -2   10.47    8.36
  -8   5   1   19.61    9.60
   8  -5  -1   15.27    9.57
  -8   5   0    6.02    6.93
   8  -5   0   12.49    9.92
   8  -5   1    7.49    8.83
  -8   4   9    7.43    8.18
   8  -4  -9    1.96    7.74
  -8   4   8   67.12   16.69
   8  -4  -8   68.84   16.07
  -8   4   7    0.47    6.54
   8  -4  -7    9.74    8.60
  -8   4   6   31.60   11.94
   8  -4  -6   42.28   12.64
  -8   4   5   99.52   18.12
   8  -4  -5  135.54   21.69
  -8   4   4    9.10    7.83
   8  -4  -4    7.37    7.03
  -8   4   3  100.89   18.35
   8  -4  -3  121.94   20.18
  -8   4   2    8.94    7.40
   8  -4  -2    5.09    7.77
  -8   4   1    4.21    6.77
   8  -4  -1   -1.44    6.88
  -8   4   0   38.51   12.14
   8  -4   0   21.14   10.19
  -8   4  -1    5.53    6.09
   8  -4   1   -3.97    7.16
  -8   3   9   45.09   14.02
   8  -3  -9   69.67   16.81
  -8   3   8   -0.36    6.43
   8  -3  -8    2.57    8.17
  -8   3   7   23.92   11.02
   8  -3  -7   32.01   11.93
  -8   3   6   10.00    7.84
   8  -3  -6   -0.92    5.68
  -8   3   5   71.26   16.08
   8  -3  -5   72.53   15.94
  -8   3   4   41.47   12.40
   8  -3  -4   42.46   12.24
  -8   3   3    3.27    6.17
   8  -3  -3   12.87    8.18
  -8   3   2   28.82   10.10
   8  -3  -2   43.38   12.64
  -8   3   1    3.95    6.10
   8  -3  -1    3.25    6.80
  -8   3   0    7.17    6.74
   8  -3   0    5.24    7.37
  -8   3  -1   12.52    8.71
   8  -3   1   20.06   10.27
  -8   2  10    3.10    7.63
   8  -2 -10    5.86    8.33
  -8   2   9   -0.20    7.68
   8  -2  -9    0.39    7.07
  -8   2   8   66.25   16.16
   8  -2  -8   68.46   15.74
  -8   2   7    3.75    6.62
   8  -2  -7    1.66    6.75
  -8   2   6   52.07   13.83
   8  -2  -6   74.77   15.89
  -8   2   5   21.07    9.41
   8  -2  -5   12.22    8.76
  -8   2   4   50.15   12.91
   8  -2  -4   69.36   15.85
  -8   2   3   24.12   10.84
   8  -2  -3   53.64   14.06
  -8   2   2   -1.17    4.80
   8  -2  -2   -0.35    5.70
  -8   2   1    7.57    7.25
   8  -2  -1   19.93    9.50
  -8   2   0   14.79    8.28
   8  -2   0   17.02    9.30
  -8   2  -1    2.55    7.51
  -8   2  -2   31.85   10.93
  -8   1  10   32.59   12.30
   8  -1 -10   57.27   14.98
  -8   1   9   16.52    9.35
   8  -1  -9   26.06   11.18
  -8   1   8   -0.11    7.30
   8  -1  -8   10.07    8.07
  -8   1   7   47.14   13.26
   8  -1  -7   33.25   11.71
  -8   1   6   -1.40    5.62
   8  -1  -6    5.54    6.84
  -8   1   5  163.82   20.24
   8  -1  -5  153.92   22.17
  -8   1   4    2.67    6.46
   8  -1  -4    4.88    6.97
  -8   1   3   70.90   15.54
   8  -1  -3  100.02   18.06
  -8   1   2   17.59    9.36
   8  -1  -2    8.95    7.28
  -8   1   1    9.19    6.91
   8  -1  -1   -2.61    5.49
  -8   1   0    2.56    6.60
   8  -1   0    9.56    7.97
  -8   1  -1   23.51   10.45
  -8   1  -2    3.07    6.78
   8  -1   2    4.80    6.95
  -8   0  10   26.59   12.54
   8   0 -10   19.19   10.67
  -8   0   9  111.19   20.10
   8   0  -9   98.34   19.09
  -8   0   8   10.10    8.71
   8   0  -8   14.21    8.75
  -8   0   7   88.35   17.83
   8   0  -7   63.59   15.18
  -8   0   6   19.43    9.67
   8   0  -6   28.08   10.94
  -8   0   5   41.49   13.01
   8   0  -5   21.53   10.21
  -8   0   4  178.96   20.58
   8   0  -4  201.84   23.45
   8   0  -4  199.37   21.34
  -8   0   3    4.19    6.03
   8   0  -3    8.36    6.78
   8   0  -3    6.72    6.99
  -8   0   2   75.23   15.81
   8   0  -2  119.56   18.31
   8   0  -2   85.79   16.42
  -8   0   1   31.99   11.33
   8   0  -1   32.86   10.72
   8   0  -1   32.56   10.37
  -8   0   0    8.66    7.45
   8   0   0   -0.53    5.92
  -8   0  -1    9.58    7.86
   8   0   1    2.94    7.07
  -8  -1   9   16.90   10.06
   8   1  -9   -2.91    8.01
  -8  -1   8   68.87   16.53
  -8  -1   8   78.90   17.23
   8   1  -8   85.78   18.04
  -8  -1   7    3.38    7.83
   8   1  -7   13.23    8.80
  -8  -1   6   89.72   17.60
   8   1  -6   77.83   15.26
   8   1  -6   97.61   18.30
  -8  -1   5   16.35    9.03
   8   1  -5    2.11    6.30
   8   1  -5   15.90    9.09
  -8  -1   4    3.20    6.97
   8   1  -4    3.01    5.90
   8   1  -4    4.69    6.81
  -8  -1   3   41.62   12.67
   8   1  -3   44.97   12.58
   8   1  -3   33.96   11.01
  -8  -1   2   22.25    9.65
   8   1  -2   16.96    8.68
   8   1  -2   13.34    8.46
  -8  -1   1   -3.54    5.22
   8   1  -1    1.50    5.93
  -8  -1   0   22.04   10.04
   8   1   0   13.84    8.64
  -8  -1  -1    8.53    8.58
   8   1   1    0.11    5.97
  -8  -2   9    9.59    8.04
  -8  -2   9    8.15    8.44
  -8  -2   8   -1.95    5.75
  -8  -2   8    3.22    7.36
   8   2  -8   -0.84    6.57
  -8  -2   7   17.38   10.25
   8   2  -7   29.88   10.93
   8   2  -7   37.43   13.19
  -8  -2   6    8.43    8.46
   8   2  -6   17.10    8.90
   8   2  -6   14.65    9.16
  -8  -2   5   40.28   12.73
   8   2  -5   54.09   13.69
   8   2  -5   58.56   14.85
  -8  -2   4    0.32    6.81
   8   2  -4   13.69    7.58
   8   2  -4   17.32    8.67
  -8  -2   3    1.98    6.84
   8   2  -3    5.02    7.01
   8   2  -3    5.88    7.17
  -8  -2   2   11.89    8.61
   8   2  -2   15.14    8.82
  -8  -2   1    6.10    7.42
   8   2  -1    4.15    6.70
  -8  -2   0    6.73    8.34
   8   2   0    3.29    6.20
  -8  -3   7    1.16    7.21
   8   3  -7   -6.77    5.37
   8   3  -7   11.45    9.09
  -8  -3   6   39.54   14.00
   8   3  -6   37.00   12.51
   8   3  -6   46.89   14.39
  -8  -3   5   10.49    9.33
   8   3  -5   -3.23    6.10
   8   3  -5    0.16    6.34
  -8  -3   4   78.12   17.81
   8   3  -4   68.80   16.58
   8   3  -4   80.11   16.64
  -8  -3   3   14.01    9.93
   8   3  -3   28.11   11.90
  -8  -3   2   -7.30    6.71
   8   3  -2    6.84    6.79
  -8  -3   1   14.24   10.14
   8   3  -1   24.01   10.87
  -9   3   5   25.50   11.10
   9  -3  -4    5.29    9.14
  -9   2   5    6.51    8.20
   9  -2  -5    4.67    7.38
  -9   2   4   25.68   11.52
   9  -2  -4   30.63   13.07
  -9   2   3    6.36    7.50
   9  -2  -3    2.29    7.57
  -9   1   5    0.40    7.08
   9  -1  -5   -3.78    7.41
  -9   1   4    9.63    8.86
   9  -1  -4    0.08    7.07
   0   0   0    0.00    0.00
;
_shelx_hkl_checksum              66370
_shelx_res_file
;
    xsc1348_0m-auto-auto.res created by SHELXL-2014/7
TITL xsc1348_0m-auto_a.res in P-1
CELL 0.71073 7.4581 9.7008 11.5940 90.426 108.604 98.411
ZERR 2.00 0.0021 0.0021 0.0086 0.034 0.040 0.021
LATT 1
SFAC C  H  N  O  Cl Ru
UNIT 28  12  4  8  4  2
L.S. 40
ACTA
BOND $H
FMAP 2
PLAN 5
EADP C1 O1
DELU C6 C7
TEMP 23.000
WGHT    0.000000
FVAR       0.62693
RU1   6    0.345115    0.193854    0.809514    11.00000    0.05714    0.04371 =
         0.07655    0.00607    0.03234    0.00962
CL1   5    0.314365   -0.056276    0.781867    11.00000    0.09802    0.04198 =
         0.12204    0.00789    0.06169    0.00936
CL2   5    0.013003    0.192093    0.695779    11.00000    0.05278    0.07103 =
         0.15455   -0.00640    0.02700    0.00994
O1    4    0.219261    0.134050    1.028298    11.00000    0.12902    0.07290 =
         0.14109    0.03512    0.09385    0.04015
O2    4    0.351984    0.501324    0.864615    11.00000    0.08855    0.05171 =
         0.07259   -0.00406    0.02509    0.02122
O4    4    0.758261    0.463384    0.410441    11.00000    0.09946    0.13123 =
         0.07373    0.03921    0.05198    0.04371
O3    4    0.762750    0.184358    0.946531    11.00000    0.07420    0.08212 =
         0.08882    0.02246    0.02175    0.02297
N1    3    0.409129    0.213502    0.640063    11.00000    0.05410    0.04031 =
         0.05811   -0.00199    0.01386    0.00901
N2    3    0.709945    0.453487    0.807470    11.00000    0.05571    0.04911 =
         0.05597    0.00028    0.01851    0.00450
C1    1    0.269043    0.159019    0.946340    11.00000    0.12902    0.07290 =
         0.14109    0.03512    0.09385    0.04015
C2    1    0.356704    0.389926    0.838851    11.00000    0.05123    0.06246 =
         0.04950    0.00918    0.01636    0.00966
C14   1    0.543246    0.304150    0.613954    11.00000    0.04714    0.04903 =
         0.04943    0.00436    0.01617    0.01870
C13   1    0.681991    0.420896    0.692227    11.00000    0.04662    0.03980 =
         0.05680    0.01077    0.01931    0.01697
C9    1    0.783075    0.493237    0.623109    11.00000    0.04968    0.05919 =
         0.07097    0.01957    0.03007    0.02319
C8    1    0.713627    0.425900    0.497768    11.00000    0.06397    0.08168 =
         0.06762    0.02645    0.03518    0.03948
C7    1    0.567098    0.305431    0.500313    11.00000    0.05650    0.06220 =
         0.05013   -0.00145    0.01401    0.02724
C6    1    0.457661    0.209944    0.408711    11.00000    0.08509    0.08831 =
         0.05893    0.00527    0.02131    0.04175
AFIX  43
H6    2    0.475089    0.208822    0.332799    11.00000   -1.20000
AFIX   0
C5    1    0.320982    0.115839    0.433714    11.00000    0.09360    0.06447 =
         0.05658   -0.02106   -0.00309    0.01924
AFIX  43
H5    2    0.243157    0.048854    0.374012    11.00000   -1.20000
AFIX   0
C4    1    0.298570    0.120113    0.546530    11.00000    0.06698    0.05270 =
         0.07934   -0.00695    0.00772    0.00581
AFIX  43
H4    2    0.202930    0.055986    0.560225    11.00000   -1.20000
AFIX   0
C10   1    0.918296    0.608526    0.674115    11.00000    0.05206    0.05547 =
         0.10776    0.02402    0.03887    0.00996
AFIX  43
H10   2    0.986630    0.659338    0.629744    11.00000   -1.20000
AFIX   0
C11   1    0.946538    0.644218    0.794117    11.00000    0.06359    0.05795 =
         0.09613    0.00477    0.02337    0.00269
AFIX  43
H11   2    1.034880    0.721813    0.833113    11.00000   -1.20000
AFIX   0
C12   1    0.844840    0.565690    0.855904    11.00000    0.06576    0.05481 =
         0.06502   -0.00363    0.01185    0.00687
AFIX  43
H12   2    0.870255    0.591312    0.937692    11.00000   -1.20000
AFIX   0
C3    1    0.605212    0.191103    0.895633    11.00000    0.07956    0.04634 =
         0.06906    0.01101    0.03920    0.01172
HKLF 4 1 1 0 0 0 1 0 0 0 1
REM  xsc1348_0m-auto_a.res in P-1
REM R1 =  0.0372 for    2141 Fo > 4sig(Fo)  and  0.0562 for all    2934 data
REM    202 parameters refined using      1 restraints
END
WGHT      0.0259      0.0000
REM Highest difference peak  0.737,  deepest hole -0.597,  1-sigma level  0.069
Q1    1   0.0246  0.1254  0.7251  11.00000  0.05    0.39
Q2    1   0.2952  0.1806  0.7337  11.00000  0.05    0.35
Q3    1   0.1647  0.1429  0.7423  11.00000  0.05    0.31
Q4    1   0.0276  0.2262  0.7398  11.00000  0.05    0.31
Q5    1   0.1672  0.2201  0.8012  11.00000  0.05    0.31
;
_shelx_res_checksum              30744
loop_
_space_group_symop_operation_xyz
'x, y, z'
'-x, -y, -z'
loop_
_atom_site_type_symbol
_atom_site_label
_atom_site_fract_x
_atom_site_fract_y
_atom_site_fract_z
_atom_site_U_iso_or_equiv
_atom_site_adp_type
_atom_site_calc_flag
_atom_site_occupancy
Ru Ru1 0.34512(5) 0.19385(3) 0.80951(3) 0.05637(13) Uani d 1
Cl Cl1 0.31437(16) -0.05628(10) 0.78187(11) 0.0812(4) Uani d 1
Cl Cl2 0.01300(14) 0.19209(12) 0.69578(13) 0.0944(4) Uani d 1
O O1 0.2193(5) 0.1340(3) 1.0283(3) 0.0996(9) Uani d 1
O O2 0.3520(4) 0.5013(3) 0.8646(2) 0.0701(8) Uani d 1
O O4 0.7583(4) 0.4634(3) 0.4104(3) 0.0928(10) Uani d 1
O O3 0.7628(4) 0.1844(3) 0.9465(3) 0.0816(9) Uani d 1
N N1 0.4091(4) 0.2135(3) 0.6401(3) 0.0517(8) Uani d 1
N N2 0.7099(4) 0.4535(3) 0.8075(3) 0.0539(8) Uani d 1
C C1 0.2690(8) 0.1590(5) 0.9463(5) 0.0996(9) Uani d 1
C C2 0.3567(5) 0.3899(4) 0.8389(3) 0.0543(10) Uani d 1
C C14 0.5432(5) 0.3041(4) 0.6140(3) 0.0472(9) Uani d 1
C C13 0.6820(5) 0.4209(4) 0.6922(4) 0.0460(9) Uani d 1
C C9 0.7831(5) 0.4932(4) 0.6231(4) 0.0558(10) Uani d 1
C C8 0.7136(6) 0.4259(5) 0.4978(4) 0.0647(12) Uani d 1
C C7 0.5671(6) 0.3054(4) 0.5003(4) 0.0552(10) Uani d 1
C C6 0.4577(7) 0.2099(5) 0.4087(4) 0.0749(13) Uani d 1
H H6 0.4751 0.2088 0.3328 0.090 Uiso calc 1
C C5 0.3210(7) 0.1158(5) 0.4337(4) 0.0775(14) Uani d 1
H H5 0.2432 0.0489 0.3740 0.093 Uiso calc 1
C C4 0.2986(6) 0.1201(4) 0.5465(4) 0.0706(12) Uani d 1
H H4 0.2029 0.0560 0.5602 0.085 Uiso calc 1
C C10 0.9183(6) 0.6085(4) 0.6741(5) 0.0684(12) Uani d 1
H H10 0.9866 0.6593 0.6297 0.082 Uiso calc 1
C C11 0.9465(6) 0.6442(4) 0.7941(5) 0.0739(13) Uani d 1
H H11 1.0349 0.7218 0.8331 0.089 Uiso calc 1
C C12 0.8448(6) 0.5657(4) 0.8559(4) 0.0644(11) Uani d 1
H H12 0.8703 0.5913 0.9377 0.077 Uiso calc 1
C C3 0.6052(7) 0.1911(4) 0.8956(4) 0.0611(11) Uani d 1
loop_
_atom_site_aniso_label
_atom_site_aniso_U_11
_atom_site_aniso_U_22
_atom_site_aniso_U_33
_atom_site_aniso_U_12
_atom_site_aniso_U_13
_atom_site_aniso_U_23
Ru1 0.0571(2) 0.0437(2) 0.0766(3) 0.00962(15) 0.03234(18) 0.00607(16)
Cl1 0.0980(8) 0.0420(6) 0.1220(10) 0.0094(6) 0.0617(8) 0.0079(6)
Cl2 0.0528(7) 0.0710(8) 0.1545(12) 0.0099(6) 0.0270(7) -0.0064(8)
O1 0.129(2) 0.0729(17) 0.141(3) 0.0402(16) 0.094(2) 0.0351(17)
O2 0.089(2) 0.0517(19) 0.073(2) 0.0212(17) 0.0251(16) -0.0041(16)
O4 0.099(2) 0.131(3) 0.074(2) 0.044(2) 0.0520(19) 0.0392(19)
O3 0.074(2) 0.082(2) 0.089(2) 0.0230(18) 0.0218(19) 0.0225(17)
N1 0.054(2) 0.0403(19) 0.058(2) 0.0090(16) 0.0139(17) -0.0020(16)
N2 0.056(2) 0.049(2) 0.056(2) 0.0045(16) 0.0185(18) 0.0003(17)
C1 0.129(2) 0.0729(17) 0.141(3) 0.0402(16) 0.094(2) 0.0351(17)
C2 0.051(2) 0.062(3) 0.050(3) 0.010(2) 0.016(2) 0.009(2)
C14 0.047(2) 0.049(3) 0.049(3) 0.0187(19) 0.016(2) 0.004(2)
C13 0.047(2) 0.040(2) 0.057(3) 0.0170(18) 0.019(2) 0.011(2)
C9 0.050(2) 0.059(3) 0.071(3) 0.023(2) 0.030(2) 0.020(2)
C8 0.064(3) 0.082(3) 0.068(3) 0.039(2) 0.035(3) 0.026(3)
C7 0.057(3) 0.062(3) 0.050(3) 0.027(2) 0.014(2) -0.001(2)
C6 0.085(3) 0.088(4) 0.059(3) 0.042(3) 0.021(3) 0.005(3)
C5 0.094(4) 0.064(3) 0.057(3) 0.019(3) -0.003(3) -0.021(2)
C4 0.067(3) 0.053(3) 0.079(4) 0.006(2) 0.008(3) -0.007(3)
C10 0.052(3) 0.055(3) 0.108(4) 0.010(2) 0.039(3) 0.024(3)
C11 0.064(3) 0.058(3) 0.096(4) 0.003(2) 0.023(3) 0.005(3)
C12 0.066(3) 0.055(3) 0.065(3) 0.007(2) 0.012(2) -0.004(2)
C3 0.080(3) 0.046(3) 0.069(3) 0.012(2) 0.039(3) 0.011(2)
loop_
_atom_type_symbol
_atom_type_description
_atom_type_scat_dispersion_real
_atom_type_scat_dispersion_imag
_atom_type_scat_source
C C 0.0033 0.0016 'International Tables Vol C Tables 4.2.6.8 and 6.1.1.4'
H H 0.0000 0.0000 'International Tables Vol C Tables 4.2.6.8 and 6.1.1.4'
N N 0.0061 0.0033 'International Tables Vol C Tables 4.2.6.8 and 6.1.1.4'
O O 0.0106 0.0060 'International Tables Vol C Tables 4.2.6.8 and 6.1.1.4'
Cl Cl 0.1484 0.1585 'International Tables Vol C Tables 4.2.6.8 and 6.1.1.4'
Ru Ru -1.2594 0.8363 'International Tables Vol C Tables 4.2.6.8 and 6.1.1.4'
loop_
_geom_angle_atom_site_label_1
_geom_angle_atom_site_label_2
_geom_angle_atom_site_label_3
_geom_angle
_geom_angle_publ_flag
C1 Ru1 C3 93.5(2) y
C1 Ru1 C2 89.90(18) y
C3 Ru1 C2 95.34(16) y
C1 Ru1 N1 173.34(18) y
C3 Ru1 N1 90.43(15) y
C2 Ru1 N1 95.11(13) y
C1 Ru1 Cl2 87.35(18) y
C3 Ru1 Cl2 178.40(13) y
C2 Ru1 Cl2 86.04(12) y
N1 Ru1 Cl2 88.62(10) y
C1 Ru1 Cl1 85.99(15) y
C3 Ru1 Cl1 86.50(12) y
C2 Ru1 Cl1 175.60(11) y
N1 Ru1 Cl1 88.86(9) y
Cl2 Ru1 Cl1 92.18(5) y
C14 N1 C4 115.2(3) ?
C14 N1 Ru1 129.1(3) ?
C4 N1 Ru1 115.7(3) ?
C13 N2 C12 114.9(3) ?
O1 C1 Ru1 177.9(5) ?
O2 C2 Ru1 172.3(3) ?
N1 C14 C7 122.9(4) ?
N1 C14 C13 129.2(3) ?
C7 C14 C13 107.9(4) ?
N2 C13 C9 123.9(4) ?
N2 C13 C14 127.4(3) ?
C9 C13 C14 108.7(3) ?
C10 C9 C13 120.1(4) ?
C10 C9 C8 131.2(4) ?
C13 C9 C8 108.6(4) ?
O4 C8 C7 126.6(4) ?
O4 C8 C9 128.1(4) ?
C7 C8 C9 105.2(4) ?
C6 C7 C14 121.1(4) ?
C6 C7 C8 129.3(4) ?
C14 C7 C8 109.5(4) ?
C7 C6 C5 117.0(4) ?
C7 C6 H6 121.5 ?
C5 C6 H6 121.5 ?
C6 C5 C4 120.2(4) ?
C6 C5 H5 119.9 ?
C4 C5 H5 119.9 ?
N1 C4 C5 123.6(4) ?
N1 C4 H4 118.2 ?
C5 C4 H4 118.2 ?
C11 C10 C9 116.3(4) ?
C11 C10 H10 121.9 ?
C9 C10 H10 121.9 ?
C12 C11 C10 119.8(4) ?
C12 C11 H11 120.1 ?
C10 C11 H11 120.1 ?
N2 C12 C11 125.0(4) ?
N2 C12 H12 117.5 ?
C11 C12 H12 117.5 ?
O3 C3 Ru1 177.4(4) ?
loop_
_geom_bond_atom_site_label_1
_geom_bond_atom_site_label_2
_geom_bond_distance
_geom_bond_publ_flag
Ru1 C1 1.865(5) y
Ru1 C3 1.882(5) y
Ru1 C2 1.914(4) y
Ru1 N1 2.168(3) y
Ru1 Cl2 2.4037(16) y
Ru1 Cl1 2.4128(12) y
O1 C1 1.141(5) ?
O2 C2 1.128(4) ?
O4 C8 1.206(4) ?
O3 C3 1.146(4) ?
N1 C14 1.344(4) ?
N1 C4 1.369(4) ?
N2 C13 1.314(4) ?
N2 C12 1.350(4) ?
C14 C7 1.385(5) ?
C14 C13 1.490(5) ?
C13 C9 1.394(5) ?
C9 C10 1.377(5) ?
C9 C8 1.488(5) ?
C8 C7 1.486(5) ?
C7 C6 1.365(5) ?
C6 C5 1.370(6) ?
C6 H6 0.9300 ?
C5 C4 1.372(5) ?
C5 H5 0.9300 ?
C4 H4 0.9300 ?
C10 C11 1.373(5) ?
C10 H10 0.9300 ?
C11 C12 1.362(5) ?
C11 H11 0.9300 ?
C12 H12 0.9300 ?

_cod_database_fobs_code 2020212
