#------------------------------------------------------------------------------
#$Date: 2017-08-08 08:32:00 +0300 (Tue, 08 Aug 2017) $
#$Revision: 199636 $
#$URL: file:///home/coder/svn-repositories/cod/cif/2/02/08/2020847.cif $
#------------------------------------------------------------------------------
#
# This file is available in the Crystallography Open Database (COD),
# http://www.crystallography.net/. The original data for this entry
# were provided by IUCr Journals, http://journals.iucr.org/.
#
# The file may be used within the scientific community so long as
# proper attribution is given to the journal article from which the
# data were obtained.
#
data_2020847
loop_
_publ_author_name
'Setifi, Zouaoui'
'Zambon, Daniel'
'Setifi, Fatima'
'El-Ghozzi, Malika'
'Mahiou, Rachid'
'Glidewell, Christopher'
_publ_section_title
;
 Three zinc(II) and cadmium(II) complexes containing
 4-amino-3,5-bis(pyridin-2-yl)-1,2,4-triazole and polynitrile ligands:
 synthesis, molecular and supramolecular structures, and photoluminescence
 properties
;
_journal_coeditor_code           SK3666
_journal_issue                   9
_journal_name_full               'Acta Crystallographica Section C'
_journal_page_first
;
;
_journal_paper_doi               10.1107/S2053229617011391
_journal_volume                  73
_journal_year                    2017
_chemical_formula_iupac          '[Cd (C12 H10 N6)2 (C4 N3)2]'
_chemical_formula_moiety         'C32 H20 Cd N18'
_chemical_formula_sum            'C32 H20 Cd N18'
_chemical_formula_weight         769.07
_chemical_name_systematic
Bis[4-amino-3,5-bis(pyridin-2-yl)-1,2,4-triazole-\k^2^<i>N</i>^1^,<i>N</i>^5^]bis(tricyanomethanido-\k<i>N</i>^1^)cadmium(II)
_space_group_crystal_system      triclinic
_space_group_IT_number           2
_space_group_name_Hall           '-P 1'
_space_group_name_H-M_alt        'P -1'
_symmetry_space_group_name_Hall  '-P 1'
_symmetry_space_group_name_H-M   'P -1'
_atom_sites_solution_hydrogens   mixed
_audit_creation_method           SHELXL-2014
_cell_angle_alpha                87.833(5)
_cell_angle_beta                 68.383(5)
_cell_angle_gamma                88.803(5)
_cell_formula_units_Z            1
_cell_length_a                   9.271(5)
_cell_length_b                   9.571(5)
_cell_length_c                   10.156(5)
_cell_measurement_reflns_used    5042
_cell_measurement_temperature    296(2)
_cell_measurement_theta_max      30.728
_cell_measurement_theta_min      2.129
_cell_volume                     837.2(8)
_computing_cell_refinement
;
APEX2 and SAINT (Bruker, 2009)
;
_computing_data_collection
;
APEX2 (Bruker, 2009)
;
_computing_data_reduction
;
SAINT (Bruker, 2009)
;
_computing_molecular_graphics
;
PLATON (Spek, 2009)
;
_computing_publication_material
;
SHELXL2014 (Sheldrick, 2015) and PLATON (Spek, 2009)
;
_computing_structure_refinement
;
SHELXL2014 (Sheldrick, 2015)
;
_computing_structure_solution
;
SHELXS97 (Sheldrick, 2008)
;
_diffrn_ambient_temperature      296(2)
_diffrn_detector_area_resol_mean 9.091
_diffrn_measured_fraction_theta_full 0.998
_diffrn_measured_fraction_theta_max 0.965
_diffrn_measurement_device_type  'Bruker APEXII CCD'
_diffrn_measurement_method       '\f & \w scans'
_diffrn_radiation_monochromator  graphite
_diffrn_radiation_source         'fine-focus sealed tube'
_diffrn_radiation_type           MoK\a
_diffrn_radiation_wavelength     0.71073
_diffrn_reflns_av_R_equivalents  0.0265
_diffrn_reflns_limit_h_max       13
_diffrn_reflns_limit_h_min       -13
_diffrn_reflns_limit_k_max       13
_diffrn_reflns_limit_k_min       -13
_diffrn_reflns_limit_l_max       14
_diffrn_reflns_limit_l_min       -14
_diffrn_reflns_number            17569
_diffrn_reflns_theta_full        25.242
_diffrn_reflns_theta_max         30.728
_diffrn_reflns_theta_min         2.547
_diffrn_standards_decay_%        0
_diffrn_standards_interval_count 0
_diffrn_standards_interval_time  0
_diffrn_standards_number         0
_exptl_absorpt_coefficient_mu    0.706
_exptl_absorpt_correction_T_max  0.893
_exptl_absorpt_correction_T_min  0.789
_exptl_absorpt_correction_type   multi-scan
_exptl_absorpt_process_details
;
(SADABS; Sheldrick, 2003)
;
_exptl_crystal_colour            colourless
_exptl_crystal_density_diffrn    1.525
_exptl_crystal_description       plate
_exptl_crystal_F_000             386
_exptl_crystal_size_max          0.420
_exptl_crystal_size_mid          0.340
_exptl_crystal_size_min          0.160
_refine_diff_density_max         0.353
_refine_diff_density_min         -0.273
_refine_ls_extinction_method     none
_refine_ls_goodness_of_fit_ref   1.057
_refine_ls_hydrogen_treatment    constr
_refine_ls_matrix_type           full
_refine_ls_number_parameters     232
_refine_ls_number_reflns         5040
_refine_ls_number_restraints     0
_refine_ls_restrained_S_all      1.057
_refine_ls_R_factor_all          0.0306
_refine_ls_R_factor_gt           0.0262
_refine_ls_shift/su_max          0.000
_refine_ls_shift/su_mean         0.000
_refine_ls_structure_factor_coef Fsqd
_refine_ls_weighting_details
'w=1/[\s^2^(Fo^2^)+(0.0292P)^2^+0.1701P] where P=(Fo^2^+2Fc^2^)/3'
_refine_ls_weighting_scheme      calc
_refine_ls_wR_factor_gt          0.0611
_refine_ls_wR_factor_ref         0.0635
_reflns_number_gt                4682
_reflns_number_total             5040
_reflns_threshold_expression     'I > 2\s(I)'
_cod_data_source_file            sk3666sup1.cif
_cod_data_source_block           III
_cod_database_code               2020847
_shelx_space_group_comment
;
The symmetry employed for this shelxl refinement is uniquely defined
by the following loop, which should always be used as a source of
symmetry information in preference to the above space-group names.
They are only intended as comments.
;
_shelx_estimated_absorpt_t_min   0.756
_shelx_estimated_absorpt_t_max   0.895
_shelx_hkl_file
;
  -1   0   0   44.82    1.28
  -2   0   0  192.73    5.60
  -2   0   0  199.64    5.57
  -2   0   0  197.86    5.56
  -2   0   0  192.79    5.62
  -2   0   0  193.79    5.58
   2   0   0  201.90    5.61
   2   0   0  198.26    5.57
   2   0   0  209.56    5.59
   2   0   0  183.43    5.57
   2   0   0  192.35    5.59
  -3   0   0  153.75    4.33
  -3   0   0  153.65    4.35
  -3   0   0  153.05    4.38
  -3   0   0  156.55    4.35
   3   0   0  152.97    4.35
   3   0   0  154.71    4.35
   3   0   0  144.82    4.34
   3   0   0  162.07    4.35
   3   0   0  150.56    4.34
  -4   0   0   68.09    1.89
  -4   0   0   67.86    1.90
  -4   0   0   63.78    1.89
  -4   0   0   65.27    1.88
  -4   0   0   63.27    1.90
   4   0   0   67.61    1.90
   4   0   0   64.20    1.89
   4   0   0   63.92    1.89
   4   0   0   66.82    1.90
  -5   0   0   36.31    1.04
  -5   0   0   34.34    1.02
  -5   0   0   32.69    1.03
  -5   0   0   34.01    1.04
   5   0   0   35.15    1.03
   5   0   0   34.06    1.03
  -6   0   0    9.82    0.35
  -6   0   0    8.52    0.34
   6   0   0    8.70    0.33
   6   0   0    9.32    0.33
  -7   0   0    2.74    0.19
   7   0   0    3.05    0.17
   7   0   0    3.09    0.18
  -8   0   0    6.50    0.31
   8   0   0    6.80    0.30
  -9   0   0    4.51    0.26
   9   0   0    3.90    0.24
 -10   0   0    1.59    0.18
  10   0   0    1.40    0.16
 -11   0   0    1.68    0.20
  11   0   0    1.45    0.21
  11   0   0    1.25    0.17
 -12   0   0    0.95    0.17
  12   0   0    0.54    0.13
  12  -1   0   -0.02    0.10
 -12   1   0   -0.07    0.11
  11  -1   0    0.35    0.11
  11  -1   0    0.41    0.16
 -11   1   0    0.44    0.13
  10  -1   0    1.05    0.18
  10  -1   0    1.28    0.16
 -10   1   0    1.25    0.17
   9  -1   0    2.04    0.21
   9  -1   0    2.06    0.18
  -9   1   0    2.02    0.18
   8  -1   0    1.17    0.13
   8  -1   0    1.29    0.16
  -8   1   0    1.36    0.14
   7  -1   0    0.29    0.07
   7  -1   0    0.27    0.07
  -7   1   0    0.23    0.08
   6  -1   0   12.77    0.42
   6  -1   0   11.88    0.42
  -6   1   0   11.95    0.43
  -6   1   0   13.21    0.44
   5  -1   0   13.95    0.45
   5  -1   0   13.92    0.45
  -5   1   0   14.39    0.46
  -5   1   0   13.11    0.45
   4  -1   0   10.44    0.34
   4  -1   0   10.56    0.34
  -4   1   0    9.71    0.35
  -4   1   0   10.67    0.33
  -4   1   0   11.49    0.36
   3  -1   0    1.96    0.11
   3  -1   0    1.73    0.09
   3  -1   0    1.74    0.10
   3  -1   0    1.83    0.09
  -3   1   0    1.73    0.13
  -3   1   0    1.84    0.11
  -3   1   0    1.81    0.08
   2  -1   0   37.81    1.07
   2  -1   0   38.20    1.07
   2  -1   0   37.12    1.06
   2  -1   0   35.67    1.06
  -2   1   0   37.98    1.06
  -2   1   0   36.61    1.06
  -2   1   0   35.53    1.07
   1  -1   0   16.13    0.46
   1  -1   0   15.79    0.46
   1  -1   0   16.44    0.46
   1  -1   0   16.07    0.46
   1  -1   0   16.33    0.46
   1  -1   0   15.47    0.47
  -1   1   0   15.97    0.46
  -1   1   0   16.14    0.46
  -1   1   0   13.51    0.45
  -1   1   0   15.97    0.46
  -1   1   0   16.04    0.46
   0  -1   0   -0.03    0.02
   0  -1   0   -0.05    0.01
   0  -1   0   -0.04    0.01
   0   1   0   -0.04    0.01
   0   1   0   -0.05    0.01
   0   1   0   -0.05    0.00
   0   1   0   -0.05    0.02
   0   1   0   -0.04    0.01
   0   1   0   -0.02    0.02
  -1  -1   0  269.73    7.27
  -1  -1   0  240.29    7.27
  -1  -1   0  251.74    7.25
  -1  -1   0  256.00    7.28
   1   1   0  249.22    7.26
   1   1   0  260.91    7.26
   1   1   0  256.78    7.25
   1   1   0  262.91    7.25
   1   1   0  249.57    7.25
  -2  -1   0    8.28    0.26
  -2  -1   0    7.93    0.26
  -2  -1   0    8.41    0.27
  -2  -1   0    7.94    0.26
  -2  -1   0    7.76    0.27
   2   1   0    8.06    0.27
   2   1   0    8.12    0.26
   2   1   0    8.45    0.27
   2   1   0    7.76    0.27
  -3  -1   0   27.78    0.82
  -3  -1   0   27.04    0.82
  -3  -1   0   27.07    0.82
  -3  -1   0   27.24    0.81
  -3  -1   0   28.29    0.82
   3   1   0   26.41    0.82
   3   1   0   26.44    0.81
   3   1   0   27.36    0.81
   3   1   0   28.49    0.83
   3   1   0   28.97    0.82
  -4  -1   0    0.57    0.08
  -4  -1   0    0.71    0.09
  -4  -1   0    0.45    0.07
  -4  -1   0    0.67    0.06
  -4  -1   0    0.49    0.08
   4   1   0    0.58    0.06
   4   1   0    0.45    0.08
   4   1   0    0.47    0.07
   4   1   0    0.57    0.06
  -5  -1   0   12.37    0.41
  -5  -1   0   11.97    0.38
  -5  -1   0   11.45    0.41
  -5  -1   0   11.44    0.41
   5   1   0   11.69    0.42
   5   1   0   12.01    0.40
   5   1   0   11.98    0.40
  -6  -1   0    1.06    0.12
  -6  -1   0    1.30    0.12
   6   1   0    1.33    0.11
   6   1   0    1.24    0.11
   6   1   0    1.61    0.17
  -7  -1   0   25.19    0.81
  -7  -1   0   23.76    0.79
   7   1   0   24.57    0.79
   7   1   0   25.48    0.79
  -8  -1   0    4.15    0.24
   8   1   0    3.87    0.22
  -9  -1   0    2.02    0.19
   9   1   0    1.90    0.17
 -10  -1   0    0.14    0.11
  10   1   0    0.27    0.10
 -11  -1   0    0.83    0.16
  11   1   0    0.58    0.13
 -12  -1   0    0.22    0.14
  12  -2   0    0.43    0.13
 -12   2   0    0.53    0.15
  11  -2   0    0.42    0.12
 -11   2   0    0.59    0.14
  10  -2   0    1.55    0.21
  10  -2   0    1.57    0.17
 -10   2   0    1.70    0.18
   9  -2   0    0.12    0.09
   9  -2   0    0.16    0.11
  -9   2   0    0.20    0.10
   8  -2   0   15.81    0.57
   8  -2   0   15.13    0.54
  -8   2   0   14.78    0.54
   7  -2   0    3.52    0.19
   7  -2   0    3.62    0.23
   7  -2   0    3.34    0.19
  -7   2   0    3.52    0.21
   6  -2   0    3.09    0.16
   6  -2   0    2.75    0.15
   6  -2   0    2.80    0.18
  -6   2   0    3.18    0.19
  -6   2   0    2.70    0.17
   5  -2   0    7.23    0.26
   5  -2   0    6.94    0.28
   5  -2   0    7.25    0.26
  -5   2   0    7.15    0.27
  -5   2   0    6.74    0.27
  -5   2   0    7.57    0.29
   4  -2   0   19.72    0.59
   4  -2   0   20.00    0.59
   4  -2   0   18.79    0.61
  -4   2   0   19.33    0.60
  -4   2   0   18.78    0.58
  -4   2   0   19.37    0.60
   3  -2   0   77.30    2.24
   3  -2   0   78.26    2.22
   3  -2   0   80.60    2.25
   3  -2   0   76.92    2.22
  -3   2   0   78.57    2.21
  -3   2   0   77.25    2.23
  -3   2   0   76.88    2.23
   2  -2   0    7.87    0.26
   2  -2   0    7.34    0.24
   2  -2   0    7.86    0.26
   2  -2   0    7.38    0.26
   2  -2   0    7.61    0.26
   2  -2   0    7.29    0.24
  -2   2   0    8.09    0.26
  -2   2   0    7.45    0.26
  -2   2   0    7.56    0.25
  -2   2   0    7.57    0.24
   1  -2   0    0.53    0.06
   1  -2   0    0.65    0.06
   1  -2   0    0.55    0.07
   1  -2   0    0.64    0.07
   1  -2   0    0.53    0.06
  -1   2   0    0.62    0.07
  -1   2   0    0.49    0.06
  -1   2   0    0.57    0.05
  -1   2   0    0.57    0.05
  -1   2   0    0.55    0.06
  -1   2   0    0.61    0.06
   0  -2   0   31.17    0.89
   0  -2   0   30.32    0.90
   0  -2   0   30.08    0.90
   0  -2   0   31.21    0.89
   0  -2   0   30.75    0.89
   0   2   0   29.20    0.89
   0   2   0   30.66    0.90
   0   2   0   31.46    0.90
   0   2   0   31.50    0.89
   0   2   0   31.12    0.90
  -1  -2   0  154.64    4.50
  -1  -2   0  170.64    4.49
  -1  -2   0  160.30    4.49
  -1  -2   0  156.83    4.48
  -1  -2   0  165.03    4.49
   1   2   0  151.88    4.49
   1   2   0  155.27    4.49
   1   2   0  153.36    4.48
   1   2   0  160.03    4.52
   1   2   0  160.21    4.54
  -2  -2   0   95.62    2.74
  -2  -2   0   98.33    2.74
  -2  -2   0   91.82    2.74
  -2  -2   0   97.81    2.73
   2   2   0   93.52    2.73
   2   2   0   95.73    2.74
   2   2   0   94.20    2.74
   2   2   0   96.89    2.73
   2   2   0  100.79    2.74
  -3  -2   0  200.93    5.54
  -3  -2   0  189.49    5.53
  -3  -2   0  201.15    5.54
  -3  -2   0  195.62    5.52
  -3  -2   0  197.91    5.57
   3   2   0  183.73    5.54
   3   2   0  196.08    5.53
   3   2   0  200.27    5.53
   3   2   0  193.91    5.54
  -4  -2   0    8.60    0.31
  -4  -2   0    8.91    0.32
  -4  -2   0    8.70    0.29
  -4  -2   0    7.94    0.31
   4   2   0    8.26    0.30
   4   2   0    8.59    0.32
   4   2   0    8.75    0.30
  -5  -2   0   21.76    0.72
  -5  -2   0   22.79    0.72
  -5  -2   0   23.76    0.70
   5   2   0   23.34    0.71
   5   2   0   22.62    0.71
   5   2   0   22.57    0.73
  -6  -2   0   58.22    1.72
  -6  -2   0   55.02    1.72
   6   2   0   60.70    1.72
   6   2   0   57.35    1.73
   6   2   0   58.76    1.72
  -7  -2   0    0.03    0.08
  -7  -2   0    0.03    0.07
   7   2   0    0.07    0.07
   7   2   0    0.14    0.12
   7   2   0    0.04    0.06
  -8  -2   0    5.04    0.26
  -8  -2   0    4.30    0.26
   8   2   0    4.41    0.24
  -9  -2   0    2.02    0.20
  -9  -2   0    2.32    0.20
   9   2   0    2.26    0.20
 -10  -2   0    0.89    0.16
  10   2   0    0.83    0.14
 -11  -2   0    0.63    0.16
  11   2   0    0.61    0.14
 -12  -2   0   -0.04    0.12
  12  -3   0    0.16    0.11
  11  -3   0    0.13    0.10
 -11   3   0    0.00    0.11
  10  -3   0    0.59    0.16
  10  -3   0    0.49    0.12
 -10   3   0    0.53    0.13
   9  -3   0    1.87    0.18
   9  -3   0    1.62    0.20
  -9   3   0    1.61    0.17
   8  -3   0    1.66    0.19
   8  -3   0    1.98    0.17
  -8   3   0    1.80    0.17
   7  -3   0   30.41    0.93
   7  -3   0   30.50    0.96
   7  -3   0   29.70    0.93
  -7   3   0   28.24    0.93
   6  -3   0    9.04    0.34
   6  -3   0    9.51    0.37
   6  -3   0    9.79    0.35
  -6   3   0    9.44    0.35
   5  -3   0   29.18    0.90
   5  -3   0   30.12    0.90
   5  -3   0   30.15    0.92
  -5   3   0   29.37    0.91
  -5   3   0   30.10    0.90
   4  -3   0   14.87    0.46
   4  -3   0   13.88    0.49
   4  -3   0   14.40    0.46
   4  -3   0   14.15    0.47
  -4   3   0   13.97    0.47
  -4   3   0   14.67    0.46
   3  -3   0  105.15    3.00
   3  -3   0  101.34    3.01
   3  -3   0  103.15    2.98
   3  -3   0  104.64    2.98
  -3   3   0  111.32    3.00
  -3   3   0  104.32    2.99
  -3   3   0  102.29    2.99
  -3   3   0  105.76    2.97
   2  -3   0   46.81    1.31
   2  -3   0   44.66    1.32
   2  -3   0   44.16    1.30
   2  -3   0   43.56    1.32
   2  -3   0   46.28    1.31
   2  -3   0   43.93    1.30
  -2   3   0   44.37    1.32
  -2   3   0   45.70    1.31
  -2   3   0   43.98    1.31
  -2   3   0   44.57    1.31
  -2   3   0   45.91    1.29
   1  -3   0    0.78    0.07
   1  -3   0    0.86    0.08
   1  -3   0    0.50    0.07
   1  -3   0    0.71    0.07
   1  -3   0    0.61    0.08
   1  -3   0    0.89    0.09
  -1   3   0    0.75    0.06
  -1   3   0    0.77    0.08
  -1   3   0    0.55    0.07
  -1   3   0    0.70    0.07
  -1   3   0    0.75    0.08
  -1   3   0    0.65    0.07
   0  -3   0   74.12    2.14
   0  -3   0   77.48    2.15
   0  -3   0   75.97    2.15
   0  -3   0   75.90    2.14
   0  -3   0   70.30    2.15
   0   3   0   74.42    2.15
   0   3   0   77.32    2.15
   0   3   0   73.00    2.16
   0   3   0   75.71    2.15
   0   3   0   76.13    2.14
  -1  -3   0  105.85    3.13
  -1  -3   0  111.45    3.13
  -1  -3   0  112.37    3.12
  -1  -3   0  109.99    3.12
  -1  -3   0  112.56    3.14
   1   3   0  107.32    3.12
   1   3   0  112.60    3.13
   1   3   0  105.66    3.13
   1   3   0  111.90    3.12
   1   3   0  109.32    3.13
  -2  -3   0   33.54    0.94
  -2  -3   0   30.42    0.92
  -2  -3   0   32.20    0.93
  -2  -3   0   31.53    0.94
   2   3   0   30.43    0.94
   2   3   0   30.26    0.93
   2   3   0   32.60    0.94
   2   3   0   31.31    0.93
   2   3   0   29.56    0.94
  -3  -3   0   51.73    1.48
  -3  -3   0   48.60    1.46
   3   3   0   48.87    1.45
   3   3   0   50.72    1.45
   3   3   0   48.31    1.46
   3   3   0   49.42    1.46
  -4  -3   0  102.20    2.95
  -4  -3   0   98.12    2.94
  -4  -3   0  101.55    2.92
   4   3   0  103.50    2.95
   4   3   0  101.87    2.93
   4   3   0  107.45    2.93
   4   3   0  100.30    2.95
  -5  -3   0   22.26    0.73
  -5  -3   0   23.94    0.71
  -5  -3   0   23.34    0.74
   5   3   0   22.44    0.72
   5   3   0   22.22    0.75
   5   3   0   23.46    0.72
  -6  -3   0    1.86    0.17
  -6  -3   0    2.07    0.16
  -6  -3   0    2.08    0.13
   6   3   0    2.04    0.14
   6   3   0    2.00    0.15
   6   3   0    2.15    0.19
  -7  -3   0   12.70    0.48
  -7  -3   0   12.73    0.49
   7   3   0   13.15    0.51
   7   3   0   12.24    0.54
   7   3   0   13.49    0.48
  -8  -3   0    0.34    0.12
  -8  -3   0    0.35    0.09
   8   3   0    0.15    0.14
   8   3   0    0.32    0.10
  -9  -3   0    3.28    0.23
  -9  -3   0    3.30    0.26
   9   3   0    3.19    0.22
 -10  -3   0    1.74    0.20
 -10  -3   0    1.46    0.18
  10   3   0    1.32    0.17
 -11  -3   0    0.47    0.15
  11  -4   0    2.03    0.21
 -11   4   0    2.25    0.21
  10  -4   0    0.81    0.14
  10  -4   0    0.55    0.15
  10  -4   0    0.77    0.16
 -10   4   0    0.68    0.14
   9  -4   0    2.96    0.26
   9  -4   0    3.13    0.26
   9  -4   0    3.21    0.22
  -9   4   0    2.82    0.23
   8  -4   0    5.64    0.28
   8  -4   0    5.41    0.32
   8  -4   0    5.97    0.31
  -8   4   0    5.73    0.29
   7  -4   0    7.20    0.30
   7  -4   0    6.74    0.32
   7  -4   0    6.98    0.29
   7  -4   0    6.53    0.33
  -7   4   0    6.39    0.30
   6  -4   0    7.51    0.29
   6  -4   0    7.19    0.32
   6  -4   0    7.33    0.30
   6  -4   0    7.29    0.33
  -6   4   0    7.34    0.30
   5  -4   0   20.33    0.69
   5  -4   0   19.97    0.65
   5  -4   0   20.73    0.65
   5  -4   0   20.86    0.67
  -5   4   0   20.83    0.65
  -5   4   0   20.03    0.66
   4  -4   0    2.73    0.14
   4  -4   0    2.95    0.15
   4  -4   0    2.98    0.17
   4  -4   0    2.88    0.17
  -4   4   0    2.58    0.16
  -4   4   0    2.87    0.16
  -4   4   0    3.15    0.16
   3  -4   0    5.64    0.22
   3  -4   0    5.42    0.22
   3  -4   0    6.00    0.24
   3  -4   0    6.10    0.24
   3  -4   0    5.58    0.24
  -3   4   0    5.44    0.23
  -3   4   0    5.39    0.23
  -3   4   0    6.13    0.24
  -3   4   0    5.65    0.20
   2  -4   0   76.75    2.17
   2  -4   0   75.90    2.15
   2  -4   0   77.75    2.17
   2  -4   0   72.18    2.18
   2  -4   0   74.64    2.15
  -2   4   0   71.33    2.16
  -2   4   0   73.76    2.16
  -2   4   0   75.76    2.16
  -2   4   0   76.63    2.18
  -2   4   0   74.26    2.14
   1  -4   0    3.51    0.15
   1  -4   0    3.47    0.17
   1  -4   0    3.41    0.17
   1  -4   0    3.61    0.17
   1  -4   0    3.70    0.15
  -1   4   0    3.54    0.17
  -1   4   0    3.44    0.17
  -1   4   0    3.30    0.17
  -1   4   0    3.54    0.17
  -1   4   0    3.54    0.15
   0  -4   0   31.10    0.93
   0  -4   0   30.12    0.94
   0  -4   0   31.61    0.93
   0  -4   0   32.45    0.94
   0   4   0   33.50    0.94
   0   4   0   30.18    0.94
   0   4   0   31.14    0.95
   0   4   0   29.66    0.94
  -1  -4   0  107.22    2.99
  -1  -4   0  105.77    2.99
  -1  -4   0  105.36    2.97
  -1  -4   0  102.66    2.97
   1   4   0  105.62    2.97
   1   4   0  102.47    2.97
   1   4   0  107.09    3.00
   1   4   0   98.29    2.98
   1   4   0  102.93    2.99
  -2  -4   0   77.60    2.31
  -2  -4   0   79.20    2.33
  -2  -4   0   81.79    2.32
   2   4   0   82.97    2.32
   2   4   0   82.28    2.32
   2   4   0   77.37    2.33
   2   4   0   82.18    2.32
   2   4   0   81.01    2.33
  -3  -4   0   80.25    2.32
  -3  -4   0   79.55    2.34
   3   4   0   81.86    2.33
   3   4   0   80.52    2.35
   3   4   0   80.30    2.34
   3   4   0   81.16    2.33
  -4  -4   0   32.89    1.07
  -4  -4   0   35.10    1.08
   4   4   0   34.85    1.08
   4   4   0   35.63    1.08
   4   4   0   35.67    1.06
   4   4   0   35.34    1.06
  -5  -4   0   24.31    0.83
  -5  -4   0   26.02    0.84
  -5  -4   0   26.80    0.81
   5   4   0   25.73    0.82
   5   4   0   27.18    0.86
   5   4   0   27.26    0.83
  -6  -4   0   12.33    0.42
  -6  -4   0   11.75    0.45
  -6  -4   0   11.34    0.45
   6   4   0   11.42    0.47
   6   4   0   12.29    0.44
   6   4   0   12.06    0.44
  -7  -4   0    2.40    0.21
  -7  -4   0    2.80    0.20
   7   4   0    2.78    0.24
   7   4   0    2.92    0.20
  -8  -4   0    4.41    0.26
  -8  -4   0    4.11    0.28
   8   4   0    3.99    0.25
   8   4   0    4.21    0.31
  -9  -4   0    0.10    0.09
  -9  -4   0    0.27    0.13
   9   4   0    0.36    0.11
   9   4   0    0.01    0.15
 -10  -4   0   -0.01    0.08
 -10  -4   0   -0.10    0.12
  10   4   0   -0.02    0.08
  10   4   0   -0.16    0.24
 -11  -4   0    0.17    0.15
  11  -5   0    0.05    0.10
 -11   5   0    0.12    0.11
  10  -5   0    1.58    0.21
  10  -5   0    1.46    0.17
 -10   5   0    1.93    0.20
   9  -5   0    0.65    0.12
   9  -5   0    0.41    0.12
   9  -5   0    0.37    0.14
  -9   5   0    0.40    0.11
   8  -5   0    0.14    0.10
   8  -5   0    0.23    0.09
   8  -5   0    0.32    0.12
  -8   5   0    0.34    0.10
   7  -5   0    0.37    0.11
   7  -5   0    0.15    0.09
   7  -5   0    0.26    0.08
  -7   5   0    0.11    0.09
   6  -5   0    1.86    0.18
   6  -5   0    1.67    0.14
   6  -5   0    1.75    0.18
   6  -5   0    1.80    0.14
  -6   5   0    1.73    0.16
   5  -5   0    0.20    0.09
   5  -5   0    0.14    0.06
   5  -5   0    0.14    0.08
   5  -5   0    0.10    0.06
  -5   5   0    0.09    0.07
   4  -5   0   19.69    0.61
   4  -5   0   18.96    0.61
   4  -5   0   18.42    0.65
   4  -5   0   19.27    0.64
  -4   5   0   20.37    0.65
  -4   5   0   19.10    0.62
  -4   5   0   18.30    0.62
   3  -5   0    1.63    0.14
   3  -5   0    1.69    0.12
   3  -5   0    2.02    0.15
   3  -5   0    1.85    0.12
  -3   5   0    1.88    0.14
  -3   5   0    1.71    0.14
  -3   5   0    1.90    0.15
  -3   5   0    1.88    0.14
   2  -5   0   18.23    0.59
   2  -5   0   18.39    0.57
   2  -5   0   17.79    0.57
   2  -5   0   16.95    0.59
  -2   5   0   18.38    0.60
  -2   5   0   18.35    0.58
  -2   5   0   17.26    0.58
  -2   5   0   18.10    0.55
  -2   5   0   17.49    0.58
   1  -5   0   71.14    2.09
   1  -5   0   73.61    2.08
   1  -5   0   71.33    2.08
   1  -5   0   70.12    2.10
  -1   5   0   71.24    2.09
  -1   5   0   72.64    2.07
  -1   5   0   70.74    2.09
  -1   5   0   73.78    2.11
   0  -5   0    1.14    0.12
   0  -5   0    1.12    0.09
   0  -5   0    1.11    0.10
   0   5   0    1.42    0.13
   0   5   0    1.14    0.11
   0   5   0    1.24    0.12
   0   5   0    0.87    0.08
  -1  -5   0    5.22    0.23
  -1  -5   0    5.16    0.21
   1   5   0    4.78    0.20
   1   5   0    4.67    0.23
   1   5   0    4.91    0.23
   1   5   0    4.97    0.23
  -2  -5   0   14.04    0.50
  -2  -5   0   14.53    0.47
   2   5   0   14.49    0.50
   2   5   0   14.21    0.47
   2   5   0   14.93    0.50
  -3  -5   0   15.26    0.55
  -3  -5   0   15.76    0.52
   3   5   0   16.18    0.53
   3   5   0   16.37    0.53
   3   5   0   15.93    0.55
   3   5   0   16.12    0.55
  -4  -5   0    9.05    0.36
   4   5   0    8.87    0.37
   4   5   0    8.96    0.37
   4   5   0    9.04    0.34
   4   5   0    9.21    0.34
  -5  -5   0    1.26    0.11
  -5  -5   0    1.17    0.15
  -5  -5   0    1.55    0.16
   5   5   0    1.10    0.15
   5   5   0    1.32    0.13
   5   5   0    1.42    0.17
   5   5   0    1.40    0.13
  -6  -5   0    8.19    0.36
  -6  -5   0    8.00    0.37
   6   5   0    8.62    0.35
   6   5   0    8.78    0.40
  -7  -5   0    1.55    0.18
  -7  -5   0    1.89    0.18
   7   5   0    1.85    0.22
   7   5   0    2.15    0.18
  -8  -5   0    4.63    0.28
  -8  -5   0    3.97    0.29
   8   5   0    4.35    0.32
   8   5   0    4.25    0.26
  -9  -5   0    1.17    0.19
  -9  -5   0    1.12    0.16
   9   5   0    0.84    0.14
   9   5   0    0.81    0.20
 -10  -5   0    2.26    0.25
  10   5   0    1.81    0.26
 -11  -5   0   -0.08    0.13
  11   5   0   -0.16    0.24
  11  -6   0    0.28    0.13
  10  -6   0    1.41    0.18
 -10   6   0    2.07    0.20
   9  -6   0    1.94    0.19
   9  -6   0    2.12    0.23
   9  -6   0    2.03    0.23
  -9   6   0    2.08    0.20
   8  -6   0    1.29    0.18
   8  -6   0    1.63    0.16
   8  -6   0    1.77    0.20
  -8   6   0    1.64    0.18
   7  -6   0   10.23    0.44
   7  -6   0   10.20    0.46
   7  -6   0    9.94    0.40
  -7   6   0   10.01    0.41
   6  -6   0   12.04    0.48
   6  -6   0   12.72    0.51
   6  -6   0   12.72    0.46
  -6   6   0   12.47    0.47
   5  -6   0   13.09    0.46
   5  -6   0   13.20    0.51
   5  -6   0   12.81    0.46
   5  -6   0   13.22    0.49
  -5   6   0   12.45    0.47
   4  -6   0    2.55    0.16
   4  -6   0    2.68    0.19
   4  -6   0    2.58    0.15
   4  -6   0    2.29    0.18
  -4   6   0    2.19    0.18
  -4   6   0    2.42    0.18
   3  -6   0   28.96    0.90
   3  -6   0   29.05    0.93
   3  -6   0   29.99    0.91
   3  -6   0   28.27    0.94
  -3   6   0   29.23    0.91
  -3   6   0   28.67    0.92
  -3   6   0   31.10    0.95
   2  -6   0   57.37    1.73
   2  -6   0   57.27    1.72
   2  -6   0   56.85    1.70
   2  -6   0   58.41    1.70
  -2   6   0   57.27    1.71
  -2   6   0   58.22    1.71
  -2   6   0   57.68    1.73
  -2   6   0   58.21    1.68
   1  -6   0    3.48    0.17
   1  -6   0    3.65    0.18
   1  -6   0    3.72    0.20
   1  -6   0    3.71    0.21
  -1   6   0    3.60    0.20
  -1   6   0    3.72    0.20
  -1   6   0    4.02    0.17
  -1   6   0    3.41    0.20
   0  -6   0   13.88    0.48
   0  -6   0   13.86    0.46
   0  -6   0   13.06    0.45
   0   6   0   13.73    0.48
   0   6   0   13.05    0.47
   0   6   0   13.54    0.47
   0   6   0   13.23    0.45
  -1  -6   0    3.40    0.21
  -1  -6   0    3.64    0.18
   1   6   0    3.95    0.21
   1   6   0    3.60    0.21
   1   6   0    4.01    0.21
  -2  -6   0    3.27    0.21
  -2  -6   0    3.56    0.18
   2   6   0    3.58    0.21
   2   6   0    3.32    0.17
   2   6   0    3.36    0.20
  -3  -6   0   13.52    0.47
  -3  -6   0   12.97    0.49
   3   6   0   13.95    0.47
   3   6   0   13.59    0.50
   3   6   0   13.56    0.50
  -4  -6   0   23.83    0.80
  -4  -6   0   24.58    0.77
   4   6   0   23.73    0.77
   4   6   0   23.88    0.80
   4   6   0   24.29    0.81
  -5  -6   0   20.32    0.71
  -5  -6   0   19.46    0.70
  -5  -6   0   19.44    0.66
   5   6   0   20.46    0.71
   5   6   0   20.64    0.72
   5   6   0   20.30    0.68
  -6  -6   0   15.76    0.60
  -6  -6   0   16.21    0.61
   6   6   0   16.37    0.58
   6   6   0   16.83    0.64
  -7  -6   0    9.58    0.41
  -7  -6   0    9.27    0.43
   7   6   0    9.49    0.46
   7   6   0    8.90    0.39
  -8  -6   0    5.61    0.34
  -8  -6   0    5.31    0.31
   8   6   0    5.82    0.38
   8   6   0    5.72    0.31
  -9  -6   0    3.76    0.28
  -9  -6   0    4.01    0.33
   9   6   0    4.46    0.37
 -10  -6   0    0.82    0.19
  10   6   0    0.61    0.20
  11   6   0    0.34    0.25
  10  -7   0    0.09    0.10
 -10   7   0    0.29    0.12
   9  -7   0    1.06    0.19
   9  -7   0    0.57    0.13
  -9   7   0    0.98    0.16
   8  -7   0    3.44    0.24
   8  -7   0    3.86    0.29
   8  -7   0    3.57    0.29
  -8   7   0    3.86    0.26
   7  -7   0    3.00    0.25
   7  -7   0    2.82    0.25
   7  -7   0    2.58    0.21
  -7   7   0    2.66    0.22
   6  -7   0    5.30    0.32
   6  -7   0    5.81    0.28
   6  -7   0    5.90    0.33
  -6   7   0    5.36    0.29
   5  -7   0    8.95    0.41
   5  -7   0    9.05    0.36
   5  -7   0    8.58    0.39
  -5   7   0    8.31    0.37
   4  -7   0   24.45    0.80
   4  -7   0   23.19    0.76
   4  -7   0   23.84    0.82
   4  -7   0   23.67    0.77
  -4   7   0   23.48    0.77
  -4   7   0   23.13    0.78
   3  -7   0    3.67    0.23
   3  -7   0    3.35    0.23
   3  -7   0    3.42    0.19
   3  -7   0    3.11    0.18
  -3   7   0    3.70    0.22
  -3   7   0    3.07    0.21
   2  -7   0   12.36    0.45
   2  -7   0   12.56    0.47
   2  -7   0   12.93    0.45
   2  -7   0   12.93    0.49
  -2   7   0   12.48    0.46
  -2   7   0   12.20    0.47
   1  -7   0   26.53    0.83
   1  -7   0   26.77    0.83
   1  -7   0   27.09    0.86
  -1   7   0   26.65    0.81
  -1   7   0   26.15    0.84
  -1   7   0   24.06    0.84
   0  -7   0   23.27    0.73
   0  -7   0   22.73    0.73
   0  -7   0   22.60    0.76
   0  -7   0   22.49    0.73
   0   7   0   23.01    0.75
   0   7   0   23.19    0.72
   0   7   0   21.59    0.75
  -1  -7   0   13.02    0.50
  -1  -7   0   13.40    0.47
  -1  -7   0   13.62    0.47
   1   7   0   13.32    0.49
   1   7   0   12.95    0.49
  -2  -7   0   18.64    0.61
  -2  -7   0   18.24    0.64
   2   7   0   18.06    0.64
   2   7   0   17.73    0.64
   2   7   0   18.56    0.61
  -3  -7   0   -0.01    0.05
  -3  -7   0   -0.02    0.08
   3   7   0    0.02    0.05
   3   7   0   -0.01    0.09
   3   7   0    0.05    0.10
  -4  -7   0    5.10    0.29
  -4  -7   0    4.89    0.24
   4   7   0    5.27    0.31
   4   7   0    5.42    0.30
   4   7   0    5.57    0.26
  -5  -7   0   26.44    0.91
   5   7   0   26.34    0.88
   5   7   0   26.77    0.91
   5   7   0   27.94    0.93
  -6  -7   0    2.77    0.23
  -6  -7   0    2.59    0.24
   6   7   0    2.77    0.27
   6   7   0    2.53    0.19
   6   7   0    2.62    0.27
  -7  -7   0    2.61    0.23
  -7  -7   0    2.74    0.26
   7   7   0    2.48    0.26
  -8  -7   0    0.48    0.14
  -8  -7   0    0.27    0.15
   8   7   0    0.27    0.17
  -9  -7   0    1.70    0.21
  -9  -7   0    1.75    0.24
   9   7   0    1.53    0.24
 -10  -7   0    0.58    0.19
  10   7   0    0.44    0.20
   9  -8   0    1.23    0.18
  -9   8   0    1.21    0.18
   8  -8   0    0.60    0.16
   8  -8   0    0.84    0.18
   8  -8   0    0.32    0.11
  -8   8   0    0.42    0.14
   7  -8   0    1.08    0.15
   7  -8   0    1.14    0.19
   7  -8   0    1.02    0.18
  -7   8   0    1.20    0.17
   6  -8   0    5.21    0.33
   6  -8   0    5.18    0.32
   6  -8   0    4.92    0.27
  -6   8   0    4.89    0.30
   5  -8   0    9.24    0.44
   5  -8   0    9.62    0.39
   5  -8   0    9.48    0.43
  -5   8   0    9.05    0.40
  -5   8   0    9.28    0.38
   4  -8   0    9.03    0.36
   4  -8   0    7.73    0.40
   4  -8   0    8.63    0.40
  -4   8   0    8.76    0.38
  -4   8   0    8.85    0.37
   3  -8   0    3.80    0.25
   3  -8   0    3.57    0.25
   3  -8   0    3.46    0.21
  -3   8   0    3.10    0.23
  -3   8   0    3.76    0.23
   2  -8   0    0.06    0.06
   2  -8   0    0.00    0.08
   2  -8   0    0.04    0.09
  -2   8   0    0.03    0.09
  -2   8   0   -0.20    0.09
   1  -8   0   13.54    0.53
   1  -8   0   13.62    0.50
   1  -8   0   14.43    0.50
  -1   8   0   13.46    0.52
  -1   8   0   13.85    0.51
   0  -8   0    9.90    0.38
   0  -8   0    9.75    0.42
   0  -8   0    9.97    0.39
   0  -8   0   10.04    0.39
   0   8   0    9.97    0.41
   0   8   0    9.66    0.41
   0   8   0    9.48    0.36
  -1  -8   0    8.30    0.34
  -1  -8   0    8.99    0.39
   1   8   0    8.41    0.33
   1   8   0    8.45    0.38
   1   8   0    7.93    0.37
  -2  -8   0    0.01    0.05
  -2  -8   0    0.08    0.10
   2   8   0    0.06    0.05
   2   8   0    0.02    0.10
   2   8   0    0.02    0.11
  -3  -8   0   19.45    0.65
  -3  -8   0   18.68    0.69
   3   8   0   19.18    0.70
   3   8   0   18.56    0.64
   3   8   0   18.81    0.69
  -4  -8   0    0.20    0.12
   4   8   0    0.00    0.09
   4   8   0    0.01    0.12
   4   8   0   -0.06    0.12
  -5  -8   0    0.26    0.13
   5   8   0    0.30    0.15
   5   8   0    0.07    0.14
  -6  -8   0    4.07    0.32
  -6  -8   0    4.43    0.30
   6   8   0    4.25    0.33
   6   8   0    4.40    0.32
  -7  -8   0    1.12    0.20
  -7  -8   0    1.11    0.18
   7   8   0    0.85    0.20
  -8  -8   0    1.01    0.20
  -8  -8   0    1.03    0.18
   8   8   0    0.90    0.22
  -9  -8   0    0.51    0.18
  -9  -8   0    0.39    0.15
   9   8   0    0.19    0.19
  10   8   0    0.05    0.19
   9  -9   0    1.04    0.17
  -9   9   0    1.49    0.19
   8  -9   0    0.96    0.16
  -8   9   0    1.69    0.20
   7  -9   0    1.94    0.24
   7  -9   0    1.32    0.17
   7  -9   0    1.45    0.22
  -7   9   0    1.28    0.18
   6  -9   0    2.05    0.23
   6  -9   0    2.09    0.24
   6  -9   0    1.77    0.18
  -6   9   0    2.59    0.23
   5  -9   0    1.64    0.18
   5  -9   0    1.80    0.22
   5  -9   0    1.85    0.22
  -5   9   0    1.32    0.18
  -5   9   0    1.39    0.22
   4  -9   0    2.07    0.23
   4  -9   0    2.15    0.22
   4  -9   0    2.31    0.19
  -4   9   0    2.35    0.21
  -4   9   0    1.97    0.20
   3  -9   0   10.95    0.44
   3  -9   0   10.84    0.49
   3  -9   0   11.10    0.48
  -3   9   0   10.81    0.46
  -3   9   0   11.70    0.46
   2  -9   0   12.42    0.46
   2  -9   0   11.82    0.50
  -2   9   0   12.08    0.48
  -2   9   0   11.37    0.48
   1  -9   0    4.48    0.29
   1  -9   0    5.27    0.26
  -1   9   0    4.76    0.29
  -1   9   0    4.72    0.29
   0  -9   0    7.60    0.38
   0  -9   0    7.62    0.34
   0  -9   0    8.04    0.34
   0   9   0    7.78    0.38
   0   9   0    8.12    0.37
  -1  -9   0   20.98    0.71
  -1  -9   0   20.91    0.75
   1   9   0   21.37    0.75
   1   9   0   20.38    0.75
  -2  -9   0   30.05    1.01
  -2  -9   0   29.11    0.96
   2   9   0   29.34    1.00
   2   9   0   29.71    0.99
  -3  -9   0    8.46    0.42
   3   9   0    8.92    0.42
   3   9   0    8.35    0.43
  -4  -9   0    3.67    0.29
   4   9   0    4.14    0.32
   4   9   0    4.10    0.30
  -5  -9   0    1.90    0.24
   5   9   0    1.84    0.24
   5   9   0    1.68    0.24
  -6  -9   0    3.73    0.33
  -6  -9   0    3.10    0.27
   6   9   0    2.56    0.29
   6   9   0    3.24    0.30
  -7  -9   0    1.81    0.25
  -7  -9   0    1.59    0.23
   7   9   0    1.85    0.26
  -8  -9   0    2.29    0.29
  -8  -9   0    2.41    0.27
   8   9   0    1.26    0.24
  -9  -9   0    0.00    0.17
   9   9   0   -0.10    0.18
   8 -10   0    0.80    0.15
  -8  10   0    1.45    0.19
   7 -10   0    1.48    0.23
   7 -10   0    1.28    0.17
  -7  10   0    1.58    0.21
   6 -10   0    0.31    0.15
   6 -10   0    0.25    0.10
   6 -10   0    0.48    0.16
  -6  10   0    0.45    0.14
   5 -10   0    3.67    0.31
   5 -10   0    3.33    0.24
   5 -10   0    3.61    0.32
  -5  10   0    3.38    0.28
   4 -10   0    4.52    0.28
   4 -10   0    4.99    0.34
   4 -10   0    5.23    0.34
  -4  10   0    5.24    0.32
  -4  10   0    4.38    0.29
   3 -10   0   10.69    0.49
   3 -10   0   10.14    0.43
  -3  10   0   10.36    0.45
  -3  10   0   10.11    0.46
   2 -10   0    7.84    0.41
   2 -10   0    7.77    0.36
  -2  10   0    7.45    0.39
  -2  10   0    7.83    0.38
   1 -10   0    8.27    0.36
   1 -10   0    7.70    0.41
   1 -10   0    7.81    0.36
  -1  10   0    7.74    0.40
  -1  10   0    7.66    0.39
   0 -10   0    7.10    0.39
   0 -10   0    6.87    0.33
   0  10   0    6.91    0.37
   0  10   0    6.34    0.37
  -1 -10   0    2.08    0.25
  -1 -10   0    2.20    0.24
   1  10   0    2.35    0.25
   1  10   0    2.42    0.25
  -2 -10   0    4.24    0.32
   2  10   0    4.08    0.30
   2  10   0    4.37    0.33
  -3 -10   0    2.11    0.25
   3  10   0    2.95    0.29
   3  10   0    2.69    0.26
  -4 -10   0    0.59    0.17
   4  10   0    0.88    0.19
   4  10   0    0.96    0.20
  -5 -10   0    1.37    0.23
   5  10   0    1.70    0.25
   5  10   0    1.30    0.23
  -6 -10   0    2.84    0.28
  -6 -10   0    2.34    0.28
   6  10   0    2.36    0.28
   6  10   0    1.77    0.27
  -7 -10   0    0.25    0.18
  -7 -10   0    0.32    0.15
   7  10   0    0.21    0.20
  -8 -10   0    0.58    0.21
  -8 -10   0    0.46    0.17
   8  10   0    0.55    0.21
  -7  11   0    1.58    0.21
   6 -11   0    3.49    0.33
  -6  11   0    2.85    0.27
   5 -11   0    1.56    0.23
   5 -11   0    1.28    0.22
   5 -11   0    1.10    0.16
  -5  11   0    1.39    0.20
   4 -11   0    4.14    0.27
   4 -11   0    3.61    0.32
  -4  11   0    4.23    0.32
   3 -11   0    2.93    0.23
   3 -11   0    3.73    0.33
  -3  11   0    2.30    0.30
  -3  11   0    2.99    0.27
   2 -11   0    4.21    0.28
   2 -11   0    4.26    0.34
  -2  11   0    4.22    0.29
  -2  11   0    4.43    0.32
   1 -11   0    2.28    0.25
  -1  11   0    2.82    0.28
  -1  11   0    2.62    0.26
   0 -11   0    5.62    0.37
   0  11   0    5.29    0.34
   0  11   0    5.53    0.36
  -1 -11   0    0.85    0.19
   1  11   0    1.00    0.20
   1  11   0    1.00    0.19
  -2 -11   0    1.21    0.21
   2  11   0    1.52    0.23
   2  11   0    1.34    0.22
  -3 -11   0    6.56    0.42
   3  11   0    5.91    0.39
   3  11   0    5.84    0.42
  -4 -11   0    5.87    0.42
   4  11   0    6.31    0.44
   4  11   0    6.00    0.41
  -5 -11   0    0.45    0.19
   5  11   0    0.09    0.17
   5  11   0    0.41    0.20
  -6 -11   0    2.33    0.30
  -6 -11   0    1.94    0.27
   6  11   0    2.56    0.33
   6  11   0    2.41    0.30
  -7 -11   0    2.56    0.30
  -7 -11   0    2.58    0.32
   7  11   0    2.37    0.32
   5 -12   0    2.27    0.29
  -5  12   0    1.71    0.23
   4 -12   0    0.99    0.23
  -4  12   0    1.15    0.20
   3 -12   0    1.86    0.26
  -3  12   0    2.14    0.25
   2 -12   0    4.48    0.37
  -2  12   0    4.15    0.35
   1 -12   0    2.04    0.26
  -1  12   0    1.77    0.24
  -1  12   0    1.82    0.23
   0 -12   0    1.53    0.24
   0  12   0    1.61    0.24
   0  12   0    2.08    0.26
  -1 -12   0    4.21    0.37
   1  12   0    4.63    0.35
   1  12   0    4.47    0.38
  -2 -12   0    0.87    0.21
   2  12   0    0.88    0.21
   2  12   0    1.20    0.23
  -3 -12   0    3.57    0.35
   3  12   0    3.47    0.35
   3  12   0    2.58    0.31
  -4 -12   0    1.20    0.23
   4  12   0    1.33    0.26
   4  12   0    1.24    0.25
  -5 -12   0    0.61    0.20
   5  12   0    0.65    0.23
   5  12   0    0.46    0.22
   3 -13   0    1.19    0.25
  -3  13   0    1.65    0.25
   2 -13   0    2.80    0.33
  -2  13   0    2.70    0.30
   1 -13   0    5.83    0.43
  -1  13   0    5.19    0.41
   0 -13   0    2.70    0.30
   0  13   0    2.24    0.29
   0  13   0    2.34    0.29
  -1 -13   0    2.08    0.30
   1  13   0    2.01    0.28
   1  13   0    1.52    0.26
  -2 -13   0    3.97    0.39
   2  13   0    3.36    0.36
   2  13   0    4.19    0.38
  -3 -13   0    3.68    0.39
   3  13   0    4.20    0.40
   3  13   0    3.96    0.38
   3  13  -1    3.99    0.39
   3  13  -1    3.47    0.37
   2  13  -1    2.62    0.32
   2  13  -1    2.12    0.30
  -2 -13   1    2.65    0.32
   1  13  -1    3.66    0.35
   1  13  -1    3.03    0.32
  -1 -13   1    3.69    0.37
   0  13  -1    1.79    0.27
   0  13  -1    1.28    0.24
   0 -13   1    1.78    0.28
  -1  13  -1    1.91    0.27
  -1  13  -1    2.51    0.31
   1 -13   1    2.43    0.30
  -2  13  -1    6.17    0.44
   2 -13   1    5.87    0.44
  -3  13  -1    0.60    0.20
   3 -13   1    0.33    0.20
   5  12  -1    0.39    0.23
   5  12  -1    0.74    0.23
  -5 -12   1    0.76    0.23
   4  12  -1    1.07    0.24
   4  12  -1    0.87    0.23
  -4 -12   1    0.83    0.22
   3  12  -1    1.75    0.27
   3  12  -1    1.74    0.27
  -3 -12   1    1.37    0.25
   2  12  -1    2.74    0.32
   2  12  -1    3.01    0.32
  -2 -12   1    3.59    0.35
   1  12  -1    1.93    0.28
   1  12  -1    1.79    0.26
  -1 -12   1    1.98    0.27
   0  12  -1    3.06    0.31
   0  12  -1    2.39    0.28
   0 -12   1    2.27    0.28
  -1  12  -1    1.73    0.24
  -1  12  -1    1.63    0.24
   1 -12   1    1.54    0.24
  -2  12  -1    2.57    0.29
  -2  12  -1    2.58    0.28
   2 -12   1    2.77    0.30
  -3  12  -1    3.21    0.31
   3 -12   1    3.44    0.33
  -4  12  -1    1.04    0.20
   4 -12   1    0.83    0.21
  -5  12  -1    4.19    0.35
   5 -12   1    3.19    0.34
   6  11  -1    3.11    0.34
   6  11  -1    2.95    0.33
  -6 -11   1    3.30    0.35
  -6 -11   1    3.44    0.35
   5  11  -1    0.52    0.21
   5  11  -1    0.47    0.21
  -5 -11   1    0.56    0.19
   4  11  -1    3.11    0.32
   4  11  -1    3.30    0.33
  -4 -11   1    2.83    0.31
   3  11  -1    3.72    0.33
   3  11  -1    3.60    0.34
  -3 -11   1    4.13    0.36
   2  11  -1    4.74    0.35
   2  11  -1    4.55    0.38
  -2 -11   1    5.31    0.39
   1  11  -1    3.39    0.30
   1  11  -1    3.30    0.30
  -1 -11   1    2.94    0.29
   0  11  -1    5.16    0.35
   0  11  -1    5.89    0.38
   0 -11   1    6.07    0.38
  -1  11  -1    3.09    0.28
  -1  11  -1    2.98    0.29
   1 -11   1    2.91    0.29
  -2  11  -1    3.50    0.31
  -2  11  -1    3.57    0.29
   2 -11   1    2.81    0.28
  -3  11  -1    2.78    0.27
  -3  11  -1    2.85    0.27
   3 -11   1    2.73    0.29
  -4  11  -1    1.63    0.23
  -4  11  -1    1.58    0.22
   4 -11   1    1.70    0.24
  -5  11  -1    1.51    0.22
   5 -11   1    2.36    0.27
  -6  11  -1    1.97    0.24
   6 -11   1    2.00    0.25
   6 -11   1    2.24    0.29
  -7  11  -1    1.82    0.23
   7 -11   1    1.65    0.26
   7  10  -1    0.96    0.24
  -7 -10   1    1.14    0.23
  -7 -10   1    1.23    0.23
   6  10  -1    1.70    0.26
   6  10  -1    1.59    0.26
  -6 -10   1    2.04    0.27
  -6 -10   1    1.68    0.24
   5  10  -1    5.67    0.40
   5  10  -1    5.57    0.41
  -5 -10   1    5.39    0.40
   4  10  -1    1.77    0.24
   4  10  -1    1.89    0.25
  -4 -10   1    1.68    0.23
   3  10  -1    1.09    0.20
   3  10  -1    0.97    0.19
  -3 -10   1    1.01    0.19
   2  10  -1    1.11    0.19
   2  10  -1    1.22    0.21
  -2 -10   1    1.30    0.20
   1  10  -1    1.43    0.21
   1  10  -1    1.27    0.19
  -1 -10   1    1.05    0.18
   0  10  -1    4.49    0.31
   0  10  -1    3.93    0.30
   0 -10   1    4.33    0.32
  -1  10  -1    7.41    0.40
  -1  10  -1    8.35    0.41
   1 -10   1    8.50    0.39
   1 -10   1    7.97    0.43
   1 -10   1    7.87    0.37
  -2  10  -1    8.10    0.41
  -2  10  -1    7.97    0.42
   2 -10   1    8.21    0.43
   2 -10   1    8.64    0.37
  -3  10  -1    6.74    0.37
  -3  10  -1    7.63    0.39
   3 -10   1    6.63    0.39
   3 -10   1    6.66    0.33
  -4  10  -1    5.68    0.35
  -4  10  -1    6.06    0.33
   4 -10   1    5.63    0.31
   4 -10   1    6.60    0.38
  -5  10  -1    2.15    0.23
  -5  10  -1    2.09    0.23
   5 -10   1    2.47    0.27
   5 -10   1    2.49    0.25
   5 -10   1    2.51    0.21
  -6  10  -1    2.73    0.27
   6 -10   1    3.04    0.24
   6 -10   1    3.18    0.31
   6 -10   1    3.12    0.29
  -7  10  -1    1.63    0.22
   7 -10   1    1.53    0.23
   7 -10   1    1.50    0.23
  -8  10  -1    1.60    0.22
   8 -10   1    1.70    0.25
   9   9  -1    0.79    0.23
   8   9  -1    0.28    0.20
  -8  -9   1    0.29    0.15
  -8  -9   1    0.22    0.16
   7   9  -1    1.30    0.23
  -7  -9   1    1.39    0.23
  -7  -9   1    1.30    0.23
   6   9  -1    3.62    0.33
   6   9  -1    3.76    0.34
  -6  -9   1    3.89    0.32
  -6  -9   1    3.90    0.34
   5   9  -1    3.26    0.29
   5   9  -1    3.27    0.31
  -5  -9   1    3.49    0.30
  -5  -9   1    3.47    0.29
   4   9  -1    2.60    0.27
   4   9  -1    2.83    0.27
  -4  -9   1    2.60    0.26
   3   9  -1    4.69    0.31
   3   9  -1    4.79    0.33
  -3  -9   1    4.15    0.31
   2   9  -1    5.54    0.33
   2   9  -1    5.12    0.33
  -2  -9   1    5.94    0.34
   1   9  -1   21.91    0.80
   1   9  -1   22.36    0.80
  -1  -9   1   22.63    0.76
  -1  -9   1   22.90    0.80
   0   9  -1   11.24    0.49
   0   9  -1   12.32    0.51
   0  -9   1   12.38    0.46
   0  -9   1   12.22    0.51
  -1   9  -1    4.32    0.29
  -1   9  -1    4.43    0.29
   1  -9   1    4.20    0.29
   1  -9   1    4.36    0.24
   1  -9   1    4.48    0.24
  -2   9  -1   16.02    0.60
  -2   9  -1   15.81    0.60
   2  -9   1   15.50    0.57
   2  -9   1   15.54    0.61
  -3   9  -1   26.04    0.90
  -3   9  -1   26.78    0.92
   3  -9   1   28.06    0.89
   3  -9   1   26.97    0.93
  -4   9  -1    5.25    0.31
  -4   9  -1    5.71    0.33
   4  -9   1    5.49    0.29
   4  -9   1    5.38    0.32
   4  -9   1    5.33    0.34
  -5   9  -1    2.49    0.23
  -5   9  -1    2.15    0.22
   5  -9   1    2.33    0.21
   5  -9   1    2.25    0.23
   5  -9   1    2.06    0.24
  -6   9  -1    1.08    0.18
   6  -9   1    1.36    0.20
   6  -9   1    1.37    0.17
   6  -9   1    1.57    0.21
  -7   9  -1    4.04    0.30
   7  -9   1    3.75    0.30
   7  -9   1    3.09    0.29
   7  -9   1    3.22    0.25
  -8   9  -1    1.99    0.23
   8  -9   1    1.86    0.25
   8  -9   1    2.08    0.25
   8  -9   1    1.49    0.19
  -9   9  -1    3.70    0.32
   9   8  -1    0.00    0.17
  -9  -8   1    0.02    0.13
  -9  -8   1   -0.13    0.14
   8   8  -1    0.61    0.20
  -8  -8   1    0.77    0.18
  -8  -8   1    1.01    0.19
   7   8  -1    4.83    0.38
  -7  -8   1    4.52    0.33
  -7  -8   1    4.83    0.35
   6   8  -1    1.66    0.23
   6   8  -1    2.01    0.25
  -6  -8   1    1.92    0.23
  -6  -8   1    1.68    0.22
   5   8  -1    6.02    0.35
   5   8  -1    5.90    0.36
  -5  -8   1    5.72    0.34
  -5  -8   1    5.63    0.34
   4   8  -1    5.28    0.32
   4   8  -1    6.05    0.36
   4   8  -1    5.77    0.28
  -4  -8   1    5.54    0.33
   3   8  -1    3.78    0.27
   3   8  -1    3.64    0.21
   3   8  -1    3.64    0.28
  -3  -8   1    3.43    0.26
   2   8  -1   22.99    0.79
   2   8  -1   22.51    0.75
   2   8  -1   23.08    0.80
  -2  -8   1   23.89    0.76
  -2  -8   1   21.65    0.79
   1   8  -1    0.08    0.12
   1   8  -1    0.07    0.06
   1   8  -1   -0.05    0.09
  -1  -8   1    0.05    0.10
  -1  -8   1    0.05    0.05
   0   8  -1    3.06    0.23
   0   8  -1    2.32    0.22
   0  -8   1    2.76    0.22
   0  -8   1    3.14    0.18
  -1   8  -1    5.83    0.30
  -1   8  -1    5.70    0.26
  -1   8  -1    5.91    0.30
   1  -8   1    5.84    0.27
   1  -8   1    5.70    0.31
  -2   8  -1    0.60    0.13
  -2   8  -1    1.09    0.17
   2  -8   1    0.88    0.11
   2  -8   1    0.88    0.14
  -3   8  -1    3.03    0.23
  -3   8  -1    2.68    0.22
   3  -8   1    2.83    0.22
   3  -8   1    3.02    0.19
   3  -8   1    2.87    0.23
  -4   8  -1    4.52    0.28
  -4   8  -1    4.59    0.27
   4  -8   1    4.33    0.24
   4  -8   1    4.52    0.29
   4  -8   1    4.10    0.27
  -5   8  -1    2.24    0.21
  -5   8  -1    1.95    0.20
   5  -8   1    1.92    0.20
   5  -8   1    1.90    0.21
   5  -8   1    2.08    0.18
  -6   8  -1    3.75    0.28
  -6   8  -1    3.87    0.25
   6  -8   1    3.54    0.23
   6  -8   1    4.25    0.28
   6  -8   1    3.52    0.29
  -7   8  -1    1.83    0.21
   7  -8   1    1.87    0.21
   7  -8   1    1.89    0.19
   7  -8   1    1.85    0.23
  -8   8  -1    0.93    0.17
   8  -8   1    1.05    0.20
   8  -8   1    0.99    0.15
   8  -8   1    1.00    0.17
  -9   8  -1    0.94    0.18
   9  -8   1    1.11    0.20
   9  -8   1    1.28    0.22
   9  -8   1    1.21    0.17
 -10   8  -1    2.15    0.24
  10   7  -1    0.40    0.19
 -10  -7   1    0.67    0.19
   9   7  -1    0.91    0.21
  -9  -7   1    1.22    0.21
  -9  -7   1    0.80    0.18
   8   7  -1    0.71    0.20
  -8  -7   1    0.89    0.17
  -8  -7   1    0.65    0.17
   7   7  -1    2.76    0.22
   7   7  -1    3.17    0.28
  -7  -7   1    2.97    0.25
  -7  -7   1    2.73    0.26
   6   7  -1    2.96    0.27
   6   7  -1    3.03    0.28
   6   7  -1    2.97    0.21
  -6  -7   1    2.38    0.23
  -6  -7   1    2.71    0.24
   5   7  -1   22.39    0.79
   5   7  -1   22.65    0.76
   5   7  -1   22.30    0.80
  -5  -7   1   22.09    0.78
  -5  -7   1   22.16    0.80
   4   7  -1   27.70    0.87
   4   7  -1   25.98    0.90
   4   7  -1   26.07    0.89
  -4  -7   1   26.18    0.89
   3   7  -1   23.99    0.84
   3   7  -1   24.25    0.80
   3   7  -1   25.02    0.84
  -3  -7   1   24.70    0.79
  -3  -7   1   25.75    0.84
   2   7  -1    4.22    0.26
   2   7  -1    4.54    0.26
   2   7  -1    4.68    0.22
  -2  -7   1    4.24    0.25
  -2  -7   1    4.67    0.22
   1   7  -1   43.79    1.33
   1   7  -1   42.49    1.33
   1   7  -1   43.03    1.30
  -1  -7   1   44.44    1.31
  -1  -7   1   41.57    1.33
   0   7  -1   34.23    1.07
   0   7  -1   32.24    1.03
   0   7  -1   33.15    1.06
   0   7  -1   33.58    1.06
   0  -7   1   34.15    1.04
   0  -7   1   33.58    1.07
   0  -7   1   33.94    1.04
  -1   7  -1   24.64    0.83
  -1   7  -1   25.69    0.83
  -1   7  -1   25.22    0.79
  -1   7  -1   25.20    0.82
   1  -7   1   24.49    0.83
   1  -7   1   25.37    0.80
   1  -7   1   25.55    0.80
  -2   7  -1    8.65    0.32
  -2   7  -1    8.20    0.36
  -2   7  -1    8.26    0.36
  -2   7  -1    8.48    0.35
   2  -7   1    8.73    0.37
   2  -7   1    7.92    0.33
   2  -7   1    8.66    0.33
  -3   7  -1    4.10    0.24
  -3   7  -1    3.93    0.24
  -3   7  -1    4.09    0.19
   3  -7   1    3.98    0.25
   3  -7   1    4.08    0.21
   3  -7   1    3.89    0.23
   3  -7   1    4.41    0.21
  -4   7  -1   17.48    0.63
  -4   7  -1   18.30    0.62
   4  -7   1   18.11    0.61
   4  -7   1   18.26    0.62
   4  -7   1   18.11    0.64
   4  -7   1   17.56    0.64
  -5   7  -1   24.93    0.82
  -5   7  -1   24.34    0.83
   5  -7   1   24.95    0.85
   5  -7   1   24.79    0.82
   5  -7   1   25.66    0.85
  -6   7  -1    4.36    0.25
  -6   7  -1    4.38    0.27
   6  -7   1    3.83    0.27
   6  -7   1    4.33    0.27
   6  -7   1    3.81    0.24
  -7   7  -1    1.46    0.17
  -7   7  -1    1.08    0.16
   7  -7   1    1.01    0.14
   7  -7   1    0.94    0.17
   7  -7   1    1.23    0.17
  -8   7  -1    3.25    0.26
   8  -7   1    3.14    0.23
   8  -7   1    3.87    0.31
   8  -7   1    3.10    0.27
  -9   7  -1    1.32    0.19
   9  -7   1    1.55    0.22
   9  -7   1    1.29    0.16
   9  -7   1    1.52    0.21
 -10   7  -1    0.43    0.14
  10  -7   1    0.17    0.10
  10  -7   1    0.36    0.20
  10   6  -1    0.63    0.21
 -10  -6   1    0.86    0.19
   9   6  -1    0.45    0.18
  -9  -6   1    0.32    0.13
  -9  -6   1    0.43    0.15
   8   6  -1    0.44    0.17
   8   6  -1    0.44    0.12
  -8  -6   1    0.48    0.15
  -8  -6   1    0.54    0.14
   7   6  -1    1.02    0.14
   7   6  -1    0.96    0.19
  -7  -6   1    1.20    0.17
  -7  -6   1    1.02    0.17
   6   6  -1    2.90    0.26
   6   6  -1    2.73    0.25
   6   6  -1    2.71    0.20
  -6  -6   1    2.33    0.22
  -6  -6   1    2.28    0.21
   5   6  -1   10.64    0.42
   5   6  -1   10.40    0.46
   5   6  -1   10.74    0.45
  -5  -6   1   10.67    0.44
  -5  -6   1   10.88    0.45
   4   6  -1   37.72    1.14
   4   6  -1   37.10    1.17
   4   6  -1   36.19    1.16
   4   6  -1   37.81    1.14
  -4  -6   1   37.00    1.12
  -4  -6   1   35.42    1.16
   3   6  -1   10.36    0.38
   3   6  -1   10.32    0.38
   3   6  -1   10.47    0.42
   3   6  -1   10.35    0.41
   3   6  -1   10.95    0.40
  -3  -6   1    9.29    0.40
   2   6  -1   28.74    0.94
   2   6  -1   30.03    0.91
   2   6  -1   29.41    0.94
  -2  -6   1   29.78    0.91
  -2  -6   1   29.16    0.94
   1   6  -1   11.19    0.43
   1   6  -1   11.58    0.40
   1   6  -1   11.20    0.43
   1   6  -1   11.59    0.43
  -1  -6   1   11.18    0.40
  -1  -6   1   11.55    0.43
   0   6  -1   19.90    0.64
   0   6  -1   19.81    0.66
   0   6  -1   19.51    0.66
   0   6  -1   20.34    0.67
   0  -6   1   19.54    0.67
   0  -6   1   20.87    0.64
   0  -6   1   20.62    0.64
   0  -6   1   20.02    0.64
  -1   6  -1   14.47    0.52
  -1   6  -1   15.01    0.52
  -1   6  -1   14.93    0.52
   1  -6   1   14.60    0.52
   1  -6   1   15.03    0.50
   1  -6   1   15.40    0.50
  -2   6  -1    7.72    0.32
  -2   6  -1    7.89    0.29
  -2   6  -1    8.14    0.32
  -2   6  -1    7.62    0.32
   2  -6   1    7.81    0.33
   2  -6   1    7.84    0.30
   2  -6   1    7.58    0.30
   2  -6   1    7.81    0.32
  -3   6  -1   10.81    0.41
  -3   6  -1   11.30    0.42
  -3   6  -1   11.20    0.42
  -3   6  -1   11.06    0.38
   3  -6   1   11.15    0.40
   3  -6   1   11.00    0.42
   3  -6   1   11.06    0.42
   3  -6   1   11.49    0.40
  -4   6  -1   25.47    0.80
  -4   6  -1   23.56    0.80
   4  -6   1   24.96    0.79
   4  -6   1   24.90    0.82
   4  -6   1   24.81    0.82
   4  -6   1   25.24    0.79
  -5   6  -1    0.10    0.10
  -5   6  -1    0.01    0.09
   5  -6   1    0.02    0.09
   5  -6   1   -0.01    0.05
   5  -6   1    0.07    0.07
   5  -6   1    0.11    0.08
  -6   6  -1   14.33    0.51
  -6   6  -1   13.03    0.51
   6  -6   1   13.86    0.53
   6  -6   1   13.65    0.53
   6  -6   1   13.94    0.50
  -7   6  -1    6.77    0.32
  -7   6  -1    6.89    0.34
   7  -6   1    7.01    0.35
   7  -6   1    7.00    0.32
   7  -6   1    6.34    0.34
  -8   6  -1    0.86    0.15
   8  -6   1    0.94    0.14
   8  -6   1    1.00    0.16
   8  -6   1    0.68    0.16
  -9   6  -1    1.02    0.17
   9  -6   1    1.19    0.18
   9  -6   1    1.27    0.16
   9  -6   1    1.13    0.20
 -10   6  -1    0.79    0.16
  10  -6   1    1.11    0.19
  10  -6   1    0.56    0.17
  10  -6   1    0.82    0.14
 -11   6  -1    0.26    0.14
  11  -6   1    0.16    0.11
  11   5  -1    0.03    0.27
  10   5  -1    0.62    0.20
 -10  -5   1    0.97    0.18
 -10  -5   1    0.75    0.18
   9   5  -1    4.12    0.28
  -9  -5   1    4.55    0.32
  -9  -5   1    4.45    0.30
   8   5  -1    2.70    0.22
  -8  -5   1    3.06    0.26
  -8  -5   1    3.39    0.26
   7   5  -1    7.48    0.34
   7   5  -1    7.33    0.39
  -7  -5   1    7.93    0.37
  -7  -5   1    7.83    0.37
   6   5  -1    2.79    0.24
   6   5  -1    2.09    0.17
   6   5  -1    1.87    0.20
  -6  -5   1    2.13    0.19
  -6  -5   1    2.00    0.19
   5   5  -1    0.13    0.11
   5   5  -1    0.06    0.07
   5   5  -1   -0.05    0.10
   5   5  -1   -0.06    0.05
  -5  -5   1    0.01    0.08
  -5  -5   1    0.13    0.06
  -5  -5   1    0.08    0.08
   4   5  -1   18.23    0.60
   4   5  -1   18.57    0.60
   4   5  -1   18.00    0.63
   4   5  -1   18.03    0.62
  -4  -5   1   18.00    0.63
  -4  -5   1   17.40    0.61
  -4  -5   1   18.48    0.59
   3   5  -1   26.97    0.81
   3   5  -1   25.29    0.83
   3   5  -1   26.60    0.84
   3   5  -1   26.08    0.81
  -3  -5   1   25.53    0.83
  -3  -5   1   24.95    0.80
   2   5  -1   46.99    1.36
   2   5  -1   44.85    1.38
   2   5  -1   44.73    1.38
   2   5  -1   45.42    1.36
   2   5  -1   47.20    1.36
  -2  -5   1   45.04    1.35
  -2  -5   1   45.83    1.38
   1   5  -1   24.41    0.76
   1   5  -1   24.16    0.74
   1   5  -1   23.02    0.76
   1   5  -1   24.80    0.74
  -1  -5   1   23.64    0.74
  -1  -5   1   24.08    0.76
   0   5  -1   31.45    0.95
   0   5  -1   31.69    0.97
   0   5  -1   31.66    0.97
   0   5  -1   31.87    0.97
   0  -5   1   32.47    0.95
   0  -5   1   29.62    0.96
   0  -5   1   31.21    0.95
   0  -5   1   31.43    0.95
  -1   5  -1  104.88    3.09
  -1   5  -1  107.80    3.10
  -1   5  -1  107.83    3.10
   1  -5   1  108.82    3.08
   1  -5   1  107.63    3.08
   1  -5   1  108.04    3.10
  -2   5  -1   85.68    2.47
  -2   5  -1   87.78    2.49
  -2   5  -1   84.96    2.48
  -2   5  -1   86.50    2.49
   2  -5   1   84.92    2.49
   2  -5   1   82.85    2.47
   2  -5   1   86.00    2.49
   2  -5   1   87.24    2.47
  -3   5  -1   27.76    0.85
  -3   5  -1   29.27    0.88
  -3   5  -1   26.97    0.88
  -3   5  -1   27.69    0.87
   3  -5   1   28.92    0.86
   3  -5   1   27.42    0.86
   3  -5   1   27.91    0.88
   3  -5   1   28.75    0.88
  -4   5  -1   21.47    0.68
  -4   5  -1   20.87    0.65
  -4   5  -1   20.07    0.68
   4  -5   1   20.70    0.69
   4  -5   1   20.65    0.67
   4  -5   1   21.24    0.69
   4  -5   1   22.12    0.67
  -5   5  -1   38.93    1.20
  -5   5  -1   37.82    1.21
   5  -5   1   39.50    1.23
   5  -5   1   40.56    1.22
   5  -5   1   40.38    1.20
   5  -5   1   39.47    1.20
  -6   5  -1    4.55    0.24
  -6   5  -1    4.19    0.24
   6  -5   1    4.59    0.22
   6  -5   1    4.18    0.22
   6  -5   1    4.34    0.25
   6  -5   1    4.20    0.25
  -7   5  -1    8.32    0.36
  -7   5  -1    8.33    0.35
   7  -5   1    7.70    0.38
   7  -5   1    8.09    0.34
   7  -5   1    8.29    0.37
  -8   5  -1    2.98    0.21
  -8   5  -1    2.74    0.23
   8  -5   1    2.71    0.23
   8  -5   1    2.91    0.25
   8  -5   1    2.90    0.21
  -9   5  -1    0.25    0.12
   9  -5   1    0.20    0.13
   9  -5   1    0.30    0.11
   9  -5   1    0.47    0.11
 -10   5  -1    2.87    0.25
  10  -5   1    1.67    0.18
  10  -5   1    1.81    0.22
  10  -5   1    1.95    0.23
 -11   5  -1    2.02    0.22
  11  -5   1    1.20    0.17
 -11  -4   1    0.02    0.13
  10   4  -1    1.74    0.28
  10   4  -1    1.82    0.19
 -10  -4   1    1.77    0.22
 -10  -4   1    1.89    0.22
   9   4  -1   -0.21    0.13
   9   4  -1    0.15    0.09
  -9  -4   1    0.13    0.10
  -9  -4   1   -0.03    0.10
   8   4  -1    1.69    0.18
   8   4  -1    1.21    0.19
  -8  -4   1    1.64    0.19
  -8  -4   1    1.80    0.19
   7   4  -1    6.41    0.30
   7   4  -1    6.66    0.35
  -7  -4   1    6.13    0.31
  -7  -4   1    6.12    0.32
   6   4  -1    2.89    0.25
   6   4  -1    3.37    0.19
   6   4  -1    2.99    0.19
  -6  -4   1    3.02    0.21
  -6  -4   1    3.44    0.22
   5   4  -1   -0.05    0.09
   5   4  -1    0.02    0.09
   5   4  -1    0.06    0.06
   5   4  -1   -0.03    0.05
  -5  -4   1    0.00    0.04
  -5  -4   1    0.08    0.08
  -5  -4   1   -0.12    0.06
   4   4  -1   15.79    0.53
   4   4  -1   15.63    0.55
   4   4  -1   16.68    0.53
   4   4  -1   16.90    0.56
  -4  -4   1   16.27    0.56
  -4  -4   1   16.27    0.52
  -4  -4   1   15.17    0.54
   3   4  -1   18.20    0.59
   3   4  -1   18.29    0.57
   3   4  -1   17.54    0.57
   3   4  -1   17.32    0.58
  -3  -4   1   17.31    0.55
  -3  -4   1   17.46    0.58
   2   4  -1   81.65    2.37
   2   4  -1   81.48    2.38
   2   4  -1   83.32    2.36
   2   4  -1   83.70    2.36
  -2  -4   1   79.13    2.37
   1   4  -1  107.98    3.07
   1   4  -1  104.43    3.07
   1   4  -1  106.53    3.06
   1   4  -1  108.70    3.06
  -1  -4   1  106.92    3.05
  -1  -4   1  112.03    3.06
  -1  -4   1  102.47    3.07
   0   4  -1   38.38    1.15
   0   4  -1   38.30    1.16
   0   4  -1   39.13    1.17
   0   4  -1   39.62    1.15
   0   4  -1   38.81    1.16
   0  -4   1   39.27    1.15
   0  -4   1   39.80    1.15
   0  -4   1   38.94    1.17
   0  -4   1   39.39    1.16
  -1   4  -1   61.32    1.82
  -1   4  -1   62.30    1.81
  -1   4  -1   62.18    1.81
  -1   4  -1   62.33    1.80
  -1   4  -1   60.32    1.80
  -1   4  -1   65.31    1.84
   1  -4   1   61.44    1.80
   1  -4   1   64.86    1.82
   1  -4   1   62.82    1.80
   1  -4   1   61.42    1.82
   1  -4   1   61.71    1.81
  -2   4  -1   27.50    0.87
  -2   4  -1   26.89    0.85
  -2   4  -1   29.18    0.87
  -2   4  -1   29.69    0.87
  -2   4  -1   28.67    0.87
   2  -4   1   28.68    0.86
   2  -4   1   28.79    0.86
   2  -4   1   29.63    0.87
   2  -4   1   27.93    0.87
   2  -4   1   27.58    0.87
  -3   4  -1    1.45    0.10
  -3   4  -1    1.44    0.13
  -3   4  -1    1.52    0.13
   3  -4   1    1.37    0.11
   3  -4   1    1.47    0.10
   3  -4   1    1.49    0.10
   3  -4   1    1.46    0.13
  -4   4  -1    0.95    0.11
  -4   4  -1    1.09    0.09
  -4   4  -1    1.01    0.12
   4  -4   1    0.94    0.11
   4  -4   1    0.99    0.11
   4  -4   1    1.04    0.09
   4  -4   1    1.07    0.09
  -5   4  -1    2.18    0.16
  -5   4  -1    1.88    0.16
   5  -4   1    2.36    0.16
   5  -4   1    2.28    0.17
   5  -4   1    2.27    0.14
   5  -4   1    2.32    0.14
  -6   4  -1    2.30    0.18
  -6   4  -1    2.47    0.18
   6  -4   1    2.54    0.16
   6  -4   1    2.65    0.18
   6  -4   1    2.61    0.16
   6  -4   1    2.71    0.19
  -7   4  -1    1.56    0.16
  -7   4  -1    1.39    0.15
   7  -4   1    1.33    0.16
   7  -4   1    1.39    0.13
   7  -4   1    1.57    0.17
   7  -4   1    1.38    0.14
  -8   4  -1    1.46    0.17
   8  -4   1    1.80    0.19
   8  -4   1    1.71    0.16
   8  -4   1    1.96    0.20
  -9   4  -1    4.12    0.27
   9  -4   1    4.17    0.28
   9  -4   1    3.99    0.25
   9  -4   1    4.57    0.30
 -10   4  -1    0.65    0.14
  10  -4   1    0.77    0.16
  10  -4   1    0.95    0.18
  10  -4   1    0.55    0.12
 -11   4  -1    0.32    0.14
  11  -4   1    0.37    0.11
  11  -4   1    0.19    0.14
  11  -4   1    0.38    0.17
  11   3  -1    1.11    0.17
 -11  -3   1    1.39    0.19
  10   3  -1    0.08    0.09
  10   3  -1    0.05    0.22
 -10  -3   1    0.21    0.13
 -10  -3   1    0.04    0.12
   9   3  -1    2.52    0.22
  -9  -3   1    2.89    0.24
  -9  -3   1    2.70    0.23
   8   3  -1    3.64    0.23
   8   3  -1    3.46    0.27
  -8  -3   1    3.66    0.25
  -8  -3   1    3.93    0.24
   7   3  -1    7.86    0.37
   7   3  -1    7.73    0.33
  -7  -3   1    7.32    0.33
  -7  -3   1    7.66    0.35
   6   3  -1   22.20    0.72
   6   3  -1   23.91    0.72
   6   3  -1   21.39    0.75
  -6  -3   1   21.17    0.72
  -6  -3   1   22.38    0.75
   5   3  -1    6.02    0.29
   5   3  -1    6.15    0.28
   5   3  -1    6.49    0.25
   5   3  -1    6.13    0.26
  -5  -3   1    6.11    0.28
  -5  -3   1    5.61    0.26
   4   3  -1   21.43    0.70
   4   3  -1   23.03    0.70
   4   3  -1   22.20    0.72
   4   3  -1   22.35    0.72
  -4  -3   1   21.93    0.73
  -4  -3   1   24.82    0.74
  -4  -3   1   21.11    0.71
  -4  -3   1   24.03    0.69
   3   3  -1  106.34    3.09
   3   3  -1  106.82    3.10
   3   3  -1  111.44    3.09
   3   3  -1  108.17    3.10
  -3  -3   1  105.51    3.10
  -3  -3   1  108.05    3.08
  -3  -3   1  107.61    3.11
  -3  -3   1  110.23    3.10
   2   3  -1   11.37    0.36
   2   3  -1   10.87    0.38
   2   3  -1   11.05    0.36
   2   3  -1   10.77    0.38
  -2  -3   1   10.20    0.37
  -2  -3   1   11.06    0.36
  -2  -3   1   11.79    0.38
  -2  -3   1   11.66    0.38
   1   3  -1  175.72    5.05
   1   3  -1  177.43    5.05
   1   3  -1  179.02    5.05
   1   3  -1  171.68    5.06
   1   3  -1  182.55    5.06
   1   3  -1  179.57    5.06
  -1  -3   1  182.27    5.06
  -1  -3   1  174.44    5.06
  -1  -3   1  179.86    5.05
  -1  -3   1  183.30    5.06
   0   3  -1   70.46    2.03
   0   3  -1   70.56    2.02
   0   3  -1   69.71    2.02
   0   3  -1   70.42    2.02
   0   3  -1   68.68    2.03
   0  -3   1   71.26    2.03
   0  -3   1   70.91    2.02
   0  -3   1   69.84    2.01
   0  -3   1   71.90    2.03
   0  -3   1   70.12    2.03
  -1   3  -1  144.00    4.07
  -1   3  -1  143.28    4.08
  -1   3  -1  141.70    4.08
  -1   3  -1  143.25    4.08
  -1   3  -1  144.41    4.07
  -1   3  -1  142.93    4.08
   1  -3   1  139.86    4.08
   1  -3   1  147.28    4.09
   1  -3   1  145.09    4.08
   1  -3   1  142.57    4.07
   1  -3   1  141.55    4.07
   1  -3   1  149.32    4.08
  -2   3  -1   64.29    1.93
  -2   3  -1   67.38    1.92
  -2   3  -1   66.27    1.93
  -2   3  -1   64.50    1.93
  -2   3  -1   68.24    1.94
   2  -3   1   67.11    1.92
   2  -3   1   68.38    1.92
   2  -3   1   67.07    1.93
   2  -3   1   67.29    1.95
   2  -3   1   68.67    1.93
   2  -3   1   67.62    1.94
  -3   3  -1   60.04    1.66
  -3   3  -1   54.47    1.65
  -3   3  -1   57.22    1.66
  -3   3  -1   57.60    1.64
   3  -3   1   55.70    1.64
   3  -3   1   55.48    1.65
   3  -3   1   56.79    1.66
   3  -3   1   57.36    1.65
  -4   3  -1    9.95    0.35
  -4   3  -1   10.01    0.32
  -4   3  -1    9.84    0.35
  -4   3  -1    9.48    0.34
   4  -3   1    9.63    0.33
   4  -3   1    9.15    0.35
   4  -3   1    9.79    0.35
   4  -3   1    9.87    0.34
  -5   3  -1   23.62    0.71
  -5   3  -1   22.24    0.74
  -5   3  -1   23.87    0.73
   5  -3   1   23.69    0.75
   5  -3   1   22.65    0.75
   5  -3   1   23.74    0.73
   5  -3   1   23.49    0.73
  -6   3  -1   10.96    0.40
  -6   3  -1   10.51    0.40
   6  -3   1   10.96    0.42
   6  -3   1   10.68    0.39
   6  -3   1   11.09    0.39
  -7   3  -1   24.48    0.78
  -7   3  -1   22.91    0.78
   7  -3   1   24.57    0.78
   7  -3   1   24.28    0.78
   7  -3   1   24.36    0.81
  -8   3  -1    9.95    0.40
  -8   3  -1    9.19    0.38
   8  -3   1    9.41    0.38
   8  -3   1   10.12    0.43
  -9   3  -1    2.16    0.20
   9  -3   1    2.51    0.20
   9  -3   1    2.13    0.22
 -10   3  -1    0.74    0.15
  10  -3   1    0.61    0.12
  10  -3   1    0.81    0.18
 -11   3  -1    1.69    0.20
  11  -3   1    0.98    0.15
  11  -3   1    0.94    0.20
 -12   3  -1    0.10    0.13
  11   2  -1   -0.15    0.08
 -11  -2   1    0.21    0.13
  10   2  -1    0.16    0.10
 -10  -2   1    0.14    0.11
   9   2  -1    1.99    0.19
  -9  -2   1    2.19    0.21
  -9  -2   1    2.06    0.20
   8   2  -1    0.18    0.08
   8   2  -1   -0.19    0.15
  -8  -2   1    0.05    0.09
  -8  -2   1   -0.05    0.09
   7   2  -1    2.27    0.20
   7   2  -1    2.27    0.16
   7   2  -1    1.99    0.16
  -7  -2   1    2.23    0.18
  -7  -2   1    2.05    0.18
   6   2  -1    7.64    0.29
   6   2  -1    7.32    0.32
   6   2  -1    7.29    0.30
  -6  -2   1    7.07    0.32
  -6  -2   1    7.72    0.31
   5   2  -1   15.08    0.50
   5   2  -1   15.08    0.52
   5   2  -1   15.43    0.50
  -5  -2   1   16.03    0.54
  -5  -2   1   14.57    0.51
  -5  -2   1   16.31    0.52
   4   2  -1   16.08    0.51
   4   2  -1   15.97    0.53
   4   2  -1   15.88    0.53
   4   2  -1   16.27    0.51
  -4  -2   1   16.91    0.54
  -4  -2   1   16.12    0.50
  -4  -2   1   16.87    0.53
  -4  -2   1   15.42    0.52
   3   2  -1    7.91    0.26
   3   2  -1    7.66    0.28
   3   2  -1    7.65    0.26
   3   2  -1    7.74    0.28
  -3  -2   1    7.33    0.29
  -3  -2   1    7.80    0.25
  -3  -2   1    7.19    0.27
  -3  -2   1    7.56    0.27
   2   2  -1   70.33    2.06
   2   2  -1   71.88    2.06
   2   2  -1   71.89    2.05
   2   2  -1   73.75    2.07
   2   2  -1   71.34    2.07
  -2  -2   1   72.29    2.05
  -2  -2   1   75.25    2.07
  -2  -2   1   72.10    2.08
  -2  -2   1   68.97    2.06
   1   2  -1  152.70    4.58
   1   2  -1  160.92    4.58
   1   2  -1  159.93    4.59
   1   2  -1  161.93    4.55
   1   2  -1  168.84    4.56
  -1  -2   1  167.75    4.56
  -1  -2   1  164.28    4.56
  -1  -2   1  163.21    4.56
  -1  -2   1  153.19    4.55
  -1  -2   1  159.34    4.61
   0   2  -1   42.20    1.19
   0   2  -1   42.13    1.18
   0   2  -1   40.66    1.18
   0   2  -1   41.93    1.19
   0  -2   1   42.66    1.18
   0  -2   1   42.36    1.18
   0  -2   1   39.89    1.18
   0  -2   1   42.59    1.19
   0  -2   1   34.12    1.17
  -1   2  -1  207.91    6.12
  -1   2  -1  210.49    6.13
  -1   2  -1  208.27    6.15
  -1   2  -1  226.26    6.07
  -1   2  -1  216.44    6.09
   1  -2   1  222.44    6.07
   1  -2   1  216.95    6.10
   1  -2   1  209.72    6.09
   1  -2   1  210.95    6.05
   1  -2   1  215.71    6.12
   1  -2   1  213.06    6.12
  -2   2  -1  215.23    6.04
  -2   2  -1  205.79    6.09
  -2   2  -1  223.15    6.02
  -2   2  -1  209.83    6.04
   2  -2   1  214.89    6.02
   2  -2   1  216.85    6.03
   2  -2   1  209.77    6.07
   2  -2   1  207.38    6.09
   2  -2   1  213.71    6.05
  -3   2  -1  127.76    3.77
  -3   2  -1  129.51    3.76
  -3   2  -1  138.78    3.78
  -3   2  -1  129.07    3.77
   3  -2   1  137.05    3.77
   3  -2   1  127.93    3.78
   3  -2   1  138.22    3.79
   3  -2   1  133.74    3.76
  -4   2  -1  101.60    2.97
  -4   2  -1  106.13    2.95
  -4   2  -1  100.84    2.97
   4  -2   1  103.94    2.96
   4  -2   1  106.36    2.96
   4  -2   1  103.59    2.98
  -5   2  -1   15.88    0.53
  -5   2  -1   17.16    0.51
   5  -2   1   17.12    0.53
   5  -2   1   16.00    0.52
   5  -2   1   15.41    0.54
  -6   2  -1    4.03    0.21
   6  -2   1    4.08    0.19
   6  -2   1    4.13    0.19
   6  -2   1    4.27    0.22
  -7   2  -1    2.47    0.18
   7  -2   1    2.23    0.16
   7  -2   1    2.34    0.16
   7  -2   1    2.85    0.20
  -8   2  -1   11.24    0.42
  -8   2  -1   11.40    0.44
   8  -2   1   10.54    0.42
   8  -2   1   11.42    0.46
  -9   2  -1    0.78    0.14
   9  -2   1    0.89    0.12
   9  -2   1    0.73    0.15
 -10   2  -1    0.59    0.13
  10  -2   1    0.61    0.15
  10  -2   1    0.33    0.11
 -11   2  -1    0.06    0.12
  11  -2   1   -0.04    0.08
  11  -2   1   -0.17    0.12
 -12   2  -1    0.86    0.17
  12  -2   1    1.08    0.30
  11   1  -1    0.19    0.11
 -11  -1   1    0.24    0.12
  10   1  -1    1.08    0.15
 -10  -1   1    1.11    0.16
   9   1  -1    1.62    0.17
  -9  -1   1    1.94    0.18
   8   1  -1    1.05    0.13
  -8  -1   1    1.24    0.16
  -8  -1   1    1.03    0.13
   7   1  -1   11.27    0.41
   7   1  -1   10.93    0.41
  -7  -1   1   11.23    0.44
  -7  -1   1   10.61    0.41
   6   1  -1   30.65    0.95
   6   1  -1   30.91    0.97
   6   1  -1   31.33    0.95
  -6  -1   1   31.78    0.95
  -6  -1   1   30.08    0.95
  -6  -1   1   30.84    0.98
   5   1  -1   14.80    0.52
   5   1  -1   15.43    0.50
   5   1  -1   15.84    0.50
  -5  -1   1   14.84    0.50
  -5  -1   1   15.66    0.53
  -5  -1   1   16.20    0.51
   4   1  -1    0.85    0.09
   4   1  -1    0.82    0.07
   4   1  -1    0.88    0.08
  -4  -1   1    0.73    0.09
  -4  -1   1    0.93    0.10
  -4  -1   1    0.91    0.09
   3   1  -1   23.12    0.70
   3   1  -1   22.60    0.70
   3   1  -1   23.25    0.72
   3   1  -1   25.46    0.77
   3   1  -1   24.77    0.73
   3   1  -1   23.18    0.71
  -3  -1   1   23.35    0.73
  -3  -1   1   24.30    0.71
  -3  -1   1   24.27    0.69
  -3  -1   1   23.12    0.71
   2   1  -1   14.61    0.44
   2   1  -1   14.20    0.43
   2   1  -1   14.53    0.46
   2   1  -1   14.81    0.44
   2   1  -1   14.66    0.43
   2   1  -1   14.39    0.44
  -2  -1   1   14.17    0.46
  -2  -1   1   14.42    0.44
  -2  -1   1   12.95    0.43
  -2  -1   1   14.61    0.42
  -2  -1   1   14.97    0.44
   1   1  -1   14.21    0.42
   1   1  -1   14.44    0.43
   1   1  -1   14.40    0.43
  -1  -1   1   14.39    0.42
  -1  -1   1   14.28    0.44
  -1  -1   1   13.79    0.43
  -1  -1   1   14.95    0.43
  -1  -1   1   14.18    0.42
  -1  -1   1   14.34    0.43
   0   1  -1   31.07    0.87
   0   1  -1   31.20    0.87
   0   1  -1   30.98    0.87
   0   1  -1   31.72    0.86
   0  -1   1   25.91    0.86
   0  -1   1   27.25    0.86
   0  -1   1   32.26    0.87
   0  -1   1   31.70    0.87
  -1   1  -1   36.25    1.02
  -1   1  -1   34.69    1.01
  -1   1  -1   34.89    1.01
  -1   1  -1   34.72    1.01
  -1   1  -1   34.58    1.00
   1  -1   1   36.00    1.01
   1  -1   1   36.30    1.02
   1  -1   1   34.97    1.01
   1  -1   1   33.88    1.00
   1  -1   1   36.24    1.01
  -2   1  -1  377.33   10.07
  -2   1  -1  355.29   10.08
  -2   1  -1  338.16   10.14
   2  -1   1  352.24   10.11
   2  -1   1  366.29   10.13
   2  -1   1  348.06   10.11
   2  -1   1  351.67   10.09
  -3   1  -1  138.04    4.01
  -3   1  -1  125.98    4.00
  -3   1  -1  149.72    4.00
   3  -1   1  145.15    4.01
   3  -1   1  141.06    4.02
   3  -1   1  144.85    4.02
   3  -1   1  145.98    4.01
  -4   1  -1   24.29    0.72
  -4   1  -1   23.19    0.73
   4  -1   1   24.24    0.72
   4  -1   1   24.48    0.72
   4  -1   1   23.31    0.74
   4  -1   1   24.19    0.72
  -5   1  -1   54.13    1.65
  -5   1  -1   57.22    1.63
  -5   1  -1   64.02    1.67
   5  -1   1   56.36    1.64
   5  -1   1   53.16    1.64
   5  -1   1   55.70    1.64
   5  -1   1   54.33    1.66
  -6   1  -1   21.38    0.72
  -6   1  -1   23.81    0.69
   6  -1   1   21.83    0.71
   6  -1   1   22.42    0.73
   6  -1   1   22.97    0.71
  -7   1  -1    0.12    0.07
   7  -1   1    0.25    0.07
   7  -1   1    0.13    0.09
   7  -1   1    0.15    0.06
  -8   1  -1    2.93    0.21
   8  -1   1    2.84    0.19
   8  -1   1    3.09    0.23
  -9   1  -1    3.51    0.24
   9  -1   1    3.51    0.27
   9  -1   1    3.04    0.21
 -10   1  -1    1.79    0.20
  10  -1   1    1.74    0.18
  10  -1   1    1.94    0.22
 -11   1  -1    0.85    0.16
  11  -1   1    0.56    0.12
  11  -1   1    0.57    0.17
 -12   1  -1    0.03    0.13
  12  -1   1   -0.02    0.15
  11   0  -1    3.78    0.27
 -11   0   1    4.34    0.27
  10   0  -1    0.49    0.12
 -10   0   1    0.36    0.11
   9   0  -1    4.24    0.25
  -9   0   1    5.00    0.26
   8   0  -1    7.70    0.33
  -8   0   1    7.76    0.33
   7   0  -1    2.42    0.15
   7   0  -1    2.33    0.16
  -7   0   1    2.42    0.18
  -7   0   1    2.38    0.17
   6   0  -1    7.45    0.29
   6   0  -1    7.73    0.29
  -6   0   1    7.37    0.32
  -6   0   1    8.19    0.30
  -6   0   1    7.45    0.29
   5   0  -1    5.47    0.26
   5   0  -1    5.62    0.22
   5   0  -1    5.71    0.22
  -5   0   1    5.50    0.22
  -5   0   1    5.49    0.25
  -5   0   1    5.86    0.23
   4   0  -1   13.56    0.44
   4   0  -1   13.17    0.42
   4   0  -1   13.50    0.42
  -4   0   1   13.07    0.43
  -4   0   1   13.51    0.46
  -4   0   1   13.37    0.43
   3   0  -1    0.16    0.05
   3   0  -1    0.15    0.05
   3   0  -1    0.12    0.03
   3   0  -1    0.21    0.04
   3   0  -1    0.14    0.05
  -3   0   1    0.19    0.05
  -3   0   1    0.14    0.05
  -3   0   1    0.16    0.05
   2   0  -1    0.78    0.08
   2   0  -1    0.84    0.05
   2   0  -1    0.77    0.05
   2   0  -1    0.76    0.07
   2   0  -1    0.82    0.07
  -2   0   1    0.90    0.07
  -2   0   1    0.57    0.06
  -2   0   1    0.80    0.07
   1   0  -1    6.63    0.20
   1   0  -1    6.37    0.20
  -1   0   1    6.25    0.19
  -1   0   1    6.33    0.22
  -1   0  -1  196.58    5.54
  -1   0  -1  197.36    5.54
   1   0   1  191.52    5.54
  -2   0  -1   63.64    1.84
  -2   0  -1   62.46    1.85
  -2   0  -1   67.35    1.84
   2   0   1   66.71    1.83
   2   0   1   64.61    1.85
   2   0   1   65.76    1.84
   2   0   1   63.13    1.84
  -3   0  -1   24.56    0.74
  -3   0  -1   23.35    0.74
  -3   0  -1   25.55    0.73
   3   0   1   25.51    0.72
   3   0   1   24.66    0.73
   3   0   1   23.52    0.73
   3   0   1   24.86    0.74
  -4   0  -1  152.82    4.52
  -4   0  -1  162.87    4.51
  -4   0  -1  165.77    4.53
   4   0   1  164.55    4.51
   4   0   1  150.54    4.51
   4   0   1  158.83    4.51
  -5   0  -1   50.28    1.46
  -5   0  -1   50.92    1.51
  -5   0  -1   48.05    1.48
   5   0   1   51.07    1.47
   5   0   1   51.80    1.46
   5   0   1   48.57    1.47
  -6   0  -1   23.78    0.75
  -6   0  -1   23.93    0.72
   6   0   1   23.70    0.74
   6   0   1   22.73    0.73
  -7   0  -1    6.09    0.28
   7   0   1    6.18    0.27
   7   0   1    6.41    0.27
  -8   0  -1    0.09    0.09
   8   0   1    0.04    0.07
  -9   0  -1    5.80    0.31
   9   0   1    5.69    0.29
 -10   0  -1    4.44    0.29
  10   0   1    3.89    0.25
  10   0   1    3.63    0.30
 -11   0  -1    1.42    0.20
  11   0   1    1.21    0.16
  11   0   1    1.30    0.21
 -12   0  -1    0.42    0.16
  12   0   1    0.31    0.18
  11  -1  -1   -0.07    0.09
 -11   1   1    0.02    0.10
  10  -1  -1    3.48    0.24
  10  -1  -1    3.51    0.29
 -10   1   1    3.87    0.24
   9  -1  -1    2.09    0.22
   9  -1  -1    2.14    0.18
  -9   1   1    1.81    0.17
   8  -1  -1    3.57    0.21
  -8   1   1    3.28    0.21
   7  -1  -1    0.24    0.07
   7  -1  -1    0.28    0.07
  -7   1   1    0.11    0.07
  -7   1   1    0.24    0.09
   6  -1  -1   15.31    0.51
   6  -1  -1   15.28    0.51
  -6   1   1   16.46    0.52
  -6   1   1   15.63    0.51
   5  -1  -1   30.16    0.93
   5  -1  -1   31.52    0.93
  -5   1   1   29.70    0.93
  -5   1   1   33.12    0.94
   4  -1  -1  108.72    3.11
   4  -1  -1  107.85    3.11
  -4   1   1  105.52    3.11
  -4   1   1  115.02    3.11
   3  -1  -1   20.69    0.61
   3  -1  -1   21.09    0.62
   3  -1  -1   20.41    0.61
  -3   1   1   19.87    0.61
  -3   1   1   20.63    0.61
   2  -1  -1   75.68    2.22
   2  -1  -1   77.01    2.19
   2  -1  -1   80.66    2.20
  -2   1   1   74.74    2.19
  -2   1   1   79.13    2.19
   1  -1  -1  119.07    3.39
   1  -1  -1  119.09    3.40
   1  -1  -1  122.32    3.40
  -1   1   1  119.47    3.39
   0  -1  -1  106.38    3.07
   0  -1  -1  108.72    3.01
   0  -1  -1  106.15    3.02
   0   1   1  103.55    3.02
  -1  -1  -1   31.31    0.89
  -1  -1  -1   30.11    0.89
  -1  -1  -1   29.83    0.89
  -1  -1  -1   31.31    0.89
   1   1   1   30.63    0.89
   1   1   1   31.54    0.89
   1   1   1   32.67    0.89
  -2  -1  -1   12.67    0.38
  -2  -1  -1   12.08    0.38
  -2  -1  -1   13.30    0.39
  -2  -1  -1   12.18    0.39
   2   1   1   11.97    0.38
   2   1   1   12.39    0.39
   2   1   1   12.09    0.38
   2   1   1   12.52    0.39
  -3  -1  -1   31.91    1.01
  -3  -1  -1   34.07    1.02
  -3  -1  -1   35.05    1.00
  -3  -1  -1   35.29    1.02
  -3  -1  -1   35.70    1.01
   3   1   1   36.99    1.03
   3   1   1   32.51    1.02
   3   1   1   35.29    1.01
  -4  -1  -1    6.51    0.28
  -4  -1  -1    6.96    0.24
  -4  -1  -1    6.89    0.27
  -4  -1  -1    7.39    0.27
   4   1   1    7.24    0.24
   4   1   1    6.77    0.27
   4   1   1    6.60    0.24
   4   1   1    6.64    0.25
  -5  -1  -1   31.04    0.92
  -5  -1  -1   30.42    0.92
  -5  -1  -1   29.89    0.94
   5   1   1   30.77    0.95
   5   1   1   32.97    0.92
   5   1   1   31.09    0.93
   5   1   1   29.21    0.93
  -6  -1  -1   19.07    0.60
  -6  -1  -1   17.88    0.62
  -6  -1  -1   19.03    0.59
   6   1   1   19.51    0.61
   6   1   1   18.41    0.61
  -7  -1  -1    6.30    0.27
  -7  -1  -1    6.23    0.29
  -7  -1  -1    6.29    0.28
   7   1   1    6.38    0.28
   7   1   1    6.71    0.27
  -8  -1  -1   16.97    0.61
   8   1   1   17.47    0.60
  -9  -1  -1    2.23    0.21
   9   1   1    2.25    0.19
 -10  -1  -1    0.03    0.11
  10   1   1    0.38    0.11
 -11  -1  -1    2.78    0.26
  11   1   1    2.69    0.23
 -12  -1  -1    0.97    0.19
  12   1   1    1.09    0.23
  11  -2  -1    0.14    0.10
 -11   2   1    0.07    0.11
  10  -2  -1    0.84    0.13
 -10   2   1    0.78    0.13
   9  -2  -1    1.73    0.16
   9  -2  -1    1.86    0.20
  -9   2   1    1.66    0.16
   8  -2  -1    5.29    0.29
   8  -2  -1    5.12    0.26
  -8   2   1    4.99    0.25
   7  -2  -1    3.03    0.21
   7  -2  -1    2.72    0.16
   7  -2  -1    2.86    0.17
  -7   2   1    3.16    0.18
   6  -2  -1    1.11    0.10
   6  -2  -1    1.14    0.11
   6  -2  -1    1.18    0.13
  -6   2   1    1.25    0.11
  -6   2   1    1.11    0.11
   5  -2  -1   26.75    0.82
   5  -2  -1   26.91    0.80
   5  -2  -1   25.86    0.80
  -5   2   1   27.53    0.80
  -5   2   1   24.93    0.80
   4  -2  -1    2.51    0.14
   4  -2  -1    2.62    0.12
   4  -2  -1    2.68    0.12
  -4   2   1    2.62    0.13
  -4   2   1    2.62    0.14
   3  -2  -1  119.72    3.34
   3  -2  -1  116.29    3.33
   3  -2  -1  116.97    3.33
   3  -2  -1  120.48    3.35
  -3   2   1  114.47    3.33
   2  -2  -1   21.86    0.64
   2  -2  -1   21.19    0.68
   2  -2  -1   22.66    0.65
   2  -2  -1   21.97    0.64
   2  -2  -1   23.29    0.66
  -2   2   1   21.26    0.65
   1  -2  -1   65.35    1.89
   1  -2  -1   70.45    1.90
   1  -2  -1   67.65    1.89
   1  -2  -1   65.86    1.90
   1  -2  -1   65.28    1.92
  -1   2   1   66.89    1.92
  -1   2   1   68.37    1.90
  -1   2   1   63.98    1.90
   0  -2  -1    4.81    0.17
   0  -2  -1    5.06    0.16
   0  -2  -1    4.71    0.17
   0  -2  -1    4.90    0.17
   0  -2  -1    4.74    0.16
   0   2   1    5.01    0.17
   0   2   1    5.26    0.17
   0   2   1    4.81    0.17
   0   2   1    5.42    0.16
   0   2   1    4.83    0.18
   0   2   1    4.87    0.16
  -1  -2  -1    4.28    0.16
  -1  -2  -1    4.34    0.17
  -1  -2  -1    4.48    0.17
  -1  -2  -1    4.45    0.16
  -1  -2  -1    4.46    0.17
   1   2   1    4.79    0.17
   1   2   1    4.57    0.15
   1   2   1    4.55    0.15
   1   2   1    4.52    0.17
   1   2   1    4.19    0.17
  -2  -2  -1   83.91    2.36
  -2  -2  -1   83.86    2.36
  -2  -2  -1   79.52    2.35
  -2  -2  -1   78.61    2.36
  -2  -2  -1   84.71    2.35
   2   2   1   84.24    2.36
   2   2   1   84.39    2.36
   2   2   1   83.57    2.35
   2   2   1   78.27    2.35
   2   2   1   82.86    2.36
  -3  -2  -1   98.09    2.77
  -3  -2  -1   97.68    2.77
  -3  -2  -1   95.70    2.76
  -3  -2  -1   97.25    2.77
  -3  -2  -1   97.94    2.76
   3   2   1   94.61    2.77
   3   2   1   97.29    2.76
   3   2   1   99.72    2.77
   3   2   1   92.89    2.76
  -4  -2  -1    9.35    0.34
  -4  -2  -1    9.38    0.32
   4   2   1    9.43    0.32
   4   2   1    9.40    0.34
   4   2   1    9.52    0.32
  -5  -2  -1   18.70    0.59
  -5  -2  -1   18.27    0.61
  -5  -2  -1   18.50    0.58
   5   2   1   18.23    0.59
   5   2   1   19.03    0.59
   5   2   1   18.87    0.61
  -6  -2  -1   44.95    1.33
  -6  -2  -1   44.24    1.35
  -6  -2  -1   45.53    1.33
   6   2   1   44.48    1.34
   6   2   1   43.64    1.36
   6   2   1   45.18    1.34
  -7  -2  -1   41.18    1.32
  -7  -2  -1   45.02    1.30
  -7  -2  -1   43.39    1.30
   7   2   1   44.02    1.32
   7   2   1   43.64    1.34
   7   2   1   42.09    1.31
  -8  -2  -1    0.03    0.10
  -8  -2  -1    0.12    0.07
   8   2   1    0.08    0.07
   8   2   1   -0.28    0.19
  -9  -2  -1    2.55    0.19
  -9  -2  -1    3.00    0.25
   9   2   1    2.25    0.19
 -10  -2  -1    0.97    0.17
  10   2   1    0.98    0.14
 -11  -2  -1   -0.15    0.12
  11   2   1   -0.02    0.12
 -12  -2  -1   -0.11    0.13
  11  -3  -1    0.07    0.10
  10  -3  -1    0.04    0.09
 -10   3   1   -0.04    0.08
   9  -3  -1    0.38    0.13
   9  -3  -1    0.42    0.10
  -9   3   1    0.37    0.10
   8  -3  -1    4.00    0.26
   8  -3  -1    4.34    0.23
  -8   3   1    4.24    0.23
   7  -3  -1    9.65    0.39
   7  -3  -1    9.66    0.36
   7  -3  -1    9.20    0.36
  -7   3   1    9.27    0.36
   6  -3  -1    1.47    0.12
   6  -3  -1    1.37    0.11
   6  -3  -1    1.43    0.14
  -6   3   1    1.41    0.12
  -6   3   1    1.59    0.13
   5  -3  -1    3.12    0.15
   5  -3  -1    2.87    0.18
   5  -3  -1    3.13    0.15
  -5   3   1    3.25    0.17
  -5   3   1    3.13    0.16
   4  -3  -1   11.87    0.39
   4  -3  -1   12.05    0.44
   4  -3  -1   11.73    0.39
   4  -3  -1   12.45    0.41
  -4   3   1   11.72    0.39
   3  -3  -1   18.95    0.59
   3  -3  -1   19.20    0.58
   3  -3  -1   18.68    0.57
   3  -3  -1   19.16    0.62
   3  -3  -1   19.83    0.59
  -3   3   1   18.49    0.58
   2  -3  -1   20.90    0.62
   2  -3  -1   20.60    0.62
   2  -3  -1   20.89    0.62
   2  -3  -1   20.31    0.61
   2  -3  -1   20.07    0.61
   2  -3  -1   19.66    0.65
  -2   3   1   19.92    0.62
  -2   3   1   21.41    0.62
   1  -3  -1    2.38    0.12
   1  -3  -1    2.40    0.12
   1  -3  -1    2.22    0.13
   1  -3  -1    2.17    0.10
   1  -3  -1    2.26    0.12
   1  -3  -1    2.35    0.10
  -1   3   1    2.46    0.12
  -1   3   1    2.13    0.12
  -1   3   1    2.21    0.09
  -1   3   1    2.15    0.12
   0  -3  -1   17.36    0.52
   0  -3  -1   16.15    0.53
   0  -3  -1   17.46    0.53
   0  -3  -1   17.19    0.52
   0  -3  -1   17.22    0.53
   0   3   1   17.68    0.51
   0   3   1   17.54    0.53
   0   3   1   17.14    0.53
   0   3   1   17.20    0.54
   0   3   1   16.84    0.53
  -1  -3  -1    1.75    0.11
  -1  -3  -1    1.71    0.11
  -1  -3  -1    1.85    0.11
  -1  -3  -1    1.70    0.09
  -1  -3  -1    1.75    0.09
   1   3   1    1.78    0.09
   1   3   1    1.66    0.11
   1   3   1    1.68    0.11
   1   3   1    1.59    0.09
   1   3   1    1.88    0.11
   1   3   1    1.59    0.11
  -2  -3  -1    8.86    0.32
  -2  -3  -1    9.07    0.30
  -2  -3  -1    9.44    0.32
  -2  -3  -1    9.13    0.30
   2   3   1    9.01    0.32
   2   3   1    9.46    0.32
   2   3   1    9.28    0.30
   2   3   1    8.97    0.30
   2   3   1    9.01    0.32
  -3  -3  -1    0.04    0.04
  -3  -3  -1   -0.01    0.04
  -3  -3  -1    0.09    0.07
  -3  -3  -1   -0.03    0.06
   3   3   1    0.12    0.07
   3   3   1    0.02    0.04
   3   3   1    0.05    0.04
   3   3   1    0.09    0.06
  -4  -3  -1   34.64    1.07
  -4  -3  -1   35.31    1.06
  -4  -3  -1   34.97    1.05
   4   3   1   36.21    1.06
   4   3   1   36.72    1.06
   4   3   1   34.41    1.08
  -5  -3  -1   12.74    0.43
  -5  -3  -1   12.29    0.45
   5   3   1   12.33    0.46
   5   3   1   13.14    0.44
   5   3   1   13.43    0.44
  -6  -3  -1    9.16    0.38
  -6  -3  -1    9.47    0.34
  -6  -3  -1    9.35    0.35
   6   3   1    9.43    0.36
   6   3   1    9.50    0.36
   6   3   1    9.56    0.39
  -7  -3  -1    7.36    0.30
  -7  -3  -1    7.22    0.30
  -7  -3  -1    6.77    0.33
   7   3   1    7.48    0.31
   7   3   1    7.27    0.31
   7   3   1    6.41    0.35
  -8  -3  -1    3.34    0.20
  -8  -3  -1    3.55    0.25
   8   3   1    4.26    0.30
   8   3   1    3.35    0.21
  -9  -3  -1    0.67    0.11
  -9  -3  -1    0.65    0.15
   9   3   1    1.04    0.25
   9   3   1    0.79    0.12
 -10  -3  -1    1.08    0.18
  10   3   1    1.27    0.15
 -11  -3  -1    0.37    0.15
 -12  -3  -1   -0.02    0.14
  11  -4  -1    1.46    0.18
  10  -4  -1    0.54    0.24
  10  -4  -1    0.30    0.11
 -10   4   1    0.57    0.11
   9  -4  -1    2.50    0.20
   9  -4  -1    2.76    0.26
   9  -4  -1    2.96    0.25
  -9   4   1    2.65    0.20
   8  -4  -1    5.62    0.28
   8  -4  -1    5.62    0.31
   8  -4  -1    5.80    0.33
  -8   4   1    5.65    0.27
   7  -4  -1   19.46    0.64
   7  -4  -1   20.17    0.67
   7  -4  -1   19.83    0.65
   7  -4  -1   18.43    0.70
  -7   4   1   19.10    0.63
   6  -4  -1   19.13    0.70
   6  -4  -1   19.68    0.67
   6  -4  -1   19.74    0.65
   6  -4  -1   19.97    0.65
  -6   4   1   19.34    0.64
  -6   4   1   22.25    0.66
   5  -4  -1   17.82    0.57
   5  -4  -1   17.49    0.57
   5  -4  -1   18.47    0.59
   5  -4  -1   17.59    0.62
  -5   4   1   17.30    0.57
   4  -4  -1   21.74    0.67
   4  -4  -1   21.15    0.65
   4  -4  -1   20.79    0.65
   4  -4  -1   20.74    0.70
  -4   4   1   20.52    0.65
   3  -4  -1    7.75    0.27
   3  -4  -1    8.02    0.29
   3  -4  -1    7.56    0.31
   3  -4  -1    7.61    0.27
   3  -4  -1    7.85    0.29
  -3   4   1    7.60    0.28
  -3   4   1    7.93    0.28
   2  -4  -1   17.75    0.57
   2  -4  -1   18.23    0.57
   2  -4  -1   17.77    0.55
   2  -4  -1   17.81    0.55
  -2   4   1   18.68    0.59
  -2   4   1   18.02    0.56
  -2   4   1   17.30    0.56
   1  -4  -1   83.54    2.38
   1  -4  -1   83.28    2.40
   1  -4  -1   82.43    2.38
   1  -4  -1   87.11    2.40
   1  -4  -1   81.80    2.42
  -1   4   1   84.84    2.42
  -1   4   1   82.98    2.39
  -1   4   1   84.58    2.37
  -1   4   1   82.82    2.39
  -1   4   1   80.93    2.39
   0  -4  -1   15.67    0.49
   0  -4  -1   15.16    0.52
   0  -4  -1   15.68    0.49
   0  -4  -1   15.86    0.50
   0  -4  -1   15.60    0.50
   0   4   1   15.62    0.50
   0   4   1   15.97    0.50
   0   4   1   15.12    0.50
   0   4   1   15.91    0.52
   0   4   1   15.68    0.48
  -1  -4  -1   65.67    1.94
  -1  -4  -1   70.57    1.95
  -1  -4  -1   68.33    1.94
  -1  -4  -1   63.78    1.95
   1   4   1   65.54    1.95
   1   4   1   66.62    1.93
   1   4   1   64.89    1.95
   1   4   1   72.55    1.96
   1   4   1   67.89    1.97
  -2  -4  -1   26.16    0.83
  -2  -4  -1   27.05    0.81
  -2  -4  -1   28.68    0.82
   2   4   1   25.90    0.83
   2   4   1   26.68    0.83
  -3  -4  -1   63.76    1.90
  -3  -4  -1   66.55    1.92
   3   4   1   65.52    1.90
   3   4   1   66.05    1.92
   3   4   1   65.97    1.90
   3   4   1   65.88    1.92
  -4  -4  -1   19.89    0.63
  -4  -4  -1   19.27    0.66
   4   4   1   19.55    0.66
   4   4   1   20.19    0.64
   4   4   1   21.17    0.64
   4   4   1   20.25    0.66
  -5  -4  -1   28.25    0.88
  -5  -4  -1   26.94    0.89
   5   4   1   29.05    0.88
   5   4   1   28.35    0.88
   5   4   1   28.55    0.91
  -6  -4  -1   14.47    0.48
  -6  -4  -1   14.13    0.50
  -6  -4  -1   14.03    0.52
   6   4   1   14.60    0.50
   6   4   1   14.48    0.50
   6   4   1   13.03    0.52
  -7  -4  -1   17.83    0.65
  -7  -4  -1   18.66    0.63
   7   4   1   18.79    0.64
   7   4   1   18.78    0.68
  -8  -4  -1   18.34    0.68
  -8  -4  -1   18.99    0.65
   8   4   1   17.71    0.69
   8   4   1   19.08    0.66
  -9  -4  -1    3.63    0.29
  -9  -4  -1    3.05    0.21
   9   4   1    3.95    0.32
   9   4   1    2.82    0.21
 -10  -4  -1    2.23    0.24
  10   4   1    2.70    0.35
 -11  -4  -1    0.66    0.17
  11  -5  -1    0.02    0.10
  10  -5  -1    0.97    0.15
   9  -5  -1    0.45    0.14
   9  -5  -1    0.39    0.10
  -9   5   1    0.46    0.10
   8  -5  -1    1.00    0.16
   8  -5  -1    1.01    0.13
   8  -5  -1    0.83    0.16
  -8   5   1    1.06    0.13
   7  -5  -1    0.81    0.14
   7  -5  -1    0.78    0.11
   7  -5  -1    0.85    0.15
  -7   5   1    0.59    0.11
   6  -5  -1    1.97    0.17
   6  -5  -1    1.65    0.17
   6  -5  -1    2.04    0.15
   6  -5  -1    1.83    0.14
  -6   5   1    2.08    0.16
   5  -5  -1    3.34    0.18
   5  -5  -1    3.37    0.22
   5  -5  -1    3.85    0.19
   5  -5  -1    3.54    0.21
  -5   5   1    3.56    0.19
   4  -5  -1   10.19    0.38
   4  -5  -1    9.87    0.35
   4  -5  -1   10.06    0.35
   4  -5  -1   10.24    0.41
  -4   5   1    9.66    0.36
  -4   5   1   10.85    0.37
   3  -5  -1    5.92    0.23
   3  -5  -1    5.60    0.27
   3  -5  -1    5.73    0.25
   3  -5  -1    5.47    0.22
   3  -5  -1    5.88    0.25
  -3   5   1    5.66    0.24
  -3   5   1    6.00    0.24
   2  -5  -1    6.76    0.30
   2  -5  -1    7.16    0.28
   2  -5  -1    6.99    0.26
   2  -5  -1    6.86    0.26
   2  -5  -1    7.51    0.28
  -2   5   1    7.49    0.27
  -2   5   1    7.04    0.27
  -2   5   1    6.63    0.27
   1  -5  -1   21.05    0.68
   1  -5  -1   21.38    0.67
   1  -5  -1   22.96    0.69
   1  -5  -1   21.41    0.67
  -1   5   1   21.79    0.68
  -1   5   1   20.75    0.68
  -1   5   1   21.86    0.65
  -1   5   1   22.51    0.68
  -1   5   1   21.17    0.70
   0  -5  -1   71.22    2.05
   0  -5  -1   71.57    2.04
   0  -5  -1   71.73    2.05
   0  -5  -1   68.53    2.07
   0  -5  -1   69.74    2.03
   0   5   1   65.92    2.04
   0   5   1   72.18    2.05
   0   5   1   71.33    2.02
   0   5   1   71.74    2.05
   0   5   1   70.46    2.07
  -1  -5  -1    3.15    0.18
  -1  -5  -1    3.02    0.15
  -1  -5  -1    3.30    0.15
   1   5   1    3.19    0.18
   1   5   1    3.10    0.15
   1   5   1    2.90    0.18
   1   5   1    3.33    0.18
  -2  -5  -1   30.74    0.93
  -2  -5  -1   31.99    0.96
  -2  -5  -1   30.39    0.93
   2   5   1   30.08    0.95
   2   5   1   30.41    0.95
   2   5   1   31.39    0.97
  -3  -5  -1    2.84    0.18
  -3  -5  -1    2.83    0.15
  -3  -5  -1    3.03    0.16
   3   5   1    2.82    0.15
   3   5   1    2.72    0.19
   3   5   1    2.72    0.18
  -4  -5  -1    6.36    0.28
  -4  -5  -1    5.80    0.25
   4   5   1    6.06    0.25
   4   5   1    5.83    0.28
   4   5   1    5.92    0.29
  -5  -5  -1    4.60    0.25
  -5  -5  -1    4.93    0.22
   5   5   1    4.38    0.26
   5   5   1    5.12    0.23
  -6  -5  -1    0.01    0.03
  -6  -5  -1   -0.02    0.07
  -6  -5  -1   -0.01    0.09
   6   5   1   -0.04    0.11
   6   5   1   -0.02    0.06
  -7  -5  -1    0.91    0.15
  -7  -5  -1    0.81    0.12
   7   5   1    1.03    0.13
   7   5   1    0.72    0.17
  -8  -5  -1    2.83    0.25
  -8  -5  -1    2.88    0.20
   8   5   1    2.60    0.20
   8   5   1    3.05    0.27
  -9  -5  -1    0.34    0.10
  -9  -5  -1    0.34    0.14
   9   5   1    0.33    0.17
 -10  -5  -1    1.64    0.23
  10   5   1    1.45    0.28
 -11  -5  -1    0.18    0.16
  11   5   1   -0.36    0.26
  10  -6  -1    1.09    0.16
   9  -6  -1    0.20    0.10
   9  -6  -1    0.58    0.15
  -9   6   1    0.44    0.11
   8  -6  -1    0.73    0.12
   8  -6  -1    0.57    0.14
   8  -6  -1    0.60    0.14
  -8   6   1    0.59    0.12
   7  -6  -1    3.37    0.25
   7  -6  -1    3.34    0.21
   7  -6  -1    3.73    0.27
  -7   6   1    3.44    0.22
   6  -6  -1    7.30    0.37
   6  -6  -1    7.51    0.31
   6  -6  -1    6.03    0.33
   6  -6  -1    7.69    0.34
  -6   6   1    7.16    0.31
   5  -6  -1   16.79    0.56
   5  -6  -1   16.91    0.59
   5  -6  -1   16.75    0.62
   5  -6  -1   16.21    0.55
  -5   6   1   15.78    0.55
   4  -6  -1   13.92    0.47
   4  -6  -1   13.77    0.47
   4  -6  -1   13.49    0.49
   4  -6  -1   13.35    0.52
  -4   6   1   13.63    0.48
  -4   6   1   13.99    0.47
   3  -6  -1   29.42    0.91
   3  -6  -1   28.05    0.94
   3  -6  -1   28.58    0.88
   3  -6  -1   28.06    0.88
  -3   6   1   29.39    0.89
  -3   6   1   28.78    0.89
   2  -6  -1   41.02    1.24
   2  -6  -1   41.76    1.24
   2  -6  -1   40.57    1.26
   2  -6  -1   40.80    1.29
  -2   6   1   41.46    1.24
  -2   6   1   42.77    1.25
  -2   6   1   40.58    1.25
  -2   6   1   42.47    1.29
   1  -6  -1   36.64    1.15
   1  -6  -1   37.55    1.12
   1  -6  -1   37.86    1.10
   1  -6  -1   36.55    1.10
  -1   6   1   36.39    1.11
  -1   6   1   34.58    1.11
  -1   6   1   36.20    1.14
   0  -6  -1   25.62    0.82
   0  -6  -1   25.25    0.80
   0  -6  -1   26.91    0.80
   0   6   1   25.90    0.81
   0   6   1   25.58    0.84
   0   6   1   24.98    0.81
   0   6   1   26.58    0.79
  -1  -6  -1    1.99    0.13
  -1  -6  -1    2.06    0.16
  -1  -6  -1    1.83    0.13
   1   6   1    1.86    0.15
   1   6   1    1.79    0.16
   1   6   1    1.83    0.15
   1   6   1    1.94    0.12
  -2  -6  -1   16.98    0.56
  -2  -6  -1   17.12    0.59
   2   6   1   17.38    0.60
   2   6   1   16.33    0.58
   2   6   1   17.35    0.58
  -3  -6  -1    3.36    0.21
  -3  -6  -1    3.46    0.18
   3   6   1    2.90    0.21
   3   6   1    3.60    0.18
   3   6   1    3.45    0.21
  -4  -6  -1   13.75    0.48
  -4  -6  -1   13.41    0.51
   4   6   1   13.45    0.51
   4   6   1   13.77    0.48
   4   6   1   13.86    0.51
  -5  -6  -1    8.21    0.37
  -5  -6  -1    8.06    0.32
   5   6   1    7.99    0.33
   5   6   1    8.62    0.38
   5   6   1    7.69    0.37
  -6  -6  -1    0.54    0.11
  -6  -6  -1    0.40    0.13
   6   6   1    0.51    0.15
   6   6   1    0.55    0.10
  -7  -6  -1    7.17    0.33
  -7  -6  -1    6.54    0.36
   7   6   1    6.92    0.32
   7   6   1    6.90    0.38
  -8  -6  -1    3.19    0.28
  -8  -6  -1    3.00    0.22
   8   6   1    3.15    0.28
  -9  -6  -1    5.57    0.37
  -9  -6  -1    5.64    0.31
   9   6   1    5.03    0.38
 -10  -6  -1    0.78    0.19
  10   6   1    0.68    0.20
 -11  -6  -1    1.45    0.23
  11   6   1    1.64    0.33
  10  -7  -1    0.10    0.10
   9  -7  -1    1.02    0.16
  -9   7   1    1.18    0.15
   8  -7  -1    0.47    0.11
   8  -7  -1    0.36    0.14
  -8   7   1    0.38    0.11
   7  -7  -1    2.93    0.21
   7  -7  -1    2.99    0.27
   7  -7  -1    3.06    0.25
  -7   7   1    3.18    0.22
   6  -7  -1    6.16    0.30
   6  -7  -1    6.34    0.36
   6  -7  -1    6.36    0.33
  -6   7   1    6.53    0.30
   5  -7  -1    0.11    0.10
   5  -7  -1    0.14    0.07
   5  -7  -1    0.21    0.10
  -5   7   1    0.27    0.10
   4  -7  -1   15.19    0.53
   4  -7  -1   16.05    0.56
   4  -7  -1   14.76    0.59
   4  -7  -1   15.60    0.53
  -4   7   1   14.41    0.53
   3  -7  -1    9.88    0.43
   3  -7  -1    9.77    0.37
   3  -7  -1    9.94    0.37
   3  -7  -1    9.55    0.40
  -3   7   1    9.40    0.38
  -3   7   1    9.90    0.37
   2  -7  -1    7.61    0.30
   2  -7  -1    7.62    0.35
   2  -7  -1    7.70    0.33
   2  -7  -1    7.36    0.30
  -2   7   1    7.35    0.32
  -2   7   1    7.62    0.31
   1  -7  -1   10.67    0.42
   1  -7  -1   11.09    0.39
   1  -7  -1   10.87    0.44
   1  -7  -1   10.60    0.39
  -1   7   1   10.07    0.40
  -1   7   1   11.10    0.41
   0  -7  -1   19.32    0.62
   0  -7  -1   18.33    0.61
   0  -7  -1   18.53    0.64
   0   7   1   18.04    0.63
   0   7   1   18.57    0.59
   0   7   1   19.30    0.63
  -1  -7  -1   22.55    0.78
  -1  -7  -1   24.69    0.76
  -1  -7  -1   23.73    0.76
   1   7   1   24.58    0.78
   1   7   1   23.26    0.78
   1   7   1   23.72    0.74
  -2  -7  -1   12.15    0.44
  -2  -7  -1   12.03    0.47
  -2  -7  -1   12.22    0.44
   2   7   1   12.69    0.43
   2   7   1   12.30    0.46
   2   7   1   11.69    0.46
  -3  -7  -1   19.37    0.63
  -3  -7  -1   18.74    0.66
   3   7   1   18.91    0.66
   3   7   1   18.74    0.66
  -4  -7  -1    5.59    0.30
  -4  -7  -1    5.77    0.26
   4   7   1    5.74    0.31
   4   7   1    6.01    0.32
   4   7   1    6.02    0.27
  -5  -7  -1   38.08    1.19
  -5  -7  -1   38.48    1.24
   5   7   1   37.90    1.23
   5   7   1   39.17    1.20
   5   7   1   38.16    1.24
  -6  -7  -1    6.99    0.34
  -6  -7  -1    6.78    0.37
   6   7   1    6.41    0.38
  -7  -7  -1    0.29    0.14
  -7  -7  -1    0.18    0.10
   7   7   1    0.06    0.16
  -8  -7  -1    1.72    0.19
  -8  -7  -1    1.91    0.24
   8   7   1    1.51    0.23
  -9  -7  -1    0.69    0.19
  -9  -7  -1    0.75    0.14
   9   7   1    0.66    0.19
 -10  -7  -1    0.91    0.20
  10   7   1    0.70    0.21
  11   7   1    0.07    0.26
   9  -8  -1    0.83    0.15
   8  -8  -1    2.68    0.32
   8  -8  -1    2.86    0.24
  -8   8   1    3.09    0.23
   7  -8  -1    0.29    0.13
   7  -8  -1    0.47    0.12
   7  -8  -1    0.35    0.13
  -7   8   1    0.47    0.12
   6  -8  -1    2.93    0.25
   6  -8  -1    2.49    0.20
   6  -8  -1    2.77    0.27
  -6   8   1    2.93    0.23
   5  -8  -1   13.50    0.57
   5  -8  -1   13.20    0.50
   5  -8  -1   13.23    0.53
  -5   8   1   13.60    0.51
   4  -8  -1    9.84    0.39
   4  -8  -1    9.62    0.42
   4  -8  -1    9.82    0.46
  -4   8   1    9.63    0.40
   3  -8  -1   14.31    0.50
   3  -8  -1   13.79    0.53
   3  -8  -1   13.13    0.55
  -3   8   1   13.76    0.51
  -3   8   1   13.77    0.49
   2  -8  -1    1.14    0.16
   2  -8  -1    1.47    0.14
   2  -8  -1    1.42    0.13
   2  -8  -1    1.25    0.16
  -2   8   1    1.40    0.15
  -2   8   1    1.37    0.16
   1  -8  -1    8.81    0.35
   1  -8  -1    8.82    0.38
   1  -8  -1    8.72    0.35
  -1   8   1    8.83    0.37
  -1   8   1    8.85    0.37
   0  -8  -1   23.15    0.75
   0  -8  -1   23.70    0.75
   0  -8  -1   22.74    0.75
   0  -8  -1   22.57    0.78
   0   8   1   22.70    0.76
   0   8   1   22.37    0.77
  -1  -8  -1   20.45    0.70
  -1  -8  -1   19.44    0.67
  -1  -8  -1   20.26    0.67
   1   8   1   19.67    0.69
   1   8   1   19.43    0.69
  -2  -8  -1    2.34    0.22
  -2  -8  -1    2.33    0.17
   2   8   1    2.27    0.21
   2   8   1    2.87    0.24
   2   8   1    1.51    0.17
  -3  -8  -1    8.07    0.39
  -3  -8  -1    7.91    0.34
   3   8   1    8.48    0.39
   3   8   1    7.82    0.37
  -4  -8  -1    7.35    0.32
  -4  -8  -1    7.25    0.37
   4   8   1    7.68    0.39
   4   8   1    6.80    0.37
  -5  -8  -1    9.46    0.44
   5   8   1    8.85    0.45
   5   8   1    9.31    0.44
  -6  -8  -1    3.11    0.28
   6   8   1    3.05    0.28
  -7  -8  -1    0.96    0.19
  -7  -8  -1    1.08    0.17
   7   8   1    1.14    0.22
  -8  -8  -1    1.66    0.20
  -8  -8  -1    1.51    0.24
   8   8   1    1.17    0.24
  -9  -8  -1   -0.01    0.15
   9   8   1    0.33    0.18
 -10  -8  -1    1.31    0.24
  10   8   1    0.74    0.23
   8  -9  -1    0.50    0.13
  -8   9   1    0.63    0.13
   7  -9  -1    2.22    0.21
   7  -9  -1    2.16    0.27
  -7   9   1    2.24    0.20
   6  -9  -1    1.00    0.15
   6  -9  -1    0.97    0.18
   6  -9  -1    1.25    0.20
  -6   9   1    1.21    0.16
   5  -9  -1    2.32    0.20
   5  -9  -1    2.11    0.23
   5  -9  -1    2.34    0.25
  -5   9   1    2.14    0.20
   4  -9  -1    0.44    0.14
   4  -9  -1    0.54    0.11
   4  -9  -1    0.34    0.14
  -4   9   1    0.37    0.12
   3  -9  -1    7.25    0.40
   3  -9  -1    8.35    0.39
   3  -9  -1    7.72    0.34
  -3   9   1    7.69    0.34
  -3   9   1    7.39    0.36
   2  -9  -1    2.17    0.21
   2  -9  -1    2.07    0.18
   2  -9  -1    2.50    0.24
  -2   9   1    2.06    0.20
  -2   9   1    2.34    0.20
   1  -9  -1    3.27    0.21
   1  -9  -1    3.36    0.26
  -1   9   1    3.31    0.23
  -1   9   1    3.00    0.24
   0  -9  -1    2.17    0.21
   0  -9  -1    2.51    0.18
   0  -9  -1    2.37    0.18
   0   9   1    2.20    0.21
   0   9   1    2.29    0.21
  -1  -9  -1    2.04    0.17
  -1  -9  -1    2.05    0.21
   1   9   1    2.14    0.21
   1   9   1    2.81    0.24
  -2  -9  -1   18.95    0.70
  -2  -9  -1   18.48    0.65
   2   9   1   18.17    0.68
   2   9   1   18.80    0.68
  -3  -9  -1    2.58    0.25
  -3  -9  -1    2.39    0.18
   3   9   1    2.21    0.24
   3   9   1    2.33    0.24
  -4  -9  -1    1.99    0.23
   4   9   1    2.13    0.24
   4   9   1    2.15    0.24
  -5  -9  -1    1.23    0.20
   5   9   1    1.17    0.21
   5   9   1    1.04    0.20
  -6  -9  -1    1.08    0.21
   6   9   1    1.30    0.22
  -7  -9  -1    0.47    0.18
  -7  -9  -1    1.04    0.18
   7   9   1    0.93    0.21
  -8  -9  -1    1.04    0.23
  -8  -9  -1    0.89    0.18
   8   9   1    0.45    0.21
  -9  -9  -1    0.08    0.17
   9   9   1   -0.17    0.17
   8 -10  -1    1.35    0.18
   7 -10  -1    1.55    0.19
  -7  10   1    1.77    0.19
   6 -10  -1    1.36    0.29
   6 -10  -1    1.80    0.25
   6 -10  -1    1.53    0.19
  -6  10   1    1.39    0.18
   5 -10  -1    0.62    0.17
   5 -10  -1    0.80    0.18
   5 -10  -1    0.59    0.13
  -5  10   1    0.78    0.15
   4 -10  -1    4.42    0.27
   4 -10  -1    4.39    0.33
   4 -10  -1    4.27    0.31
  -4  10   1    4.14    0.28
   3 -10  -1    9.98    0.49
   3 -10  -1    9.94    0.42
   3 -10  -1    8.99    0.46
  -3  10   1    9.52    0.43
   2 -10  -1   26.02    0.87
   2 -10  -1   26.02    0.91
  -2  10   1   24.56    0.87
  -2  10   1   25.54    0.86
   1 -10  -1    5.36    0.34
   1 -10  -1    5.92    0.30
  -1  10   1    5.56    0.33
  -1  10   1    5.12    0.30
   0 -10  -1   15.83    0.64
   0 -10  -1   17.06    0.61
   0  10   1   16.35    0.63
   0  10   1   16.98    0.63
  -1 -10  -1   13.76    0.56
  -1 -10  -1   12.98    0.50
   1  10   1   11.12    0.52
   1  10   1   13.39    0.53
  -2 -10  -1   10.57    0.49
  -2 -10  -1    9.95    0.42
   2  10   1    9.74    0.48
   2  10   1   10.24    0.47
  -3 -10  -1    8.10    0.43
   3  10   1    8.52    0.45
   3  10   1    7.76    0.41
  -4 -10  -1    0.88    0.19
   4  10   1    1.16    0.21
   4  10   1    0.87    0.20
  -5 -10  -1    3.04    0.31
   5  10   1    3.12    0.32
   5  10   1    3.46    0.32
  -6 -10  -1    5.96    0.44
   6  10   1    6.65    0.46
  -7 -10  -1    0.52    0.16
  -7 -10  -1    0.17    0.17
   7  10   1    0.13    0.20
  -8 -10  -1    0.38    0.20
  -8 -10  -1    0.41    0.16
   8  10   1    0.47    0.21
   6 -11  -1    2.20    0.22
  -6  11   1    2.28    0.23
   5 -11  -1    1.70    0.24
   5 -11  -1    1.92    0.21
  -5  11   1    1.96    0.22
   4 -11  -1    2.01    0.25
   4 -11  -1    1.87    0.25
   4 -11  -1    1.97    0.20
  -4  11   1    1.91    0.22
   3 -11  -1    2.14    0.22
   3 -11  -1    2.76    0.28
  -3  11   1    2.29    0.24
   2 -11  -1    3.12    0.29
   2 -11  -1    3.07    0.23
  -2  11   1    3.20    0.29
   1 -11  -1    5.00    0.35
   1 -11  -1    4.97    0.29
   1 -11  -1    4.78    0.28
  -1  11   1    4.84    0.30
  -1  11   1    5.16    0.34
   0 -11  -1    3.41    0.31
   0 -11  -1    2.88    0.22
   0  11   1    3.14    0.28
   0  11   1    2.91    0.26
  -1 -11  -1    3.84    0.32
   1  11   1    3.61    0.29
   1  11   1    3.44    0.30
  -2 -11  -1    0.64    0.18
   2  11   1    0.58    0.17
   2  11   1    0.68    0.18
  -3 -11  -1    4.08    0.35
   3  11   1    4.27    0.37
   3  11   1    3.71    0.32
  -4 -11  -1    2.51    0.29
   4  11   1    2.86    0.31
   4  11   1    3.20    0.32
  -5 -11  -1    3.66    0.35
   5  11   1    4.05    0.35
   5  11   1    3.91    0.36
  -6 -11  -1    1.66    0.26
   6  11   1    1.32    0.25
  -7 -11  -1    2.82    0.31
   7  11   1    2.36    0.32
  -5  12   1    2.37    0.24
   4 -12  -1    0.90    0.21
  -4  12   1    1.27    0.20
   3 -12  -1    0.56    0.19
  -3  12   1    0.67    0.17
   2 -12  -1    2.27    0.27
  -2  12   1    1.98    0.24
   1 -12  -1    1.08    0.21
  -1  12   1    1.57    0.22
   0 -12  -1    1.53    0.24
   0  12   1    1.97    0.24
   0  12   1    2.09    0.25
  -1 -12  -1    2.03    0.27
   1  12   1    2.01    0.26
   1  12   1    2.23    0.27
  -2 -12  -1    3.90    0.36
   2  12   1    3.98    0.34
   2  12   1    4.72    0.39
  -3 -12  -1    1.91    0.27
   3  12   1    2.14    0.28
   3  12   1    1.57    0.26
  -4 -12  -1    2.68    0.32
   4  12   1    2.64    0.32
   4  12   1    2.63    0.31
  -5 -12  -1    0.28    0.19
   5  12   1   -0.16    0.18
   5  12   1    0.28    0.20
   6  12   1    1.51    0.29
   2 -13  -1    2.08    0.29
  -2  13   1    1.51    0.23
   1 -13  -1    3.42    0.34
  -1  13   1    3.13    0.31
   0 -13  -1    1.34    0.25
   0  13   1    2.03    0.27
  -1 -13  -1    1.46    0.25
   1  13   1    1.49    0.25
  -2 -13  -1    1.59    0.27
   2  13   1    1.32    0.25
   2  13   1    2.28    0.30
  -3 -13  -1    4.50    0.41
   3  13   1    3.25    0.34
   3  13   1    4.30    0.39
   4  13   1    1.46    0.28
   2  13  -2    0.54    0.24
   2  13  -2    0.05    0.19
   1  13  -2    2.31    0.31
   1  13  -2    1.91    0.30
  -1 -13   2    2.43    0.31
   0  13  -2    3.77    0.37
   0  13  -2    3.52    0.36
   0 -13   2    4.15    0.39
  -1  13  -2    2.31    0.30
  -1  13  -2    1.47    0.25
   1 -13   2    1.99    0.29
  -2  13  -2    1.68    0.26
  -2  13  -2    1.88    0.27
   2 -13   2    1.81    0.28
  -3  13  -2    2.12    0.29
   3 -13   2    2.45    0.32
   4  12  -2    3.63    0.37
   4  12  -2    3.99    0.38
  -4 -12   2    3.36    0.35
   3  12  -2    4.75    0.42
   3  12  -2    4.42    0.38
  -3 -12   2    4.97    0.42
   2  12  -2    5.98    0.42
   2  12  -2    6.58    0.47
  -2 -12   2    5.74    0.43
   1  12  -2    1.09    0.23
   1  12  -2    1.23    0.24
  -1 -12   2    1.37    0.24
   0  12  -2    3.69    0.35
   0  12  -2    3.50    0.34
   0 -12   2    2.56    0.30
  -1  12  -2    3.05    0.32
  -1  12  -2    3.86    0.35
   1 -12   2    3.57    0.33
  -2  12  -2    5.84    0.40
  -2  12  -2    5.79    0.41
   2 -12   2    6.32    0.44
  -3  12  -2    2.62    0.28
  -3  12  -2    2.91    0.31
   3 -12   2    3.10    0.34
  -4  12  -2    4.04    0.36
   4 -12   2    3.00    0.34
  -5  12  -2    4.59    0.39
   5 -12   2    4.66    0.41
   6  11  -2    0.44    0.22
   6  11  -2    0.80    0.23
  -6 -11   2    0.78    0.22
  -6 -11   2    0.93    0.23
   5  11  -2    1.30    0.25
   5  11  -2    1.12    0.25
  -5 -11   2    0.94    0.22
  -5 -11   2    1.28    0.23
   4  11  -2    0.25    0.18
   4  11  -2    0.32    0.19
  -4 -11   2    0.29    0.17
   3  11  -2    4.49    0.36
   3  11  -2    5.06    0.41
  -3 -11   2    4.23    0.37
   2  11  -2    1.65    0.25
   2  11  -2    1.55    0.26
  -2 -11   2    1.35    0.22
   1  11  -2    2.23    0.26
   1  11  -2    1.87    0.26
  -1 -11   2    2.87    0.29
   0  11  -2    1.09    0.20
   0  11  -2    0.70    0.20
   0 -11   2    1.19    0.21
  -1  11  -2    1.42    0.23
  -1  11  -2    1.37    0.21
   1 -11   2    1.61    0.23
  -2  11  -2    2.05    0.25
  -2  11  -2    2.09    0.27
   2 -11   2    1.69    0.24
  -3  11  -2    2.70    0.27
  -3  11  -2    2.50    0.27
   3 -11   2    3.37    0.32
  -4  11  -2    1.15    0.20
  -4  11  -2    1.59    0.22
   4 -11   2    1.36    0.23
  -5  11  -2    1.91    0.24
  -5  11  -2    1.06    0.24
   5 -11   2    2.03    0.27
  -6  11  -2    2.08    0.26
   6 -11   2    2.23    0.29
  -7  11  -2    0.32    0.17
   7 -11   2    0.21    0.17
   7  10  -2    2.50    0.32
   7  10  -2    2.80    0.32
  -7 -10   2    2.38    0.29
  -7 -10   2    2.90    0.31
   6  10  -2    4.53    0.39
   6  10  -2    4.83    0.40
  -6 -10   2    4.61    0.39
  -6 -10   2    4.32    0.37
   5  10  -2    2.94    0.32
   5  10  -2    2.57    0.29
  -5 -10   2    3.24    0.31
  -5 -10   2    2.83    0.31
   4  10  -2    6.30    0.42
   4  10  -2    5.89    0.39
  -4 -10   2    5.78    0.39
   3  10  -2    9.58    0.49
   3  10  -2   10.36    0.51
  -3 -10   2   10.59    0.50
   2  10  -2    5.22    0.37
   2  10  -2    5.58    0.35
  -2 -10   2    5.94    0.37
   1  10  -2    1.21    0.20
   1  10  -2    1.84    0.25
  -1 -10   2    1.49    0.22
   0  10  -2    4.81    0.33
   0  10  -2    4.57    0.32
   0 -10   2    4.78    0.33
  -1  10  -2    2.76    0.27
  -1  10  -2    3.25    0.29
   1 -10   2    2.93    0.28
  -2  10  -2    6.68    0.38
  -2  10  -2    6.30    0.37
   2 -10   2    6.72    0.39
  -3  10  -2    2.37    0.25
  -3  10  -2    2.33    0.25
   3 -10   2    2.43    0.26
  -4  10  -2    6.07    0.38
  -4  10  -2    5.59    0.34
   4 -10   2    5.41    0.37
  -5  10  -2    2.27    0.24
  -5  10  -2    2.48    0.26
   5 -10   2    3.21    0.31
  -6  10  -2    2.76    0.34
  -6  10  -2    3.62    0.32
   6 -10   2    3.69    0.33
   6 -10   2    3.81    0.30
  -7  10  -2    2.84    0.28
   7 -10   2    2.30    0.28
   7 -10   2    2.28    0.26
  -8  10  -2    1.80    0.25
   8 -10   2    2.23    0.28
   8 -10   2    1.97    0.35
   8   9  -2    1.26    0.25
  -8  -9   2    1.14    0.22
  -8  -9   2    1.15    0.22
   7   9  -2    0.23    0.18
   7   9  -2   -0.03    0.18
  -7  -9   2    0.35    0.17
  -7  -9   2    0.31    0.15
   6   9  -2    1.05    0.22
   6   9  -2    1.46    0.25
  -6  -9   2    1.22    0.21
  -6  -9   2    1.28    0.22
   5   9  -2    7.70    0.44
   5   9  -2    7.17    0.43
  -5  -9   2    7.42    0.43
  -5  -9   2    7.46    0.42
   4   9  -2    1.76    0.24
   4   9  -2    1.56    0.22
  -4  -9   2    1.10    0.19
   3   9  -2    4.27    0.32
   3   9  -2    3.82    0.30
  -3  -9   2    4.16    0.29
   2   9  -2   22.92    0.83
   2   9  -2   22.71    0.84
  -2  -9   2   24.82    0.85
   1   9  -2   10.35    0.47
   1   9  -2   11.25    0.48
  -1  -9   2   10.32    0.47
   0   9  -2   17.49    0.68
   0   9  -2   18.81    0.68
   0  -9   2   17.52    0.68
  -1   9  -2   13.91    0.56
  -1   9  -2   13.58    0.57
   1  -9   2   14.27    0.53
   1  -9   2   14.18    0.52
   1  -9   2   14.34    0.57
  -2   9  -2    7.99    0.39
  -2   9  -2    7.45    0.39
   2  -9   2    7.21    0.39
   2  -9   2    7.81    0.34
  -3   9  -2   24.78    0.84
  -3   9  -2   23.34    0.85
   3  -9   2   23.93    0.86
   3  -9   2   24.21    0.81
  -4   9  -2    5.40    0.33
  -4   9  -2    5.17    0.33
   4  -9   2    5.58    0.29
   4  -9   2    5.26    0.34
  -5   9  -2    5.10    0.33
  -5   9  -2    5.05    0.31
   5  -9   2    4.80    0.30
   5  -9   2    5.18    0.34
   5  -9   2    4.68    0.27
  -6   9  -2    0.33    0.14
  -6   9  -2    0.43    0.14
   6  -9   2    0.39    0.15
   6  -9   2    0.40    0.10
   6  -9   2    0.55    0.14
  -7   9  -2    2.36    0.25
   7  -9   2    2.03    0.25
   7  -9   2    2.74    0.25
   7  -9   2    1.81    0.21
  -8   9  -2    1.04    0.20
   8  -9   2    1.17    0.21
   8  -9   2    1.17    0.19
  -9   9  -2    2.33    0.26
   9  -9   2    2.30    0.36
   9  -9   2    2.62    0.30
   9   8  -2    0.06    0.17
  -9  -8   2    0.02    0.14
   8   8  -2    0.37    0.18
  -8  -8   2    0.87    0.19
  -8  -8   2    0.50    0.17
   7   8  -2    0.47    0.19
   7   8  -2    0.62    0.19
  -7  -8   2    0.60    0.17
  -7  -8   2    0.74    0.17
   6   8  -2    1.30    0.22
   6   8  -2    1.27    0.23
  -6  -8   2    1.07    0.19
  -6  -8   2    1.35    0.21
   5   8  -2    2.52    0.25
   5   8  -2    2.12    0.25
   5   8  -2    2.20    0.19
  -5  -8   2    2.51    0.26
  -5  -8   2    1.92    0.22
   4   8  -2    0.38    0.10
   4   8  -2    0.60    0.16
   4   8  -2    0.56    0.16
  -4  -8   2    0.66    0.16
  -4  -8   2    0.44    0.13
   3   8  -2    6.37    0.36
   3   8  -2    7.19    0.38
   3   8  -2    7.13    0.32
  -3  -8   2    7.01    0.36
   2   8  -2   21.73    0.79
   2   8  -2   22.59    0.78
   2   8  -2   22.46    0.74
  -2  -8   2   21.81    0.78
   1   8  -2   39.57    1.21
   1   8  -2   38.09    1.24
   1   8  -2   39.70    1.25
  -1  -8   2   37.97    1.24
  -1  -8   2   39.25    1.21
   0   8  -2    7.18    0.36
   0   8  -2    7.67    0.36
   0   8  -2    7.35    0.32
   0  -8   2    7.27    0.36
   0  -8   2    8.03    0.32
  -1   8  -2   10.03    0.43
  -1   8  -2   10.05    0.38
  -1   8  -2   10.03    0.43
   1  -8   2    9.57    0.43
   1  -8   2   10.57    0.40
   1  -8   2   10.23    0.39
  -2   8  -2    6.58    0.33
  -2   8  -2    6.48    0.33
   2  -8   2    6.47    0.29
   2  -8   2    6.60    0.34
  -3   8  -2    5.80    0.33
  -3   8  -2    6.94    0.34
   3  -8   2    6.77    0.35
   3  -8   2    6.88    0.30
  -4   8  -2    3.05    0.24
  -4   8  -2    3.37    0.25
   4  -8   2    3.20    0.25
   4  -8   2    2.92    0.22
   4  -8   2    3.13    0.20
  -5   8  -2    2.30    0.23
  -5   8  -2    1.98    0.21
   5  -8   2    2.05    0.17
   5  -8   2    2.15    0.20
   5  -8   2    2.27    0.23
  -6   8  -2    3.15    0.24
  -6   8  -2    2.97    0.26
   6  -8   2    3.07    0.24
   6  -8   2    2.78    0.21
   6  -8   2    3.05    0.27
  -7   8  -2    2.24    0.22
  -7   8  -2    2.36    0.23
   7  -8   2    2.36    0.26
   7  -8   2    2.21    0.20
   7  -8   2    2.21    0.22
  -8   8  -2    2.13    0.24
   8  -8   2    2.11    0.21
   8  -8   2    2.63    0.25
   8  -8   2    2.90    0.29
  -9   8  -2    0.91    0.18
   9  -8   2    0.61    0.18
   9  -8   2    0.70    0.17
 -10   8  -2    2.76    0.27
  10  -8   2    2.59    0.31
   9   7  -2    0.20    0.18
  -9  -7   2    0.68    0.17
  -9  -7   2    0.51    0.17
   8   7  -2    0.59    0.18
  -8  -7   2    0.57    0.16
  -8  -7   2    0.36    0.15
   7   7  -2    1.78    0.24
   7   7  -2    1.39    0.17
   7   7  -2    1.54    0.23
  -7  -7   2    1.72    0.23
  -7  -7   2    1.50    0.20
   6   7  -2    1.70    0.22
   6   7  -2    1.33    0.20
   6   7  -2    1.57    0.17
  -6  -7   2    1.60    0.20
  -6  -7   2    1.62    0.21
   5   7  -2    4.49    0.30
   5   7  -2    4.56    0.25
   5   7  -2    4.05    0.31
  -5  -7   2    4.53    0.30
  -5  -7   2    4.87    0.29
   4   7  -2    1.18    0.18
   4   7  -2    1.36    0.15
   4   7  -2    1.23    0.19
  -4  -7   2    1.40    0.19
  -4  -7   2    1.14    0.16
   3   7  -2    7.82    0.34
   3   7  -2    8.22    0.39
   3   7  -2    8.18    0.38
  -3  -7   2    7.85    0.37
   2   7  -2    5.06    0.29
   2   7  -2    5.56    0.25
   2   7  -2    4.89    0.28
  -2  -7   2    5.00    0.28
   1   7  -2   10.25    0.43
   1   7  -2   10.53    0.40
   1   7  -2   10.42    0.43
  -1  -7   2   11.39    0.40
  -1  -7   2   10.39    0.43
   0   7  -2   31.27    1.01
   0   7  -2   30.96    1.00
   0   7  -2   31.17    0.98
   0   7  -2   31.19    1.00
   0  -7   2   31.11    1.01
   0  -7   2   32.16    0.98
  -1   7  -2   36.05    1.11
  -1   7  -2   36.06    1.15
  -1   7  -2   36.55    1.14
  -1   7  -2   36.87    1.15
   1  -7   2   37.73    1.12
   1  -7   2   35.02    1.15
  -2   7  -2    9.28    0.40
  -2   7  -2    9.60    0.40
  -2   7  -2    9.88    0.38
   2  -7   2    9.43    0.36
   2  -7   2    9.46    0.40
  -3   7  -2    1.71    0.18
  -3   7  -2    1.62    0.15
  -3   7  -2    1.60    0.13
  -3   7  -2    2.06    0.20
   3  -7   2    1.83    0.16
   3  -7   2    1.75    0.14
   3  -7   2    1.89    0.15
   3  -7   2    1.65    0.17
  -4   7  -2   18.29    0.65
  -4   7  -2   18.28    0.70
  -4   7  -2   18.36    0.65
   4  -7   2   19.16    0.67
   4  -7   2   18.39    0.65
   4  -7   2   18.45    0.63
  -5   7  -2    9.90    0.44
  -5   7  -2   10.91    0.44
   5  -7   2   10.55    0.45
   5  -7   2   10.45    0.41
   5  -7   2   10.75    0.43
  -6   7  -2   19.19    0.70
  -6   7  -2   20.45    0.70
   6  -7   2   19.68    0.68
   6  -7   2   19.27    0.71
   6  -7   2   19.37    0.70
  -7   7  -2    1.51    0.19
  -7   7  -2    1.64    0.20
   7  -7   2    1.32    0.15
   7  -7   2    1.62    0.18
   7  -7   2    1.32    0.19
  -8   7  -2    1.57    0.20
  -8   7  -2    1.57    0.20
   8  -7   2    1.26    0.15
   8  -7   2    1.33    0.20
   8  -7   2    1.26    0.17
  -9   7  -2    3.36    0.29
   9  -7   2    3.31    0.31
   9  -7   2    3.01    0.27
   9  -7   2    2.70    0.23
 -10   7  -2    0.49    0.16
  10  -7   2    0.71    0.17
  10  -7   2    0.39    0.18
  10   6  -2   -0.04    0.17
 -10  -6   2    0.21    0.14
 -10  -6   2    0.46    0.16
  -9  -6   2    2.57    0.25
  -9  -6   2    2.74    0.28
   8   6  -2    1.01    0.15
   8   6  -2    1.09    0.21
  -8  -6   2    1.17    0.19
  -8  -6   2    1.02    0.18
   7   6  -2    3.01    0.22
  -7  -6   2    2.74    0.25
  -7  -6   2    2.66    0.25
   6   6  -2    0.94    0.17
   6   6  -2    0.93    0.13
   6   6  -2    0.65    0.16
  -6  -6   2    0.84    0.15
  -6  -6   2    0.75    0.14
   5   6  -2   33.88    1.05
   5   6  -2   32.43    1.07
   5   6  -2   32.79    1.07
  -5  -6   2   31.57    1.05
  -5  -6   2   32.95    1.09
   4   6  -2   22.27    0.90
   4   6  -2   23.41    0.81
   4   6  -2   23.88    0.78
   4   6  -2   24.29    0.81
  -4  -6   2   24.22    0.80
  -4  -6   2   24.53    0.83
   3   6  -2    0.52    0.08
   3   6  -2    0.73    0.10
   3   6  -2    0.47    0.13
   3   6  -2    0.63    0.08
   3   6  -2    0.73    0.13
  -3  -6   2    0.51    0.11
  -3  -6   2    0.71    0.08
   2   6  -2   28.61    0.89
   2   6  -2   28.76    0.89
   2   6  -2   28.59    0.92
   2   6  -2   27.83    0.91
  -2  -6   2   28.53    0.91
  -2  -6   2   27.91    0.88
   1   6  -2   16.23    0.53
   1   6  -2   15.66    0.56
   1   6  -2   16.44    0.54
   1   6  -2   15.51    0.56
  -1  -6   2   15.34    0.52
  -1  -6   2   16.28    0.56
   0   6  -2   59.11    1.76
   0   6  -2   58.15    1.73
   0   6  -2   59.75    1.76
   0   6  -2   59.52    1.76
   0  -6   2   59.06    1.73
   0  -6   2   57.86    1.76
  -1   6  -2   29.33    0.93
  -1   6  -2   30.19    0.92
  -1   6  -2   30.02    0.95
  -1   6  -2   30.18    0.95
   1  -6   2   29.86    0.95
   1  -6   2   30.15    0.92
  -2   6  -2   38.48    1.17
  -2   6  -2   38.28    1.19
  -2   6  -2   37.67    1.15
  -2   6  -2   37.92    1.18
   2  -6   2   38.74    1.16
   2  -6   2   37.75    1.18
   2  -6   2   39.26    1.16
  -3   6  -2   16.02    0.56
  -3   6  -2   16.27    0.54
  -3   6  -2   15.58    0.56
  -3   6  -2   15.63    0.52
   3  -6   2   15.37    0.56
   3  -6   2   16.68    0.54
   3  -6   2   15.70    0.54
   3  -6   2   15.77    0.55
  -4   6  -2   15.06    0.53
  -4   6  -2   14.90    0.50
  -4   6  -2   14.24    0.53
   4  -6   2   14.14    0.53
   4  -6   2   15.12    0.51
   4  -6   2   14.44    0.52
   4  -6   2   15.09    0.51
  -5   6  -2   11.57    0.45
  -5   6  -2    9.28    0.40
  -5   6  -2   10.96    0.45
   5  -6   2   11.84    0.44
   5  -6   2   12.31    0.46
   5  -6   2   11.62    0.43
   5  -6   2   12.38    0.43
  -6   6  -2    1.01    0.16
  -6   6  -2    1.02    0.14
   6  -6   2    1.27    0.14
   6  -6   2    1.19    0.15
   6  -6   2    1.39    0.18
  -7   6  -2    9.42    0.39
  -7   6  -2    8.54    0.39
   7  -6   2    8.76    0.39
   7  -6   2    8.42    0.37
   7  -6   2    8.16    0.40
  -8   6  -2    2.83    0.22
  -8   6  -2    2.63    0.24
   8  -6   2    2.87    0.23
   8  -6   2    2.79    0.21
   8  -6   2    2.88    0.26
  -9   6  -2    0.61    0.16
   9  -6   2    1.17    0.17
   9  -6   2    0.94    0.14
   9  -6   2    0.94    0.18
 -10   6  -2    0.99    0.18
  10  -6   2    1.20    0.21
  10  -6   2    1.51    0.20
  10  -6   2    0.61    0.13
 -11   6  -2    0.12    0.14
  11  -6   2    0.07    0.16
  10   5  -2    0.16    0.20
 -10  -5   2    1.01    0.18
 -10  -5   2    1.07    0.19
   9   5  -2    0.63    0.13
   9   5  -2    0.35    0.17
  -9  -5   2    0.64    0.16
  -9  -5   2    0.68    0.15
   8   5  -2    6.94    0.34
  -8  -5   2    6.51    0.37
  -8  -5   2    6.43    0.35
   7   5  -2    3.61    0.30
   7   5  -2    3.79    0.24
  -7  -5   2    3.90    0.26
  -7  -5   2    3.61    0.26
   6   5  -2    7.65    0.37
   6   5  -2    7.59    0.38
   6   5  -2    7.40    0.33
  -6  -5   2    7.23    0.34
  -6  -5   2    8.04    0.38
   5   5  -2    1.96    0.15
   5   5  -2    1.87    0.16
   5   5  -2    2.15    0.20
   5   5  -2    1.88    0.19
  -5  -5   2    2.02    0.18
  -5  -5   2    2.12    0.20
   4   5  -2   25.61    0.83
   4   5  -2   25.42    0.81
   4   5  -2   26.39    0.81
   4   5  -2   24.99    0.83
  -4  -5   2   25.41    0.85
  -4  -5   2   24.85    0.82
  -4  -5   2   24.00    0.80
   3   5  -2    3.67    0.22
   3   5  -2    4.01    0.19
   3   5  -2    3.54    0.22
   3   5  -2    3.69    0.18
  -3  -5   2    3.89    0.17
  -3  -5   2    3.39    0.22
  -3  -5   2    3.54    0.21
   2   5  -2   10.45    0.37
   2   5  -2   10.55    0.40
   2   5  -2   10.51    0.38
   2   5  -2   11.15    0.38
   2   5  -2   10.66    0.40
  -2  -5   2   10.49    0.39
  -2  -5   2   10.62    0.37
   1   5  -2    6.81    0.29
   1   5  -2    6.54    0.26
   1   5  -2    6.53    0.25
   1   5  -2    6.55    0.28
  -1  -5   2    6.33    0.28
   0   5  -2   11.23    0.39
   0   5  -2   10.48    0.37
   0   5  -2   10.69    0.38
   0   5  -2   10.28    0.39
   0   5  -2   10.68    0.37
   0  -5   2   10.22    0.39
   0  -5   2   10.68    0.36
   0  -5   2   10.64    0.36
  -1   5  -2   24.15    0.76
  -1   5  -2   23.48    0.76
  -1   5  -2   24.26    0.75
  -1   5  -2   24.31    0.75
  -1   5  -2   23.37    0.77
   1  -5   2   24.19    0.75
   1  -5   2   24.39    0.77
   1  -5   2   24.47    0.75
  -2   5  -2  102.92    2.95
  -2   5  -2  102.37    2.94
  -2   5  -2   99.35    2.95
  -2   5  -2  100.94    2.93
   2  -5   2  100.69    2.93
   2  -5   2  107.00    2.93
   2  -5   2  100.48    2.95
  -3   5  -2   79.91    2.39
  -3   5  -2   84.11    2.39
  -3   5  -2   80.54    2.40
   3  -5   2   81.15    2.39
   3  -5   2   82.48    2.38
   3  -5   2   85.91    2.38
   3  -5   2   80.89    2.40
  -4   5  -2   17.91    0.61
  -4   5  -2   18.40    0.58
  -4   5  -2   17.80    0.61
   4  -5   2   18.43    0.62
   4  -5   2   18.22    0.60
   4  -5   2   18.56    0.60
   4  -5   2   17.98    0.59
  -5   5  -2   11.32    0.44
  -5   5  -2   11.32    0.43
  -5   5  -2   11.71    0.40
   5  -5   2   12.04    0.42
   5  -5   2   11.08    0.42
   5  -5   2   11.42    0.44
   5  -5   2   11.36    0.41
  -6   5  -2   13.42    0.50
  -6   5  -2   13.13    0.50
   6  -5   2   13.98    0.50
   6  -5   2   13.06    0.48
   6  -5   2   13.06    0.51
   6  -5   2   14.32    0.49
  -7   5  -2    8.86    0.39
  -7   5  -2    9.65    0.39
   7  -5   2    9.07    0.39
   7  -5   2    9.06    0.41
   7  -5   2    9.08    0.37
  -8   5  -2    2.38    0.22
  -8   5  -2    2.59    0.21
   8  -5   2    2.61    0.20
   8  -5   2    2.36    0.21
   8  -5   2    2.55    0.23
  -9   5  -2    0.76    0.15
  -9   5  -2    0.82    0.16
   9  -5   2    0.77    0.13
   9  -5   2    0.70    0.16
   9  -5   2    0.80    0.14
 -10   5  -2    2.67    0.25
  10  -5   2    2.54    0.22
  10  -5   2    2.29    0.26
  10  -5   2    3.10    0.26
 -11   5  -2    1.46    0.21
  11  -5   2    1.48    0.21
  11  -5   2    1.59    0.24
  10   4  -2   -0.04    0.36
  10   4  -2    0.43    0.13
 -10  -4   2    0.53    0.14
 -10  -4   2    0.43    0.15
   9   4  -2    0.41    0.12
   9   4  -2    0.23    0.16
  -9  -4   2    0.32    0.13
  -9  -4   2    0.24    0.13
   8   4  -2    1.00    0.14
   8   4  -2    0.89    0.17
  -8  -4   2    1.07    0.17
  -8  -4   2    0.97    0.16
   7   4  -2    0.90    0.13
   7   4  -2    0.88    0.16
  -7  -4   2    1.00    0.16
  -7  -4   2    0.81    0.14
   6   4  -2    0.42    0.13
   6   4  -2    0.55    0.10
   6   4  -2    0.67    0.14
  -6  -4   2    0.79    0.14
  -6  -4   2    0.67    0.12
   5   4  -2    0.25    0.07
   5   4  -2    0.28    0.12
   5   4  -2    0.27    0.11
   5   4  -2    0.20    0.07
  -5  -4   2    0.29    0.10
  -5  -4   2    0.13    0.08
   4   4  -2    0.02    0.05
   4   4  -2    0.06    0.05
   4   4  -2   -0.01    0.08
   4   4  -2   -0.05    0.08
  -4  -4   2   -0.01    0.07
  -4  -4   2    0.06    0.07
   3   4  -2   18.80    0.63
   3   4  -2   19.39    0.63
   3   4  -2   19.96    0.61
   3   4  -2   18.84    0.61
  -3  -4   2   19.07    0.62
  -3  -4   2   18.55    0.65
  -3  -4   2   19.95    0.60
   2   4  -2    4.90    0.23
   2   4  -2    4.74    0.20
   2   4  -2    4.80    0.20
   2   4  -2    4.87    0.23
  -2  -4   2    4.82    0.19
  -2  -4   2    5.18    0.22
   1   4  -2   38.74    1.15
   1   4  -2   38.91    1.15
   1   4  -2   40.10    1.17
   1   4  -2   38.42    1.16
  -1  -4   2   38.06    1.16
  -1  -4   2   38.84    1.14
   0   4  -2    8.46    0.29
   0   4  -2    8.61    0.32
   0   4  -2    8.92    0.30
   0   4  -2    8.15    0.31
   0  -4   2    7.87    0.31
  -1   4  -2  129.42    3.83
  -1   4  -2  132.44    3.83
  -1   4  -2  133.00    3.82
  -1   4  -2  139.07    3.82
  -1   4  -2  136.75    3.82
   1  -4   2  132.56    3.81
   1  -4   2  131.06    3.83
   1  -4   2  138.15    3.82
  -2   4  -2   31.78    0.95
  -2   4  -2   31.72    0.95
  -2   4  -2   32.72    0.95
  -2   4  -2   31.35    0.97
  -2   4  -2   31.15    0.97
   2  -4   2   31.77    0.97
   2  -4   2   32.02    0.95
   2  -4   2   32.30    0.95
   2  -4   2   31.10    0.95
  -3   4  -2   52.02    1.55
  -3   4  -2   54.96    1.53
  -3   4  -2   52.13    1.54
   3  -4   2   50.93    1.53
   3  -4   2   53.44    1.53
   3  -4   2   51.29    1.53
   3  -4   2   50.64    1.55
  -4   4  -2   24.14    0.75
  -4   4  -2   23.23    0.76
  -4   4  -2   24.01    0.77
   4  -4   2   24.27    0.77
   4  -4   2   24.85    0.76
   4  -4   2   23.88    0.75
   4  -4   2   25.11    0.76
  -5   4  -2   10.90    0.40
  -5   4  -2   10.40    0.41
  -5   4  -2   10.99    0.38
   5  -4   2   10.81    0.39
   5  -4   2   10.97    0.39
   5  -4   2   11.24    0.40
   5  -4   2   10.58    0.41
  -6   4  -2    2.82    0.21
  -6   4  -2    3.44    0.17
  -6   4  -2    3.68    0.21
   6  -4   2    3.70    0.23
   6  -4   2    3.41    0.20
   6  -4   2    3.41    0.19
   6  -4   2    3.52    0.19
  -7   4  -2    0.35    0.11
  -7   4  -2    0.53    0.13
   7  -4   2    0.36    0.09
   7  -4   2    0.28    0.09
   7  -4   2    0.22    0.10
  -8   4  -2    0.23    0.11
  -8   4  -2    0.32    0.12
   8  -4   2    0.14    0.09
   8  -4   2    0.31    0.12
   8  -4   2    0.19    0.08
  -9   4  -2    0.48    0.13
  -9   4  -2    0.73    0.15
   9  -4   2    0.79    0.16
   9  -4   2    0.57    0.13
   9  -4   2    0.82    0.12
 -10   4  -2    0.66    0.15
  10  -4   2    0.41    0.16
  10  -4   2    0.53    0.14
  10  -4   2    0.53    0.12
 -11   4  -2    1.15    0.19
  11  -4   2    1.25    0.22
  11  -4   2    0.75    0.14
  11  -4   2    0.78    0.17
 -12   4  -2    0.09    0.14
  12  -4   2    0.03    0.16
  11   3  -2    0.90    0.16
 -11  -3   2    2.08    0.21
  10   3  -2    0.07    0.10
 -10  -3   2    0.24    0.14
 -10  -3   2    0.05    0.11
   9   3  -2    1.75    0.18
  -9  -3   2    1.62    0.18
  -9  -3   2    1.75    0.21
   8   3  -2    3.18    0.22
  -8  -3   2    3.19    0.25
  -8  -3   2    3.04    0.23
   7   3  -2   10.65    0.45
   7   3  -2   10.85    0.42
  -7  -3   2   10.44    0.45
  -7  -3   2   10.54    0.41
   6   3  -2    5.52    0.26
   6   3  -2    5.87    0.26
   6   3  -2    5.55    0.30
  -6  -3   2    5.58    0.30
  -6  -3   2    5.61    0.26
   5   3  -2   21.83    0.72
   5   3  -2   23.28    0.75
   5   3  -2   23.07    0.72
   5   3  -2   22.69    0.74
  -5  -3   2   22.08    0.72
  -5  -3   2   23.77    0.74
  -5  -3   2   22.11    0.76
   4   3  -2   35.56    1.08
   4   3  -2   36.94    1.08
   4   3  -2   35.68    1.09
   4   3  -2   35.45    1.09
  -4  -3   2   35.17    1.12
  -4  -3   2   34.04    1.08
  -4  -3   2   37.63    1.09
   3   3  -2   29.83    0.91
   3   3  -2   29.19    0.93
   3   3  -2   31.41    0.92
   3   3  -2   30.57    0.93
  -3  -3   2   30.44    0.96
  -3  -3   2   31.19    0.90
  -3  -3   2   31.56    0.93
  -3  -3   2   29.37    0.92
   2   3  -2   82.82    2.33
   2   3  -2   82.04    2.33
   2   3  -2   81.02    2.34
   2   3  -2   81.86    2.34
  -2  -3   2   81.45    2.34
  -2  -3   2   70.53    2.34
  -2  -3   2   80.41    2.36
  -2  -3   2   83.79    2.31
  -2  -3   2   85.49    2.34
   1   3  -2   35.77    1.09
   1   3  -2   36.85    1.07
   1   3  -2   35.12    1.07
   1   3  -2   35.90    1.08
   1   3  -2   37.31    1.07
  -1  -3   2   35.03    1.08
  -1  -3   2   38.37    1.09
  -1  -3   2   37.09    1.06
  -1  -3   2   37.33    1.08
   0   3  -2   83.54    2.44
   0   3  -2   87.17    2.45
   0   3  -2   83.03    2.44
   0   3  -2   82.69    2.42
   0  -3   2   86.80    2.44
   0  -3   2   83.76    2.44
   0  -3   2   87.32    2.43
  -1   3  -2    5.69    0.23
  -1   3  -2    5.93    0.24
  -1   3  -2    5.80    0.22
  -1   3  -2    6.10    0.22
  -1   3  -2    6.15    0.23
  -1   3  -2    5.94    0.21
   1  -3   2    6.49    0.24
   1  -3   2    6.08    0.23
   1  -3   2    5.74    0.23
   1  -3   2    6.30    0.22
   1  -3   2    6.10    0.22
  -2   3  -2   80.96    2.26
  -2   3  -2   77.22    2.26
  -2   3  -2   75.50    2.27
  -2   3  -2   79.23    2.27
  -2   3  -2   78.78    2.25
  -2   3  -2   79.31    2.27
   2  -3   2   78.97    2.26
   2  -3   2   81.08    2.26
   2  -3   2   76.89    2.27
   2  -3   2   80.69    2.27
   2  -3   2   75.53    2.25
   2  -3   2   81.51    2.29
  -3   3  -2   68.79    1.99
  -3   3  -2   66.93    1.99
  -3   3  -2   68.55    1.99
  -3   3  -2   68.19    1.98
   3  -3   2   67.60    1.97
   3  -3   2   68.98    1.98
   3  -3   2   72.25    1.98
   3  -3   2   66.89    1.99
  -4   3  -2   39.65    1.26
  -4   3  -2   41.56    1.25
   4  -3   2   43.21    1.24
   4  -3   2   43.02    1.26
   4  -3   2   42.57    1.24
   4  -3   2   42.06    1.24
  -5   3  -2   50.05    1.54
  -5   3  -2   50.97    1.53
  -5   3  -2   51.44    1.51
   5  -3   2   51.95    1.55
   5  -3   2   50.36    1.53
   5  -3   2   52.31    1.52
   5  -3   2   54.63    1.53
  -6   3  -2   31.23    0.94
  -6   3  -2   30.06    0.97
  -6   3  -2   30.33    0.96
   6  -3   2   30.43    0.95
   6  -3   2   31.27    0.98
   6  -3   2   32.04    0.96
  -7   3  -2   29.53    0.94
  -7   3  -2   28.94    0.95
   7  -3   2   29.95    0.94
   7  -3   2   29.90    0.96
   7  -3   2   30.38    0.94
  -8   3  -2   16.97    0.59
  -8   3  -2   16.53    0.60
   8  -3   2   16.93    0.62
   8  -3   2   16.11    0.58
  -9   3  -2    4.82    0.27
  -9   3  -2    5.19    0.30
   9  -3   2    5.18    0.32
   9  -3   2    4.89    0.27
 -10   3  -2    1.89    0.21
  10  -3   2    1.87    0.23
  10  -3   2    1.79    0.18
 -11   3  -2    1.36    0.20
  11  -3   2    0.99    0.16
  11  -3   2    1.41    0.22
 -12   3  -2    1.59    0.22
  12  -3   2    1.12    0.23
  11   2  -2    0.40    0.13
 -11  -2   2    0.58    0.20
  10   2  -2    0.71    0.13
 -10  -2   2    1.00    0.15
   9   2  -2    1.89    0.19
  -9  -2   2    1.85    0.21
  -9  -2   2    1.69    0.17
   8   2  -2    0.63    0.12
   8   2  -2    0.46    0.16
  -8  -2   2    0.57    0.11
  -8  -2   2    0.52    0.13
   7   2  -2    8.34    0.33
   7   2  -2    7.88    0.33
   7   2  -2    8.14    0.37
  -7  -2   2    8.38    0.34
  -7  -2   2    7.91    0.37
   6   2  -2    0.05    0.06
   6   2  -2    0.04    0.06
   6   2  -2    0.08    0.10
  -6  -2   2    0.03    0.07
  -6  -2   2    0.04    0.07
  -6  -2   2    0.02    0.08
   5   2  -2    7.83    0.31
   5   2  -2    8.67    0.34
   5   2  -2    8.44    0.31
  -5  -2   2    8.33    0.35
  -5  -2   2    8.01    0.31
  -5  -2   2    9.17    0.32
   4   2  -2   19.13    0.62
   4   2  -2   18.83    0.60
   4   2  -2   19.16    0.61
   4   2  -2   19.44    0.60
  -4  -2   2   18.49    0.60
  -4  -2   2   18.74    0.64
  -4  -2   2   20.08    0.61
   3   2  -2   15.63    0.50
   3   2  -2   15.57    0.48
   3   2  -2   15.08    0.49
   3   2  -2   14.96    0.48
  -3  -2   2   14.41    0.48
  -3  -2   2   14.88    0.52
  -3  -2   2   16.84    0.49
   2   2  -2    0.11    0.05
   2   2  -2    0.19    0.04
   2   2  -2    0.18    0.04
   2   2  -2    0.10    0.06
  -2  -2   2    0.17    0.05
  -2  -2   2    0.15    0.06
  -2  -2   2    0.19    0.03
  -2  -2   2    0.20    0.05
   1   2  -2    0.08    0.06
   1   2  -2    0.04    0.05
   1   2  -2   -0.01    0.03
   1   2  -2    0.04    0.03
   1   2  -2   -0.03    0.04
  -1  -2   2    0.08    0.05
  -1  -2   2    0.06    0.03
  -1  -2   2    0.05    0.04
  -1  -2   2    0.15    0.06
  -1  -2   2    0.08    0.05
   0   2  -2    6.01    0.21
   0   2  -2    6.25    0.22
   0   2  -2    5.62    0.22
   0   2  -2    6.03    0.20
   0   2  -2    5.89    0.22
   0  -2   2    6.20    0.22
   0  -2   2    6.04    0.20
   0  -2   2    6.29    0.20
   0  -2   2    6.31    0.22
   0  -2   2    6.08    0.22
  -1   2  -2    3.38    0.14
  -1   2  -2    3.20    0.16
  -1   2  -2    3.24    0.13
  -1   2  -2    3.36    0.14
  -1   2  -2    3.39    0.16
  -1   2  -2    3.55    0.15
   1  -2   2    3.28    0.15
   1  -2   2    3.70    0.16
   1  -2   2    3.43    0.14
   1  -2   2    3.42    0.15
  -2   2  -2   23.43    0.69
  -2   2  -2   22.89    0.66
  -2   2  -2   22.19    0.67
  -2   2  -2   21.64    0.68
  -2   2  -2   22.46    0.67
  -2   2  -2   22.14    0.68
   2  -2   2   22.67    0.67
   2  -2   2   21.32    0.68
   2  -2   2   22.74    0.67
   2  -2   2   23.71    0.69
   2  -2   2   21.86    0.66
  -3   2  -2   87.12    2.44
  -3   2  -2   85.17    2.43
  -3   2  -2   83.63    2.43
  -3   2  -2   81.26    2.44
   3  -2   2   88.21    2.43
   3  -2   2   83.56    2.43
   3  -2   2   87.80    2.46
   3  -2   2   81.42    2.44
   3  -2   2   85.92    2.42
  -4   2  -2   20.64    0.68
   4  -2   2   22.98    0.67
   4  -2   2   21.65    0.69
   4  -2   2   21.79    0.67
  -5   2  -2   35.48    1.12
  -5   2  -2   37.16    1.10
   5  -2   2   36.46    1.12
   5  -2   2   37.72    1.11
   5  -2   2   37.62    1.11
  -6   2  -2    7.63    0.28
  -6   2  -2    7.42    0.31
   6  -2   2    7.11    0.29
   6  -2   2    7.13    0.31
   6  -2   2    7.41    0.29
  -7   2  -2   13.77    0.52
  -7   2  -2   14.56    0.48
   7  -2   2   14.34    0.53
   7  -2   2   14.60    0.50
   7  -2   2   14.58    0.50
  -8   2  -2   11.36    0.46
   8  -2   2   12.43    0.48
   8  -2   2   11.43    0.44
  -9   2  -2    1.22    0.16
   9  -2   2    1.32    0.15
   9  -2   2    1.12    0.17
 -10   2  -2    0.22    0.12
 -10   2  -2    0.22    0.11
  10  -2   2    0.15    0.12
  10  -2   2    0.13    0.09
 -11   2  -2   -0.01    0.12
  11  -2   2    0.03    0.09
  11  -2   2   -0.19    0.12
 -12   2  -2    0.38    0.16
  12  -2   2    0.48    0.18
  11   1  -2    0.03    0.11
  10   1  -2   -0.01    0.09
 -10  -1   2    0.04    0.09
   9   1  -2    1.88    0.18
  -9  -1   2    2.33    0.19
   8   1  -2    2.61    0.20
  -8  -1   2    2.91    0.20
  -8  -1   2    2.97    0.24
   7   1  -2    0.39    0.08
   7   1  -2    0.37    0.09
   7   1  -2    0.11    0.12
  -7  -1   2    0.26    0.09
  -7  -1   2    0.43    0.12
   6   1  -2   40.68    1.25
   6   1  -2   41.45    1.23
   6   1  -2   40.27    1.23
  -6  -1   2   39.95    1.22
  -6  -1   2   40.81    1.29
  -6  -1   2   43.33    1.23
   5   1  -2   18.57    0.59
   5   1  -2   18.71    0.59
   5   1  -2   18.41    0.61
  -5  -1   2   18.34    0.59
  -5  -1   2   20.06    0.59
  -5  -1   2   18.19    0.64
   4   1  -2    8.21    0.27
   4   1  -2    8.00    0.30
   4   1  -2    7.90    0.29
   4   1  -2    7.96    0.28
  -4  -1   2    8.20    0.28
  -4  -1   2    7.66    0.28
  -4  -1   2    7.94    0.32
   3   1  -2   42.29    1.23
   3   1  -2   40.49    1.21
   3   1  -2   41.24    1.21
  -3  -1   2   42.61    1.22
  -3  -1   2   43.72    1.22
  -3  -1   2   41.35    1.26
   2   1  -2  128.68    3.64
   2   1  -2  127.16    3.63
   2   1  -2  133.69    3.64
   2   1  -2  125.66    3.63
  -2  -1   2  133.74    3.63
  -2  -1   2  124.27    3.63
  -2  -1   2  126.03    3.67
   1   1  -2   72.59    2.03
   1   1  -2   70.84    2.02
   1   1  -2   71.43    2.06
   1   1  -2   69.46    2.02
   1   1  -2   73.22    2.03
  -1  -1   2   68.27    2.02
  -1  -1   2   70.28    2.05
  -1  -1   2   73.85    2.02
   0   1  -2   27.14    0.78
   0   1  -2   26.74    0.77
   0   1  -2   25.75    0.78
   0   1  -2   27.85    0.78
   0   1  -2   26.38    0.77
   0  -1   2   26.87    0.78
   0  -1   2   26.02    0.80
   0  -1   2   26.81    0.77
   0  -1   2   28.10    0.78
   0  -1   2   26.85    0.77
  -1   1  -2    5.18    0.19
  -1   1  -2    5.04    0.17
  -1   1  -2    5.12    0.17
  -1   1  -2    5.45    0.19
   1  -1   2    5.22    0.17
   1  -1   2    5.43    0.19
   1  -1   2    5.05    0.17
   1  -1   2    5.33    0.19
  -2   1  -2    1.19    0.07
  -2   1  -2    1.03    0.09
  -2   1  -2    1.17    0.07
  -2   1  -2    1.22    0.09
   2  -1   2    1.17    0.07
   2  -1   2    1.07    0.07
   2  -1   2    1.01    0.09
   2  -1   2    1.10    0.09
  -3   1  -2   27.75    0.81
  -3   1  -2   28.26    0.82
  -3   1  -2   26.79    0.81
  -3   1  -2   26.60    0.82
   3  -1   2   27.52    0.82
   3  -1   2   27.22    0.82
   3  -1   2   27.43    0.81
   3  -1   2   27.21    0.81
  -4   1  -2  103.90    3.14
  -4   1  -2  113.77    3.13
   4  -1   2  112.33    3.13
   4  -1   2  107.16    3.14
   4  -1   2  111.23    3.13
  -5   1  -2    2.64    0.17
  -5   1  -2    2.57    0.14
   5  -1   2    3.32    0.18
   5  -1   2    3.17    0.13
   5  -1   2    3.20    0.15
   5  -1   2    3.07    0.15
  -6   1  -2   37.16    1.15
  -6   1  -2   37.25    1.12
   6  -1   2   37.01    1.13
   6  -1   2   38.47    1.11
   6  -1   2   36.72    1.15
   6  -1   2   38.19    1.13
  -7   1  -2    1.18    0.14
  -7   1  -2    1.17    0.11
   7  -1   2    1.51    0.13
   7  -1   2    1.41    0.13
   7  -1   2    1.22    0.14
  -8   1  -2   14.25    0.53
   8  -1   2   13.95    0.54
   8  -1   2   14.88    0.52
  -9   1  -2    2.89    0.23
   9  -1   2    3.00    0.26
   9  -1   2    3.38    0.21
 -10   1  -2    2.36    0.23
  10  -1   2    2.28    0.19
  10  -1   2    2.13    0.23
 -11   1  -2    0.44    0.15
  11  -1   2    0.28    0.16
  11  -1   2    0.56    0.12
 -12   1  -2    0.41    0.16
  12  -1   2    0.72    0.19
  11   0  -2    0.86    0.15
  10   0  -2    0.96    0.15
 -10   0   2    1.06    0.13
   9   0  -2    0.29    0.10
  -9   0   2    0.09    0.08
   8   0  -2    4.26    0.24
  -8   0   2    4.63    0.23
   7   0  -2   20.80    0.67
   7   0  -2   20.00    0.67
  -7   0   2   21.26    0.66
  -7   0   2   20.38    0.73
   6   0  -2    1.44    0.11
   6   0  -2    1.53    0.12
  -6   0   2    1.54    0.12
  -6   0   2    1.65    0.12
  -6   0   2    1.20    0.15
   5   0  -2    8.82    0.33
   5   0  -2    8.46    0.31
   5   0  -2    8.79    0.31
  -5   0   2    8.67    0.30
  -5   0   2    9.15    0.31
  -5   0   2    9.28    0.37
   4   0  -2    9.55    0.32
   4   0  -2    9.44    0.31
   4   0  -2    9.96    0.34
  -4   0   2    9.67    0.37
  -4   0   2   10.34    0.32
  -4   0   2    9.54    0.32
   3   0  -2   -0.05    0.03
   3   0  -2    0.03    0.04
   3   0  -2    0.08    0.03
   3   0  -2    0.03    0.05
  -3   0   2    0.00    0.03
  -3   0   2   -0.01    0.05
  -3   0   2   -0.02    0.04
   2   0  -2   47.33    1.33
   2   0  -2   47.65    1.33
   2   0  -2   47.29    1.32
  -2   0   2   45.76    1.37
  -2   0   2   44.64    1.32
   1   0  -2    3.36    0.11
   1   0  -2    3.33    0.15
   1   0  -2    3.27    0.11
  -1   0   2    3.04    0.15
   0   0  -2  104.30    2.93
   0   0  -2  104.09    2.91
   0   0  -2  102.57    2.91
   0   0   2  101.88    2.93
  -1   0  -2  165.41    4.74
  -1   0  -2  170.41    4.78
  -1   0  -2  165.39    4.75
  -1   0  -2  173.59    4.77
  -1   0  -2  164.10    4.75
  -1   0  -2  166.50    4.76
   1   0   2  164.38    4.75
   1   0   2  164.22    4.80
   1   0   2  166.60    4.73
   1   0   2  165.21    4.77
   1   0   2  171.11    4.74
   1   0   2  174.53    4.78
  -2   0  -2   16.35    0.48
  -2   0  -2   15.80    0.48
  -2   0  -2   15.72    0.49
   2   0   2   16.39    0.49
   2   0   2   16.21    0.48
   2   0   2   15.24    0.49
  -3   0  -2    4.08    0.18
  -3   0  -2    4.40    0.16
  -3   0  -2    4.00    0.16
   3   0   2    4.10    0.16
   3   0   2    4.21    0.18
   3   0   2    3.87    0.16
  -4   0  -2   25.08    0.80
  -4   0  -2   25.45    0.78
  -4   0  -2   27.22    0.79
   4   0   2   25.72    0.78
   4   0   2   26.69    0.76
   4   0   2   26.31    0.78
  -5   0  -2   43.68    1.33
   5   0   2   47.24    1.30
   5   0   2   46.06    1.32
   5   0   2   42.19    1.32
  -6   0  -2   28.08    0.86
  -6   0  -2   27.88    0.88
   6   0   2   27.54    0.87
   6   0   2   27.95    0.87
   6   0   2   28.92    0.84
  -7   0  -2    4.24    0.19
  -7   0  -2    3.98    0.23
   7   0   2    4.12    0.21
   7   0   2    4.47    0.21
  -8   0  -2    0.12    0.10
   8   0   2    0.30    0.09
  -9   0  -2    5.05    0.30
   9   0   2    5.10    0.31
   9   0   2    5.11    0.27
 -10   0  -2    0.89    0.16
  10   0   2    0.50    0.11
  10   0   2    0.77    0.17
 -11   0  -2    2.37    0.25
  11   0   2    2.06    0.20
  11   0   2    2.43    0.26
 -12   0  -2   -0.18    0.13
  12   0   2   -0.08    0.15
  11  -1  -2    0.48    0.13
  10  -1  -2    1.64    0.18
 -10   1   2    1.39    0.16
   9  -1  -2    2.40    0.24
   9  -1  -2    2.77    0.20
  -9   1   2    2.73    0.17
   8  -1  -2    2.96    0.19
  -8   1   2    3.42    0.19
   7  -1  -2    0.57    0.08
   7  -1  -2    0.58    0.09
  -7   1   2    0.60    0.09
   6  -1  -2    7.14    0.27
   6  -1  -2    7.15    0.28
  -6   1   2    7.22    0.27
  -6   1   2    7.88    0.27
   5  -1  -2   11.31    0.38
   5  -1  -2   11.32    0.38
  -5   1   2   11.24    0.37
  -5   1   2   12.15    0.37
   4  -1  -2   31.89    0.93
   4  -1  -2   31.74    0.93
  -4   1   2   30.90    0.93
  -4   1   2   33.03    0.93
   3  -1  -2   50.82    1.43
   3  -1  -2   50.03    1.45
   3  -1  -2   50.47    1.43
  -3   1   2   50.35    1.50
  -3   1   2   49.79    1.43
   2  -1  -2   12.38    0.37
   2  -1  -2   12.16    0.36
  -2   1   2   11.86    0.41
   1  -1  -2    4.28    0.17
  -1   1   2    4.20    0.18
   0  -1  -2  559.85   15.93
   0  -1  -2  554.10   15.93
   0   1   2  568.13   15.94
  -1  -1  -2  226.23    6.45
  -1  -1  -2  218.49    6.49
  -1  -1  -2  229.81    6.48
  -1  -1  -2  226.44    6.45
  -1  -1  -2  231.95    6.45
  -1  -1  -2  220.89    6.48
   1   1   2  214.98    6.50
   1   1   2  220.29    6.43
   1   1   2  245.77    6.48
   1   1   2  236.36    6.43
   1   1   2  233.83    6.43
  -2  -1  -2    5.35    0.19
  -2  -1  -2    5.09    0.20
  -2  -1  -2    5.44    0.19
  -2  -1  -2    5.65    0.21
   2   1   2    5.88    0.20
   2   1   2    5.84    0.19
  -3  -1  -2    2.97    0.15
  -3  -1  -2    2.80    0.13
  -3  -1  -2    2.89    0.15
  -3  -1  -2    3.03    0.10
  -3  -1  -2    2.89    0.13
   3   1   2    2.89    0.12
   3   1   2    2.82    0.12
  -4  -1  -2    5.38    0.23
  -4  -1  -2    5.42    0.18
  -4  -1  -2    5.56    0.21
  -4  -1  -2    5.75    0.21
   4   1   2    5.36    0.21
   4   1   2    5.57    0.21
  -5  -1  -2   20.17    0.65
  -5  -1  -2   19.30    0.62
  -5  -1  -2   20.20    0.60
   5   1   2   20.73    0.63
   5   1   2   20.12    0.63
  -6  -1  -2    4.20    0.22
  -6  -1  -2    3.76    0.18
   6   1   2    4.08    0.19
   6   1   2    3.99    0.19
  -7  -1  -2   10.76    0.44
  -7  -1  -2   12.38    0.41
   7   1   2   12.02    0.42
   7   1   2   11.20    0.42
  -8  -1  -2    6.21    0.32
   8   1   2    6.65    0.29
  -9  -1  -2   13.11    0.53
   9   1   2   13.38    0.50
 -10  -1  -2    2.79    0.25
  10   1   2    2.35    0.20
 -11  -1  -2    0.89    0.18
  11   1   2    1.11    0.21
 -12  -1  -2    3.00    0.29
  12   1   2    2.94    0.31
  11  -2  -2   -0.21    0.08
  10  -2  -2    1.02    0.14
   9  -2  -2    1.02    0.14
  -9   2   2    0.96    0.11
   8  -2  -2    1.96    0.19
   8  -2  -2    2.12    0.17
  -8   2   2    1.88    0.14
   7  -2  -2    0.93    0.11
   7  -2  -2    1.07    0.14
   7  -2  -2    1.03    0.11
  -7   2   2    0.86    0.10
   6  -2  -2    4.91    0.21
   6  -2  -2    4.87    0.24
   6  -2  -2    4.76    0.21
  -6   2   2    4.68    0.20
  -6   2   2    5.23    0.20
   5  -2  -2   18.02    0.56
   5  -2  -2   18.73    0.59
   5  -2  -2   17.71    0.56
  -5   2   2   18.80    0.56
  -5   2   2   17.38    0.55
   4  -2  -2   20.51    0.62
   4  -2  -2   20.19    0.60
   4  -2  -2   19.10    0.59
  -4   2   2   19.50    0.59
   3  -2  -2    3.14    0.14
   3  -2  -2    2.90    0.11
   3  -2  -2    3.08    0.11
  -3   2   2    2.89    0.11
   2  -2  -2   56.83    1.64
   2  -2  -2   59.16    1.64
   2  -2  -2   56.21    1.68
   1  -2  -2   11.00    0.37
   1  -2  -2   10.95    0.34
   1  -2  -2   11.57    0.34
   0  -2  -2  186.01    5.16
   0  -2  -2  186.72    5.14
   0  -2  -2  191.05    5.16
   0  -2  -2  176.53    5.23
   0  -2  -2  170.52    5.13
   0   2   2  178.72    5.15
   0   2   2  185.76    5.16
  -1  -2  -2  126.33    3.67
  -1  -2  -2  130.50    3.68
  -1  -2  -2  125.70    3.70
  -1  -2  -2  132.31    3.68
  -1  -2  -2  134.64    3.68
  -1  -2  -2  128.59    3.68
   1   2   2  137.72    3.68
   1   2   2  128.13    3.70
   1   2   2  129.72    3.67
   1   2   2  124.85    3.68
   1   2   2  133.07    3.67
  -2  -2  -2    0.35    0.06
  -2  -2  -2    0.31    0.06
  -2  -2  -2    0.32    0.04
  -2  -2  -2    0.37    0.05
   2   2   2    0.37    0.04
   2   2   2    0.29    0.06
   2   2   2    0.35    0.04
   2   2   2    0.29    0.06
  -3  -2  -2    4.80    0.20
  -3  -2  -2    5.10    0.18
  -3  -2  -2    4.50    0.18
  -3  -2  -2    4.64    0.20
   3   2   2    4.90    0.18
   3   2   2    4.31    0.20
   3   2   2    4.39    0.17
   3   2   2    4.87    0.20
  -4  -2  -2    3.35    0.13
  -4  -2  -2    3.11    0.17
  -4  -2  -2    3.34    0.15
  -4  -2  -2    3.28    0.15
   4   2   2    3.04    0.15
   4   2   2    3.44    0.18
   4   2   2    3.46    0.15
  -5  -2  -2    1.25    0.10
  -5  -2  -2    1.40    0.13
  -5  -2  -2    1.34    0.09
   5   2   2    1.40    0.14
   5   2   2    1.28    0.10
   5   2   2    1.38    0.10
  -6  -2  -2   10.28    0.41
  -6  -2  -2   11.19    0.36
   6   2   2   10.43    0.39
   6   2   2   10.75    0.43
   6   2   2   11.55    0.39
  -7  -2  -2   21.77    0.69
  -7  -2  -2   20.99    0.73
  -7  -2  -2   21.63    0.67
   7   2   2   21.26    0.70
   7   2   2   21.82    0.70
  -8  -2  -2    7.38    0.28
  -8  -2  -2    6.94    0.34
   8   2   2    7.19    0.31
  -9  -2  -2    3.79    0.27
   9   2   2    4.08    0.24
 -10  -2  -2    1.67    0.21
  10   2   2    2.12    0.20
 -11  -2  -2    0.92    0.18
 -12  -2  -2    0.44    0.17
  11  -3  -2    0.28    0.12
  10  -3  -2    0.05    0.09
   9  -3  -2    0.82    0.12
  -9   3   2    0.64    0.09
   8  -3  -2    2.18    0.18
   8  -3  -2    2.78    0.22
  -8   3   2    2.41    0.15
   7  -3  -2   13.38    0.48
   7  -3  -2   12.92    0.45
   7  -3  -2   12.67    0.45
  -7   3   2   12.47    0.42
   6  -3  -2    3.00    0.16
   6  -3  -2    2.76    0.15
   6  -3  -2    2.98    0.18
  -6   3   2    2.67    0.15
  -6   3   2    3.23    0.15
   5  -3  -2   13.95    0.47
   5  -3  -2   13.92    0.45
   5  -3  -2   13.46    0.45
  -5   3   2   13.65    0.44
  -5   3   2   15.05    0.44
   4  -3  -2   24.48    0.75
   4  -3  -2   25.00    0.82
   4  -3  -2   24.80    0.75
   4  -3  -2   26.36    0.77
  -4   3   2   24.50    0.74
  -4   3   2   25.78    0.74
   3  -3  -2   91.55    2.51
   3  -3  -2   86.52    2.49
   3  -3  -2   86.65    2.49
   3  -3  -2   87.04    2.56
  -3   3   2   86.41    2.49
   2  -3  -2   78.79    2.18
   2  -3  -2   76.44    2.16
   2  -3  -2   75.48    2.16
   2  -3  -2   77.97    2.17
   2  -3  -2   74.25    2.22
  -2   3   2   73.61    2.16
   1  -3  -2   60.73    1.71
   1  -3  -2   59.35    1.71
   1  -3  -2   57.78    1.75
   1  -3  -2   59.41    1.70
   1  -3  -2   59.22    1.70
  -1   3   2   57.78    1.70
  -1   3   2   62.22    1.75
  -1   3   2   62.05    1.70
   0  -3  -2    3.06    0.14
   0  -3  -2    3.21    0.14
   0  -3  -2    3.05    0.12
   0  -3  -2    3.21    0.14
   0  -3  -2    3.18    0.12
   0   3   2    2.99    0.15
   0   3   2    3.25    0.13
   0   3   2    3.13    0.13
  -1  -3  -2   96.71    2.73
  -1  -3  -2   95.55    2.73
  -1  -3  -2   94.65    2.76
  -1  -3  -2   97.27    2.74
  -1  -3  -2   95.08    2.73
  -1  -3  -2   95.92    2.75
  -1  -3  -2   98.82    2.75
   1   3   2  101.74    2.74
   1   3   2   93.33    2.76
   1   3   2   95.73    2.72
   1   3   2   93.81    2.74
  -2  -3  -2   90.01    2.60
  -2  -3  -2   94.31    2.62
  -2  -3  -2   91.89    2.60
  -2  -3  -2   93.52    2.62
   2   3   2   90.52    2.63
   2   3   2   87.96    2.60
   2   3   2   97.35    2.62
   2   3   2   85.13    2.61
  -3  -3  -2   52.70    1.60
  -3  -3  -2   55.98    1.60
  -3  -3  -2   54.90    1.62
  -3  -3  -2   56.67    1.62
   3   3   2   56.70    1.63
   3   3   2   54.26    1.61
  -4  -3  -2    9.08    0.31
  -4  -3  -2    8.56    0.33
  -4  -3  -2    8.99    0.31
   4   3   2    8.18    0.33
   4   3   2    8.79    0.31
   4   3   2    9.07    0.38
  -5  -3  -2   12.11    0.39
  -5  -3  -2   12.07    0.41
  -5  -3  -2   10.90    0.43
   5   3   2   11.42    0.43
   5   3   2   12.13    0.43
   5   3   2   12.13    0.41
  -6  -3  -2   16.03    0.54
  -6  -3  -2   16.60    0.57
  -6  -3  -2   16.46    0.52
   6   3   2   15.40    0.64
   6   3   2   16.51    0.55
  -7  -3  -2    0.08    0.06
  -7  -3  -2    0.11    0.05
  -7  -3  -2    0.17    0.10
   7   3   2   -0.10    0.12
   7   3   2    0.14    0.07
  -8  -3  -2    0.63    0.09
  -8  -3  -2    0.26    0.12
   8   3   2    0.79    0.11
   8   3   2    0.71    0.20
  -9  -3  -2    0.63    0.14
  -9  -3  -2    0.48    0.09
   9   3   2    0.60    0.11
 -10  -3  -2    2.70    0.26
 -11  -3  -2    0.55    0.17
 -12  -3  -2    0.10    0.15
  11  -4  -2    0.03    0.10
  10  -4  -2    0.87    0.15
   9  -4  -2    0.90    0.18
   9  -4  -2    1.08    0.14
   8  -4  -2    0.49    0.10
   8  -4  -2    0.31    0.13
   8  -4  -2    0.38    0.16
  -8   4   2    0.35    0.08
   7  -4  -2   10.52    0.39
   7  -4  -2    9.80    0.39
   7  -4  -2   10.67    0.47
   7  -4  -2   10.80    0.42
  -7   4   2   10.59    0.36
   6  -4  -2   12.56    0.51
   6  -4  -2   13.06    0.44
   6  -4  -2   13.33    0.47
   6  -4  -2   12.77    0.44
  -6   4   2   12.80    0.42
   5  -4  -2    8.43    0.31
   5  -4  -2    8.49    0.38
   5  -4  -2    8.40    0.33
   5  -4  -2    8.82    0.31
  -5   4   2    9.15    0.31
  -5   4   2    8.69    0.30
   4  -4  -2   19.25    0.68
   4  -4  -2   19.75    0.61
   4  -4  -2   20.85    0.63
   4  -4  -2   19.84    0.61
  -4   4   2   19.34    0.60
   3  -4  -2   12.98    0.41
   3  -4  -2   12.85    0.41
   3  -4  -2   12.72    0.47
   3  -4  -2   13.06    0.42
  -3   4   2   12.45    0.40
   2  -4  -2   65.90    1.87
   2  -4  -2   64.72    1.85
   2  -4  -2   62.41    1.91
   2  -4  -2   63.50    1.85
  -2   4   2   68.58    1.86
  -2   4   2   62.41    1.85
   1  -4  -2   21.36    0.64
   1  -4  -2   21.01    0.63
   1  -4  -2   20.65    0.68
   1  -4  -2   20.73    0.63
   1  -4  -2   20.88    0.64
  -1   4   2   19.96    0.63
  -1   4   2   21.56    0.68
  -1   4   2   21.72    0.63
   0  -4  -2   18.67    0.62
   0  -4  -2   19.12    0.57
   0  -4  -2   18.45    0.57
   0  -4  -2   19.74    0.59
   0  -4  -2   19.50    0.59
   0   4   2   18.98    0.58
   0   4   2   18.96    0.61
   0   4   2   17.98    0.58
  -1  -4  -2   35.39    1.05
  -1  -4  -2   34.04    1.03
  -1  -4  -2   34.47    1.03
  -1  -4  -2   34.39    1.05
  -1  -4  -2   35.48    1.04
   1   4   2   37.99    1.05
   1   4   2   35.00    1.04
   1   4   2   35.67    1.02
   1   4   2   35.43    1.07
   1   4   2   34.39    1.05
  -2  -4  -2   45.45    1.31
  -2  -4  -2   45.48    1.31
  -2  -4  -2   43.58    1.32
  -2  -4  -2   46.18    1.33
   2   4   2   42.50    1.32
   2   4   2   45.32    1.32
   2   4   2   43.75    1.34
   2   4   2   44.19    1.32
   2   4   2   46.14    1.30
  -3  -4  -2    2.17    0.15
  -3  -4  -2    2.02    0.12
  -3  -4  -2    2.10    0.12
   3   4   2    1.74    0.15
  -4  -4  -2   74.32    2.04
  -4  -4  -2   67.99    2.06
  -4  -4  -2   69.40    2.04
   4   4   2   67.79    2.06
   4   4   2   71.02    2.04
  -5  -4  -2    4.57    0.20
  -5  -4  -2    4.31    0.23
   5   4   2    4.21    0.24
   5   4   2    4.16    0.20
  -6  -4  -2    2.81    0.16
  -6  -4  -2    2.43    0.16
  -6  -4  -2    2.15    0.19
   6   4   2    2.43    0.20
   6   4   2    2.46    0.16
  -7  -4  -2    4.39    0.27
  -7  -4  -2    4.60    0.22
   7   4   2    4.04    0.29
   7   4   2    4.61    0.23
  -8  -4  -2    0.60    0.14
  -8  -4  -2    0.62    0.09
   8   4   2    0.49    0.17
   8   4   2    0.40    0.09
  -9  -4  -2    1.90    0.22
  -9  -4  -2    1.49    0.14
   9   4   2    2.01    0.27
   9   4   2    1.42    0.16
 -10  -4  -2    1.53    0.21
 -11  -4  -2   -0.21    0.13
 -12  -4  -2    2.76    0.30
  10  -5  -2    0.46    0.12
   9  -5  -2    2.08    0.19
   9  -5  -2    1.69    0.25
   8  -5  -2    3.70    0.23
   8  -5  -2    3.73    0.29
  -8   5   2    3.95    0.19
   7  -5  -2    0.37    0.09
   7  -5  -2    0.58    0.13
   7  -5  -2    0.27    0.11
  -7   5   2    0.38    0.08
   6  -5  -2    2.14    0.16
   6  -5  -2    2.82    0.20
   6  -5  -2    2.41    0.16
   6  -5  -2    2.35    0.22
  -6   5   2    2.46    0.15
   5  -5  -2    4.51    0.27
   5  -5  -2    4.88    0.21
   5  -5  -2    4.68    0.24
   5  -5  -2    4.61    0.21
  -5   5   2    4.49    0.20
   4  -5  -2    2.03    0.15
   4  -5  -2    1.98    0.15
   4  -5  -2    1.87    0.17
   4  -5  -2    1.75    0.12
   4  -5  -2    1.91    0.12
  -4   5   2    1.87    0.13
   3  -5  -2    1.66    0.11
   3  -5  -2    1.63    0.16
   3  -5  -2    1.74    0.14
   3  -5  -2    1.77    0.11
   3  -5  -2    1.84    0.14
  -3   5   2    1.63    0.12
  -3   5   2    1.76    0.11
   2  -5  -2   13.73    0.46
   2  -5  -2   13.94    0.44
   2  -5  -2   13.11    0.44
   2  -5  -2   12.80    0.49
   2  -5  -2   14.15    0.46
  -2   5   2   14.16    0.50
  -2   5   2   14.48    0.45
  -2   5   2   13.15    0.44
   1  -5  -2   44.18    1.29
   1  -5  -2   43.42    1.29
   1  -5  -2   44.98    1.31
   1  -5  -2   45.56    1.31
  -1   5   2   44.79    1.30
  -1   5   2   42.80    1.30
  -1   5   2   43.33    1.34
   0  -5  -2   12.66    0.45
   0  -5  -2   13.17    0.43
   0  -5  -2   12.99    0.47
   0  -5  -2   13.40    0.43
   0  -5  -2   13.85    0.45
   0   5   2   13.34    0.44
   0   5   2   13.97    0.44
   0   5   2   13.41    0.47
   0   5   2   12.76    0.44
  -1  -5  -2   32.06    0.96
  -1  -5  -2   32.30    0.97
  -1  -5  -2   32.08    0.98
  -1  -5  -2   33.74    0.99
  -1  -5  -2   31.86    0.97
   1   5   2   32.15    1.00
   1   5   2   33.56    0.98
   1   5   2   31.52    0.97
   1   5   2   31.97    0.95
   1   5   2   31.14    0.98
  -2  -5  -2   77.65    2.26
  -2  -5  -2   79.57    2.28
  -2  -5  -2   78.59    2.26
   2   5   2   77.22    2.25
   2   5   2   78.68    2.27
   2   5   2   78.69    2.30
   2   5   2   76.54    2.27
  -3  -5  -2   38.59    1.22
  -3  -5  -2   41.50    1.20
  -3  -5  -2   41.16    1.20
   3   5   2   39.77    1.22
   3   5   2   38.34    1.19
   3   5   2   41.22    1.22
  -4  -5  -2   24.16    0.74
  -4  -5  -2   22.54    0.76
  -4  -5  -2   23.31    0.74
   4   5   2   23.72    0.74
   4   5   2   22.86    0.76
  -5  -5  -2   12.59    0.49
  -5  -5  -2   13.20    0.46
   5   5   2   12.82    0.49
   5   5   2   13.37    0.46
  -6  -5  -2    4.97    0.23
  -6  -5  -2    4.94    0.27
  -6  -5  -2    4.91    0.24
   6   5   2    4.97    0.29
   6   5   2    5.21    0.24
  -7  -5  -2    4.75    0.29
  -7  -5  -2    5.02    0.25
   7   5   2    5.06    0.25
   7   5   2    4.93    0.31
  -8  -5  -2    2.35    0.24
  -8  -5  -2    2.43    0.18
   8   5   2    2.66    0.25
   8   5   2    2.04    0.18
  -9  -5  -2    0.56    0.10
  -9  -5  -2    0.68    0.16
   9   5   2    0.56    0.20
 -10  -5  -2   -0.04    0.14
  10   5   2    0.00    0.21
 -11  -5  -2    0.87    0.20
   9  -6  -2    1.24    0.15
   8  -6  -2    0.44    0.14
   8  -6  -2    0.32    0.10
  -8   6   2    0.52    0.14
   7  -6  -2    1.95    0.17
   7  -6  -2    1.91    0.22
   7  -6  -2    1.96    0.22
  -7   6   2    2.16    0.16
   6  -6  -2    3.88    0.21
   6  -6  -2    3.66    0.24
   6  -6  -2    3.44    0.20
   6  -6  -2    3.69    0.27
  -6   6   2    3.97    0.20
   5  -6  -2    1.21    0.12
   5  -6  -2    1.40    0.17
   5  -6  -2    1.46    0.15
   5  -6  -2    1.48    0.13
  -5   6   2    1.46    0.13
   4  -6  -2   28.13    0.95
   4  -6  -2   28.34    0.87
   4  -6  -2   28.90    0.89
   4  -6  -2   27.24    0.86
  -4   6   2   27.62    0.86
   3  -6  -2    3.82    0.24
   3  -6  -2    3.98    0.19
   3  -6  -2    3.97    0.22
   3  -6  -2    4.18    0.19
  -3   6   2    4.06    0.20
  -3   6   2    4.35    0.19
   2  -6  -2   24.88    0.84
   2  -6  -2   25.20    0.78
   2  -6  -2   25.89    0.80
   2  -6  -2   25.19    0.78
  -2   6   2   26.26    0.79
  -2   6   2   24.55    0.78
   1  -6  -2   73.82    2.10
   1  -6  -2   73.32    2.10
   1  -6  -2   69.86    2.11
   1  -6  -2   71.72    2.16
  -1   6   2   72.89    2.15
  -1   6   2   69.23    2.10
  -1   6   2   75.19    2.10
   0  -6  -2   21.72    0.71
   0  -6  -2   21.23    0.74
   0  -6  -2   21.77    0.69
   0  -6  -2   22.18    0.69
   0   6   2   23.64    0.70
   0   6   2   21.85    0.73
   0   6   2   22.18    0.69
   0   6   2   20.95    0.70
  -1  -6  -2    3.19    0.16
  -1  -6  -2    2.83    0.16
  -1  -6  -2    3.14    0.19
  -1  -6  -2    3.13    0.16
   1   6   2    3.21    0.19
   1   6   2    2.83    0.18
   1   6   2    3.03    0.14
   1   6   2    3.03    0.18
  -2  -6  -2   13.73    0.47
  -2  -6  -2   13.69    0.49
  -2  -6  -2   14.08    0.47
   2   6   2   13.63    0.45
   2   6   2   14.48    0.51
   2   6   2   13.64    0.49
   2   6   2   13.48    0.48
  -3  -6  -2    7.48    0.33
  -3  -6  -2    8.08    0.31
  -3  -6  -2    7.84    0.30
   3   6   2    7.59    0.29
   3   6   2    7.36    0.33
   3   6   2    7.53    0.33
  -4  -6  -2   10.69    0.39
  -4  -6  -2   10.71    0.42
   4   6   2   10.45    0.42
  -5  -6  -2    3.31    0.24
  -5  -6  -2    3.63    0.19
   5   6   2    3.47    0.19
   5   6   2    3.36    0.25
  -6  -6  -2    2.27    0.16
  -6  -6  -2    2.49    0.23
   6   6   2    2.10    0.16
   6   6   2    2.66    0.24
  -7  -6  -2    3.34    0.27
  -7  -6  -2    3.31    0.21
   7   6   2    3.75    0.30
   7   6   2    2.56    0.29
  -8  -6  -2    3.35    0.29
  -8  -6  -2    3.44    0.22
   8   6   2    3.62    0.32
  -9  -6  -2    1.89    0.21
  -9  -6  -2    1.93    0.23
   9   6   2    1.93    0.24
 -10  -6  -2    2.52    0.27
  10   6   2    2.09    0.30
 -11  -6  -2    0.09    0.17
  11   6   2    0.10    0.27
   9  -7  -2    1.25    0.16
   8  -7  -2    2.24    0.28
   8  -7  -2    1.68    0.18
   7  -7  -2    4.01    0.31
   7  -7  -2    3.51    0.23
  -7   7   2    3.46    0.19
   6  -7  -2   10.44    0.41
   6  -7  -2   10.18    0.49
   6  -7  -2   10.81    0.45
  -6   7   2   11.01    0.39
   5  -7  -2    9.76    0.40
   5  -7  -2   10.38    0.47
   5  -7  -2   10.57    0.42
   5  -7  -2   10.13    0.39
  -5   7   2   10.30    0.38
   4  -7  -2    0.75    0.10
   4  -7  -2    0.69    0.10
   4  -7  -2    0.76    0.13
   4  -7  -2    0.73    0.14
  -4   7   2    0.66    0.10
   3  -7  -2   19.92    0.65
   3  -7  -2   20.45    0.65
   3  -7  -2   20.15    0.72
   3  -7  -2   19.79    0.68
  -3   7   2   19.41    0.65
   2  -7  -2   12.39    0.49
   2  -7  -2   12.02    0.43
   2  -7  -2   12.60    0.43
   2  -7  -2   12.01    0.45
  -2   7   2   11.40    0.43
  -2   7   2   12.45    0.43
   1  -7  -2   14.72    0.51
   1  -7  -2   14.65    0.49
   1  -7  -2   13.88    0.54
   1  -7  -2   13.74    0.48
  -1   7   2   13.73    0.49
  -1   7   2   14.44    0.49
   0  -7  -2   13.93    0.48
   0  -7  -2   14.64    0.49
   0  -7  -2   14.35    0.51
   0   7   2   13.92    0.49
   0   7   2   13.79    0.50
  -1  -7  -2    7.76    0.31
  -1  -7  -2    8.06    0.31
  -1  -7  -2    8.27    0.34
   1   7   2    7.59    0.33
   1   7   2    7.44    0.32
  -2  -7  -2    2.92    0.21
  -2  -7  -2    2.99    0.17
  -2  -7  -2    2.95    0.17
   2   7   2    2.65    0.20
   2   7   2    2.75    0.20
   2   7   2    2.67    0.15
  -3  -7  -2   12.75    0.49
  -3  -7  -2   13.57    0.47
  -3  -7  -2   13.10    0.46
   3   7   2   12.02    0.49
   3   7   2   12.72    0.48
   3   7   2   12.96    0.45
  -4  -7  -2    2.90    0.23
  -4  -7  -2    3.23    0.19
   4   7   2    2.76    0.23
   4   7   2    3.43    0.24
  -5  -7  -2   18.94    0.62
  -5  -7  -2   19.31    0.66
   5   7   2   17.33    0.66
   5   7   2   14.68    0.65
  -6  -7  -2    5.90    0.34
   6   7   2    5.76    0.35
  -7  -7  -2    5.24    0.29
  -7  -7  -2    5.05    0.34
   7   7   2    5.16    0.37
  -8  -7  -2    0.69    0.13
  -8  -7  -2    0.44    0.16
   8   7   2    0.38    0.18
  -9  -7  -2    1.34    0.22
   9   7   2    0.94    0.22
 -10  -7  -2    0.25    0.18
  10   7   2   -0.05    0.19
 -11  -7  -2    0.32    0.20
  11   7   2    0.09    0.26
   9  -8  -2    0.27    0.11
   8  -8  -2    1.97    0.20
   7  -8  -2    1.79    0.23
   7  -8  -2    1.55    0.17
  -7   8   2    2.07    0.16
   6  -8  -2    2.15    0.19
   6  -8  -2    1.95    0.23
   6  -8  -2    2.06    0.24
  -6   8   2    2.05    0.17
   5  -8  -2    6.36    0.30
   5  -8  -2    6.72    0.34
   5  -8  -2    6.50    0.38
  -5   8   2    6.57    0.30
   4  -8  -2   17.58    0.61
   4  -8  -2   17.37    0.64
   4  -8  -2   18.17    0.69
  -4   8   2   17.19    0.59
   3  -8  -2    6.76    0.32
   3  -8  -2    6.05    0.35
   3  -8  -2    6.34    0.29
   3  -8  -2    6.94    0.33
  -3   8   2    6.94    0.30
   2  -8  -2    1.90    0.19
   2  -8  -2    1.90    0.15
   2  -8  -2    1.94    0.15
   2  -8  -2    1.87    0.20
  -2   8   2    1.41    0.15
   1  -8  -2   21.89    0.71
   1  -8  -2   21.71    0.78
   1  -8  -2   21.26    0.71
   1  -8  -2   21.50    0.73
  -1   8   2   21.77    0.71
  -1   8   2   21.22    0.72
   0  -8  -2   22.01    0.75
   0  -8  -2   22.21    0.73
   0  -8  -2   22.76    0.73
   0   8   2   21.88    0.73
   0   8   2   21.99    0.74
  -1  -8  -2   27.59    0.89
  -1  -8  -2   28.41    0.90
  -1  -8  -2   28.74    0.93
   1   8   2   27.25    0.91
   1   8   2   28.04    0.90
  -2  -8  -2   26.86    0.88
  -2  -8  -2   27.83    0.91
   2   8   2   27.82    0.90
   2   8   2   26.68    0.90
  -3  -8  -2    1.69    0.19
  -3  -8  -2    1.57    0.15
   3   8   2    2.10    0.22
   3   8   2    1.65    0.18
  -4  -8  -2   13.13    0.54
  -4  -8  -2   12.86    0.49
   4   8   2   14.30    0.55
   4   8   2   13.11    0.53
  -5  -8  -2   10.30    0.47
  -5  -8  -2   10.59    0.44
   5   8   2   10.33    0.48
  -6  -8  -2    7.21    0.40
   6   8   2    7.79    0.42
  -7  -8  -2    3.30    0.30
  -7  -8  -2    2.34    0.22
   7   8   2    2.97    0.30
  -8  -8  -2    0.90    0.16
  -8  -8  -2    1.24    0.22
   8   8   2    1.15    0.23
  -9  -8  -2    0.43    0.19
   9   8   2    0.60    0.21
 -10  -8  -2    0.46    0.20
  10   8   2    0.56    0.22
   8  -9  -2    0.24    0.11
   7  -9  -2    0.76    0.14
   6  -9  -2    1.61    0.22
   6  -9  -2    1.45    0.17
  -6   9   2    1.58    0.16
   5  -9  -2    4.76    0.27
   5  -9  -2    4.53    0.34
   5  -9  -2    4.69    0.31
  -5   9   2    4.78    0.26
   4  -9  -2    3.03    0.21
   4  -9  -2    2.93    0.27
   4  -9  -2    2.89    0.25
  -4   9   2    2.66    0.21
   3  -9  -2    4.25    0.28
   3  -9  -2    4.47    0.25
   3  -9  -2    4.70    0.32
  -3   9   2    4.54    0.27
   2  -9  -2    0.29    0.09
   2  -9  -2    0.15    0.11
   2  -9  -2    0.15    0.11
  -2   9   2    0.10    0.10
   1  -9  -2    0.55    0.14
   1  -9  -2    0.67    0.11
  -1   9   2    0.63    0.12
  -1   9   2    0.56    0.13
   0  -9  -2    9.64    0.44
   0  -9  -2   10.00    0.40
   0  -9  -2   10.13    0.41
   0   9   2   10.15    0.43
   0   9   2   10.62    0.42
  -1  -9  -2    3.39    0.21
  -1  -9  -2    3.52    0.26
   1   9   2    3.86    0.25
   1   9   2    3.72    0.26
  -2  -9  -2    2.68    0.19
  -2  -9  -2    2.35    0.22
   2   9   2    2.61    0.24
   2   9   2    2.91    0.26
  -3  -9  -2   20.39    0.76
  -3  -9  -2   21.24    0.72
   3   9   2   20.65    0.74
   3   9   2   21.00    0.76
  -4  -9  -2    1.70    0.22
  -4  -9  -2    1.80    0.17
   4   9   2    2.10    0.24
   4   9   2    1.75    0.22
  -5  -9  -2    0.45    0.16
   5   9   2    0.41    0.17
  -6  -9  -2    3.33    0.31
   6   9   2    3.06    0.29
  -7  -9  -2    1.88    0.26
  -7  -9  -2    1.71    0.21
   7   9   2    1.79    0.25
  -8  -9  -2    3.22    0.27
  -8  -9  -2    3.20    0.34
   8   9   2    3.05    0.32
  -9  -9  -2    0.28    0.20
   9   9   2    0.30    0.20
  10   9   2   -0.01    0.20
   7 -10  -2    1.24    0.18
   6 -10  -2    1.69    0.19
  -6  10   2    2.25    0.20
   5 -10  -2    1.06    0.16
   5 -10  -2    1.09    0.20
  -5  10   2    0.94    0.15
   4 -10  -2    2.86    0.26
   4 -10  -2    2.54    0.22
   4 -10  -2    2.49    0.28
  -4  10   2    2.57    0.23
   3 -10  -2    6.78    0.41
   3 -10  -2    6.59    0.33
   3 -10  -2    6.90    0.38
  -3  10   2    6.96    0.35
   2 -10  -2   15.19    0.64
   2 -10  -2   14.00    0.55
   2 -10  -2   14.19    0.58
  -2  10   2   14.55    0.56
   1 -10  -2    3.75    0.24
   1 -10  -2    3.71    0.29
  -1  10   2    3.91    0.24
  -1  10   2    3.89    0.27
   0 -10  -2    3.49    0.23
   0 -10  -2    3.62    0.28
   0 -10  -2    3.64    0.23
   0  10   2    3.62    0.28
   0  10   2    3.55    0.25
  -1 -10  -2    9.83    0.46
  -1 -10  -2    9.72    0.40
   1  10   2    8.86    0.42
   1  10   2    9.44    0.44
  -2 -10  -2   16.56    0.60
  -2 -10  -2   16.02    0.65
   2  10   2   15.89    0.62
   2  10   2   15.77    0.64
  -3 -10  -2    6.29    0.32
  -3 -10  -2    5.34    0.36
   3  10   2    5.39    0.36
   3  10   2    5.53    0.34
  -4 -10  -2    5.20    0.36
   4  10   2    5.70    0.35
   4  10   2    5.91    0.39
  -5 -10  -2    1.20    0.21
   5  10   2    1.31    0.23
  -6 -10  -2    1.59    0.24
   6  10   2    1.28    0.23
  -7 -10  -2    2.65    0.27
  -7 -10  -2    2.64    0.31
   7  10   2    2.32    0.29
  -8 -10  -2    0.87    0.25
  -8 -10  -2    0.93    0.24
   8  10   2    0.92    0.24
   9  10   2   -0.10    0.18
   6 -11  -2    0.79    0.15
   5 -11  -2    2.18    0.22
  -5  11   2    2.58    0.22
   4 -11  -2    3.61    0.26
   4 -11  -2    3.63    0.41
  -4  11   2    3.21    0.27
   3 -11  -2    5.92    0.39
   3 -11  -2    6.10    0.41
   3 -11  -2    5.47    0.32
  -3  11   2    5.88    0.34
   2 -11  -2    6.42    0.33
   2 -11  -2    6.01    0.38
  -2  11   2    5.91    0.34
   1 -11  -2    4.80    0.29
   1 -11  -2    5.24    0.36
   1 -11  -2    4.39    0.28
  -1  11   2    5.40    0.33
   0 -11  -2    4.45    0.33
   0 -11  -2    4.51    0.27
   0  11   2    4.48    0.32
   0  11   2    4.30    0.28
  -1 -11  -2    1.64    0.19
  -1 -11  -2    1.55    0.22
   1  11   2    1.55    0.22
   1  11   2    1.52    0.22
  -2 -11  -2    0.32    0.16
   2  11   2    0.84    0.18
   2  11   2    0.74    0.18
  -3 -11  -2    0.83    0.19
   3  11   2    0.87    0.20
   3  11   2    1.20    0.21
  -4 -11  -2    2.17    0.27
   4  11   2    2.45    0.28
   4  11   2    2.52    0.28
  -5 -11  -2    1.19    0.22
   5  11   2    1.22    0.24
  -6 -11  -2    2.31    0.30
   6  11   2    1.95    0.29
  -7 -11  -2    0.65    0.18
  -7 -11  -2    0.63    0.21
   7  11   2    0.59    0.22
   8  11   2    0.53    0.23
   4 -12  -2    1.34    0.18
  -4  12   2    1.39    0.19
   3 -12  -2    2.17    0.27
   3 -12  -2    2.03    0.21
  -3  12   2    2.21    0.23
   2 -12  -2    2.47    0.23
   2 -12  -2    2.27    0.22
   2 -12  -2    2.24    0.27
  -2  12   2    2.06    0.23
   1 -12  -2    2.93    0.24
   1 -12  -2    3.11    0.30
   1 -12  -2    3.08    0.25
  -1  12   2    2.77    0.27
   0 -12  -2    3.02    0.30
   0  12   2    2.98    0.29
  -1 -12  -2    2.38    0.27
   1  12   2    2.76    0.29
  -2 -12  -2    1.67    0.25
   2  12   2    1.18    0.22
   2  12   2    1.65    0.23
  -3 -12  -2    3.76    0.35
   3  12   2    3.56    0.34
   3  12   2    3.37    0.33
  -4 -12  -2    5.32    0.41
   4  12   2    4.56    0.39
  -5 -12  -2    1.86    0.29
   5  12   2    1.73    0.28
  -6 -12  -2    0.69    0.22
   6  12   2    0.81    0.24
   2 -13  -2    3.72    0.36
  -2  13   2    3.84    0.33
   1 -13  -2    1.22    0.23
  -1  13   2    1.18    0.20
   0 -13  -2    1.37    0.24
   0  13   2    1.69    0.25
  -1 -13  -2    2.57    0.32
   1  13   2    2.48    0.29
  -2 -13  -2    0.91    0.23
   2  13   2    0.67    0.21
  -3 -13  -2    1.47    0.26
   3  13   2    1.48    0.27
   4  13   2    1.16    0.25
   1  13  -3    1.33    0.26
   0  13  -3    4.80    0.41
   0  13  -3    5.66    0.48
   0 -13   3    5.54    0.46
  -1  13  -3    2.25    0.30
  -1  13  -3    3.31    0.36
   1 -13   3    2.36    0.31
  -2  13  -3    0.55    0.21
  -2  13  -3    0.83    0.23
   2 -13   3    1.22    0.25
  -3  13  -3    1.32    0.26
   4  12  -3    2.19    0.32
   3  12  -3    6.05    0.47
   3  12  -3    6.50    0.45
  -3 -12   3    6.99    0.48
   2  12  -3    6.05    0.43
   2  12  -3    7.15    0.49
  -2 -12   3    6.14    0.44
   1  12  -3    6.86    0.49
   1  12  -3    6.37    0.44
  -1 -12   3    7.71    0.48
   0  12  -3    2.35    0.30
   0  12  -3    2.19    0.30
   0 -12   3    1.85    0.27
  -1  12  -3    3.82    0.36
  -1  12  -3    3.07    0.33
   1 -12   3    2.79    0.32
  -2  12  -3    6.66    0.45
  -2  12  -3    5.91    0.42
   2 -12   3    6.31    0.44
  -3  12  -3    1.81    0.25
  -3  12  -3    1.39    0.24
   3 -12   3    1.33    0.25
  -4  12  -3    1.41    0.24
  -4  12  -3    1.92    0.27
   4 -12   3    1.56    0.27
  -5  12  -3    2.25    0.29
   5 -12   3    2.17    0.30
   5  11  -3    0.29    0.21
   5  11  -3    0.17    0.19
  -5 -11   3    0.18    0.17
  -5 -11   3    0.16    0.17
   4  11  -3    1.81    0.28
   4  11  -3    1.38    0.25
  -4 -11   3    1.84    0.26
  -4 -11   3    1.46    0.24
   3  11  -3    1.10    0.24
   3  11  -3    1.29    0.24
  -3 -11   3    1.19    0.23
   2  11  -3    4.63    0.37
   2  11  -3    4.04    0.36
  -2 -11   3    5.20    0.39
   1  11  -3    3.66    0.34
   1  11  -3    4.02    0.36
  -1 -11   3    4.10    0.36
   0  11  -3    7.76    0.44
   0  11  -3    7.43    0.43
   0 -11   3    6.69    0.43
  -1  11  -3    1.70    0.23
  -1  11  -3    2.05    0.28
   1 -11   3    1.92    0.25
  -2  11  -3    3.80    0.34
  -2  11  -3    3.53    0.33
   2 -11   3    3.53    0.34
  -3  11  -3    4.32    0.36
  -3  11  -3    4.00    0.33
   3 -11   3    4.34    0.37
  -4  11  -3    1.13    0.21
  -4  11  -3    1.03    0.21
   4 -11   3    1.08    0.22
  -5  11  -3    1.33    0.22
  -5  11  -3    1.91    0.25
   5 -11   3    1.64    0.25
  -6  11  -3    4.36    0.38
   6 -11   3    4.55    0.40
  -7  11  -3    0.57    0.20
   7 -11   3    0.40    0.19
   6  10  -3    2.78    0.32
   6  10  -3    2.67    0.33
  -6 -10   3    2.57    0.32
  -6 -10   3    2.59    0.29
   5  10  -3    1.10    0.23
   5  10  -3    1.04    0.24
  -5 -10   3    1.02    0.23
  -5 -10   3    1.15    0.21
   4  10  -3    1.24    0.23
   4  10  -3    1.50    0.26
  -4 -10   3    1.33    0.21
  -4 -10   3    1.65    0.25
   3  10  -3    6.34    0.40
   3  10  -3    6.99    0.42
  -3 -10   3    6.02    0.40
   2  10  -3    3.82    0.32
   2  10  -3    4.29    0.36
  -2 -10   3    4.05    0.33
   1  10  -3    3.50    0.31
   1  10  -3    3.52    0.32
  -1 -10   3    3.48    0.30
   0  10  -3    9.17    0.46
   0  10  -3    8.48    0.45
   0 -10   3    8.78    0.45
  -1  10  -3   10.34    0.50
  -1  10  -3   11.03    0.50
   1 -10   3   10.20    0.50
  -2  10  -3    4.42    0.34
  -2  10  -3    4.67    0.34
   2 -10   3    4.87    0.34
  -3  10  -3    8.03    0.43
  -3  10  -3    8.03    0.43
   3 -10   3    7.68    0.43
  -4  10  -3    4.26    0.32
  -4  10  -3    4.51    0.34
   4 -10   3    4.45    0.35
  -5  10  -3    2.72    0.28
  -5  10  -3    2.97    0.29
   5 -10   3    2.90    0.29
  -6  10  -3    1.82    0.25
  -6  10  -3    1.75    0.22
   6 -10   3    1.49    0.24
  -7  10  -3    5.13    0.39
   7 -10   3    4.28    0.39
  -8  10  -3    1.81    0.25
   8 -10   3    1.67    0.27
   7   9  -3    0.04    0.19
   7   9  -3    0.68    0.21
  -7  -9   3    0.30    0.17
  -7  -9   3    0.26    0.16
   6   9  -3    1.16    0.23
   6   9  -3    0.72    0.20
  -6  -9   3    0.94    0.21
  -6  -9   3    1.07    0.20
   5   9  -3    3.13    0.31
   5   9  -3    3.39    0.32
  -5  -9   3    2.39    0.26
  -5  -9   3    3.29    0.33
   4   9  -3    1.11    0.21
   4   9  -3    1.70    0.24
  -4  -9   3    1.36    0.20
  -4  -9   3    1.44    0.22
   3   9  -3    0.18    0.15
   3   9  -3    0.45    0.16
  -3  -9   3    0.25    0.13
   2   9  -3    1.05    0.20
   2   9  -3    1.15    0.19
  -2  -9   3    1.11    0.18
   1   9  -3    2.35    0.26
   1   9  -3    1.80    0.21
  -1  -9   3    1.70    0.20
   0   9  -3    4.26    0.31
   0   9  -3    5.05    0.32
   0  -9   3    4.85    0.31
  -1   9  -3   12.34    0.54
  -1   9  -3   13.19    0.55
   1  -9   3   13.55    0.55
  -2   9  -3   13.70    0.56
  -2   9  -3   13.85    0.57
   2  -9   3   13.17    0.56
  -3   9  -3   12.70    0.55
  -3   9  -3   13.66    0.55
   3  -9   3   13.38    0.56
  -4   9  -3   13.00    0.56
  -4   9  -3   12.84    0.54
   4  -9   3   13.09    0.56
  -5   9  -3    4.35    0.31
  -5   9  -3    5.00    0.34
   5  -9   3    4.75    0.33
  -6   9  -3    2.25    0.25
  -6   9  -3    1.99    0.24
   6  -9   3    2.30    0.22
   6  -9   3    1.96    0.24
  -7   9  -3    1.14    0.19
  -7   9  -3    0.94    0.19
   7  -9   3    1.00    0.16
   7  -9   3    0.90    0.20
  -8   9  -3    2.34    0.26
   8  -9   3    2.14    0.28
   8  -9   3    1.61    0.27
  -9   9  -3    1.83    0.24
   9  -9   3    1.90    0.27
   8   8  -3   -0.01    0.17
  -8  -8   3   -0.09    0.12
  -8  -8   3   -0.04    0.13
   7   8  -3    3.56    0.33
   7   8  -3    2.36    0.29
  -7  -8   3    3.01    0.32
  -7  -8   3    3.29    0.29
   6   8  -3    3.75    0.33
   6   8  -3    2.97    0.30
  -6  -8   3    3.14    0.30
  -6  -8   3    3.17    0.29
   5   8  -3    3.10    0.28
   5   8  -3    2.67    0.22
   5   8  -3    3.27    0.29
  -5  -8   3    3.00    0.27
  -5  -8   3    3.06    0.28
   4   8  -3    4.96    0.34
   4   8  -3    4.95    0.27
   4   8  -3    5.01    0.33
  -4  -8   3    4.87    0.33
  -4  -8   3    4.55    0.31
   3   8  -3    8.53    0.41
   3   8  -3    8.54    0.42
   3   8  -3    8.20    0.36
  -3  -8   3    8.11    0.40
   2   8  -3    5.08    0.26
   2   8  -3    4.98    0.31
   2   8  -3    5.20    0.31
  -2  -8   3    4.81    0.30
   1   8  -3   37.12    1.21
   1   8  -3   37.70    1.18
   1   8  -3   37.44    1.22
  -1  -8   3   37.93    1.21
   0   8  -3   14.92    0.59
   0   8  -3   15.69    0.59
   0   8  -3   15.36    0.55
   0  -8   3   14.96    0.58
  -1   8  -3   13.16    0.53
  -1   8  -3   13.04    0.53
  -1   8  -3   12.85    0.48
   1  -8   3   13.31    0.53
   1  -8   3   12.83    0.48
   1  -8   3   13.55    0.48
  -2   8  -3   10.34    0.41
  -2   8  -3   10.42    0.45
  -2   8  -3   10.41    0.45
   2  -8   3   10.50    0.45
   2  -8   3   10.44    0.41
  -3   8  -3   32.15    1.05
  -3   8  -3   31.65    1.06
   3  -8   3   32.37    1.02
   3  -8   3   32.15    1.06
  -4   8  -3   14.74    0.58
  -4   8  -3   14.71    0.59
   4  -8   3   14.68    0.59
   4  -8   3   15.12    0.55
  -5   8  -3    3.17    0.27
  -5   8  -3    2.94    0.26
   5  -8   3    3.27    0.23
   5  -8   3    3.22    0.27
   5  -8   3    3.40    0.22
  -6   8  -3    2.77    0.26
  -6   8  -3    2.04    0.23
   6  -8   3    2.50    0.21
   6  -8   3    2.29    0.19
   6  -8   3    2.51    0.26
  -7   8  -3    2.78    0.26
  -7   8  -3    3.56    0.28
   7  -8   3    3.33    0.24
   7  -8   3    2.45    0.22
   7  -8   3    3.51    0.31
  -8   8  -3    2.35    0.25
  -8   8  -3    2.47    0.26
   8  -8   3    2.29    0.27
   8  -8   3    2.21    0.22
  -9   8  -3    3.22    0.29
   9  -8   3    2.74    0.34
   9  -8   3    2.77    0.31
 -10   8  -3    3.01    0.30
  10  -8   3    2.76    0.31
   9   7  -3   -0.22    0.20
  -9  -7   3    0.01    0.13
  -9  -7   3    0.02    0.13
   8   7  -3   -0.02    0.17
  -8  -7   3   -0.09    0.12
  -8  -7   3    0.14    0.15
   7   7  -3    1.73    0.25
   7   7  -3    2.08    0.21
   7   7  -3    2.13    0.26
  -7  -7   3    2.16    0.26
  -7  -7   3    2.06    0.22
   6   7  -3    1.56    0.18
   6   7  -3    1.39    0.21
   6   7  -3    1.57    0.22
  -6  -7   3    1.53    0.21
  -6  -7   3    1.49    0.19
   5   7  -3    3.90    0.30
   5   7  -3    3.83    0.24
   5   7  -3    3.94    0.29
  -5  -7   3    4.14    0.28
  -5  -7   3    3.73    0.29
   4   7  -3    0.81    0.16
   4   7  -3    0.88    0.13
   4   7  -3    0.83    0.17
  -4  -7   3    0.74    0.15
  -4  -7   3    0.72    0.15
   3   7  -3    5.43    0.32
   3   7  -3    5.88    0.32
   3   7  -3    5.84    0.28
  -3  -7   3    5.47    0.33
  -3  -7   3    5.61    0.31
   2   7  -3   14.77    0.56
   2   7  -3   15.17    0.57
   2   7  -3   14.60    0.53
  -2  -7   3   14.81    0.56
   1   7  -3    1.38    0.18
   1   7  -3    1.32    0.13
   1   7  -3    1.26    0.17
  -1  -7   3    0.97    0.14
  -1  -7   3    1.36    0.12
   0   7  -3    7.15    0.34
   0   7  -3    6.99    0.31
   0   7  -3    6.80    0.33
   0   7  -3    6.63    0.29
   0  -7   3    6.93    0.33
  -1   7  -3    9.46    0.36
  -1   7  -3    8.73    0.36
  -1   7  -3    8.68    0.38
  -1   7  -3    8.71    0.39
   1  -7   3    9.35    0.35
   1  -7   3    9.20    0.35
   1  -7   3    8.79    0.39
  -2   7  -3    2.67    0.22
  -2   7  -3    2.95    0.18
  -2   7  -3    2.97    0.18
  -2   7  -3    2.69    0.21
   2  -7   3    2.93    0.17
   2  -7   3    2.59    0.21
  -3   7  -3    0.01    0.06
  -3   7  -3    0.06    0.09
  -3   7  -3    0.02    0.11
  -3   7  -3    0.13    0.06
   3  -7   3    0.08    0.09
   3  -7   3    0.11    0.06
  -4   7  -3   14.67    0.53
  -4   7  -3   14.96    0.56
  -4   7  -3   14.85    0.56
   4  -7   3   14.79    0.57
   4  -7   3   15.05    0.53
   4  -7   3   14.34    0.53
  -5   7  -3    7.72    0.37
  -5   7  -3    7.23    0.36
   5  -7   3    7.84    0.34
   5  -7   3    7.67    0.33
   5  -7   3    7.83    0.38
  -6   7  -3    8.53    0.42
  -6   7  -3    9.09    0.42
   6  -7   3   10.21    0.41
   6  -7   3    9.17    0.39
   6  -7   3    9.84    0.44
  -7   7  -3    2.23    0.23
  -7   7  -3    2.50    0.24
   7  -7   3    2.06    0.23
   7  -7   3    2.29    0.19
   7  -7   3    2.12    0.20
  -8   7  -3    1.15    0.18
  -8   7  -3    1.14    0.18
   8  -7   3    0.85    0.14
   8  -7   3    0.85    0.13
   8  -7   3    0.98    0.19
  -9   7  -3   -0.01    0.13
   9  -7   3    0.26    0.15
   9  -7   3    0.38    0.12
 -10   7  -3    1.43    0.22
  10  -7   3    1.70    0.25
 -11   7  -3    0.17    0.16
   9   6  -3    1.44    0.19
   9   6  -3    0.26    0.25
  -9  -6   3    1.37    0.22
  -9  -6   3    1.59    0.20
   8   6  -3    0.73    0.19
   8   6  -3    0.53    0.13
  -8  -6   3    0.72    0.18
  -8  -6   3    0.73    0.16
   7   6  -3    0.19    0.10
   7   6  -3    0.09    0.15
   7   6  -3    0.39    0.17
  -7  -6   3    0.27    0.13
  -7  -6   3    0.27    0.12
   6   6  -3    2.38    0.25
   6   6  -3    3.03    0.26
   6   6  -3    2.29    0.20
  -6  -6   3    2.72    0.23
  -6  -6   3    2.51    0.25
   5   6  -3    4.77    0.26
   5   6  -3    4.98    0.30
   5   6  -3    4.60    0.30
  -5  -6   3    4.14    0.30
  -5  -6   3    4.30    0.27
   4   6  -3   28.23    0.90
   4   6  -3   28.17    0.93
   4   6  -3   28.01    0.93
  -4  -6   3   27.14    0.91
  -4  -6   3   28.14    0.96
   3   6  -3   11.71    0.43
   3   6  -3   11.77    0.46
   3   6  -3   11.64    0.42
   3   6  -3   11.08    0.45
  -3  -6   3    9.92    0.43
  -3  -6   3   11.13    0.47
   2   6  -3    2.22    0.16
   2   6  -3    2.32    0.20
   2   6  -3    2.46    0.20
   2   6  -3    2.45    0.15
  -2  -6   3    2.27    0.14
  -2  -6   3    1.98    0.18
   1   6  -3   26.95    0.85
   1   6  -3   26.15    0.82
   1   6  -3   26.45    0.83
   1   6  -3   26.91    0.86
  -1  -6   3   24.56    0.84
  -1  -6   3   25.81    0.81
   0   6  -3   23.56    0.76
   0   6  -3   22.97    0.77
   0   6  -3   23.91    0.75
   0   6  -3   24.19    0.75
   0   6  -3   23.76    0.78
   0  -6   3   22.31    0.77
  -1   6  -3   27.28    0.93
  -1   6  -3   30.02    0.93
  -1   6  -3   29.21    0.91
  -1   6  -3   28.46    0.91
   1  -6   3   29.97    0.91
   1  -6   3   30.04    0.91
   1  -6   3   28.83    0.93
  -2   6  -3   45.29    1.34
  -2   6  -3   42.59    1.36
  -2   6  -3   44.78    1.36
  -2   6  -3   44.57    1.33
   2  -6   3   44.25    1.36
   2  -6   3   44.56    1.33
  -3   6  -3    7.18    0.28
  -3   6  -3    7.09    0.28
  -3   6  -3    7.44    0.32
  -3   6  -3    6.52    0.31
   3  -6   3    6.45    0.31
   3  -6   3    7.00    0.29
  -4   6  -3   26.37    0.87
  -4   6  -3   25.99    0.86
   4  -6   3   26.69    0.84
   4  -6   3   26.31    0.87
   4  -6   3   26.64    0.84
  -5   6  -3   52.36    1.59
  -5   6  -3   55.25    1.63
  -5   6  -3   51.72    1.63
   5  -6   3   54.26    1.61
   5  -6   3   53.56    1.61
   5  -6   3   52.61    1.63
  -6   6  -3   10.64    0.45
  -6   6  -3   10.56    0.44
   6  -6   3   10.74    0.42
   6  -6   3   10.47    0.45
   6  -6   3   10.29    0.41
  -7   6  -3    6.72    0.36
  -7   6  -3    6.58    0.35
   7  -6   3    6.64    0.36
   7  -6   3    6.82    0.32
   7  -6   3    6.93    0.32
  -8   6  -3    3.09    0.25
  -8   6  -3    3.55    0.28
   8  -6   3    2.73    0.25
   8  -6   3    2.84    0.22
   8  -6   3    2.54    0.20
  -9   6  -3    3.01    0.28
  -9   6  -3    3.59    0.27
   9  -6   3    2.96    0.28
   9  -6   3    3.18    0.23
   9  -6   3    3.01    0.24
 -10   6  -3    0.26    0.15
  10  -6   3    0.27    0.12
  10  -6   3    0.13    0.15
 -11   6  -3   -0.05    0.14
  11  -6   3   -0.15    0.15
  10   5  -3    0.95    0.17
 -10  -5   3    1.47    0.22
 -10  -5   3    0.98    0.17
   9   5  -3    0.53    0.13
  -9  -5   3    0.93    0.19
  -9  -5   3    0.56    0.14
   8   5  -3    3.25    0.25
  -8  -5   3    3.41    0.30
  -8  -5   3    3.75    0.27
   7   5  -3    1.86    0.18
   7   5  -3    1.78    0.21
  -7  -5   3    1.92    0.19
  -7  -5   3    1.80    0.22
   6   5  -3    8.94    0.41
   6   5  -3    8.68    0.41
   6   5  -3    8.53    0.37
  -6  -5   3    8.42    0.37
  -6  -5   3    8.54    0.42
   5   5  -3    2.55    0.19
   5   5  -3    2.70    0.23
   5   5  -3    2.61    0.23
  -5  -5   3    2.67    0.23
  -5  -5   3    3.00    0.21
   4   5  -3   15.97    0.57
   4   5  -3   17.43    0.61
   4   5  -3   17.98    0.58
   4   5  -3   16.76    0.60
  -4  -5   3   15.99    0.58
  -4  -5   3   17.51    0.64
   3   5  -3   18.68    0.64
   3   5  -3   18.70    0.62
   3   5  -3   19.44    0.65
   3   5  -3   18.59    0.61
  -3  -5   3   18.30    0.63
  -3  -5   3   18.68    0.67
   2   5  -3   10.93    0.42
   2   5  -3   11.30    0.43
   2   5  -3   11.10    0.40
   2   5  -3   11.41    0.40
   2   5  -3   11.80    0.40
  -2  -5   3   11.37    0.45
  -2  -5   3   11.57    0.38
  -2  -5   3   11.09    0.41
   1   5  -3    3.37    0.21
   1   5  -3    3.68    0.17
   1   5  -3    3.85    0.21
   1   5  -3    3.51    0.18
  -1  -5   3    3.65    0.16
  -1  -5   3    3.21    0.19
   0   5  -3    2.42    0.17
   0   5  -3    2.38    0.14
   0   5  -3    2.62    0.15
   0   5  -3    2.65    0.18
   0  -5   3    2.65    0.14
   0  -5   3    2.48    0.17
  -1   5  -3    8.29    0.30
  -1   5  -3    8.30    0.30
  -1   5  -3    7.99    0.31
  -1   5  -3    8.11    0.33
  -1   5  -3    8.27    0.33
   1  -5   3    8.18    0.33
  -2   5  -3    3.80    0.22
  -2   5  -3    3.92    0.19
  -2   5  -3    4.04    0.22
  -2   5  -3    4.11    0.19
  -2   5  -3    4.00    0.18
   2  -5   3    3.84    0.21
   2  -5   3    4.17    0.19
  -3   5  -3   42.47    1.30
  -3   5  -3   42.81    1.28
  -3   5  -3   42.44    1.30
  -3   5  -3   43.34    1.27
   3  -5   3   42.92    1.27
   3  -5   3   43.68    1.28
   3  -5   3   40.95    1.30
  -4   5  -3   19.61    0.69
  -4   5  -3   20.50    0.66
  -4   5  -3   20.55    0.69
   4  -5   3   20.60    0.68
   4  -5   3   21.21    0.66
   4  -5   3   20.93    0.70
   4  -5   3   21.51    0.67
  -5   5  -3    4.85    0.26
  -5   5  -3    4.76    0.26
  -5   5  -3    4.46    0.21
   5  -5   3    5.04    0.27
   5  -5   3    5.13    0.23
   5  -5   3    4.69    0.23
   5  -5   3    5.26    0.23
  -6   5  -3   24.83    0.82
  -6   5  -3   24.48    0.82
  -6   5  -3   23.23    0.78
   6  -5   3   24.93    0.80
   6  -5   3   24.93    0.80
   6  -5   3   25.12    0.87
   6  -5   3   24.57    0.83
  -7   5  -3   16.25    0.59
  -7   5  -3   15.36    0.59
   7  -5   3   16.50    0.57
   7  -5   3   15.23    0.60
   7  -5   3   15.86    0.56
  -8   5  -3    7.03    0.37
  -8   5  -3    7.50    0.36
   8  -5   3    7.57    0.39
   8  -5   3    7.24    0.34
   8  -5   3    7.52    0.34
  -9   5  -3    1.18    0.18
  -9   5  -3    1.43    0.19
   9  -5   3    1.38    0.17
   9  -5   3    1.24    0.20
   9  -5   3    1.20    0.15
 -10   5  -3    1.85    0.22
  10  -5   3    1.69    0.24
  10  -5   3    0.84    0.20
  10  -5   3    1.74    0.20
 -11   5  -3    1.11    0.20
  11  -5   3    1.31    0.23
  11  -5   3    1.29    0.19
  10   4  -3    0.28    0.12
 -10  -4   3    0.34    0.16
 -10  -4   3    0.56    0.14
   9   4  -3    4.09    0.28
  -9  -4   3    3.29    0.31
  -9  -4   3    3.57    0.25
   8   4  -3    2.66    0.22
  -8  -4   3    2.66    0.26
  -8  -4   3    2.81    0.23
   7   4  -3    4.34    0.25
  -7  -4   3    4.06    0.29
  -7  -4   3    4.11    0.25
   6   4  -3    6.44    0.34
   6   4  -3    6.94    0.35
   6   4  -3    6.80    0.31
  -6  -4   3    6.87    0.36
  -6  -4   3    6.80    0.31
   5   4  -3    0.76    0.13
   5   4  -3    1.14    0.16
   5   4  -3    0.98    0.11
   5   4  -3    0.88    0.11
  -5  -4   3    0.83    0.12
  -5  -4   3    0.60    0.13
   4   4  -3    0.42    0.11
   4   4  -3    0.38    0.10
   4   4  -3    0.35    0.07
   4   4  -3    0.35    0.08
  -4  -4   3    0.33    0.10
  -4  -4   3    0.45    0.09
   3   4  -3   21.04    0.68
   3   4  -3   20.41    0.66
   3   4  -3   20.85    0.68
   3   4  -3   20.82    0.66
  -3  -4   3   21.37    0.68
  -3  -4   3   21.09    0.71
  -3  -4   3   19.63    0.66
   2   4  -3   13.94    0.49
   2   4  -3   14.28    0.49
   2   4  -3   14.35    0.47
   2   4  -3   14.47    0.47
  -2  -4   3   14.52    0.49
  -2  -4   3   13.93    0.48
  -2  -4   3   14.29    0.52
  -2  -4   3   14.60    0.46
   1   4  -3   15.00    0.51
   1   4  -3   14.47    0.50
   1   4  -3   15.20    0.49
   1   4  -3   14.86    0.49
  -1  -4   3   15.02    0.50
  -1  -4   3   15.78    0.51
  -1  -4   3   15.64    0.48
   0   4  -3    1.51    0.13
   0   4  -3    1.60    0.14
   0   4  -3    1.20    0.10
   0   4  -3    1.17    0.09
   0  -4   3    1.11    0.11
   0  -4   3    1.19    0.09
  -1   4  -3   15.31    0.49
  -1   4  -3   14.84    0.51
  -1   4  -3   14.94    0.49
  -1   4  -3   15.91    0.49
  -1   4  -3   15.61    0.51
   1  -4   3   15.13    0.51
  -2   4  -3   72.60    2.13
  -2   4  -3   72.81    2.10
  -2   4  -3   73.01    2.11
  -2   4  -3   75.33    2.11
  -2   4  -3   72.49    2.13
   2  -4   3   68.92    2.12
   2  -4   3   75.03    2.11
  -3   4  -3    1.59    0.15
  -3   4  -3    1.28    0.13
  -3   4  -3    1.73    0.10
  -3   4  -3    1.54    0.11
  -3   4  -3    1.34    0.11
   3  -4   3    1.54    0.10
   3  -4   3    1.51    0.11
   3  -4   3    1.48    0.12
   3  -4   3    1.63    0.14
  -4   4  -3    2.82    0.16
  -4   4  -3    2.65    0.18
  -4   4  -3    2.80    0.18
   4  -4   3    2.89    0.16
   4  -4   3    2.93    0.16
   4  -4   3    2.76    0.18
   4  -4   3    3.04    0.15
  -5   4  -3   30.57    0.98
  -5   4  -3   30.83    0.99
   5  -4   3   31.87    0.99
   5  -4   3   31.77    0.96
   5  -4   3   31.64    0.97
   5  -4   3   31.75    0.97
  -6   4  -3    2.68    0.20
  -6   4  -3    3.09    0.21
  -6   4  -3    2.68    0.16
   6  -4   3    2.95    0.17
   6  -4   3    2.79    0.21
   6  -4   3    2.63    0.17
   6  -4   3    3.22    0.18
  -7   4  -3    7.05    0.34
  -7   4  -3    7.78    0.35
   7  -4   3    7.36    0.32
   7  -4   3    7.50    0.32
   7  -4   3    7.56    0.36
  -8   4  -3    3.05    0.24
  -8   4  -3    2.68    0.23
   8  -4   3    2.91    0.20
   8  -4   3    2.86    0.24
   8  -4   3    3.10    0.20
  -9   4  -3    0.96    0.15
  -9   4  -3    0.88    0.16
   9  -4   3    0.81    0.13
   9  -4   3    0.69    0.15
   9  -4   3    0.86    0.13
 -10   4  -3    1.42    0.19
 -10   4  -3    1.31    0.19
  10  -4   3    1.35    0.21
  10  -4   3    1.39    0.18
  10  -4   3    1.21    0.15
 -11   4  -3    2.18    0.25
  11  -4   3    2.27    0.27
  11  -4   3    2.20    0.24
 -12   4  -3   -0.01    0.15
  12  -4   3    0.26    0.17
  12  -4   3    0.09    0.17
  10   3  -3    0.08    0.11
 -10  -3   3    0.01    0.10
 -10  -3   3   -0.19    0.12
   9   3  -3    0.13    0.10
  -9  -3   3    0.08    0.12
  -9  -3   3   -0.01    0.09
   8   3  -3    0.39    0.14
   8   3  -3    0.61    0.13
  -8  -3   3    0.49    0.11
  -8  -3   3    0.69    0.15
   7   3  -3    4.86    0.26
  -7  -3   3    4.88    0.31
  -7  -3   3    5.15    0.26
   6   3  -3    2.83    0.22
   6   3  -3    2.69    0.23
   6   3  -3    2.95    0.19
   6   3  -3    2.80    0.17
  -6  -3   3    2.46    0.22
  -6  -3   3    2.50    0.18
   5   3  -3   13.24    0.49
   5   3  -3   13.82    0.47
   5   3  -3   14.21    0.50
   5   3  -3   13.23    0.47
  -5  -3   3   13.24    0.47
  -5  -3   3   14.12    0.47
  -5  -3   3   13.61    0.53
   4   3  -3    3.36    0.20
   4   3  -3    3.39    0.17
   4   3  -3    3.55    0.20
   4   3  -3    3.70    0.17
  -4  -3   3    3.40    0.18
  -4  -3   3    3.42    0.22
  -4  -3   3    3.62    0.18
   3   3  -3   21.48    0.69
   3   3  -3   22.70    0.69
   3   3  -3   21.95    0.67
   3   3  -3   21.27    0.67
  -3  -3   3   21.01    0.72
  -3  -3   3   22.66    0.68
  -3  -3   3   21.01    0.68
   2   3  -3   52.82    1.57
   2   3  -3   55.07    1.56
   2   3  -3   53.01    1.57
   2   3  -3   53.36    1.56
  -2  -3   3   51.24    1.56
  -2  -3   3   54.43    1.61
  -2  -3   3   55.27    1.57
   1   3  -3   76.38    2.24
   1   3  -3   76.00    2.23
   1   3  -3   76.99    2.23
   1   3  -3   77.92    2.25
  -1  -3   3   79.70    2.22
  -1  -3   3   78.47    2.24
  -1  -3   3   75.77    2.24
  -1  -3   3   77.31    2.27
  -1  -3   3   80.72    2.24
   0   3  -3   54.40    1.59
   0   3  -3   53.87    1.60
   0   3  -3   54.56    1.60
   0   3  -3   53.20    1.59
   0  -3   3   54.62    1.60
   0  -3   3   56.05    1.59
   0  -3   3   56.67    1.60
   0  -3   3   55.34    1.58
  -1   3  -3    8.57    0.30
  -1   3  -3    7.92    0.27
  -1   3  -3    7.68    0.29
  -1   3  -3    7.61    0.27
   1  -3   3    8.09    0.29
   1  -3   3    7.49    0.29
   1  -3   3    7.80    0.27
   1  -3   3    8.12    0.29
  -2   3  -3   14.64    0.50
  -2   3  -3   14.80    0.48
  -2   3  -3   15.44    0.46
  -2   3  -3   14.33    0.49
  -2   3  -3   15.00    0.48
   2  -3   3   15.72    0.51
   2  -3   3   15.58    0.50
  -3   3  -3    3.49    0.19
  -3   3  -3    3.60    0.19
  -3   3  -3    3.59    0.16
  -3   3  -3    3.69    0.16
   3  -3   3    3.82    0.16
   3  -3   3    3.47    0.14
   3  -3   3    3.28    0.18
   3  -3   3    3.46    0.16
  -4   3  -3    8.90    0.32
  -4   3  -3    9.35    0.35
  -4   3  -3    8.96    0.35
   4  -3   3    9.46    0.33
   4  -3   3    9.67    0.33
   4  -3   3    9.27    0.31
   4  -3   3    8.94    0.35
  -5   3  -3    3.37    0.20
  -5   3  -3    3.62    0.20
   5  -3   3    3.74    0.21
   5  -3   3    3.45    0.17
   5  -3   3    3.67    0.18
   5  -3   3    3.52    0.17
  -6   3  -3    6.18    0.29
  -6   3  -3    6.55    0.26
  -6   3  -3    6.67    0.29
   6  -3   3    5.89    0.29
   6  -3   3    6.53    0.27
   6  -3   3    6.67    0.27
   6  -3   3    6.47    0.27
  -7   3  -3    5.48    0.28
  -7   3  -3    5.31    0.28
  -7   3  -3    5.50    0.24
   7  -3   3    5.31    0.25
   7  -3   3    5.19    0.28
   7  -3   3    6.03    0.26
  -8   3  -3    5.04    0.28
  -8   3  -3    4.65    0.28
   8  -3   3    4.92    0.30
   8  -3   3    4.54    0.25
  -9   3  -3   10.36    0.45
  -9   3  -3   10.97    0.47
   9  -3   3   10.61    0.43
   9  -3   3   10.70    0.48
 -10   3  -3    1.34    0.19
 -10   3  -3    2.09    0.22
  10  -3   3    1.43    0.17
  10  -3   3    1.51    0.22
 -11   3  -3    0.71    0.17
  11  -3   3    0.51    0.18
 -12   3  -3    1.86    0.24
  12  -3   3    1.73    0.26
  12  -3   3    1.59    0.22
  10   2  -3    0.17    0.11
 -10  -2   3   -0.14    0.13
   9   2  -3    2.12    0.20
  -9  -2   3    2.48    0.26
  -9  -2   3    2.24    0.18
   8   2  -3    2.23    0.19
  -8  -2   3    2.07    0.23
  -8  -2   3    2.24    0.17
   7   2  -3    0.98    0.12
   7   2  -3    0.65    0.14
  -7  -2   3    0.87    0.15
  -7  -2   3    0.94    0.12
   6   2  -3   27.69    0.87
   6   2  -3   27.37    0.86
   6   2  -3   27.82    0.89
  -6  -2   3   27.62    0.94
  -6  -2   3   27.50    0.85
   5   2  -3    5.78    0.26
   5   2  -3    6.13    0.27
   5   2  -3    5.58    0.24
   5   2  -3    5.70    0.23
  -5  -2   3    5.47    0.29
  -5  -2   3    6.01    0.24
  -5  -2   3    5.55    0.24
   4   2  -3   24.59    0.76
   4   2  -3   24.45    0.75
   4   2  -3   24.82    0.77
   4   2  -3   23.63    0.75
  -4  -2   3   24.09    0.81
  -4  -2   3   25.17    0.75
  -4  -2   3   24.15    0.74
   3   2  -3   75.44    2.13
   3   2  -3   74.02    2.14
   3   2  -3   71.64    2.12
  -3  -2   3   74.08    2.13
  -3  -2   3   73.49    2.19
  -3  -2   3   75.58    2.13
   2   2  -3   13.48    0.44
   2   2  -3   14.49    0.46
   2   2  -3   14.51    0.44
  -2  -2   3   14.69    0.45
  -2  -2   3   13.97    0.49
  -2  -2   3   13.56    0.44
   1   2  -3   59.26    1.70
   1   2  -3   58.25    1.70
   1   2  -3   59.69    1.71
   1   2  -3   64.50    1.76
   1   2  -3   58.59    1.71
  -1  -2   3   61.13    1.71
  -1  -2   3   57.83    1.75
  -1  -2   3   55.84    1.70
   0   2  -3  129.21    3.65
   0   2  -3  124.81    3.64
   0   2  -3  126.14    3.64
   0   2  -3  133.72    3.65
   0   2  -3  125.30    3.65
   0  -2   3  126.00    3.64
   0  -2   3  127.17    3.67
   0  -2   3  135.25    3.65
   0  -2   3  128.75    3.63
  -1   2  -3   38.04    1.16
  -1   2  -3   41.05    1.16
  -1   2  -3   39.32    1.14
  -1   2  -3   38.42    1.14
  -1   2  -3   39.72    1.16
   1  -2   3   40.79    1.15
   1  -2   3   39.38    1.14
   1  -2   3   38.71    1.15
  -2   2  -3   46.89    1.34
  -2   2  -3   46.18    1.37
  -2   2  -3   46.93    1.37
  -2   2  -3   48.09    1.40
  -2   2  -3   46.94    1.38
  -2   2  -3   46.27    1.38
   2  -2   3   49.10    1.37
   2  -2   3   49.77    1.39
   2  -2   3   45.37    1.38
  -3   2  -3  108.55    3.09
  -3   2  -3  106.57    3.10
  -3   2  -3  112.74    3.09
   3  -2   3  109.22    3.09
   3  -2   3  107.62    3.06
   3  -2   3  105.44    3.11
   3  -2   3  111.09    3.09
   3  -2   3  105.48    3.10
  -4   2  -3   30.28    0.88
  -4   2  -3   28.76    0.88
  -4   2  -3   28.52    0.90
   4  -2   3   28.19    0.90
   4  -2   3   29.25    0.88
   4  -2   3   29.92    0.88
  -5   2  -3   10.79    0.39
  -5   2  -3   10.36    0.36
   5  -2   3   10.18    0.36
   5  -2   3   10.24    0.39
   5  -2   3   10.72    0.37
  -6   2  -3   21.52    0.74
   6  -2   3   23.41    0.73
   6  -2   3   22.87    0.75
   6  -2   3   24.24    0.73
  -7   2  -3   15.02    0.50
  -7   2  -3   13.88    0.53
   7  -2   3   14.90    0.51
   7  -2   3   14.58    0.54
   7  -2   3   15.33    0.51
  -8   2  -3   25.18    0.85
   8  -2   3   24.19    0.85
   8  -2   3   26.24    0.83
  -9   2  -3    1.30    0.18
   9  -2   3    1.53    0.20
   9  -2   3    1.22    0.15
 -10   2  -3    3.79    0.29
  10  -2   3    3.63    0.30
  10  -2   3    3.34    0.23
 -11   2  -3    0.15    0.14
  11  -2   3    0.35    0.16
 -12   2  -3   -0.03    0.14
  12  -2   3    0.27    0.18
  11   1  -3    0.00    0.10
  10   1  -3    0.38    0.12
   9   1  -3    0.58    0.12
  -9  -1   3    0.81    0.10
   8   1  -3    1.03    0.13
  -8  -1   3    0.94    0.17
  -8  -1   3    0.88    0.11
   7   1  -3    0.30    0.08
   7   1  -3    0.43    0.09
   7   1  -3    0.36    0.14
  -7  -1   3    0.35    0.12
  -7  -1   3    0.37    0.08
   6   1  -3    0.67    0.12
   6   1  -3    0.73    0.10
   6   1  -3    0.68    0.09
  -6  -1   3    0.70    0.09
  -6  -1   3    0.49    0.08
  -6  -1   3    0.59    0.13
   5   1  -3   51.68    1.52
   5   1  -3   51.43    1.50
   5   1  -3   49.07    1.50
  -5  -1   3   50.15    1.57
  -5  -1   3   54.35    1.50
  -5  -1   3   50.81    1.49
   4   1  -3    0.63    0.07
   4   1  -3    0.52    0.08
   4   1  -3    0.51    0.06
  -4  -1   3    0.50    0.06
  -4  -1   3    0.42    0.09
  -4  -1   3    0.59    0.07
   3   1  -3    4.37    0.18
   3   1  -3    4.41    0.17
   3   1  -3    4.46    0.16
  -3  -1   3    4.30    0.22
  -3  -1   3    4.88    0.17
  -3  -1   3    4.32    0.16
   2   1  -3   46.40    1.29
   2   1  -3   42.77    1.27
   2   1  -3   44.15    1.27
   2   1  -3   45.65    1.28
  -2  -1   3   42.99    1.33
  -2  -1   3   44.00    1.27
   1   1  -3   17.82    0.52
   1   1  -3   18.19    0.54
   1   1  -3   17.86    0.52
   1   1  -3   18.41    0.54
  -1  -1   3   17.98    0.53
  -1  -1   3   17.14    0.57
   0   1  -3   13.73    0.41
   0   1  -3   13.39    0.40
   0   1  -3   13.49    0.41
   0   1  -3   13.46    0.40
   0  -1   3   13.07    0.44
   0  -1   3   13.18    0.40
   0  -1   3   13.16    0.40
  -1   1  -3    7.59    0.25
  -1   1  -3    7.21    0.24
  -1   1  -3    7.49    0.25
  -1   1  -3    7.39    0.24
   1  -1   3    7.31    0.23
   1  -1   3    7.73    0.25
   1  -1   3    7.18    0.26
   1  -1   3    7.45    0.25
  -2   1  -3   11.72    0.37
  -2   1  -3   11.08    0.36
  -2   1  -3   11.46    0.36
  -2   1  -3   11.22    0.37
   2  -1   3   11.32    0.37
   2  -1   3   11.67    0.37
   2  -1   3   11.41    0.35
   2  -1   3   11.38    0.35
  -3   1  -3   49.00    1.40
  -3   1  -3   46.50    1.39
  -3   1  -3   46.36    1.37
  -3   1  -3   47.83    1.37
   3  -1   3   49.02    1.39
   3  -1   3   45.75    1.38
   3  -1   3   46.96    1.37
  -4   1  -3   53.09    1.48
  -4   1  -3   48.13    1.49
  -4   1  -3   50.60    1.48
   4  -1   3   49.36    1.49
   4  -1   3   51.11    1.48
   4  -1   3   51.67    1.48
  -5   1  -3    3.74    0.17
  -5   1  -3    3.78    0.20
   5  -1   3    3.53    0.19
   5  -1   3    3.81    0.17
   5  -1   3    3.77    0.17
  -6   1  -3    3.15    0.20
   6  -1   3    3.62    0.17
   6  -1   3    3.52    0.14
   6  -1   3    3.34    0.17
   6  -1   3    3.00    0.20
  -7   1  -3   -0.02    0.07
  -7   1  -3    0.02    0.04
   7  -1   3   -0.04    0.08
   7  -1   3    0.05    0.06
   7  -1   3    0.04    0.05
   7  -1   3    0.05    0.04
  -8   1  -3    5.13    0.29
   8  -1   3    6.17    0.28
   8  -1   3    5.81    0.31
  -9   1  -3    5.83    0.32
   9  -1   3    6.40    0.35
   9  -1   3    6.34    0.30
 -10   1  -3    0.44    0.13
  10  -1   3    0.69    0.17
  10  -1   3    0.73    0.12
 -11   1  -3    1.03    0.19
  11  -1   3    1.00    0.20
 -12   1  -3    0.38    0.16
  12  -1   3    0.03    0.15
  11   0  -3    0.54    0.13
  10   0  -3    0.79    0.13
   9   0  -3    0.44    0.11
   8   0  -3    3.68    0.22
  -8   0   3    3.74    0.18
   7   0  -3    3.41    0.19
   7   0  -3    3.90    0.20
  -7   0   3    3.70    0.17
  -7   0   3    3.83    0.27
   6   0  -3   16.13    0.54
   6   0  -3   17.03    0.54
  -6   0   3   17.21    0.62
  -6   0   3   15.79    0.51
   5   0  -3   12.03    0.40
   5   0  -3   12.74    0.43
   5   0  -3   12.43    0.40
  -5   0   3   12.40    0.48
  -5   0   3   12.05    0.38
   4   0  -3    7.40    0.27
   4   0  -3    7.14    0.25
   4   0  -3    7.31    0.24
  -4   0   3    7.17    0.23
  -4   0   3    7.07    0.32
   3   0  -3    3.97    0.14
   3   0  -3    4.10    0.16
   3   0  -3    4.03    0.14
  -3   0   3    4.08    0.21
   2   0  -3   12.53    0.37
   2   0  -3   12.17    0.37
  -2   0   3   12.13    0.43
   1   0  -3    0.08    0.03
  -1   0   3    0.04    0.05
   0   0  -3  140.49    3.76
   0   0  -3  130.09    3.76
   0   0  -3  135.39    3.80
   0   0   3  128.22    3.80
  -1   0  -3  197.27    5.32
  -1   0  -3  186.30    5.29
  -1   0  -3  184.28    5.32
  -1   0  -3  180.78    5.30
  -1   0  -3  191.97    5.32
  -1   0  -3  186.58    5.31
   1   0   3  184.82    5.37
   1   0   3  179.14    5.31
   1   0   3  194.97    5.30
  -2   0  -3  111.43    3.24
  -2   0  -3  110.69    3.23
  -2   0  -3  114.74    3.23
  -2   0  -3  119.01    3.25
  -2   0  -3  117.44    3.23
   2   0   3  109.94    3.23
   2   0   3  112.70    3.24
   2   0   3  116.54    3.24
   2   0   3  110.75    3.24
   2   0   3  118.51    3.23
   2   0   3  114.88    3.23
  -3   0  -3   26.19    0.79
  -3   0  -3   26.02    0.80
  -3   0  -3   27.25    0.79
   3   0   3   27.34    0.78
   3   0   3   24.78    0.80
   3   0   3   27.37    0.80
  -4   0  -3    1.45    0.10
  -4   0  -3    1.45    0.10
  -4   0  -3    1.30    0.12
   4   0   3    1.36    0.10
   4   0   3    1.54    0.10
   4   0   3    1.25    0.12
  -5   0  -3   14.20    0.48
  -5   0  -3   14.02    0.46
  -5   0  -3   13.47    0.47
   5   0   3   14.23    0.46
   5   0   3   14.82    0.47
   5   0   3   14.24    0.49
  -6   0  -3   13.09    0.48
  -6   0  -3   13.04    0.46
   6   0   3   14.26    0.47
   6   0   3   13.32    0.49
   6   0   3   14.59    0.41
   6   0   3   13.80    0.46
  -7   0  -3    2.25    0.18
   7   0   3    2.14    0.15
   7   0   3    2.44    0.11
   7   0   3    2.21    0.19
   7   0   3    2.30    0.15
  -8   0  -3    0.32    0.11
   8   0   3    0.49    0.12
   8   0   3    0.49    0.10
  -9   0  -3    3.07    0.26
   9   0   3    3.51    0.27
   9   0   3    3.27    0.21
 -10   0  -3    2.34    0.24
  10   0   3    3.55    0.29
  10   0   3    3.22    0.21
 -11   0  -3    2.24    0.25
  11   0   3    2.84    0.28
 -12   0  -3    0.40    0.17
  12   0   3    0.00    0.15
  10  -1  -3    1.42    0.17
   9  -1  -3    2.17    0.19
   8  -1  -3    5.76    0.27
   7  -1  -3    3.45    0.18
   7  -1  -3    3.15    0.18
   6  -1  -3    2.69    0.14
   6  -1  -3    2.72    0.15
   5  -1  -3   13.52    0.42
   5  -1  -3   12.91    0.42
   4  -1  -3   52.61    1.49
   4  -1  -3   51.20    1.49
  -4   1   3   52.28    1.58
   3  -1  -3   47.94    1.41
   3  -1  -3   52.65    1.42
  -3   1   3   47.22    1.48
  -2   1   3   80.20    2.34
  -1   1   3   53.49    1.57
   0  -1  -3  232.82    6.73
   0  -1  -3  244.04    6.69
   0   1   3  233.26    6.80
  -1  -1  -3  897.76   27.21
  -1  -1  -3 1000.00   27.15
  -1  -1  -3  957.83   27.26
   1   1   3  994.85   27.27
   1   1   3  987.86   27.12
   1   1   3  937.86   27.23
  -2  -1  -3    1.16    0.07
  -2  -1  -3    1.13    0.09
  -2  -1  -3    1.07    0.07
  -2  -1  -3    1.05    0.06
   2   1   3    1.10    0.09
   2   1   3    0.95    0.09
   2   1   3    1.10    0.06
   2   1   3    1.09    0.08
  -3  -1  -3  143.73    4.17
  -3  -1  -3  144.26    4.17
  -3  -1  -3  140.78    4.18
  -3  -1  -3  163.46    4.22
   3   1   3  150.76    4.19
   3   1   3  141.10    4.17
  -4  -1  -3   56.78    1.74
  -4  -1  -3   60.22    1.72
  -4  -1  -3   61.20    1.73
   4   1   3   59.78    1.72
  -5  -1  -3   38.18    1.09
  -5  -1  -3   35.72    1.10
  -5  -1  -3   37.19    1.08
   5   1   3   36.20    1.08
   5   1   3   33.59    1.15
  -6  -1  -3   10.38    0.41
  -6  -1  -3   11.05    0.38
   6   1   3   11.33    0.39
  -7  -1  -3    9.42    0.39
   7   1   3    9.46    0.36
  -8  -1  -3   -0.01    0.09
   8   1   3    0.19    0.07
  -9  -1  -3    3.80    0.27
   9   1   3    3.95    0.23
 -10  -1  -3    2.58    0.25
  10   1   3    2.57    0.20
 -11  -1  -3    2.37    0.25
  11   1   3    2.54    0.28
 -12  -1  -3    2.10    0.26
  12   1   3    1.97    0.28
  10  -2  -3    0.95    0.14
   9  -2  -3    1.08    0.14
   8  -2  -3    3.64    0.21
   7  -2  -3   -0.10    0.05
   7  -2  -3   -0.10    0.06
   7  -2  -3   -0.14    0.07
   6  -2  -3    0.18    0.06
   6  -2  -3    0.22    0.08
   6  -2  -3    0.26    0.06
   5  -2  -3   17.36    0.54
   5  -2  -3   17.09    0.53
   4  -2  -3   21.65    0.65
   4  -2  -3   21.98    0.65
   2  -2  -3   25.43    0.75
   2  -2  -3   25.77    0.82
   2  -2  -3   27.00    0.76
   1  -2  -3   78.19    2.24
   1  -2  -3   76.74    2.19
   0  -2  -3   24.74    0.73
   0  -2  -3   24.73    0.77
   0  -2  -3   25.94    0.73
   0   2   3   25.70    0.77
  -1  -2  -3   12.74    0.39
  -1  -2  -3   12.94    0.39
  -1  -2  -3   13.53    0.41
  -1  -2  -3   13.43    0.41
  -1  -2  -3   13.44    0.39
  -1  -2  -3   12.74    0.42
   1   2   3   13.53    0.40
   1   2   3   12.93    0.42
  -2  -2  -3    9.32    0.30
  -2  -2  -3    9.17    0.30
  -2  -2  -3    8.85    0.28
  -2  -2  -3    8.57    0.28
   2   2   3    8.56    0.30
   2   2   3    8.99    0.30
   2   2   3    8.32    0.31
   2   2   3    8.83    0.27
  -3  -2  -3   18.31    0.59
  -3  -2  -3   19.10    0.58
  -3  -2  -3   18.06    0.57
   3   2   3   18.68    0.57
   3   2   3   18.94    0.59
   3   2   3   19.58    0.59
  -4  -2  -3    0.50    0.06
  -4  -2  -3    0.61    0.07
  -4  -2  -3    0.69    0.09
   4   2   3    0.88    0.12
  -5  -2  -3    2.98    0.16
  -5  -2  -3    3.42    0.12
  -5  -2  -3    3.33    0.19
   5   2   3    3.40    0.16
  -6  -2  -3    5.95    0.28
  -6  -2  -3    6.50    0.21
  -6  -2  -3    6.06    0.25
   6   2   3    6.16    0.26
  -7  -2  -3    1.10    0.08
  -7  -2  -3    1.20    0.11
  -7  -2  -3    0.78    0.13
   7   2   3    1.20    0.11
  -8  -2  -3   18.41    0.67
   8   2   3   19.52    0.65
  -9  -2  -3   -0.12    0.11
   9   2   3    0.01    0.06
 -10  -2  -3    0.34    0.14
 -11  -2  -3    0.15    0.15
 -12  -2  -3    0.69    0.19
  12   2   3    1.11    0.22
  10  -3  -3    0.70    0.13
   9  -3  -3    0.82    0.12
   9  -3  -3    1.06    0.21
   8  -3  -3    1.96    0.17
   7  -3  -3   15.01    0.52
   7  -3  -3   16.16    0.55
   7  -3  -3   15.87    0.53
   6  -3  -3    0.04    0.07
   6  -3  -3   -0.02    0.05
   6  -3  -3   -0.04    0.04
   5  -3  -3    4.69    0.21
   5  -3  -3    3.93    0.18
   5  -3  -3    3.95    0.25
   5  -3  -3    4.41    0.18
   4  -3  -3    2.42    0.14
   4  -3  -3    2.34    0.11
   4  -3  -3    2.29    0.11
   4  -3  -3    2.13    0.17
   3  -3  -3   28.55    0.93
   3  -3  -3   30.52    0.87
   3  -3  -3   29.11    0.85
   3  -3  -3   28.93    0.85
   2  -3  -3   26.61    0.87
   2  -3  -3   26.89    0.81
   2  -3  -3   29.41    0.81
   1  -3  -3   17.17    0.57
   1  -3  -3   17.48    0.52
   1  -3  -3   17.28    0.52
  -1   3   3   17.91    0.58
   0  -3  -3   16.32    0.48
   0  -3  -3   16.38    0.48
   0  -3  -3   16.00    0.46
   0  -3  -3   15.87    0.52
   0  -3  -3   15.09    0.46
   0   3   3   15.63    0.52
   0   3   3   15.43    0.47
  -1  -3  -3   11.99    0.38
  -1  -3  -3   12.07    0.38
  -1  -3  -3   11.55    0.36
  -1  -3  -3   11.43    0.40
  -1  -3  -3   11.34    0.36
  -1  -3  -3   11.60    0.38
  -1  -3  -3   11.35    0.36
   1   3   3   12.19    0.37
   1   3   3   11.67    0.40
   1   3   3   11.20    0.37
  -2  -3  -3   55.28    1.59
  -2  -3  -3   53.43    1.57
  -2  -3  -3   55.85    1.57
  -2  -3  -3   55.03    1.59
   2   3   3   54.57    1.56
   2   3   3   54.44    1.60
   2   3   3   55.97    1.58
   2   3   3   51.58    1.58
  -3  -3  -3   64.06    1.87
  -3  -3  -3   66.03    1.86
  -3  -3  -3   63.13    1.87
  -3  -3  -3   63.61    1.85
   3   3   3   61.48    1.86
   3   3   3   67.64    1.87
   3   3   3   63.29    1.84
  -4  -3  -3   64.74    1.95
  -4  -3  -3   68.92    1.93
  -4  -3  -3   67.07    1.93
   4   3   3   65.10    1.94
  -5  -3  -3    3.31    0.20
  -5  -3  -3    3.59    0.17
  -5  -3  -3    3.84    0.18
   5   3   3    3.49    0.17
   5   3   3    3.51    0.21
  -6  -3  -3   38.12    1.14
  -6  -3  -3   39.34    1.10
  -6  -3  -3   35.88    1.16
   6   3   3   36.67    1.14
   6   3   3   37.46    1.17
  -7  -3  -3   36.74    1.22
  -7  -3  -3   39.87    1.20
  -7  -3  -3   40.39    1.15
   7   3   3   37.78    1.19
   7   3   3   40.14    1.24
  -8  -3  -3    0.01    0.04
  -8  -3  -3   -0.08    0.10
   8   3   3   -0.01    0.06
  -9  -3  -3    2.36    0.23
   9   3   3    2.48    0.19
 -10  -3  -3    0.37    0.15
 -11  -3  -3    0.13    0.14
 -12  -3  -3   -0.21    0.14
  10  -4  -3   -0.04    0.09
   9  -4  -3    0.70    0.12
   8  -4  -3    2.23    0.24
   8  -4  -3    1.68    0.16
   7  -4  -3    8.91    0.43
   7  -4  -3    8.14    0.33
   7  -4  -3    8.51    0.33
   6  -4  -3   17.09    0.56
   6  -4  -3   16.36    0.63
   6  -4  -3   16.71    0.54
   6  -4  -3   15.73    0.54
   5  -4  -3    5.16    0.21
   5  -4  -3    5.04    0.21
   5  -4  -3    4.85    0.28
   5  -4  -3    5.45    0.24
   4  -4  -3   14.36    0.46
   4  -4  -3   14.32    0.46
   4  -4  -3   14.28    0.54
   4  -4  -3   15.59    0.49
   3  -4  -3   15.86    0.50
   3  -4  -3   16.22    0.58
   3  -4  -3   16.17    0.50
   3  -4  -3   17.11    0.52
   2  -4  -3   48.49    1.39
   2  -4  -3   48.81    1.41
   2  -4  -3   48.48    1.48
   2  -4  -3   48.60    1.39
   1  -4  -3    7.00    0.23
   1  -4  -3    7.42    0.25
   1  -4  -3    7.25    0.30
   1  -4  -3    7.17    0.23
  -1   4   3    7.32    0.30
  -1   4   3    6.89    0.23
   0  -4  -3   62.18    1.80
   0  -4  -3   61.02    1.80
   0  -4  -3   64.70    1.82
   0  -4  -3   63.52    1.86
   0   4   3   60.02    1.80
   0   4   3   64.50    1.86
   0   4   3   64.34    1.80
  -1  -4  -3   53.67    1.55
  -1  -4  -3   55.46    1.55
  -1  -4  -3   50.31    1.58
  -1  -4  -3   52.85    1.53
  -1  -4  -3   51.63    1.53
  -1  -4  -3   53.01    1.53
   1   4   3   54.10    1.58
   1   4   3   55.70    1.54
   1   4   3   50.88    1.54
  -2  -4  -3   20.32    0.65
  -2  -4  -3   20.17    0.63
  -2  -4  -3   20.07    0.63
  -2  -4  -3   21.02    0.65
   2   4   3   20.17    0.61
   2   4   3   21.46    0.64
   2   4   3   19.57    0.64
   2   4   3   20.65    0.66
  -3  -4  -3   10.10    0.35
  -3  -4  -3    9.98    0.37
  -3  -4  -3   10.29    0.35
   3   4   3   10.19    0.37
   3   4   3   10.17    0.38
   3   4   3   10.42    0.34
  -4  -4  -3   29.18    0.94
  -4  -4  -3   30.18    0.92
  -4  -4  -3   31.40    0.92
   4   4   3   30.91    0.91
   4   4   3   29.34    0.94
  -5  -4  -3   35.27    1.03
  -5  -4  -3   33.38    1.05
  -5  -4  -3   34.64    1.03
   5   4   3   33.05    1.05
   5   4   3   32.15    1.02
  -6  -4  -3    4.53    0.20
  -6  -4  -3    4.69    0.26
  -6  -4  -3    4.64    0.22
   6   4   3    4.49    0.22
   6   4   3    4.39    0.26
  -7  -4  -3    3.94    0.18
  -7  -4  -3    3.89    0.21
  -7  -4  -3    3.59    0.25
   7   4   3    4.11    0.21
   7   4   3    3.22    0.27
  -8  -4  -3   10.65    0.48
  -8  -4  -3   12.01    0.40
   8   4   3   11.77    0.53
   8   4   3   11.36    0.44
  -9  -4  -3    0.15    0.13
   9   4   3    0.32    0.20
 -10  -4  -3    2.07    0.24
 -11  -4  -3    0.57    0.18
 -12  -4  -3    0.49    0.18
  10  -5  -3    0.84    0.14
   9  -5  -3    0.46    0.11
   8  -5  -3    2.85    0.27
   8  -5  -3    2.76    0.20
   7  -5  -3    7.07    0.38
   7  -5  -3    6.42    0.29
   6  -5  -3   12.46    0.44
   6  -5  -3   12.01    0.52
   6  -5  -3   12.04    0.43
   6  -5  -3   13.06    0.46
   5  -5  -3    9.04    0.33
   5  -5  -3    9.26    0.42
   5  -5  -3    9.61    0.36
   5  -5  -3    9.14    0.33
   4  -5  -3   22.92    0.82
   4  -5  -3   23.64    0.73
   4  -5  -3   23.55    0.73
   4  -5  -3   25.43    0.76
   3  -5  -3    1.39    0.10
   3  -5  -3    1.54    0.13
   3  -5  -3    1.37    0.15
   3  -5  -3    1.51    0.10
  -3   5   3    1.46    0.09
   2  -5  -3   17.04    0.53
   2  -5  -3   17.25    0.61
   2  -5  -3   17.79    0.55
   2  -5  -3   17.26    0.53
  -2   5   3   17.53    0.52
  -2   5   3   16.63    0.53
   1  -5  -3   35.96    1.05
   1  -5  -3   36.78    1.07
   1  -5  -3   36.58    1.07
   1  -5  -3   34.73    1.12
   1  -5  -3   35.71    1.05
  -1   5   3   34.15    1.05
  -1   5   3   36.55    1.05
  -1   5   3   36.04    1.12
   0  -5  -3   14.33    0.47
   0  -5  -3   14.52    0.47
   0  -5  -3   14.36    0.45
   0  -5  -3   14.09    0.51
   0  -5  -3   13.87    0.45
   0   5   3   14.60    0.46
   0   5   3   14.02    0.50
   0   5   3   13.52    0.46
  -1  -5  -3   58.19    1.76
  -1  -5  -3   58.53    1.81
  -1  -5  -3   62.89    1.78
  -1  -5  -3   60.34    1.78
  -1  -5  -3   58.99    1.76
  -1  -5  -3   62.46    1.76
   1   5   3   59.87    1.77
   1   5   3   61.45    1.81
   1   5   3   62.74    1.77
  -2  -5  -3   36.90    1.11
  -2  -5  -3   35.85    1.09
  -2  -5  -3   36.31    1.09
   2   5   3   38.28    1.11
   2   5   3   35.83    1.07
   2   5   3   35.98    1.10
   2   5   3   37.09    1.14
  -3  -5  -3   35.80    1.11
  -3  -5  -3   36.45    1.09
  -3  -5  -3   35.61    1.08
   3   5   3   33.74    1.10
   3   5   3   37.48    1.13
   3   5   3   37.00    1.07
  -4  -5  -3   21.29    0.70
  -4  -5  -3   22.35    0.73
  -4  -5  -3   22.86    0.71
   4   5   3   22.01    0.69
   4   5   3   22.31    0.73
  -5  -5  -3   12.41    0.44
  -5  -5  -3   12.79    0.47
   5   5   3   11.69    0.47
  -6  -5  -3    6.27    0.32
  -6  -5  -3    6.64    0.28
   6   5   3    6.41    0.33
   6   5   3    6.54    0.28
  -7  -5  -3    3.96    0.22
  -7  -5  -3    3.94    0.20
  -7  -5  -3    3.84    0.27
   7   5   3    4.30    0.29
   7   5   3    3.83    0.22
  -8  -5  -3    9.94    0.37
  -8  -5  -3    9.76    0.45
   8   5   3    9.37    0.47
  -9  -5  -3    2.19    0.24
   9   5   3    2.90    0.30
 -10  -5  -3    0.54    0.17
  10   5   3    0.22    0.22
 -11  -5  -3   -0.02    0.14
 -12  -5  -3    0.93    0.23
   9  -6  -3    0.33    0.11
   8  -6  -3    0.03    0.07
   7  -6  -3    0.00    0.10
   7  -6  -3    0.14    0.08
   6  -6  -3    0.73    0.10
   6  -6  -3    0.65    0.10
   6  -6  -3    0.70    0.15
   5  -6  -3    2.30    0.15
   5  -6  -3    2.60    0.19
   5  -6  -3    2.44    0.24
   5  -6  -3    2.11    0.15
   4  -6  -3    2.36    0.18
   4  -6  -3    2.45    0.22
   4  -6  -3    2.53    0.15
   4  -6  -3    2.43    0.15
  -4   6   3    2.53    0.13
   3  -6  -3   19.30    0.61
   3  -6  -3   19.80    0.64
   3  -6  -3   19.46    0.61
   3  -6  -3   19.38    0.70
  -3   6   3   19.19    0.60
   2  -6  -3    2.48    0.14
   2  -6  -3    2.44    0.16
   2  -6  -3    2.32    0.19
   2  -6  -3    2.16    0.13
   2  -6  -3    2.37    0.16
  -2   6   3    2.49    0.13
  -2   6   3    2.36    0.14
   1  -6  -3   10.93    0.37
   1  -6  -3   11.46    0.40
   1  -6  -3   10.95    0.38
   1  -6  -3   10.59    0.39
  -1   6   3   11.45    0.38
  -1   6   3   10.70    0.38
   0  -6  -3   52.19    1.59
   0  -6  -3   52.32    1.52
   0  -6  -3   50.45    1.52
   0  -6  -3   51.60    1.54
   0   6   3   50.65    1.52
   0   6   3   53.64    1.53
  -1  -6  -3    5.92    0.23
  -1  -6  -3    5.52    0.23
  -1  -6  -3    6.06    0.24
  -1  -6  -3    5.77    0.26
   1   6   3    6.05    0.25
   1   6   3    5.51    0.25
   1   6   3    5.84    0.25
   1   6   3    5.61    0.28
  -2  -6  -3   15.04    0.51
  -2  -6  -3   16.04    0.54
  -2  -6  -3   15.68    0.51
   2   6   3   14.78    0.58
   2   6   3   14.83    0.52
  -3  -6  -3   15.02    0.55
  -3  -6  -3   15.29    0.52
  -3  -6  -3   15.99    0.53
   3   6   3   15.88    0.51
   3   6   3   15.27    0.54
  -4  -6  -3    6.53    0.28
  -4  -6  -3    6.89    0.29
  -4  -6  -3    6.50    0.31
   4   6   3    6.10    0.30
   4   6   3    7.00    0.27
  -5  -6  -3    0.88    0.11
  -5  -6  -3    1.18    0.16
   5   6   3    1.02    0.16
   5   6   3    1.15    0.11
  -6  -6  -3   -0.03    0.05
  -6  -6  -3   -0.09    0.10
   6   6   3    0.07    0.06
   6   6   3    0.08    0.12
  -7  -6  -3    0.66    0.11
  -7  -6  -3    0.61    0.14
   7   6   3    0.60    0.16
  -8  -6  -3    1.26    0.19
  -8  -6  -3    1.28    0.14
   8   6   3    1.15    0.20
  -9  -6  -3    2.24    0.26
   9   6   3    2.71    0.29
 -10  -6  -3    0.33    0.17
  10   6   3    0.38    0.25
 -11  -6  -3    1.18    0.23
   9  -7  -3    0.65    0.13
   8  -7  -3    0.28    0.10
   7  -7  -3    1.00    0.18
   7  -7  -3    1.06    0.14
   6  -7  -3    7.35    0.41
   6  -7  -3    6.66    0.30
   5  -7  -3    8.41    0.37
   5  -7  -3    8.57    0.34
   5  -7  -3    8.31    0.34
   5  -7  -3    8.44    0.42
  -5   7   3    8.15    0.29
   4  -7  -3    9.06    0.44
   4  -7  -3    8.98    0.35
   4  -7  -3    9.53    0.38
   4  -7  -3    9.40    0.35
  -4   7   3    9.17    0.33
   3  -7  -3    9.82    0.39
   3  -7  -3    9.76    0.36
   3  -7  -3    9.78    0.36
   3  -7  -3    9.76    0.45
  -3   7   3    9.88    0.35
   2  -7  -3   33.91    1.04
   2  -7  -3   32.59    1.02
   2  -7  -3   33.67    1.02
   2  -7  -3   32.67    1.10
  -2   7   3   32.50    1.01
  -2   7   3   34.19    1.01
   1  -7  -3   18.03    0.59
   1  -7  -3   18.34    0.62
   1  -7  -3   17.81    0.59
   1  -7  -3   18.37    0.67
  -1   7   3   17.47    0.59
  -1   7   3   18.78    0.59
   0  -7  -3    7.62    0.29
   0  -7  -3    7.41    0.32
   0  -7  -3    7.14    0.35
   0  -7  -3    7.13    0.29
   0   7   3    7.06    0.30
   0   7   3    7.12    0.29
  -1  -7  -3   18.57    0.60
  -1  -7  -3   18.15    0.60
  -1  -7  -3   17.95    0.62
  -1  -7  -3   17.82    0.60
   1   7   3   18.19    0.61
   1   7   3   18.28    0.60
  -2  -7  -3    9.52    0.39
  -2  -7  -3    9.70    0.37
  -2  -7  -3    9.68    0.37
   2   7   3    9.83    0.39
   2   7   3    9.92    0.39
  -3  -7  -3    7.93    0.32
  -3  -7  -3    8.27    0.36
  -3  -7  -3    8.26    0.32
   3   7   3    7.10    0.29
   3   7   3    7.67    0.34
  -4  -7  -3   23.80    0.81
  -4  -7  -3   24.06    0.78
   4   7   3   23.16    0.80
  -5  -7  -3   25.08    0.82
  -5  -7  -3   23.54    0.86
   5   7   3   26.77    0.87
  -6  -7  -3    6.69    0.32
  -6  -7  -3    6.85    0.37
   6   7   3    7.51    0.39
  -7  -7  -3    8.08    0.36
  -7  -7  -3    8.25    0.43
   7   7   3    8.47    0.44
  -8  -7  -3    4.49    0.25
  -8  -7  -3    3.81    0.33
   8   7   3    3.87    0.35
  -9  -7  -3    6.43    0.41
   9   7   3    5.42    0.41
 -10  -7  -3    2.18    0.28
  10   7   3    1.97    0.30
 -11  -7  -3    1.13    0.23
  11   7   3    1.11    0.31
   8  -8  -3    0.46    0.12
   7  -8  -3    1.07    0.14
   6  -8  -3    1.31    0.21
   6  -8  -3    1.69    0.17
   5  -8  -3    2.12    0.24
   5  -8  -3    2.13    0.18
  -5   8   3    2.46    0.15
   4  -8  -3    5.78    0.35
   4  -8  -3    5.29    0.29
   4  -8  -3    5.39    0.26
  -4   8   3    5.71    0.25
   3  -8  -3   10.19    0.39
   3  -8  -3    9.61    0.38
   3  -8  -3   10.08    0.48
   3  -8  -3   10.25    0.42
  -3   8   3    9.86    0.37
   2  -8  -3    3.38    0.19
   2  -8  -3    3.34    0.19
   2  -8  -3    3.33    0.26
   2  -8  -3    2.93    0.22
  -2   8   3    3.01    0.20
   1  -8  -3    7.25    0.30
   1  -8  -3    6.99    0.30
   1  -8  -3    7.22    0.33
   1  -8  -3    6.91    0.37
  -1   8   3    7.01    0.31
   0  -8  -3    5.99    0.31
   0  -8  -3    6.38    0.28
   0  -8  -3    6.60    0.35
   0  -8  -3    6.36    0.28
   0   8   3    6.21    0.29
  -1  -8  -3   16.11    0.58
  -1  -8  -3   15.64    0.55
  -1  -8  -3   15.98    0.55
   1   8   3   15.20    0.56
   1   8   3   16.10    0.55
  -2  -8  -3    4.99    0.25
  -2  -8  -3    4.96    0.29
   2   8   3    5.48    0.28
   2   8   3    4.89    0.28
  -3  -8  -3   14.08    0.55
  -3  -8  -3   14.47    0.52
   3   8   3   14.40    0.55
  -4  -8  -3   -0.08    0.10
  -4  -8  -3   -0.14    0.05
   4   8   3   -0.08    0.11
  -5  -8  -3   18.78    0.71
  -5  -8  -3   19.40    0.67
   5   8   3   18.87    0.71
  -6  -8  -3   16.15    0.66
   6   8   3   16.84    0.67
  -7  -8  -3   -0.09    0.13
   7   8   3   -0.15    0.13
  -8  -8  -3    1.09    0.22
  -8  -8  -3    1.13    0.16
   8   8   3    0.97    0.22
  -9  -8  -3    0.02    0.16
   9   8   3    0.06    0.19
 -10  -8  -3    0.70    0.22
  10   8   3   -0.03    0.20
   7  -9  -3    0.26    0.10
   6  -9  -3    0.73    0.13
   5  -9  -3    4.03    0.32
   5  -9  -3    3.97    0.25
  -5   9   3    3.76    0.20
   4  -9  -3    5.00    0.27
   4  -9  -3    5.19    0.34
   4  -9  -3    5.84    0.37
  -4   9   3    5.40    0.26
   3  -9  -3    7.54    0.42
   3  -9  -3    7.57    0.34
   3  -9  -3    7.62    0.37
  -3   9   3    7.62    0.33
   2  -9  -3    3.28    0.21
   2  -9  -3    3.14    0.28
   2  -9  -3    3.52    0.26
  -2   9   3    4.02    0.24
   1  -9  -3    1.79    0.17
   1  -9  -3    1.69    0.20
   1  -9  -3    1.99    0.20
  -1   9   3    1.80    0.18
   0  -9  -3   10.18    0.41
   0  -9  -3   10.34    0.45
   0  -9  -3   11.02    0.42
   0   9   3   10.94    0.44
   0   9   3   10.78    0.42
  -1  -9  -3    7.27    0.36
  -1  -9  -3    7.05    0.33
   1   9   3    8.01    0.34
   1   9   3    7.91    0.37
  -2  -9  -3    3.13    0.21
  -2  -9  -3    2.92    0.26
   2   9   3    3.25    0.26
   2   9   3    3.13    0.24
  -3  -9  -3    0.88    0.13
  -3  -9  -3    0.75    0.16
   3   9   3    1.00    0.17
  -4  -9  -3    7.90    0.36
  -4  -9  -3    8.16    0.41
   4   9   3    7.96    0.42
  -5  -9  -3    0.17    0.13
   5   9   3   -0.15    0.14
  -6  -9  -3    3.90    0.33
   6   9   3    3.62    0.31
  -7  -9  -3    1.56    0.24
   7   9   3    1.35    0.23
  -8  -9  -3    0.48    0.20
   8   9   3    0.61    0.20
  -9  -9  -3    0.47    0.21
   9   9   3    0.53    0.21
  10   9   3    0.75    0.25
   7 -10  -3    0.70    0.14
   6 -10  -3    0.28    0.11
   5 -10  -3    0.69    0.13
   4 -10  -3   -0.20    0.12
   4 -10  -3    0.05    0.09
  -4  10   3    0.01    0.09
   3 -10  -3    2.12    0.19
   3 -10  -3    2.07    0.26
   3 -10  -3    2.02    0.22
  -3  10   3    2.04    0.19
   2 -10  -3    9.29    0.49
   2 -10  -3    9.01    0.44
   2 -10  -3    9.05    0.40
  -2  10   3    9.14    0.40
   1 -10  -3    5.94    0.31
   1 -10  -3    6.42    0.36
  -1  10   3    6.42    0.33
   0 -10  -3    2.47    0.20
   0 -10  -3    2.88    0.26
   0 -10  -3    2.69    0.21
   0  10   3    2.58    0.21
   0  10   3    3.04    0.25
  -1 -10  -3    5.40    0.33
  -1 -10  -3    4.99    0.27
   1  10   3    5.36    0.32
   1  10   3    4.77    0.28
  -2 -10  -3   14.58    0.57
  -2 -10  -3   15.27    0.62
   2  10   3   15.86    0.61
   2  10   3   15.48    0.59
  -3 -10  -3    8.53    0.44
  -3 -10  -3    8.77    0.39
   3  10   3    9.05    0.45
  -4 -10  -3    3.47    0.30
   4  10   3    3.45    0.31
  -5 -10  -3    1.31    0.22
   5  10   3    1.32    0.22
  -6 -10  -3    2.60    0.30
   6  10   3    2.47    0.28
  -7 -10  -3    2.09    0.29
   7  10   3    1.47    0.25
  -8 -10  -3    0.50    0.22
   8  10   3    0.71    0.23
   9  10   3    0.97    0.25
   5 -11  -3    0.00    0.10
   4 -11  -3    1.72    0.19
  -4  11   3    1.97    0.18
   3 -11  -3    1.13    0.16
  -3  11   3    1.33    0.17
   2 -11  -3    7.86    0.39
   2 -11  -3    8.99    0.45
  -2  11   3    8.31    0.39
   1 -11  -3    6.24    0.37
   1 -11  -3    5.58    0.32
   1 -11  -3    5.57    0.31
  -1  11   3    5.89    0.34
   0 -11  -3    6.41    0.38
   0 -11  -3    6.52    0.34
   0  11   3    6.58    0.37
  -1 -11  -3    5.34    0.36
  -1 -11  -3    4.76    0.28
   1  11   3    4.67    0.34
  -2 -11  -3    3.70    0.25
  -2 -11  -3    3.90    0.33
   2  11   3    3.59    0.32
   2  11   3    3.95    0.28
  -3 -11  -3    3.96    0.35
   3  11   3    4.26    0.35
  -4 -11  -3    0.84    0.19
   4  11   3    0.91    0.21
  -5 -11  -3    0.75    0.20
   5  11   3    0.91    0.22
  -6 -11  -3    2.88    0.32
   6  11   3    2.63    0.30
  -7 -11  -3    1.59    0.27
   7  11   3    1.44    0.27
   8  11   3    0.03    0.21
   4 -12  -3    0.36    0.13
   3 -12  -3    0.63    0.14
  -3  12   3    0.81    0.16
   2 -12  -3    0.59    0.14
  -2  12   3    0.60    0.15
   1 -12  -3    1.66    0.19
   1 -12  -3    1.73    0.24
   1 -12  -3    1.47    0.18
  -1  12   3    1.77    0.21
   0 -12  -3    1.43    0.18
   0 -12  -3    1.50    0.23
   0  12   3    1.21    0.20
  -1 -12  -3    2.36    0.28
   1  12   3    2.79    0.27
  -2 -12  -3    0.12    0.16
   2  12   3    0.07    0.16
  -3 -12  -3    2.43    0.30
   3  12   3    2.80    0.30
  -4 -12  -3    2.41    0.30
   4  12   3    3.10    0.32
  -5 -12  -3    1.78    0.28
   5  12   3    1.75    0.28
  -6 -12  -3    0.20    0.19
   6  12   3    0.28    0.21
  -1  13   3    1.29    0.20
   0 -13  -3    0.29    0.17
   0  13   3    0.49    0.17
  -1 -13  -3    1.51    0.25
   1  13   3    1.40    0.23
  -2 -13  -3    3.24    0.35
   2  13   3    3.60    0.33
  -3 -13  -3    0.82    0.22
   3  13   3    1.16    0.25
   3  12  -4    1.71    0.29
   3  12  -4    1.92    0.29
   2  12  -4    4.20    0.39
   2  12  -4    3.05    0.33
  -2 -12   4    3.52    0.36
   1  12  -4    1.28    0.26
   1  12  -4    1.49    0.27
  -1 -12   4    1.45    0.26
   0  12  -4    4.15    0.39
   0  12  -4    4.10    0.39
   0 -12   4    4.75    0.41
  -1  12  -4    2.43    0.31
  -1  12  -4    2.08    0.30
   1 -12   4    2.85    0.31
  -2  12  -4    5.33    0.43
  -2  12  -4    5.94    0.43
   2 -12   4    5.99    0.43
  -3  12  -4    5.37    0.41
  -3  12  -4    5.47    0.44
   3 -12   4    5.25    0.42
  -4  12  -4    0.46    0.20
  -4  12  -4    0.14    0.18
   4 -12   4    0.40    0.20
  -5  12  -4    1.14    0.24
  -5  12  -4    1.15    0.23
   5 -12   4    1.47    0.27
   5  11  -4    0.31    0.22
   4  11  -4    1.67    0.27
   4  11  -4    1.96    0.29
  -4 -11   4    1.55    0.25
  -4 -11   4    1.99    0.29
   3  11  -4    1.59    0.26
   3  11  -4    1.81    0.28
  -3 -11   4    1.40    0.24
  -3 -11   4    1.88    0.27
   2  11  -4    4.17    0.38
   2  11  -4    4.55    0.38
  -2 -11   4    4.47    0.37
   1  11  -4    1.53    0.24
   1  11  -4    1.61    0.27
  -1 -11   4    1.82    0.25
   0  11  -4    1.13    0.24
   0  11  -4    1.35    0.24
   0 -11   4    1.16    0.22
  -1  11  -4    2.40    0.30
  -1  11  -4    2.79    0.30
   1 -11   4    3.00    0.30
  -2  11  -4    4.20    0.37
  -2  11  -4    4.32    0.36
   2 -11   4    4.72    0.37
  -3  11  -4    6.66    0.44
  -3  11  -4    6.26    0.42
   3 -11   4    7.38    0.44
  -4  11  -4    4.69    0.38
  -4  11  -4    3.96    0.36
   4 -11   4    4.38    0.38
  -5  11  -4    4.02    0.36
  -5  11  -4    4.35    0.38
   5 -11   4    4.74    0.39
  -6  11  -4    7.27    0.44
  -6  11  -4    6.64    0.46
   6 -11   4    6.53    0.47
  -7  11  -4    3.07    0.33
   7 -11   4    3.50    0.37
   6  10  -4    1.15    0.26
   6  10  -4    1.35    0.26
  -6 -10   4    1.46    0.26
   5  10  -4    2.69    0.32
   5  10  -4    2.45    0.30
  -5 -10   4    3.00    0.33
  -5 -10   4    2.81    0.29
   4  10  -4    0.08    0.17
   4  10  -4    0.08    0.17
  -4 -10   4    0.34    0.17
  -4 -10   4    0.26    0.15
   3  10  -4    3.79    0.35
   3  10  -4    4.14    0.36
  -3 -10   4    4.15    0.34
  -3 -10   4    3.72    0.35
   2  10  -4    3.78    0.34
   2  10  -4    3.65    0.32
  -2 -10   4    3.49    0.31
   1  10  -4    2.97    0.31
   1  10  -4    2.71    0.29
  -1 -10   4    2.42    0.26
   0  10  -4    1.49    0.23
   0  10  -4    1.35    0.21
   0 -10   4    1.20    0.20
  -1  10  -4    3.54    0.32
  -1  10  -4    3.70    0.33
   1 -10   4    3.51    0.31
  -2  10  -4    1.17    0.21
  -2  10  -4    1.51    0.24
   2 -10   4    1.67    0.22
  -3  10  -4    3.83    0.33
  -3  10  -4    3.84    0.33
   3 -10   4    3.58    0.32
  -4  10  -4    4.33    0.35
  -4  10  -4    4.43    0.34
   4 -10   4    4.60    0.35
  -5  10  -4    2.29    0.26
  -5  10  -4    2.19    0.26
   5 -10   4    2.51    0.29
  -6  10  -4    2.57    0.28
  -6  10  -4    2.83    0.29
   6 -10   4    2.74    0.29
  -7  10  -4    1.06    0.22
  -7  10  -4    1.09    0.21
   7 -10   4    1.46    0.25
  -8  10  -4    0.95    0.22
   8 -10   4    0.96    0.23
   7   9  -4    4.56    0.41
   7   9  -4    3.43    0.34
  -7  -9   4    4.81    0.39
   6   9  -4    0.65    0.21
   6   9  -4    0.92    0.22
  -6  -9   4    0.91    0.19
  -6  -9   4    0.82    0.21
   5   9  -4    3.59    0.32
   5   9  -4    4.11    0.34
  -5  -9   4    3.78    0.32
  -5  -9   4    4.28    0.36
   4   9  -4    6.31    0.39
   4   9  -4    4.96    0.37
  -4  -9   4    5.66    0.40
  -4  -9   4    5.51    0.36
   3   9  -4    3.41    0.32
   3   9  -4    2.54    0.27
  -3  -9   4    2.59    0.29
  -3  -9   4    3.20    0.28
   2   9  -4    4.98    0.34
   2   9  -4    5.54    0.36
  -2  -9   4    5.13    0.33
   1   9  -4    4.51    0.32
   1   9  -4    4.05    0.32
  -1  -9   4    4.41    0.31
   0   9  -4    0.99    0.19
   0   9  -4    0.95    0.17
   0  -9   4    1.12    0.18
  -1   9  -4    4.71    0.33
  -1   9  -4    4.86    0.33
   1  -9   4    4.65    0.32
  -2   9  -4    8.65    0.44
  -2   9  -4    8.60    0.43
   2  -9   4    8.72    0.43
  -3   9  -4    6.55    0.38
  -3   9  -4    6.55    0.38
   3  -9   4    6.20    0.37
  -4   9  -4    7.30    0.40
  -4   9  -4    7.35    0.41
   4  -9   4    7.24    0.41
  -5   9  -4    8.12    0.43
  -5   9  -4    8.62    0.43
   5  -9   4    7.59    0.43
  -6   9  -4    3.03    0.29
  -6   9  -4    3.47    0.30
   6  -9   4    3.35    0.32
  -7   9  -4    4.28    0.34
  -7   9  -4    4.26    0.35
   7  -9   4    4.31    0.35
  -8   9  -4    1.83    0.25
  -8   9  -4    1.48    0.23
   8  -9   4    1.87    0.27
  -9   9  -4    2.25    0.27
   9  -9   4    1.65    0.26
   7   8  -4   -0.01    0.16
   7   8  -4    0.23    0.18
  -7  -8   4    0.20    0.14
  -7  -8   4    0.06    0.16
   6   8  -4    0.15    0.11
   6   8  -4    0.33    0.18
   6   8  -4   -0.04    0.16
  -6  -8   4    0.30    0.17
  -6  -8   4    0.03    0.12
   5   8  -4    3.51    0.25
   5   8  -4    3.70    0.32
   5   8  -4    4.21    0.33
  -5  -8   4    3.52    0.29
  -5  -8   4    3.69    0.32
   4   8  -4    1.73    0.22
   4   8  -4    1.97    0.24
   4   8  -4    1.53    0.16
  -4  -8   4    1.34    0.21
  -4  -8   4    1.58    0.20
   3   8  -4    0.56    0.11
   3   8  -4    0.63    0.17
   3   8  -4    0.40    0.14
  -3  -8   4    0.39    0.14
  -3  -8   4    0.58    0.14
   2   8  -4   11.24    0.50
   2   8  -4   12.57    0.52
   2   8  -4   11.99    0.47
  -2  -8   4   11.70    0.49
   1   8  -4   10.99    0.43
   1   8  -4   11.00    0.48
   1   8  -4   11.07    0.48
  -1  -8   4   10.31    0.46
   0   8  -4   25.39    0.82
   0   8  -4   23.33    0.85
   0   8  -4   25.57    0.86
   0  -8   4   23.68    0.84
  -1   8  -4    7.63    0.33
  -1   8  -4    7.37    0.38
  -1   8  -4    6.91    0.37
   1  -8   4    7.48    0.37
  -2   8  -4    4.18    0.23
  -2   8  -4    4.37    0.30
  -2   8  -4    4.31    0.29
   2  -8   4    4.17    0.28
  -3   8  -4   24.36    0.80
  -3   8  -4   24.79    0.85
  -3   8  -4   23.71    0.84
   3  -8   4   23.94    0.85
  -4   8  -4   13.45    0.55
  -4   8  -4   12.36    0.54
  -4   8  -4   13.74    0.56
   4  -8   4   14.10    0.56
  -5   8  -4    4.41    0.32
  -5   8  -4    4.35    0.32
   5  -8   4    4.54    0.31
  -6   8  -4    3.63    0.30
  -6   8  -4    3.92    0.31
   6  -8   4    3.83    0.32
   6  -8   4    3.75    0.24
  -7   8  -4    3.10    0.29
  -7   8  -4    3.01    0.28
   7  -8   4    2.61    0.21
   7  -8   4    2.77    0.28
  -8   8  -4    2.80    0.28
  -8   8  -4    3.04    0.28
   8  -8   4    2.43    0.27
  -9   8  -4    2.07    0.26
  -9   8  -4    1.25    0.31
   9  -8   4    2.43    0.28
 -10   8  -4    2.44    0.28
  10  -8   4    2.76    0.32
   8   7  -4    0.00    0.15
  -8  -7   4    0.09    0.12
  -8  -7   4    0.03    0.15
   7   7  -4    2.39    0.26
   7   7  -4    1.85    0.25
   7   7  -4    1.98    0.20
  -7  -7   4    1.99    0.26
  -7  -7   4    1.88    0.21
   6   7  -4    2.63    0.27
   6   7  -4    2.08    0.25
   6   7  -4    2.00    0.20
  -6  -7   4    2.32    0.27
  -6  -7   4    1.82    0.21
   5   7  -4    1.79    0.18
   5   7  -4    1.57    0.21
   5   7  -4    1.57    0.21
  -5  -7   4    1.68    0.19
  -5  -7   4    1.57    0.21
   4   7  -4    3.44    0.22
   4   7  -4    3.26    0.26
   4   7  -4    3.09    0.27
  -4  -7   4    3.24    0.24
  -4  -7   4    3.39    0.29
   3   7  -4    1.98    0.18
   3   7  -4    1.93    0.21
   3   7  -4    2.28    0.24
  -3  -7   4    1.98    0.19
  -3  -7   4    1.86    0.22
   2   7  -4    6.33    0.33
   2   7  -4    5.79    0.32
  -2  -7   4    5.56    0.30
  -2  -7   4    6.21    0.35
   1   7  -4   31.58    1.00
   1   7  -4   31.06    1.02
   1   7  -4   31.23    1.03
  -1  -7   4   31.11    1.01
   0   7  -4    0.48    0.14
   0   7  -4    0.53    0.10
   0   7  -4    0.56    0.10
   0   7  -4    0.51    0.13
   0  -7   4    0.39    0.11
  -1   7  -4    6.68    0.32
  -1   7  -4    6.49    0.29
  -1   7  -4    6.39    0.32
  -1   7  -4    6.67    0.29
   1  -7   4    6.59    0.32
   1  -7   4    5.15    0.25
  -2   7  -4    2.40    0.22
  -2   7  -4    2.46    0.17
  -2   7  -4    2.83    0.17
  -2   7  -4    2.65    0.22
   2  -7   4    2.92    0.17
   2  -7   4    2.44    0.21
  -3   7  -4    0.33    0.08
  -3   7  -4    0.30    0.12
  -3   7  -4    0.33    0.14
  -3   7  -4    0.57    0.09
   3  -7   4    0.43    0.12
   3  -7   4    0.62    0.09
  -4   7  -4    4.26    0.22
  -4   7  -4    4.08    0.28
  -4   7  -4    4.43    0.29
  -4   7  -4    4.28    0.22
   4  -7   4    3.99    0.22
   4  -7   4    4.09    0.27
  -5   7  -4    2.89    0.26
  -5   7  -4    2.43    0.22
   5  -7   4    2.39    0.18
   5  -7   4    2.28    0.18
   5  -7   4    2.88    0.24
  -6   7  -4    4.19    0.30
  -6   7  -4    4.51    0.30
   6  -7   4    3.65    0.29
   6  -7   4    4.33    0.24
   6  -7   4    4.49    0.24
  -7   7  -4    6.69    0.37
  -7   7  -4    7.16    0.37
   7  -7   4    6.78    0.38
   7  -7   4    5.97    0.30
  -8   7  -4    4.29    0.32
  -8   7  -4    3.76    0.30
   8  -7   4    4.43    0.33
   8  -7   4    3.71    0.24
  -9   7  -4    0.93    0.19
  -9   7  -4    0.95    0.19
   9  -7   4    1.12    0.21
 -10   7  -4    2.91    0.30
  10  -7   4    3.13    0.33
 -11   7  -4    1.59    0.24
  11  -7   4    2.01    0.29
   9   6  -4    0.57    0.15
  -9  -6   4    0.76    0.20
   8   6  -4    1.12    0.17
  -8  -6   4    1.34    0.22
  -8  -6   4    1.59    0.19
   7   6  -4    2.60    0.23
   7   6  -4    2.39    0.25
   7   6  -4    2.10    0.24
  -7  -6   4    2.21    0.21
  -7  -6   4    2.63    0.28
   6   6  -4    3.19    0.29
   6   6  -4    2.71    0.21
   6   6  -4    2.84    0.27
  -6  -6   4    2.92    0.23
  -6  -6   4    2.62    0.27
   5   6  -4    4.30    0.29
   5   6  -4    4.28    0.25
   5   6  -4    4.16    0.29
  -5  -6   4    4.17    0.26
  -5  -6   4    3.96    0.30
   4   6  -4   21.56    0.74
   4   6  -4   21.61    0.77
   4   6  -4   22.10    0.77
  -4  -6   4   22.24    0.82
  -4  -6   4   22.46    0.75
   3   6  -4    4.98    0.25
   3   6  -4    5.09    0.29
   3   6  -4    4.79    0.29
  -3  -6   4    5.03    0.30
  -3  -6   4    4.99    0.27
   2   6  -4    6.73    0.33
   2   6  -4    7.45    0.31
   2   6  -4    7.44    0.30
   2   6  -4    7.22    0.34
  -2  -6   4    6.78    0.32
  -2  -6   4    6.62    0.35
   1   6  -4    3.63    0.19
   1   6  -4    3.40    0.20
   1   6  -4    3.78    0.24
   1   6  -4    3.48    0.23
  -1  -6   4    3.56    0.17
  -1  -6   4    3.41    0.22
   0   6  -4   35.20    1.06
   0   6  -4   33.46    1.08
   0   6  -4   34.71    1.06
   0   6  -4   33.37    1.07
   0  -6   4   32.47    1.07
   0  -6   4   35.05    1.04
  -1   6  -4   22.21    0.76
  -1   6  -4   23.15    0.73
  -1   6  -4   23.50    0.73
  -1   6  -4   21.74    0.75
  -1   6  -4   22.44    0.72
   1  -6   4   23.31    0.72
   1  -6   4   21.12    0.75
  -2   6  -4   14.35    0.51
  -2   6  -4   15.28    0.55
  -2   6  -4   14.27    0.54
  -2   6  -4   15.05    0.50
   2  -6   4   14.70    0.54
  -3   6  -4    1.66    0.18
  -3   6  -4    1.30    0.11
  -3   6  -4    1.61    0.14
  -3   6  -4    1.15    0.16
   3  -6   4    1.34    0.12
   3  -6   4    1.39    0.16
  -4   6  -4    4.42    0.22
  -4   6  -4    4.01    0.25
  -4   6  -4    4.56    0.27
   4  -6   4    4.04    0.25
   4  -6   4    4.27    0.21
  -5   6  -4    9.75    0.43
  -5   6  -4   10.04    0.38
  -5   6  -4   10.10    0.43
   5  -6   4    9.89    0.43
   5  -6   4   10.21    0.38
   5  -6   4    9.75    0.39
  -6   6  -4   23.81    0.83
   6  -6   4   24.01    0.79
   6  -6   4   23.04    0.82
   6  -6   4   24.06    0.77
  -7   6  -4    2.25    0.23
  -7   6  -4    2.57    0.25
   7  -6   4    2.23    0.17
   7  -6   4    2.29    0.18
   7  -6   4    2.26    0.23
  -8   6  -4    2.53    0.25
  -8   6  -4    3.10    0.28
   8  -6   4    2.71    0.26
   8  -6   4    2.00    0.20
   8  -6   4    2.80    0.20
  -9   6  -4    5.78    0.34
  -9   6  -4    5.09    0.36
   9  -6   4    5.17    0.29
   9  -6   4    4.68    0.35
 -10   6  -4    0.97    0.20
  10  -6   4    0.71    0.19
 -11   6  -4    0.29    0.17
  11  -6   4    0.26    0.19
   9   5  -4    0.73    0.15
  -9  -5   4    1.20    0.22
  -9  -5   4    0.70    0.14
   8   5  -4    0.28    0.12
  -8  -5   4    0.21    0.11
  -8  -5   4    0.41    0.15
   7   5  -4    1.44    0.21
   7   5  -4    1.95    0.19
   7   5  -4    1.85    0.21
  -7  -5   4    1.60    0.18
  -7  -5   4    1.64    0.23
   6   5  -4    1.28    0.15
   6   5  -4    1.77    0.21
   6   5  -4    1.66    0.20
  -6  -5   4    1.34    0.15
  -6  -5   4    1.54    0.20
   5   5  -4    6.05    0.32
   5   5  -4    5.87    0.29
   5   5  -4    5.92    0.32
  -5  -5   4    6.01    0.29
  -5  -5   4    6.26    0.35
   4   5  -4   30.47    0.98
   4   5  -4   31.56    0.96
   4   5  -4   29.69    0.96
   4   5  -4   30.09    0.98
  -4  -5   4   29.91    0.95
  -4  -5   4   29.45    1.02
   3   5  -4   11.23    0.45
   3   5  -4   11.61    0.45
   3   5  -4   11.64    0.42
   3   5  -4   12.27    0.42
  -3  -5   4   11.13    0.48
  -3  -5   4   11.53    0.43
   2   5  -4    5.03    0.22
   2   5  -4    4.71    0.25
   2   5  -4    4.44    0.22
   2   5  -4    4.79    0.25
   2   5  -4    4.68    0.21
  -2  -5   4    4.28    0.26
  -2  -5   4    4.48    0.23
   1   5  -4   19.88    0.63
   1   5  -4   19.54    0.65
   1   5  -4   20.15    0.66
   1   5  -4   19.55    0.63
  -1  -5   4   19.15    0.64
  -1  -5   4   18.83    0.68
   0   5  -4   18.82    0.61
   0   5  -4   19.37    0.64
   0   5  -4   18.88    0.63
   0   5  -4   18.89    0.61
   0  -5   4   18.14    0.62
   0  -5   4   18.62    0.59
  -1   5  -4   18.82    0.59
  -1   5  -4   18.94    0.60
  -1   5  -4   18.30    0.62
  -1   5  -4   17.31    0.62
  -1   5  -4   19.38    0.60
   1  -5   4   17.84    0.59
   1  -5   4   18.37    0.59
   1  -5   4   18.25    0.62
  -2   5  -4   14.01    0.47
  -2   5  -4   13.24    0.49
  -2   5  -4   13.42    0.47
  -2   5  -4   13.53    0.45
  -2   5  -4   13.68    0.49
   2  -5   4   13.65    0.49
  -3   5  -4   14.52    0.53
  -3   5  -4   15.12    0.48
  -3   5  -4   14.87    0.53
  -3   5  -4   15.53    0.51
   3  -5   4   14.70    0.53
   3  -5   4   15.13    0.50
  -4   5  -4    7.48    0.33
  -4   5  -4    7.36    0.32
  -4   5  -4    7.39    0.29
   4  -5   4    6.81    0.32
   4  -5   4    7.19    0.29
   4  -5   4    7.43    0.27
  -5   5  -4    5.51    0.24
  -5   5  -4    5.25    0.29
  -5   5  -4    5.34    0.29
   5  -5   4    5.43    0.24
   5  -5   4    5.04    0.28
   5  -5   4    5.35    0.23
  -6   5  -4    2.10    0.21
  -6   5  -4    1.49    0.18
   6  -5   4    1.94    0.14
   6  -5   4    1.50    0.17
   6  -5   4    1.80    0.15
  -7   5  -4   13.39    0.53
  -7   5  -4   13.51    0.53
   7  -5   4   13.60    0.48
   7  -5   4   12.54    0.53
   7  -5   4   13.72    0.50
  -8   5  -4    2.49    0.25
  -8   5  -4    2.53    0.25
   8  -5   4    2.66    0.19
   8  -5   4    3.15    0.26
   8  -5   4    2.98    0.19
  -9   5  -4    0.95    0.18
  -9   5  -4    0.72    0.17
   9  -5   4    0.89    0.18
   9  -5   4    0.91    0.13
 -10   5  -4    1.84    0.24
 -10   5  -4    1.90    0.24
  10  -5   4    2.33    0.27
  10  -5   4    2.11    0.20
 -11   5  -4    0.90    0.20
  11  -5   4    1.07    0.22
 -12   5  -4    0.36    0.17
  12  -5   4    0.73    0.21
   9   4  -4    0.40    0.13
  -9  -4   4    0.36    0.16
   8   4  -4    3.81    0.26
  -8  -4   4    3.39    0.31
  -8  -4   4    3.62    0.23
   7   4  -4    3.29    0.29
   7   4  -4    3.28    0.23
  -7  -4   4    3.53    0.29
  -7  -4   4    3.90    0.22
   6   4  -4    6.25    0.33
   6   4  -4    5.98    0.33
   6   4  -4    6.13    0.29
  -6  -4   4    5.84    0.35
  -6  -4   4    5.92    0.28
   5   4  -4    0.71    0.14
   5   4  -4    0.73    0.10
   5   4  -4    0.69    0.13
   5   4  -4    0.82    0.11
  -5  -4   4    0.65    0.14
  -5  -4   4    0.71    0.11
   4   4  -4    7.90    0.31
   4   4  -4    8.00    0.34
   4   4  -4    7.91    0.34
   4   4  -4    7.92    0.32
  -4  -4   4    7.73    0.38
  -4  -4   4    7.76    0.31
  -4  -4   4    8.19    0.32
   3   4  -4   17.87    0.59
   3   4  -4   16.66    0.57
   3   4  -4   17.83    0.60
   3   4  -4   17.49    0.57
  -3  -4   4   18.07    0.58
  -3  -4   4   17.20    0.57
  -3  -4   4   16.84    0.63
   2   4  -4   14.11    0.51
   2   4  -4   15.19    0.49
   2   4  -4   14.96    0.51
   2   4  -4   14.74    0.49
  -2  -4   4   14.74    0.55
  -2  -4   4   15.24    0.50
  -2  -4   4   14.40    0.50
   1   4  -4   23.40    0.75
   1   4  -4   23.78    0.74
   1   4  -4   23.46    0.73
   1   4  -4   23.45    0.76
  -1  -4   4   23.27    0.79
  -1  -4   4   23.31    0.74
  -1  -4   4   25.66    0.75
   0   4  -4    6.19    0.27
   0   4  -4    6.20    0.26
   0   4  -4    6.05    0.24
   0   4  -4    5.87    0.24
   0  -4   4    6.63    0.27
   0  -4   4    6.19    0.22
   0  -4   4    6.29    0.26
  -1   4  -4   43.28    1.35
  -1   4  -4   46.59    1.34
  -1   4  -4   45.30    1.36
  -1   4  -4   45.69    1.34
   1  -4   4   43.54    1.35
   1  -4   4   46.61    1.33
   1  -4   4   45.07    1.32
  -2   4  -4   83.15    2.39
  -2   4  -4   82.36    2.41
  -2   4  -4   79.68    2.40
  -2   4  -4   82.79    2.36
  -2   4  -4   85.08    2.39
   2  -4   4   85.30    2.38
   2  -4   4   79.17    2.40
  -3   4  -4   81.17    2.36
  -3   4  -4   81.08    2.35
  -3   4  -4   80.53    2.30
  -3   4  -4   80.38    2.34
  -3   4  -4   82.32    2.34
   3  -4   4   78.04    2.35
  -4   4  -4   32.92    1.04
  -4   4  -4   33.15    1.04
  -4   4  -4   33.04    1.02
   4  -4   4   34.60    1.02
   4  -4   4   33.43    1.04
   4  -4   4   32.96    0.99
  -5   4  -4   12.95    0.45
  -5   4  -4   12.80    0.48
  -5   4  -4   12.72    0.48
   5  -4   4   12.51    0.47
   5  -4   4   12.76    0.43
   5  -4   4   13.70    0.45
  -6   4  -4   15.52    0.57
  -6   4  -4   15.60    0.53
  -6   4  -4   15.46    0.56
   6  -4   4   15.76    0.52
   6  -4   4   15.74    0.54
   6  -4   4   15.03    0.57
  -7   4  -4    2.54    0.22
  -7   4  -4    2.76    0.23
   7  -4   4    2.90    0.17
   7  -4   4    2.49    0.22
   7  -4   4    2.45    0.17
  -8   4  -4    5.50    0.32
  -8   4  -4    5.56    0.32
   8  -4   4    5.98    0.33
   8  -4   4    5.96    0.28
   8  -4   4    5.48    0.27
  -9   4  -4    1.23    0.18
  -9   4  -4    1.46    0.20
   9  -4   4    1.03    0.13
   9  -4   4    1.16    0.15
   9  -4   4    1.01    0.18
 -10   4  -4    0.75    0.17
 -10   4  -4    0.82    0.18
  10  -4   4    0.74    0.18
  10  -4   4    0.82    0.13
 -11   4  -4    4.36    0.35
  11  -4   4    4.37    0.36
  11  -4   4    3.63    0.27
 -12   4  -4    1.27    0.22
  12  -4   4    1.05    0.24
  10   3  -4    0.14    0.11
 -10  -3   4    0.07    0.14
   9   3  -4    1.35    0.17
  -9  -3   4    1.52    0.22
   8   3  -4    0.01    0.09
  -8  -3   4    0.00    0.12
  -8  -3   4   -0.01    0.07
   7   3  -4    1.87    0.18
  -7  -3   4    2.15    0.23
  -7  -3   4    2.23    0.16
   6   3  -4    2.63    0.18
   6   3  -4    2.50    0.21
   6   3  -4    2.70    0.18
  -6  -3   4    2.52    0.17
  -6  -3   4    2.77    0.24
   5   3  -4    0.01    0.05
   5   3  -4    0.00    0.06
   5   3  -4   -0.04    0.10
   5   3  -4   -0.02    0.09
  -5  -3   4   -0.07    0.07
  -5  -3   4   -0.01    0.09
   4   3  -4    1.61    0.15
   4   3  -4    1.48    0.15
   4   3  -4    1.45    0.12
   4   3  -4    1.44    0.12
  -4  -3   4    1.33    0.16
  -4  -3   4    1.79    0.13
  -4  -3   4    1.34    0.12
   3   3  -4   22.17    0.71
   3   3  -4   21.77    0.69
   3   3  -4   22.50    0.69
   3   3  -4   23.26    0.72
  -3  -3   4   21.77    0.69
  -3  -3   4   21.70    0.76
  -3  -3   4   23.41    0.70
   2   3  -4    2.66    0.16
   2   3  -4    2.67    0.14
   2   3  -4    2.88    0.14
   2   3  -4    2.74    0.17
  -2  -3   4    2.41    0.18
  -2  -3   4    2.68    0.15
  -2  -3   4    2.86    0.15
   1   3  -4   55.70    1.67
   1   3  -4   57.37    1.68
   1   3  -4   58.60    1.66
   1   3  -4   55.95    1.66
  -1  -3   4   59.73    1.67
  -1  -3   4   56.39    1.72
  -1  -3   4   56.78    1.66
   0   3  -4   17.31    0.55
   0   3  -4   15.95    0.54
   0   3  -4   16.91    0.53
   0   3  -4   16.44    0.53
   0  -3   4   16.55    0.54
   0  -3   4   16.37    0.57
   0  -3   4   18.20    0.54
  -1   3  -4   28.13    0.84
  -1   3  -4   27.37    0.86
  -1   3  -4   28.73    0.86
  -1   3  -4   28.08    0.84
   1  -3   4   27.23    0.85
   1  -3   4   28.77    0.86
   1  -3   4   28.08    0.83
   1  -3   4   28.06    0.83
  -2   3  -4   17.09    0.53
  -2   3  -4   17.20    0.55
  -2   3  -4   15.87    0.53
  -2   3  -4   17.12    0.50
  -2   3  -4   16.96    0.55
   2  -3   4   16.77    0.56
   2  -3   4   16.66    0.55
   2  -3   4   16.77    0.52
  -3   3  -4   13.48    0.47
  -3   3  -4   13.54    0.47
  -3   3  -4   13.78    0.45
  -3   3  -4   13.80    0.45
   3  -3   4   14.01    0.47
  -4   3  -4    1.05    0.10
  -4   3  -4    1.08    0.12
  -4   3  -4    1.24    0.10
  -4   3  -4    1.11    0.13
   4  -3   4    1.19    0.07
   4  -3   4    1.08    0.10
   4  -3   4    1.08    0.12
  -5   3  -4    5.94    0.27
  -5   3  -4    6.11    0.25
   5  -3   4    6.12    0.25
   5  -3   4    5.47    0.27
   5  -3   4    5.77    0.22
  -6   3  -4    0.72    0.12
  -6   3  -4    0.81    0.09
   6  -3   4    0.67    0.12
   6  -3   4    0.88    0.09
   6  -3   4    0.75    0.10
  -7   3  -4    0.02    0.09
  -7   3  -4    0.01    0.02
   7  -3   4    0.04    0.09
   7  -3   4    0.25    0.07
   7  -3   4    0.11    0.06
  -8   3  -4   -0.04    0.10
   8  -3   4    0.15    0.07
   8  -3   4   -0.11    0.09
  -9   3  -4    1.30    0.18
  -9   3  -4    1.72    0.21
   9  -3   4    1.14    0.18
   9  -3   4    1.10    0.14
 -10   3  -4    1.71    0.22
 -10   3  -4    1.62    0.21
  10  -3   4    1.39    0.21
 -11   3  -4    0.83    0.19
 -11   3  -4    0.67    0.17
  11  -3   4    0.63    0.18
 -12   3  -4    0.31    0.17
  12  -3   4    0.52    0.20
  10   2  -4    0.60    0.13
   9   2  -4    1.08    0.16
  -9  -2   4    1.23    0.21
   8   2  -4    1.66    0.17
  -8  -2   4    2.07    0.24
  -8  -2   4    1.72    0.13
   7   2  -4    6.54    0.30
  -7  -2   4    6.75    0.38
  -7  -2   4    6.92    0.26
   6   2  -4    7.29    0.33
   6   2  -4    7.21    0.29
   6   2  -4    6.96    0.30
  -6  -2   4    7.10    0.27
  -6  -2   4    7.34    0.38
   5   2  -4   13.16    0.47
   5   2  -4   13.29    0.45
   5   2  -4   12.59    0.45
   5   2  -4   13.05    0.48
  -5  -2   4   12.63    0.52
  -5  -2   4   13.38    0.43
  -5  -2   4   14.11    0.43
   4   2  -4   17.11    0.56
   4   2  -4   17.95    0.56
   4   2  -4   17.90    0.58
  -4  -2   4   17.67    0.64
  -4  -2   4   17.45    0.55
  -4  -2   4   18.64    0.55
   3   2  -4   37.45    1.13
   3   2  -4   40.06    1.15
   3   2  -4   38.57    1.13
  -3  -2   4   37.15    1.20
  -3  -2   4   39.64    1.12
  -3  -2   4   36.81    1.12
   2   2  -4   67.94    1.93
   2   2  -4   67.32    1.91
   2   2  -4   65.59    1.91
  -2  -2   4   69.49    1.91
  -2  -2   4   63.29    1.91
  -2  -2   4   66.44    1.98
   1   2  -4   11.24    0.36
   1   2  -4   11.27    0.36
   1   2  -4   11.22    0.37
  -1  -2   4   10.92    0.36
  -1  -2   4   11.22    0.42
  -1  -2   4   12.21    0.37
   0   2  -4   75.57    2.16
   0   2  -4   75.31    2.17
   0   2  -4   73.68    2.16
   0   2  -4   76.24    2.18
   0  -2   4   79.56    2.17
   0  -2   4   73.87    2.17
   0  -2   4   75.84    2.21
  -1   2  -4   17.52    0.54
  -1   2  -4   16.97    0.53
  -1   2  -4   16.71    0.54
  -1   2  -4   17.39    0.53
   1  -2   4   18.00    0.54
   1  -2   4   17.40    0.51
   1  -2   4   16.34    0.53
   1  -2   4   17.13    0.56
  -2   2  -4   15.60    0.52
  -2   2  -4   15.95    0.50
  -2   2  -4   16.25    0.50
   2  -2   4   16.05    0.51
   2  -2   4   16.19    0.49
   2  -2   4   16.42    0.51
  -3   2  -4   18.33    0.60
  -3   2  -4   19.03    0.59
  -3   2  -4   18.82    0.59
   3  -2   4   19.35    0.58
   3  -2   4   18.75    0.62
   3  -2   4   19.15    0.60
  -4   2  -4   48.85    1.40
  -4   2  -4   48.44    1.40
  -4   2  -4   46.81    1.42
   4  -2   4   48.96    1.36
   4  -2   4   45.24    1.42
  -5   2  -4   12.92    0.44
  -5   2  -4   11.51    0.47
  -5   2  -4   13.52    0.47
   5  -2   4   13.73    0.44
   5  -2   4   12.66    0.46
  -6   2  -4   21.39    0.73
  -6   2  -4   22.73    0.70
   6  -2   4   22.22    0.70
   6  -2   4   21.44    0.73
  -7   2  -4   14.87    0.54
  -7   2  -4   13.59    0.50
   7  -2   4   14.67    0.54
   7  -2   4   14.63    0.47
   7  -2   4   15.21    0.51
  -8   2  -4   20.27    0.72
   8  -2   4   20.67    0.73
   8  -2   4   20.14    0.68
  -9   2  -4    3.89    0.29
   9  -2   4    4.41    0.29
   9  -2   4    4.33    0.24
 -10   2  -4    1.81    0.22
  10  -2   4    2.04    0.24
 -11   2  -4    0.86    0.18
  11  -2   4    0.56    0.18
 -12   2  -4    2.29    0.27
  12  -2   4    2.38    0.30
  10   1  -4    0.38    0.11
   9   1  -4    0.84    0.14
   8   1  -4    2.10    0.19
  -8  -1   4    2.18    0.25
   7   1  -4    0.49    0.09
   7   1  -4    0.20    0.15
   7   1  -4    0.63    0.10
  -7  -1   4    0.44    0.14
   6   1  -4    4.55    0.22
   6   1  -4    4.64    0.25
   6   1  -4    4.86    0.22
  -6  -1   4    4.44    0.29
   5   1  -4    4.37    0.19
   5   1  -4    4.13    0.19
   5   1  -4    4.41    0.22
  -5  -1   4    4.24    0.27
   4   1  -4   15.08    0.47
   4   1  -4   14.42    0.47
   4   1  -4   15.02    0.49
  -4  -1   4   14.94    0.56
   3   1  -4   30.02    0.90
   3   1  -4   32.24    0.92
   3   1  -4   30.48    0.90
  -3  -1   4   30.84    0.99
   2   1  -4   17.37    0.53
   2   1  -4   17.98    0.53
   2   1  -4   18.53    0.55
  -2  -1   4   17.81    0.61
   1   1  -4   65.03    1.86
   1   1  -4   66.32    1.87
   1   1  -4   63.99    1.86
   1   1  -4   67.08    1.87
  -1  -1   4   64.82    1.93
   0   1  -4   66.89    1.86
   0   1  -4   64.96    1.84
   0   1  -4   65.79    1.86
   0   1  -4   64.79    1.84
   0  -1   4   62.79    1.89
   0  -1   4   64.37    1.84
   0  -1   4   64.46    1.84
  -1   1  -4   18.69    0.58
  -1   1  -4   19.55    0.59
  -1   1  -4   20.15    0.59
  -1   1  -4   19.33    0.58
   1  -1   4   20.78    0.59
   1  -1   4   19.29    0.61
   1  -1   4   19.10    0.59
  -2   1  -4   61.77    1.86
  -2   1  -4   64.55    1.85
  -2   1  -4   63.71    1.85
   2  -1   4   62.17    1.85
   2  -1   4   69.37    1.86
   2  -1   4   65.62    1.84
   2  -1   4   64.04    1.86
  -3   1  -4   18.14    0.59
  -3   1  -4   19.02    0.58
  -3   1  -4   18.36    0.58
   3  -1   4   18.68    0.59
   3  -1   4   18.73    0.57
   3  -1   4   19.05    0.57
   3  -1   4   19.68    0.60
  -4   1  -4   66.77    1.85
  -4   1  -4   63.50    1.85
  -4   1  -4   62.39    1.86
   4  -1   4   62.32    1.86
  -5   1  -4   48.61    1.39
  -5   1  -4   45.88    1.38
  -5   1  -4   45.17    1.40
   5  -1   4   46.41    1.40
   5  -1   4   47.36    1.38
  -6   1  -4    4.63    0.25
  -6   1  -4    4.77    0.22
   6  -1   4    4.88    0.24
   6  -1   4    5.05    0.17
   6  -1   4    4.91    0.22
  -7   1  -4    1.34    0.15
  -7   1  -4    1.53    0.12
   7  -1   4    1.56    0.13
   7  -1   4    1.50    0.08
   7  -1   4    1.34    0.15
  -8   1  -4    4.54    0.27
   8  -1   4    4.78    0.24
   8  -1   4    4.62    0.28
  -9   1  -4    1.53    0.19
   9  -1   4    2.52    0.18
   9  -1   4    2.06    0.21
 -10   1  -4    0.09    0.12
  10  -1   4   -0.03    0.11
 -11   1  -4   -0.19    0.12
  11  -1   4   -0.19    0.12
 -12   1  -4   -0.17    0.15
  12  -1   4   -0.05    0.16
  10   0  -4    0.22    0.11
   9   0  -4    1.22    0.14
   8   0  -4    1.51    0.15
   7   0  -4    2.05    0.15
   7   0  -4    1.79    0.15
  -7   0   4    2.02    0.22
   6   0  -4   16.87    0.57
   6   0  -4   18.35    0.58
  -6   0   4   18.26    0.68
   5   0  -4   13.12    0.44
   5   0  -4   12.21    0.41
   5   0  -4   12.80    0.41
  -5   0   4   12.48    0.51
   4   0  -4    6.92    0.24
   4   0  -4    7.30    0.26
   4   0  -4    7.04    0.24
  -4   0   4    6.89    0.33
   3   0  -4    5.41    0.18
   3   0  -4    5.32    0.17
   3   0  -4    5.53    0.20
  -3   0   4    5.37    0.27
   2   0  -4   60.74    1.73
   2   0  -4   63.17    1.74
  -2   0   4   58.53    1.81
   1   0  -4   62.54    1.76
   1   0  -4   62.37    1.76
  -1   0   4   61.11    1.83
   0   0  -4   48.24    1.34
   0   0  -4   47.15    1.34
   0   0   4   45.02    1.39
  -1   0  -4   67.83    1.92
  -1   0  -4   66.02    1.92
  -1   0  -4   70.89    1.95
  -1   0  -4   65.44    1.91
  -1   0  -4   66.61    1.91
  -1   0  -4   66.36    1.92
   1   0   4   66.09    1.91
   1   0   4   71.62    1.91
   1   0   4   65.42    1.95
  -2   0  -4    8.47    0.28
  -2   0  -4    9.05    0.30
  -2   0  -4    8.77    0.28
  -2   0  -4    9.05    0.30
  -2   0  -4    9.01    0.30
   2   0   4    8.60    0.27
   2   0   4    9.22    0.29
   2   0   4    8.36    0.29
   2   0   4    8.68    0.27
   2   0   4    8.60    0.29
  -3   0  -4   70.07    1.96
  -3   0  -4   64.98    1.94
  -3   0  -4   68.48    1.94
   3   0   4   67.60    1.93
   3   0   4   67.37    1.93
   3   0   4   64.58    1.95
   3   0   4   70.76    1.96
   3   0   4   67.41    1.92
  -4   0  -4   54.84    1.64
  -4   0  -4   55.86    1.62
  -4   0  -4   58.42    1.63
   4   0   4   52.84    1.63
   4   0   4   57.29    1.62
  -5   0  -4   10.38    0.35
  -5   0  -4    9.78    0.35
  -5   0  -4    9.74    0.37
   5   0   4    9.99    0.34
   5   0   4    9.80    0.37
  -6   0  -4   36.85    1.14
  -6   0  -4   36.95    1.12
   6   0   4   37.55    1.12
   6   0   4   36.19    1.14
  -7   0  -4    5.47    0.25
  -7   0  -4    5.84    0.29
   7   0   4    5.61    0.25
   7   0   4    5.57    0.28
  -8   0  -4   -0.02    0.03
  -8   0  -4   -0.01    0.09
   8   0   4    0.07    0.06
   8   0   4   -0.07    0.09
  -9   0  -4    5.50    0.32
   9   0   4    5.40    0.28
   9   0   4    5.97    0.34
 -10   0  -4    0.83    0.17
  10   0   4    0.65    0.16
 -11   0  -4    0.69    0.17
  11   0   4    0.53    0.17
 -12   0  -4    0.08    0.15
  12   0   4    0.18    0.17
 -13   0  -4    0.01    0.17
  13   0   4    0.36    0.19
  10  -1  -4    1.23    0.16
   9  -1  -4    0.19    0.09
   8  -1  -4    3.70    0.21
   7  -1  -4    5.55    0.24
   7  -1  -4    5.00    0.24
   6  -1  -4    4.82    0.21
   6  -1  -4    5.18    0.21
   5  -1  -4    2.36    0.12
   5  -1  -4    2.16    0.12
  -5   1   4    2.41    0.22
   4  -1  -4    3.95    0.14
   4  -1  -4    4.05    0.18
   4  -1  -4    3.91    0.15
  -4   1   4    3.49    0.23
   3  -1  -4    1.12    0.08
  -3   1   4    1.17    0.13
  -2   1   4    3.40    0.19
  -1   1   4    1.28    0.12
   0  -1  -4   27.07    0.82
   0   1   4   26.95    0.83
  -1  -1  -4  165.14    4.74
  -1  -1  -4  165.27    4.77
  -1  -1  -4  164.81    4.76
  -1  -1  -4  172.63    4.74
   1   1   4  177.24    4.76
   1   1   4  163.22    4.77
  -2  -1  -4  105.66    3.04
  -2  -1  -4  103.83    3.05
  -2  -1  -4  109.33    3.06
  -2  -1  -4  110.01    3.05
  -2  -1  -4  105.31    3.04
   2   1   4  113.65    3.05
   2   1   4  106.62    3.05
   2   1   4  107.69    3.05
   2   1   4  104.00    3.05
  -3  -1  -4    7.44    0.24
  -3  -1  -4    8.06    0.28
  -3  -1  -4    7.54    0.26
  -3  -1  -4    7.15    0.26
   3   1   4    7.66    0.26
   3   1   4    7.75    0.28
   3   1   4    7.17    0.27
   3   1   4    7.71    0.25
  -4  -1  -4   10.62    0.35
  -4  -1  -4   10.57    0.35
  -4  -1  -4   10.56    0.38
   4   1   4    9.62    0.37
   4   1   4   10.67    0.38
   4   1   4   10.76    0.35
  -5  -1  -4   72.79    2.12
  -5  -1  -4   75.80    2.12
  -5  -1  -4   70.38    2.13
  -6  -1  -4   17.25    0.61
  -6  -1  -4   18.06    0.58
   6   1   4   18.19    0.58
  -7  -1  -4   13.50    0.53
  -7  -1  -4   14.87    0.50
   7   1   4   14.89    0.50
  -8  -1  -4    2.15    0.20
  -8  -1  -4    1.94    0.15
   8   1   4    2.09    0.16
  -9  -1  -4    0.69    0.15
   9   1   4    0.42    0.09
   9   1   4    0.51    0.14
 -10  -1  -4    3.73    0.30
  10   1   4    3.80    0.31
 -11  -1  -4    1.70    0.23
  11   1   4    1.46    0.22
 -12  -1  -4   -0.07    0.15
  12   1   4    0.07    0.16
 -13  -1  -4   -0.05    0.16
  13   1   4   -0.31    0.15
  10  -2  -4    0.42    0.11
   9  -2  -4    2.11    0.19
   8  -2  -4    1.19    0.13
   7  -2  -4    1.46    0.13
   7  -2  -4    1.65    0.13
   6  -2  -4    2.27    0.13
   6  -2  -4    2.16    0.14
   6  -2  -4    2.38    0.16
   5  -2  -4   22.66    0.69
   5  -2  -4   22.75    0.69
   4  -2  -4   22.78    0.66
   4  -2  -4   22.51    0.66
   2  -2  -4    6.66    0.28
   1  -2  -4   84.62    2.46
   0  -2  -4   46.94    1.43
   0  -2  -4   48.86    1.38
   0  -2  -4   49.66    1.38
  -1  -2  -4  163.60    4.51
  -1  -2  -4  158.95    4.54
  -1  -2  -4  152.80    4.49
  -1  -2  -4  162.69    4.51
  -1  -2  -4  163.27    4.51
   1   2   4  151.62    4.49
   1   2   4  163.79    4.53
  -2  -2  -4   80.04    2.37
  -2  -2  -4   84.04    2.39
  -2  -2  -4   83.64    2.36
  -2  -2  -4   82.94    2.37
  -2  -2  -4   80.61    2.36
   2   2   4   85.13    2.37
   2   2   4   83.77    2.38
  -3  -2  -4   16.50    0.50
  -3  -2  -4   15.92    0.50
  -3  -2  -4   15.54    0.49
  -3  -2  -4   15.81    0.52
   3   2   4   16.06    0.49
   3   2   4   16.02    0.51
   3   2   4   16.93    0.52
  -4  -2  -4   10.98    0.37
  -4  -2  -4   11.72    0.38
  -4  -2  -4   11.37    0.40
  -4  -2  -4   10.84    0.34
   4   2   4   11.22    0.37
  -5  -2  -4   14.67    0.48
  -5  -2  -4   14.99    0.48
  -5  -2  -4   13.96    0.50
  -6  -2  -4   12.60    0.46
  -6  -2  -4   12.37    0.43
   6   2   4   12.27    0.43
  -7  -2  -4   13.71    0.52
  -7  -2  -4   13.63    0.48
   7   2   4   13.47    0.48
  -8  -2  -4    7.12    0.35
  -8  -2  -4    6.95    0.30
   8   2   4    6.85    0.30
  -9  -2  -4   20.00    0.70
   9   2   4   17.27    0.65
 -10  -2  -4    2.23    0.24
 -11  -2  -4    0.35    0.16
  11   2   4    0.64    0.18
 -12  -2  -4    3.17    0.31
  12   2   4    2.74    0.32
  10  -3  -4    0.14    0.09
   9  -3  -4    0.43    0.10
   8  -3  -4    0.72    0.11
   8  -3  -4    0.47    0.16
   7  -3  -4    1.83    0.21
   7  -3  -4    1.67    0.15
   7  -3  -4    1.68    0.14
   6  -3  -4    2.57    0.22
   6  -3  -4    2.89    0.16
   6  -3  -4    2.88    0.15
   5  -3  -4    8.38    0.29
   5  -3  -4    8.57    0.29
   5  -3  -4    8.84    0.32
   5  -3  -4    8.31    0.39
   4  -3  -4   18.16    0.53
   4  -3  -4   16.32    0.50
   4  -3  -4   15.63    0.60
   4  -3  -4   16.29    0.50
   3  -3  -4   11.42    0.35
   3  -3  -4   10.31    0.42
   2  -3  -4   54.69    1.49
   2  -3  -4   50.82    1.57
   2  -3  -4   50.74    1.49
   1  -3  -4   22.11    0.66
   1  -3  -4   21.90    0.72
   1  -3  -4   22.97    0.66
   0  -3  -4    0.19    0.06
   0  -3  -4    0.22    0.05
   0  -3  -4    0.26    0.05
   0   3   4    0.62    0.08
  -1  -3  -4    0.47    0.07
  -1  -3  -4    0.43    0.06
  -1  -3  -4    0.47    0.05
  -1  -3  -4    0.47    0.05
   1   3   4    0.51    0.05
   1   3   4    0.59    0.08
  -2  -3  -4   59.55    1.69
  -2  -3  -4   58.71    1.68
  -2  -3  -4   56.20    1.67
   2   3   4   57.59    1.71
   2   3   4   59.39    1.68
  -3  -3  -4   33.82    1.00
  -3  -3  -4   34.94    1.02
  -3  -3  -4   32.72    1.00
   3   3   4   34.47    1.01
   3   3   4   33.63    1.01
   3   3   4   32.89    0.98
   3   3   4   33.14    1.02
  -4  -3  -4   24.47    0.77
  -4  -3  -4   25.77    0.80
  -4  -3  -4   26.49    0.78
   4   3   4   24.18    0.80
   4   3   4   25.17    0.76
  -5  -3  -4    0.06    0.05
  -5  -3  -4    0.00    0.07
  -5  -3  -4    0.08    0.05
   5   3   4   -0.02    0.12
   5   3   4    0.00    0.04
  -6  -3  -4   10.14    0.39
  -6  -3  -4   10.15    0.42
  -6  -3  -4   11.22    0.33
  -7  -3  -4   16.39    0.56
  -7  -3  -4   15.89    0.59
   7   3   4   16.17    0.55
  -8  -3  -4    7.99    0.34
  -8  -3  -4    8.39    0.40
  -9  -3  -4    0.01    0.11
 -10  -3  -4    2.58    0.26
 -11  -3  -4    0.41    0.17
 -12  -3  -4   -0.14    0.15
   9  -4  -4    0.00    0.08
   8  -4  -4    0.16    0.12
   8  -4  -4    0.11    0.08
   7  -4  -4    2.81    0.18
   7  -4  -4    2.82    0.17
   7  -4  -4    2.56    0.25
   6  -4  -4    2.49    0.15
   6  -4  -4    2.82    0.24
   6  -4  -4    2.91    0.16
   5  -4  -4    1.79    0.19
   5  -4  -4    1.66    0.11
   5  -4  -4    1.56    0.11
   5  -4  -4    1.78    0.14
   4  -4  -4    7.76    0.26
   4  -4  -4    7.33    0.36
   4  -4  -4    8.12    0.29
   4  -4  -4    7.76    0.26
   3  -4  -4   16.94    0.50
   3  -4  -4   16.41    0.50
   3  -4  -4   17.24    0.52
   3  -4  -4   15.84    0.60
   2  -4  -4   30.97    0.89
   2  -4  -4   30.11    0.99
   2  -4  -4   31.73    0.92
   1  -4  -4   29.84    0.88
   1  -4  -4   30.16    0.97
   1  -4  -4   31.67    0.88
   1  -4  -4   31.07    0.91
   0  -4  -4    7.78    0.32
   0  -4  -4    8.21    0.28
   0  -4  -4    7.83    0.25
   0  -4  -4    7.74    0.25
   0   4   4    7.47    0.25
   0   4   4    7.62    0.24
   0   4   4    8.30    0.32
  -1  -4  -4   17.35    0.54
  -1  -4  -4   16.65    0.51
  -1  -4  -4   16.94    0.52
  -1  -4  -4   16.50    0.57
   1   4   4   17.22    0.52
   1   4   4   17.11    0.57
   1   4   4   16.29    0.52
  -2  -4  -4   46.87    1.34
  -2  -4  -4   45.54    1.34
  -2  -4  -4   47.30    1.36
  -2  -4  -4   44.90    1.35
   2   4   4   46.59    1.35
   2   4   4   44.48    1.35
   2   4   4   45.32    1.38
  -3  -4  -4   31.49    0.95
  -3  -4  -4   33.35    0.96
  -3  -4  -4   31.59    0.97
   3   4   4   29.27    0.96
   3   4   4   31.37    0.99
   3   4   4   33.33    0.97
  -4  -4  -4   10.07    0.36
  -4  -4  -4    9.91    0.38
  -4  -4  -4   10.54    0.36
   4   4   4   10.21    0.34
   4   4   4    9.85    0.38
   4   4   4   10.15    0.39
  -5  -4  -4   35.33    1.03
  -5  -4  -4   32.01    1.05
  -5  -4  -4   33.59    1.02
   5   4   4   33.03    1.01
   5   4   4   32.91    1.04
  -6  -4  -4    5.74    0.25
  -6  -4  -4    5.35    0.29
   6   4   4    5.47    0.29
  -7  -4  -4    3.05    0.24
  -7  -4  -4    3.62    0.16
  -7  -4  -4    3.13    0.20
   7   4   4    3.21    0.29
   7   4   4    3.56    0.19
  -8  -4  -4    1.10    0.09
  -8  -4  -4    0.84    0.16
  -9  -4  -4    0.11    0.14
 -10  -4  -4    1.57    0.22
 -11  -4  -4    0.72    0.19
 -12  -4  -4    0.03    0.17
   9  -5  -4    0.28    0.10
   8  -5  -4    0.98    0.13
   7  -5  -4    1.10    0.18
   7  -5  -4    1.33    0.13
   6  -5  -4    7.25    0.29
   6  -5  -4    7.29    0.29
   6  -5  -4    7.46    0.40
   5  -5  -4    5.63    0.35
   5  -5  -4    5.17    0.22
   5  -5  -4    5.14    0.21
   5  -5  -4    5.17    0.31
   4  -5  -4    8.70    0.31
   4  -5  -4    9.61    0.34
   4  -5  -4    9.05    0.41
   4  -5  -4    9.00    0.31
   3  -5  -4    7.62    0.36
   3  -5  -4    7.18    0.26
   3  -5  -4    7.54    0.26
   3  -5  -4    7.78    0.29
   2  -5  -4    9.93    0.34
   2  -5  -4    9.69    0.31
   2  -5  -4    9.26    0.40
   2  -5  -4    9.44    0.31
   1  -5  -4   29.87    0.98
   1  -5  -4   30.28    0.90
   1  -5  -4   32.49    0.92
   1  -5  -4   30.04    0.90
  -1   5   4   32.98    0.89
  -1   5   4   25.86    1.10
   0  -5  -4   42.09    1.23
   0  -5  -4   40.84    1.21
   0  -5  -4   39.99    1.21
   0  -5  -4   39.76    1.28
   0   5   4   41.43    1.21
   0   5   4   43.01    1.20
   0   5   4   42.36    1.28
  -1  -5  -4    3.27    0.14
  -1  -5  -4    3.18    0.17
  -1  -5  -4    2.78    0.17
  -1  -5  -4    2.98    0.14
  -1  -5  -4    3.08    0.14
  -1  -5  -4    3.00    0.19
   1   5   4    3.10    0.15
   1   5   4    3.21    0.19
   1   5   4    2.94    0.16
  -2  -5  -4   51.36    1.55
  -2  -5  -4   54.10    1.57
  -2  -5  -4   52.72    1.55
  -2  -5  -4   53.60    1.57
   2   5   4   52.63    1.60
   2   5   4   55.17    1.56
   2   5   4   50.70    1.55
  -3  -5  -4   23.29    0.72
  -3  -5  -4   22.66    0.72
  -3  -5  -4   23.53    0.75
   3   5   4   22.15    0.73
   3   5   4   23.47    0.76
  -4  -5  -4   46.45    1.35
  -4  -5  -4   46.05    1.35
  -4  -5  -4   43.77    1.37
   4   5   4   45.35    1.39
   4   5   4   43.82    1.33
   4   5   4   45.01    1.37
  -5  -5  -4   20.26    0.66
  -5  -5  -4   20.00    0.69
  -5  -5  -4   21.33    0.67
   5   5   4   18.92    0.68
   5   5   4   20.91    0.65
  -6  -5  -4   18.59    0.62
  -6  -5  -4   19.10    0.66
   6   5   4   18.16    0.65
   6   5   4   17.54    0.60
  -7  -5  -4    9.20    0.33
  -7  -5  -4    8.95    0.41
  -7  -5  -4    9.37    0.38
   7   5   4    8.88    0.42
  -8  -5  -4    9.36    0.45
  -8  -5  -4    9.69    0.35
   8   5   4   10.36    0.51
  -9  -5  -4    5.13    0.35
 -10  -5  -4    2.22    0.27
 -11  -5  -4    1.09    0.22
 -12  -5  -4    1.09    0.23
   9  -6  -4    0.66    0.12
   8  -6  -4    1.03    0.14
   7  -6  -4    0.23    0.08
   7  -6  -4    0.05    0.12
   6  -6  -4    0.11    0.07
   6  -6  -4    0.22    0.07
   6  -6  -4    0.10    0.12
   5  -6  -4    0.83    0.10
   5  -6  -4    0.86    0.10
   5  -6  -4    0.89    0.17
   4  -6  -4    0.73    0.14
   4  -6  -4    0.93    0.12
   4  -6  -4    0.96    0.10
   4  -6  -4    0.80    0.09
   3  -6  -4    4.18    0.18
   3  -6  -4    4.00    0.18
   3  -6  -4    3.96    0.26
   3  -6  -4    4.31    0.21
   2  -6  -4    1.88    0.12
   2  -6  -4    1.53    0.16
   2  -6  -4    1.84    0.12
   2  -6  -4    1.71    0.14
  -2   6   4    1.88    0.10
   1  -6  -4   15.37    0.49
   1  -6  -4   15.18    0.49
   1  -6  -4   15.53    0.51
   1  -6  -4   15.24    0.57
  -1   6   4   14.79    0.47
  -1   6   4   14.82    0.47
   0  -6  -4   20.26    0.65
   0  -6  -4   21.23    0.65
   0  -6  -4   20.61    0.67
   0  -6  -4   20.62    0.73
   0  -6  -4   22.04    0.68
   0   6   4   21.06    0.65
   0   6   4   21.17    0.65
  -1  -6  -4    8.79    0.34
  -1  -6  -4    8.17    0.37
  -1  -6  -4    8.18    0.31
  -1  -6  -4    8.29    0.31
  -1  -6  -4    8.69    0.31
   1   6   4    8.22    0.32
   1   6   4    9.07    0.32
  -2  -6  -4    8.68    0.33
  -2  -6  -4    8.26    0.35
  -2  -6  -4    9.35    0.33
   2   6   4    9.04    0.35
   2   6   4    9.33    0.34
  -3  -6  -4   17.94    0.58
  -3  -6  -4   17.64    0.58
  -3  -6  -4   17.62    0.60
   3   6   4   16.50    0.59
  -4  -6  -4    6.04    0.26
  -4  -6  -4    6.24    0.26
  -4  -6  -4    5.72    0.29
   4   6   4    4.77    0.25
   4   6   4    6.49    0.30
  -5  -6  -4    4.32    0.22
  -5  -6  -4    4.33    0.22
  -5  -6  -4    3.62    0.25
   5   6   4    3.52    0.20
   5   6   4    3.83    0.26
  -6  -6  -4    0.03    0.10
  -6  -6  -4    0.04    0.06
   6   6   4   -0.09    0.11
  -7  -6  -4    4.65    0.31
  -7  -6  -4    4.96    0.26
   7   6   4    4.63    0.32
  -8  -6  -4    0.85    0.11
  -8  -6  -4    0.90    0.17
   8   6   4    0.93    0.20
  -9  -6  -4    1.18    0.21
   9   6   4    1.73    0.27
 -10  -6  -4   -0.20    0.14
  10   6   4   -0.24    0.18
 -11  -6  -4    1.06    0.23
   8  -7  -4    0.37    0.10
   7  -7  -4    1.14    0.14
   6  -7  -4    1.18    0.13
   6  -7  -4    1.19    0.19
   5  -7  -4    1.84    0.15
   5  -7  -4    2.23    0.16
   5  -7  -4    2.07    0.23
   4  -7  -4    7.66    0.31
   4  -7  -4    7.77    0.41
   4  -7  -4    7.68    0.31
   3  -7  -4    3.94    0.19
   3  -7  -4    3.82    0.28
   3  -7  -4    3.83    0.19
   3  -7  -4    3.91    0.22
   2  -7  -4   11.43    0.40
   2  -7  -4   11.80    0.50
   2  -7  -4   11.49    0.40
   2  -7  -4   11.91    0.43
  -2   7   4   11.32    0.38
   1  -7  -4   21.79    0.71
   1  -7  -4   21.58    0.71
   1  -7  -4   23.02    0.73
   1  -7  -4   22.73    0.80
  -1   7   4   22.10    0.70
  -1   7   4   23.54    0.70
   0  -7  -4   23.21    0.75
   0  -7  -4   23.41    0.72
   0  -7  -4   22.93    0.72
   0  -7  -4   22.08    0.80
   0   7   4   22.86    0.72
   0   7   4   22.42    0.72
  -1  -7  -4    4.98    0.26
  -1  -7  -4    4.85    0.23
  -1  -7  -4    4.97    0.23
  -1  -7  -4    5.37    0.23
   1   7   4    5.25    0.25
   1   7   4    5.55    0.24
  -2  -7  -4    0.66    0.09
  -2  -7  -4    0.45    0.11
  -2  -7  -4    0.44    0.08
   2   7   4    0.41    0.10
  -3  -7  -4    6.74    0.29
  -3  -7  -4    7.05    0.29
  -3  -7  -4    6.40    0.32
   3   7   4    6.70    0.31
  -4  -7  -4    0.66    0.13
  -4  -7  -4    0.42    0.09
   4   7   4    0.53    0.13
  -5  -7  -4    9.34    0.43
  -5  -7  -4    9.47    0.38
   5   7   4    9.60    0.42
  -6  -7  -4    0.76    0.16
  -6  -7  -4    0.69    0.11
   6   7   4    1.15    0.18
  -7  -7  -4    0.58    0.16
   7   7   4    0.61    0.18
  -8  -7  -4    5.88    0.38
  -8  -7  -4    4.50    0.31
   8   7   4    5.58    0.38
  -9  -7  -4    1.13    0.21
   9   7   4    0.75    0.22
 -10  -7  -4    2.39    0.29
  10   7   4    1.97    0.32
 -11  -7  -4    0.83    0.23
   8  -8  -4    0.93    0.14
   7  -8  -4    0.77    0.13
   6  -8  -4    3.24    0.22
   5  -8  -4    3.29    0.30
   5  -8  -4    2.84    0.20
   4  -8  -4   -0.05    0.11
   4  -8  -4   -0.01    0.06
   3  -8  -4    7.05    0.33
   3  -8  -4    7.19    0.31
   3  -8  -4    7.52    0.41
   3  -8  -4    7.32    0.30
  -3   8   4    7.42    0.27
   2  -8  -4    1.43    0.13
   2  -8  -4    1.54    0.16
   2  -8  -4    1.42    0.19
   2  -8  -4    1.64    0.14
  -2   8   4    1.53    0.13
   1  -8  -4    5.92    0.29
   1  -8  -4    5.24    0.33
   1  -8  -4    5.61    0.26
   1  -8  -4    5.80    0.26
  -1   8   4    5.63    0.26
   0  -8  -4   13.32    0.48
   0  -8  -4   13.76    0.51
   0  -8  -4   13.50    0.56
   0  -8  -4   13.55    0.48
   0   8   4   13.54    0.48
  -1  -8  -4   12.84    0.47
  -1  -8  -4   13.08    0.50
  -1  -8  -4   13.17    0.47
   1   8   4   13.86    0.49
  -2  -8  -4    8.83    0.36
  -2  -8  -4    9.16    0.39
   2   8   4    8.82    0.38
  -3  -8  -4   12.87    0.50
  -3  -8  -4   12.16    0.46
   3   8   4   11.75    0.48
  -4  -8  -4    6.61    0.30
  -4  -8  -4    6.05    0.33
   4   8   4    6.09    0.34
  -5  -8  -4    7.58    0.34
  -5  -8  -4    7.81    0.40
   5   8   4    7.46    0.40
  -6  -8  -4   15.34    0.58
  -6  -8  -4   16.04    0.64
   6   8   4   16.13    0.64
  -7  -8  -4    3.70    0.33
   7   8   4    3.79    0.34
  -8  -8  -4    0.97    0.21
   8   8   4    0.89    0.21
  -9  -8  -4    0.76    0.21
   9   8   4    0.53    0.22
 -10  -8  -4    0.45    0.21
  10   8   4    0.48    0.22
   7  -9  -4    1.22    0.16
   6  -9  -4    0.31    0.10
   5  -9  -4    2.55    0.20
   4  -9  -4    4.35    0.25
   4  -9  -4    4.44    0.34
   3  -9  -4    3.39    0.30
   3  -9  -4    3.50    0.22
  -3   9   4    3.75    0.19
   2  -9  -4    0.43    0.09
   2  -9  -4    0.80    0.14
   2  -9  -4    0.66    0.17
  -2   9   4    0.64    0.10
   1  -9  -4    0.42    0.10
   1  -9  -4    0.59    0.16
   1  -9  -4    0.47    0.12
  -1   9   4    0.45    0.11
   0  -9  -4    7.84    0.35
   0  -9  -4    7.97    0.35
   0  -9  -4    9.19    0.39
   0   9   4    8.58    0.36
  -1  -9  -4   14.90    0.55
  -1  -9  -4   15.28    0.59
   1   9   4   15.81    0.56
  -2  -9  -4   11.52    0.46
  -2  -9  -4   12.04    0.49
   2   9   4   11.88    0.48
  -3  -9  -4    1.62    0.20
  -3  -9  -4    1.61    0.16
   3   9   4    1.97    0.21
  -4  -9  -4    8.53    0.39
  -4  -9  -4    9.77    0.45
   4   9   4    9.03    0.44
  -5  -9  -4    2.36    0.20
  -5  -9  -4    2.53    0.26
   5   9   4    2.85    0.28
  -6  -9  -4    5.07    0.36
   6   9   4    4.65    0.37
  -7  -9  -4    1.46    0.24
   7   9   4    1.33    0.24
  -8  -9  -4    1.44    0.25
   8   9   4    1.52    0.27
  -9  -9  -4    0.46    0.21
   9   9   4    0.48    0.21
  10   9   4    0.02    0.22
   6 -10  -4    0.97    0.15
   5 -10  -4    0.84    0.14
   4 -10  -4    1.22    0.16
   3 -10  -4    0.30    0.10
   3 -10  -4    0.27    0.15
  -3  10   4    0.23    0.09
   2 -10  -4    1.97    0.18
   2 -10  -4    1.60    0.22
  -2  10   4    2.14    0.18
   1 -10  -4    0.45    0.15
   1 -10  -4    0.30    0.13
   1 -10  -4    0.30    0.10
  -1  10   4    0.35    0.12
   0 -10  -4    1.08    0.14
   0 -10  -4    1.29    0.16
   0 -10  -4    1.65    0.20
   0  10   4    1.73    0.18
  -1 -10  -4    0.22    0.09
  -1 -10  -4   -0.04    0.11
   1  10   4    0.18    0.12
  -2 -10  -4    1.71    0.17
  -2 -10  -4    2.08    0.22
   2  10   4    1.61    0.20
  -3 -10  -4    8.47    0.38
  -3 -10  -4    7.37    0.41
   3  10   4    8.05    0.42
  -4 -10  -4    0.86    0.14
  -4 -10  -4    1.11    0.19
   4  10   4    1.09    0.21
  -5 -10  -4    0.85    0.20
   5  10   4    1.03    0.21
  -6 -10  -4   -0.04    0.14
   6  10   4   -0.15    0.16
  -7 -10  -4    0.65    0.20
   7  10   4    0.31    0.20
  -8 -10  -4    1.12    0.25
   8  10   4    1.04    0.24
  -9 -10  -4    1.02    0.26
   9  10   4    0.16    0.22
   5 -11  -4    0.66    0.14
   4 -11  -4    1.12    0.16
   3 -11  -4    3.59    0.26
   2 -11  -4    7.66    0.38
  -2  11   4    7.87    0.36
   1 -11  -4    6.37    0.33
   1 -11  -4    6.14    0.38
   1 -11  -4    6.11    0.33
  -1  11   4    6.23    0.33
   0 -11  -4    1.07    0.19
   0 -11  -4    1.04    0.16
   0  11   4    1.28    0.18
  -1 -11  -4    6.49    0.40
  -1 -11  -4    7.01    0.35
   1  11   4    7.35    0.38
  -2 -11  -4    4.10    0.27
  -2 -11  -4    4.31    0.34
   2  11   4    5.19    0.35
  -3 -11  -4    5.66    0.32
  -3 -11  -4    5.82    0.39
   3  11   4    5.66    0.38
  -4 -11  -4    3.59    0.33
   4  11   4    4.04    0.36
  -5 -11  -4    1.54    0.23
   5  11   4    1.92    0.27
  -6 -11  -4    1.27    0.24
   6  11   4    1.38    0.25
  -7 -11  -4    2.43    0.31
   8  11   4    0.08    0.22
   3 -12  -4    1.82    0.20
   2 -12  -4    1.89    0.22
  -2  12   4    1.64    0.18
   1 -12  -4    1.61    0.20
   1 -12  -4    1.94    0.21
  -1  12   4    2.02    0.22
   0 -12  -4    1.48    0.19
   0 -12  -4    1.44    0.23
   0  12   4    1.83    0.21
  -1 -12  -4    1.15    0.18
  -1 -12  -4    1.03    0.21
   1  12   4    1.02    0.20
  -2 -12  -4    0.34    0.17
   2  12   4    0.40    0.18
  -3 -12  -4    0.00    0.14
   3  12   4    0.29    0.17
  -4 -12  -4    2.08    0.27
   4  12   4    2.49    0.29
  -5 -12  -4    1.47    0.25
   5  12   4    1.50    0.26
  -6 -12  -4    1.81    0.28
   6  12   4    1.08    0.25
   0  13   4    0.66    0.18
  -1 -13  -4    0.96    0.22
   1  13   4    0.95    0.20
  -2 -13  -4    1.30    0.24
   2  13   4    1.29    0.23
   3  13   4    1.86    0.27
   2  12  -5    1.57    0.27
   1  12  -5    1.56    0.29
   1  12  -5    1.13    0.25
  -1 -12   5    0.78    0.23
   0  12  -5    4.92    0.43
   0  12  -5    4.43    0.41
   0 -12   5    5.15    0.42
  -1  12  -5    2.41    0.31
  -1  12  -5    1.77    0.29
   1 -12   5    2.22    0.30
  -2  12  -5    1.05    0.24
  -2  12  -5    1.12    0.24
   2 -12   5    1.08    0.23
  -3  12  -5    1.05    0.24
  -3  12  -5    1.38    0.26
   3 -12   5    1.19    0.24
  -4  12  -5    1.86    0.29
  -4  12  -5    1.33    0.25
   4 -12   5    2.30    0.30
  -5  12  -5   -0.07    0.18
   4  11  -5    0.89    0.24
   3  11  -5    5.59    0.43
   3  11  -5    6.51    0.47
  -3 -11   5    5.59    0.43
  -3 -11   5    5.52    0.41
   2  11  -5    6.09    0.43
   2  11  -5    6.79    0.46
  -2 -11   5    5.85    0.44
  -2 -11   5    6.12    0.42
   1  11  -5    7.34    0.48
   1  11  -5    7.43    0.47
  -1 -11   5    7.26    0.45
   0  11  -5    2.25    0.29
   0  11  -5    2.07    0.29
   0 -11   5    1.89    0.26
  -1  11  -5    3.88    0.37
  -1  11  -5    4.22    0.38
   1 -11   5    3.90    0.35
  -2  11  -5    3.09    0.32
  -2  11  -5    2.76    0.31
   2 -11   5    3.28    0.33
  -3  11  -5    4.66    0.39
  -3  11  -5    5.34    0.42
   3 -11   5    5.01    0.40
  -4  11  -5    2.13    0.28
  -4  11  -5    1.61    0.25
   4 -11   5    1.99    0.27
  -5  11  -5    2.97    0.33
  -5  11  -5    2.55    0.30
   5 -11   5    3.11    0.34
  -6  11  -5    6.05    0.46
  -6  11  -5    5.98    0.42
   6 -11   5    5.69    0.45
  -7  11  -5    4.48    0.40
   5  10  -5    0.39    0.22
   5  10  -5    0.07    0.16
  -5 -10   5    0.21    0.16
  -5 -10   5    0.00    0.16
   4  10  -5    0.37    0.19
   4  10  -5    0.56    0.21
  -4 -10   5    0.62    0.18
  -4 -10   5    0.44    0.19
   3  10  -5    0.35    0.19
  -3 -10   5    0.30    0.15
  -3 -10   5    0.32    0.16
   2  10  -5    2.73    0.31
   2  10  -5    2.53    0.29
  -2 -10   5    2.16    0.26
  -2 -10   5    2.78    0.31
   1  10  -5    1.56    0.24
   1  10  -5    1.68    0.27
  -1 -10   5    1.65    0.23
   0  10  -5    4.40    0.35
   0  10  -5    3.85    0.34
   0 -10   5    4.18    0.33
  -1  10  -5    1.98    0.26
  -1  10  -5    2.20    0.26
   1 -10   5    2.02    0.25
  -2  10  -5    2.20    0.27
  -2  10  -5    2.36    0.28
   2 -10   5    1.76    0.24
  -3  10  -5    1.58    0.24
  -3  10  -5    1.54    0.25
   3 -10   5    1.66    0.24
  -4  10  -5    2.42    0.29
  -4  10  -5    2.38    0.28
   4 -10   5    2.55    0.28
  -5  10  -5    0.76    0.19
  -5  10  -5    0.65    0.19
   5 -10   5    0.60    0.19
  -6  10  -5    2.39    0.28
  -6  10  -5    2.53    0.28
   6 -10   5    2.61    0.30
  -7  10  -5    1.28    0.23
  -7  10  -5    1.62    0.26
   7 -10   5    1.76    0.26
  -8  10  -5    0.24    0.18
  -8  10  -5    0.25    0.18
   8 -10   5    0.19    0.18
   6   9  -5    3.17    0.33
   6   9  -5    2.69    0.31
  -6  -9   5    2.99    0.28
  -6  -9   5    2.51    0.33
   5   9  -5    3.97    0.35
   5   9  -5    3.17    0.30
  -5  -9   5    3.75    0.31
  -5  -9   5    3.63    0.35
   4   9  -5    1.27    0.23
   4   9  -5    1.09    0.21
  -4  -9   5    1.29    0.24
  -4  -9   5    0.89    0.18
   3   9  -5    5.87    0.40
   3   9  -5    6.07    0.39
  -3  -9   5    6.92    0.39
  -3  -9   5    6.13    0.42
   2   9  -5    6.21    0.38
   2   9  -5    4.82    0.36
  -2  -9   5    5.22    0.34
  -2  -9   5    5.28    0.38
   1   9  -5    1.37    0.20
   1   9  -5    1.39    0.23
  -1  -9   5    1.14    0.19
   0   9  -5    4.59    0.34
   0   9  -5    5.05    0.34
   0  -9   5    4.46    0.32
  -1   9  -5    9.40    0.46
  -1   9  -5    8.34    0.44
   1  -9   5    8.28    0.43
  -2   9  -5    4.29    0.32
  -2   9  -5    4.27    0.32
   2  -9   5    4.26    0.32
  -3   9  -5    7.06    0.41
  -3   9  -5    6.67    0.39
   3  -9   5    7.13    0.40
  -4   9  -5    3.52    0.32
  -4   9  -5    2.62    0.27
   4  -9   5    2.81    0.28
  -5   9  -5    5.19    0.36
  -5   9  -5    4.70    0.35
   5  -9   5    5.22    0.36
  -6   9  -5    1.33    0.23
  -6   9  -5    1.05    0.20
   6  -9   5    1.09    0.21
  -7   9  -5    5.38    0.40
  -7   9  -5    4.90    0.38
   7  -9   5    5.23    0.39
  -8   9  -5    2.38    0.29
  -8   9  -5    2.56    0.30
   8  -9   5    3.10    0.33
  -9   9  -5    1.49    0.32
  -9   9  -5    2.07    0.28
   9  -9   5    2.94    0.33
   7   8  -5    0.38    0.20
  -7  -8   5    0.85    0.21
  -7  -8   5    0.63    0.16
   6   8  -5    1.08    0.21
   6   8  -5    0.81    0.15
   6   8  -5    0.99    0.22
  -6  -8   5    0.75    0.19
  -6  -8   5    0.79    0.17
   5   8  -5    2.98    0.28
   5   8  -5    3.06    0.30
   5   8  -5    2.80    0.23
  -5  -8   5    3.10    0.27
  -5  -8   5    3.09    0.32
   4   8  -5    4.03    0.33
   4   8  -5    3.90    0.26
   4   8  -5    4.04    0.32
  -4  -8   5    4.08    0.34
  -4  -8   5    4.06    0.29
   3   8  -5    1.30    0.19
   3   8  -5    0.96    0.13
   3   8  -5    1.20    0.21
  -3  -8   5    0.80    0.17
  -3  -8   5    1.11    0.17
   2   8  -5    3.10    0.27
   2   8  -5    3.33    0.22
   2   8  -5    3.01    0.27
  -2  -8   5    2.94    0.26
  -2  -8   5    2.93    0.27
   1   8  -5    8.60    0.42
   1   8  -5    8.71    0.42
   1   8  -5    8.18    0.37
  -1  -8   5    8.36    0.44
  -1  -8   5    8.62    0.41
   0   8  -5    3.61    0.23
   0   8  -5    3.89    0.29
   0   8  -5    3.58    0.29
   0  -8   5    3.67    0.27
  -1   8  -5   16.02    0.58
  -1   8  -5   16.12    0.63
  -1   8  -5   16.32    0.63
   1  -8   5   15.18    0.61
  -2   8  -5    9.42    0.39
  -2   8  -5    9.04    0.44
  -2   8  -5    9.33    0.44
  -2   8  -5    9.76    0.38
   2  -8   5    9.13    0.43
  -3   8  -5    9.40    0.43
  -3   8  -5    7.43    0.41
  -3   8  -5    8.81    0.43
   3  -8   5    9.10    0.42
  -4   8  -5   15.69    0.62
  -4   8  -5   14.45    0.61
   4  -8   5   15.61    0.62
  -5   8  -5    2.43    0.25
  -5   8  -5    2.86    0.28
   5  -8   5    2.58    0.25
  -6   8  -5    0.82    0.17
  -6   8  -5    1.06    0.21
   6  -8   5    1.27    0.21
  -7   8  -5    0.13    0.14
  -7   8  -5   -0.10    0.14
   7  -8   5    0.34    0.15
  -8   8  -5    1.64    0.25
  -8   8  -5    2.36    0.27
   8  -8   5    2.12    0.27
  -9   8  -5    1.08    0.22
  -9   8  -5    1.19    0.23
   9  -8   5    1.36    0.25
 -10   8  -5    2.39    0.29
  10  -8   5    2.67    0.33
   7   7  -5    0.92    0.21
   7   7  -5    1.00    0.16
  -7  -7   5    0.82    0.16
  -7  -7   5    1.05    0.22
   6   7  -5    1.02    0.21
   6   7  -5    1.07    0.15
   6   7  -5    1.14    0.20
  -6  -7   5    1.40    0.18
  -6  -7   5    1.28    0.22
   5   7  -5    3.23    0.30
   5   7  -5    2.61    0.25
   5   7  -5    2.77    0.22
  -5  -7   5    2.81    0.24
  -5  -7   5    2.96    0.30
   4   7  -5    3.09    0.22
   4   7  -5    2.91    0.27
   4   7  -5    3.06    0.27
  -4  -7   5    3.27    0.25
  -4  -7   5    2.99    0.28
   3   7  -5    5.26    0.27
   3   7  -5    4.93    0.32
   3   7  -5    5.01    0.32
  -3  -7   5    4.82    0.33
  -3  -7   5    5.33    0.29
   2   7  -5   10.84    0.47
   2   7  -5   11.09    0.47
   2   7  -5   11.28    0.44
  -2  -7   5   10.57    0.45
  -2  -7   5   10.40    0.50
   1   7  -5   23.45    0.81
   1   7  -5   22.67    0.81
   1   7  -5   24.28    0.79
  -1  -7   5   23.91    0.80
  -1  -7   5   23.20    0.85
   0   7  -5   21.42    0.75
   0   7  -5   20.83    0.74
   0   7  -5   21.37    0.72
   0   7  -5   21.06    0.75
   0  -7   5   20.99    0.73
  -1   7  -5    7.37    0.33
  -1   7  -5    7.35    0.37
  -1   7  -5    7.89    0.32
  -1   7  -5    7.65    0.37
   1  -7   5    7.40    0.36
  -2   7  -5   10.86    0.42
  -2   7  -5   10.86    0.40
  -2   7  -5   10.27    0.46
  -2   7  -5   10.65    0.46
   2  -7   5   10.89    0.45
  -3   7  -5    7.66    0.38
  -3   7  -5    8.07    0.39
  -3   7  -5    7.63    0.34
  -3   7  -5    8.35    0.32
   3  -7   5    7.81    0.38
  -4   7  -5    9.66    0.40
  -4   7  -5   10.73    0.38
  -4   7  -5   10.41    0.46
  -4   7  -5   10.43    0.46
   4  -7   5   10.42    0.45
  -5   7  -5    2.22    0.24
  -5   7  -5    2.22    0.24
   5  -7   5    2.09    0.23
  -6   7  -5    2.07    0.23
  -6   7  -5    2.25    0.25
   6  -7   5    2.13    0.23
  -7   7  -5    0.74    0.17
  -7   7  -5    0.66    0.18
   7  -7   5    0.40    0.15
   7  -7   5    0.73    0.11
  -8   7  -5    1.90    0.23
  -8   7  -5    2.32    0.27
   8  -7   5    2.22    0.25
  -9   7  -5    1.61    0.24
  -9   7  -5    1.25    0.22
   9  -7   5    1.50    0.24
 -10   7  -5    2.01    0.26
 -10   7  -5    2.11    0.27
  10  -7   5    2.00    0.28
 -11   7  -5    3.25    0.32
  11  -7   5    3.63    0.37
   8   6  -5    0.14    0.11
  -8  -6   5    0.06    0.12
  -8  -6   5   -0.01    0.14
   7   6  -5    0.39    0.18
   7   6  -5    0.55    0.13
  -7  -6   5    0.65    0.18
  -7  -6   5    0.54    0.13
   6   6  -5    0.72    0.14
   6   6  -5    1.03    0.19
   6   6  -5    0.90    0.18
  -6  -6   5    1.07    0.21
  -6  -6   5    0.73    0.14
   5   6  -5    3.23    0.28
   5   6  -5    2.85    0.22
   5   6  -5    2.90    0.25
  -5  -6   5    3.02    0.23
  -5  -6   5    2.79    0.28
   4   6  -5    1.51    0.16
   4   6  -5    1.44    0.20
   4   6  -5    1.10    0.17
  -4  -6   5    1.06    0.19
  -4  -6   5    1.25    0.15
   3   6  -5    4.43    0.25
   3   6  -5    4.73    0.29
   3   6  -5    4.35    0.29
  -3  -6   5    4.72    0.32
  -3  -6   5    4.45    0.26
   2   6  -5   14.83    0.57
   2   6  -5   15.86    0.55
   2   6  -5   15.37    0.57
  -2  -6   5   14.94    0.61
  -2  -6   5   15.55    0.55
   1   6  -5    0.11    0.06
   1   6  -5    0.13    0.07
   1   6  -5   -0.02    0.11
   1   6  -5    0.19    0.10
  -1  -6   5    0.23    0.09
  -1  -6   5    0.07    0.10
   0   6  -5    8.27    0.37
   0   6  -5    8.50    0.34
   0   6  -5    8.20    0.36
   0   6  -5    8.40    0.33
   0  -6   5    8.13    0.35
  -1   6  -5   12.93    0.51
  -1   6  -5   12.90    0.48
  -1   6  -5   13.02    0.51
  -1   6  -5   14.12    0.47
  -1   6  -5   13.92    0.48
   1  -6   5   13.56    0.46
   1  -6   5   12.63    0.49
  -2   6  -5   20.80    0.69
  -2   6  -5   20.67    0.69
  -2   6  -5   21.67    0.67
  -2   6  -5   21.01    0.72
  -2   6  -5   20.93    0.72
   2  -6   5   20.79    0.67
   2  -6   5   19.79    0.71
   2  -6   5   20.82    0.67
  -3   6  -5    0.56    0.13
  -3   6  -5    0.32    0.12
  -3   6  -5    0.58    0.08
  -3   6  -5    0.58    0.10
   3  -6   5    0.41    0.07
   3  -6   5    0.49    0.12
  -4   6  -5    4.34    0.27
  -4   6  -5    4.37    0.23
  -4   6  -5    4.63    0.28
   4  -6   5    4.77    0.23
   4  -6   5    4.56    0.27
  -5   6  -5   19.40    0.71
  -5   6  -5   19.11    0.66
  -5   6  -5   20.27    0.71
   5  -6   5   20.06    0.71
   5  -6   5   19.24    0.66
  -6   6  -5    8.26    0.40
  -6   6  -5    8.90    0.41
   6  -6   5    6.75    0.36
   6  -6   5    8.42    0.32
   6  -6   5    9.44    0.42
  -7   6  -5    8.74    0.43
  -7   6  -5    8.70    0.42
   7  -6   5    8.60    0.42
   7  -6   5    7.90    0.33
  -8   6  -5   -0.04    0.14
  -8   6  -5   -0.08    0.11
   8  -6   5   -0.08    0.12
   8  -6   5    0.04    0.06
  -9   6  -5    0.84    0.19
  -9   6  -5    0.58    0.17
   9  -6   5    0.71    0.17
 -10   6  -5    1.28    0.23
 -10   6  -5    1.19    0.21
  10  -6   5    1.16    0.22
 -11   6  -5    0.07    0.17
  11  -6   5   -0.16    0.16
   8   5  -5    2.97    0.25
  -8  -5   5    3.68    0.34
   7   5  -5    0.21    0.15
   7   5  -5    0.27    0.11
  -7  -5   5    0.25    0.10
  -7  -5   5    0.31    0.16
   6   5  -5    2.59    0.25
   6   5  -5    2.41    0.23
   6   5  -5    2.36    0.20
  -6  -5   5    2.28    0.26
  -6  -5   5    2.14    0.18
   5   5  -5    2.71    0.24
   5   5  -5    2.60    0.20
   5   5  -5    2.66    0.23
  -5  -5   5    2.67    0.26
  -5  -5   5    2.81    0.20
   4   5  -5   27.34    0.91
   4   5  -5   27.43    0.91
   4   5  -5   27.53    0.89
  -4  -5   5   27.71    0.88
  -4  -5   5   27.56    0.97
   3   5  -5    9.44    0.35
   3   5  -5    8.67    0.38
   3   5  -5    8.70    0.38
   3   5  -5    8.87    0.35
  -3  -5   5    8.52    0.35
  -3  -5   5    8.80    0.42
   2   5  -5    8.91    0.39
   2   5  -5    9.98    0.37
   2   5  -5    9.37    0.36
   2   5  -5   10.03    0.36
   2   5  -5    9.34    0.39
  -2  -5   5    9.40    0.43
  -2  -5   5    9.28    0.37
   1   5  -5   22.33    0.72
   1   5  -5   22.13    0.74
   1   5  -5   22.57    0.74
   1   5  -5   22.43    0.71
  -1  -5   5   21.83    0.78
  -1  -5   5   21.70    0.72
   0   5  -5   17.14    0.57
   0   5  -5   17.74    0.60
   0   5  -5   16.78    0.57
   0   5  -5   16.90    0.59
   0  -5   5   17.34    0.58
   0  -5   5   16.72    0.62
  -1   5  -5   36.20    1.10
  -1   5  -5   35.63    1.12
  -1   5  -5   35.69    1.10
  -1   5  -5   36.25    1.12
   1  -5   5   35.88    1.08
   1  -5   5   35.94    1.11
  -2   5  -5   29.55    0.92
  -2   5  -5   29.50    0.89
  -2   5  -5   29.08    0.94
  -2   5  -5   29.54    0.94
  -2   5  -5   30.27    0.92
   2  -5   5   29.29    0.90
   2  -5   5   27.92    0.93
  -3   5  -5   25.33    0.83
  -3   5  -5   25.65    0.76
  -3   5  -5   24.28    0.83
  -3   5  -5   25.95    0.81
  -3   5  -5   25.30    0.80
   3  -5   5   25.64    0.79
   3  -5   5   24.79    0.82
  -4   5  -5   12.93    0.49
  -4   5  -5   13.01    0.49
  -4   5  -5   12.76    0.46
   4  -5   5   12.14    0.48
  -5   5  -5   32.22    1.05
  -5   5  -5   33.26    1.02
  -5   5  -5   32.85    1.05
   5  -5   5   32.59    1.02
   5  -5   5   31.43    1.05
  -6   5  -5   11.96    0.45
  -6   5  -5   11.91    0.49
  -6   5  -5   12.53    0.49
   6  -5   5   11.65    0.44
   6  -5   5   12.30    0.49
   6  -5   5   11.88    0.41
  -7   5  -5    3.87    0.28
  -7   5  -5    3.82    0.28
   7  -5   5    4.26    0.20
   7  -5   5    4.36    0.23
   7  -5   5    3.85    0.28
  -8   5  -5    5.76    0.34
  -8   5  -5    5.83    0.35
   8  -5   5    5.17    0.33
   8  -5   5    5.34    0.25
  -9   5  -5    1.64    0.22
  -9   5  -5    2.01    0.25
   9  -5   5    1.45    0.21
   9  -5   5    1.83    0.16
 -10   5  -5    0.29    0.17
 -10   5  -5    0.42    0.16
  10  -5   5    0.53    0.19
 -11   5  -5    0.21    0.17
 -11   5  -5    0.14    0.16
  11  -5   5    0.25    0.18
 -12   5  -5    0.52    0.19
  12  -5   5    0.69    0.22
   9   4  -5    0.81    0.15
  -9  -4   5    1.10    0.22
   8   4  -5    1.99    0.20
  -8  -4   5    2.33    0.28
   7   4  -5    4.31    0.26
  -7  -4   5    4.60    0.22
  -7  -4   5    4.46    0.34
   6   4  -5    4.45    0.29
   6   4  -5    3.77    0.23
   6   4  -5    3.64    0.28
  -6  -4   5    4.18    0.32
  -6  -4   5    4.00    0.21
   5   4  -5    5.15    0.29
   5   4  -5    5.14    0.29
   5   4  -5    4.91    0.25
  -5  -4   5    5.46    0.34
  -5  -4   5    5.57    0.25
   4   4  -5    1.63    0.13
   4   4  -5    1.33    0.15
   4   4  -5    1.44    0.13
   4   4  -5    1.50    0.17
  -4  -4   5    1.47    0.13
  -4  -4   5    1.58    0.19
   3   4  -5   16.47    0.58
   3   4  -5   16.89    0.55
   3   4  -5   16.53    0.58
   3   4  -5   16.71    0.56
  -3  -4   5   16.26    0.55
  -3  -4   5   16.64    0.63
  -3  -4   5   17.22    0.55
   2   4  -5    6.69    0.26
   2   4  -5    6.35    0.29
   2   4  -5    6.25    0.29
   2   4  -5    6.52    0.27
  -2  -4   5    6.57    0.33
  -2  -4   5    7.12    0.27
  -2  -4   5    5.92    0.26
   1   4  -5   17.72    0.57
   1   4  -5   17.13    0.56
   1   4  -5   17.16    0.58
   1   4  -5   17.59    0.59
  -1  -4   5   16.84    0.57
  -1  -4   5   18.70    0.58
  -1  -4   5   17.06    0.63
   0   4  -5    0.97    0.13
   0   4  -5    0.78    0.09
   0   4  -5    0.80    0.11
   0   4  -5    0.97    0.09
   0  -4   5    0.89    0.10
   0  -4   5    0.78    0.10
   0  -4   5    0.80    0.11
  -1   4  -5    6.59    0.26
  -1   4  -5    6.92    0.26
  -1   4  -5    6.29    0.28
  -1   4  -5    6.59    0.28
   1  -4   5    6.25    0.27
   1  -4   5    6.64    0.30
  -2   4  -5    4.86    0.21
  -2   4  -5    4.54    0.24
  -2   4  -5    4.96    0.18
  -2   4  -5    4.80    0.24
  -2   4  -5    4.91    0.22
   2  -4   5    4.76    0.23
   2  -4   5    5.54    0.21
  -3   4  -5   55.01    1.69
  -3   4  -5   56.43    1.69
  -3   4  -5   56.85    1.62
  -3   4  -5   57.43    1.67
  -3   4  -5   57.93    1.67
   3  -4   5   54.93    1.69
   3  -4   5   57.51    1.66
  -4   4  -5   12.15    0.45
  -4   4  -5   11.27    0.45
  -4   4  -5   12.03    0.42
  -4   4  -5   12.05    0.42
   4  -4   5   11.85    0.45
  -5   4  -5    4.43    0.26
  -5   4  -5    4.68    0.22
  -5   4  -5    4.50    0.25
   5  -4   5    4.60    0.17
   5  -4   5    4.53    0.25
   5  -4   5    4.64    0.21
  -6   4  -5   12.33    0.48
  -6   4  -5   11.51    0.48
  -6   4  -5   12.67    0.45
   6  -4   5   12.34    0.40
   6  -4   5   12.10    0.44
   6  -4   5   11.67    0.47
  -7   4  -5   10.05    0.40
  -7   4  -5   10.59    0.44
  -7   4  -5    9.81    0.44
   7  -4   5   10.29    0.40
   7  -4   5   10.50    0.37
   7  -4   5    9.88    0.44
  -8   4  -5    7.88    0.39
  -8   4  -5    7.67    0.38
   8  -4   5    7.15    0.33
   8  -4   5    7.30    0.39
   8  -4   5    7.81    0.31
  -9   4  -5    0.70    0.16
  -9   4  -5    1.06    0.19
   9  -4   5    0.56    0.15
   9  -4   5    0.71    0.10
 -10   4  -5    0.76    0.18
 -10   4  -5    0.54    0.18
  10  -4   5    0.81    0.18
  10  -4   5    0.67    0.12
 -11   4  -5    2.39    0.27
 -11   4  -5    2.04    0.26
  11  -4   5    1.72    0.25
 -12   4  -5    0.55    0.19
  12  -4   5    0.39    0.20
   9   3  -5    0.94    0.15
  -9  -3   5    1.45    0.24
   8   3  -5    0.60    0.12
  -8  -3   5    1.04    0.20
   7   3  -5    2.75    0.21
  -7  -3   5    2.97    0.29
   6   3  -5    1.78    0.16
   6   3  -5    1.59    0.18
   6   3  -5    1.70    0.18
  -6  -3   5    1.68    0.22
  -6  -3   5    1.49    0.12
   5   3  -5    4.71    0.23
   5   3  -5    4.82    0.23
   5   3  -5    5.09    0.27
   5   3  -5    4.56    0.26
  -5  -3   5    5.00    0.32
  -5  -3   5    5.13    0.21
   4   3  -5    0.08    0.06
   4   3  -5   -0.03    0.08
   4   3  -5   -0.04    0.06
  -4  -3   5    0.05    0.09
  -4  -3   5   -0.03    0.05
   3   3  -5    3.09    0.15
   3   3  -5    3.05    0.19
   3   3  -5    2.59    0.15
  -3  -3   5    2.83    0.15
  -3  -3   5    3.03    0.15
  -3  -3   5    2.90    0.22
   2   3  -5   36.45    1.07
   2   3  -5   34.52    1.07
   2   3  -5   35.75    1.05
   2   3  -5   33.92    1.05
  -2  -3   5   36.65    1.05
  -2  -3   5   34.10    1.13
  -2  -3   5   35.42    1.05
   1   3  -5   19.72    0.64
   1   3  -5   19.59    0.62
   1   3  -5   20.42    0.62
   1   3  -5   20.50    0.62
   1   3  -5   20.15    0.64
  -1  -3   5   19.40    0.69
  -1  -3   5   19.64    0.62
  -1  -3   5   21.27    0.63
   0   3  -5   48.85    1.44
   0   3  -5   49.01    1.44
   0   3  -5   49.01    1.43
   0   3  -5   48.21    1.42
   0  -3   5   48.22    1.48
   0  -3   5   51.10    1.43
   0  -3   5   46.55    1.43
  -1   3  -5   23.10    0.70
  -1   3  -5   22.94    0.72
  -1   3  -5   22.76    0.72
  -1   3  -5   22.28    0.70
   1  -3   5   22.72    0.74
   1  -3   5   22.64    0.71
   1  -3   5   21.96    0.70
  -2   3  -5   99.97    2.87
  -2   3  -5   98.14    2.81
  -2   3  -5  101.29    2.85
  -2   3  -5   95.63    2.86
  -2   3  -5   97.43    2.85
   2  -3   5  103.39    2.86
   2  -3   5  100.99    2.84
   2  -3   5   96.06    2.86
   2  -3   5  101.12    2.88
  -3   3  -5   15.75    0.52
  -3   3  -5   15.80    0.54
  -3   3  -5   16.36    0.52
  -3   3  -5   15.65    0.54
   3  -3   5   14.89    0.53
   3  -3   5   16.76    0.51
  -4   3  -5   11.93    0.45
  -4   3  -5   11.99    0.45
  -4   3  -5   12.41    0.43
  -4   3  -5   12.98    0.43
   4  -3   5   12.80    0.42
   4  -3   5   12.19    0.45
  -5   3  -5   10.16    0.40
  -5   3  -5   10.70    0.38
   5  -3   5   10.42    0.32
   5  -3   5    9.69    0.40
  -6   3  -5    8.01    0.32
  -6   3  -5    7.92    0.35
   6  -3   5    7.88    0.28
   6  -3   5    8.21    0.31
   6  -3   5    7.34    0.34
  -7   3  -5    2.87    0.18
  -7   3  -5    2.53    0.22
   7  -3   5    2.76    0.22
   7  -3   5    3.11    0.16
   7  -3   5    2.96    0.18
  -8   3  -5    0.31    0.13
   8  -3   5    0.40    0.09
   8  -3   5    0.36    0.13
   8  -3   5    0.54    0.09
  -9   3  -5    0.50    0.15
   9  -3   5    0.83    0.11
   9  -3   5    0.68    0.16
 -10   3  -5    0.67    0.16
 -10   3  -5    0.78    0.18
  10  -3   5    0.56    0.11
  10  -3   5    0.57    0.16
 -11   3  -5    0.63    0.18
 -11   3  -5    0.30    0.17
  11  -3   5    0.61    0.18
 -12   3  -5    0.40    0.17
  12  -3   5    0.06    0.18
   9   2  -5    0.07    0.09
  -9  -2   5   -0.02    0.14
   8   2  -5    0.76    0.13
  -8  -2   5    1.11    0.20
   7   2  -5    3.05    0.20
  -7  -2   5    3.12    0.29
   6   2  -5    2.12    0.23
   6   2  -5    3.53    0.19
   6   2  -5    3.18    0.19
  -6  -2   5    3.33    0.27
   5   2  -5   15.23    0.52
   5   2  -5   14.16    0.49
   5   2  -5   14.99    0.49
  -5  -2   5   14.34    0.59
   4   2  -5   15.38    0.49
   4   2  -5   14.93    0.51
   4   2  -5   14.37    0.49
  -4  -2   5   15.21    0.58
   3   2  -5    9.66    0.33
   3   2  -5    9.52    0.33
   3   2  -5    9.95    0.35
  -3  -2   5    9.87    0.42
   2   2  -5   33.14    0.99
   2   2  -5   33.88    0.99
   2   2  -5   34.06    1.01
  -2  -2   5   33.36    1.07
  -2  -2   5   33.65    0.98
   1   2  -5   59.76    1.71
   1   2  -5   58.26    1.69
   1   2  -5   59.17    1.69
  -1  -2   5   55.98    1.69
  -1  -2   5   61.37    1.69
  -1  -2   5   58.99    1.77
   0   2  -5   70.60    2.07
   0   2  -5   73.03    2.06
   0   2  -5   71.59    2.06
   0  -2   5   74.55    2.06
   0  -2   5   70.59    2.06
   0  -2   5   70.99    2.12
  -1   2  -5   46.39    1.36
  -1   2  -5   46.61    1.38
  -1   2  -5   46.82    1.37
  -1   2  -5   46.63    1.38
   1  -2   5   50.18    1.37
   1  -2   5   44.75    1.37
   1  -2   5   47.51    1.41
  -2   2  -5   22.20    0.69
  -2   2  -5   22.69    0.71
  -2   2  -5   22.75    0.69
   2  -2   5   22.59    0.72
   2  -2   5   21.72    0.70
   2  -2   5   23.82    0.70
  -3   2  -5   68.48    1.98
  -3   2  -5   67.15    2.00
  -3   2  -5   68.65    1.98
   3  -2   5   67.13    1.99
   3  -2   5   69.60    2.00
   3  -2   5   70.20    1.97
   3  -2   5   68.02    1.99
  -4   2  -5    9.69    0.35
  -4   2  -5   10.15    0.35
  -4   2  -5   10.24    0.38
   4  -2   5   10.00    0.34
   4  -2   5    9.62    0.37
  -5   2  -5   12.99    0.44
  -5   2  -5   12.54    0.46
  -5   2  -5   12.77    0.44
   5  -2   5   12.23    0.46
   5  -2   5   12.67    0.38
  -6   2  -5   16.60    0.58
  -6   2  -5   15.96    0.55
   6  -2   5   16.69    0.55
   6  -2   5   15.86    0.57
  -7   2  -5   17.09    0.56
  -7   2  -5   16.29    0.59
   7  -2   5   15.83    0.55
   7  -2   5   16.06    0.59
  -8   2  -5   13.69    0.55
   8  -2   5   14.89    0.56
   8  -2   5   13.90    0.51
  -9   2  -5    9.82    0.46
   9  -2   5    9.93    0.45
 -10   2  -5    3.13    0.28
  10  -2   5    2.73    0.28
 -11   2  -5    0.54    0.16
  11  -2   5    0.23    0.16
 -12   2  -5    0.67    0.19
  12  -2   5    0.84    0.22
   9   1  -5    0.34    0.11
   8   1  -5    0.87    0.13
  -8  -1   5    0.57    0.17
   7   1  -5    0.44    0.10
  -7  -1   5    0.60    0.16
   6   1  -5    7.43    0.29
   6   1  -5    7.26    0.30
  -6  -1   5    7.56    0.40
   5   1  -5    1.36    0.14
   5   1  -5    1.38    0.11
   5   1  -5    1.25    0.11
  -5  -1   5    1.15    0.17
   4   1  -5   19.22    0.59
   4   1  -5   19.32    0.61
  -4  -1   5   19.14    0.70
   3   1  -5    7.34    0.26
   3   1  -5    6.77    0.24
   3   1  -5    7.04    0.24
  -3  -1   5    6.93    0.33
   2   1  -5    6.11    0.22
   2   1  -5    5.89    0.20
   2   1  -5    5.82    0.20
  -2  -1   5    5.84    0.28
   1   1  -5    1.12    0.06
   1   1  -5    1.15    0.09
   1   1  -5    1.04    0.06
  -1  -1   5    1.14    0.13
   0   1  -5   13.80    0.42
   0   1  -5   14.22    0.42
   0   1  -5   14.51    0.44
   0  -1   5   13.77    0.42
   0  -1   5   14.06    0.49
  -1   1  -5   21.20    0.64
  -1   1  -5   20.71    0.64
  -1   1  -5   21.31    0.66
   1  -1   5   21.69    0.64
   1  -1   5   22.61    0.64
   1  -1   5   21.88    0.69
  -2   1  -5    2.91    0.13
  -2   1  -5    2.87    0.15
  -2   1  -5    2.72    0.12
   2  -1   5    2.88    0.14
   2  -1   5    2.71    0.14
   2  -1   5    2.67    0.15
  -3   1  -5   39.17    1.19
  -3   1  -5   39.55    1.18
  -3   1  -5   40.26    1.18
   3  -1   5   42.61    1.19
   3  -1   5   38.99    1.18
   3  -1   5   41.17    1.17
   3  -1   5   38.67    1.19
  -4   1  -5   78.77    2.32
  -4   1  -5   80.60    2.31
  -4   1  -5   81.94    2.31
   4  -1   5   79.93    2.29
   4  -1   5   78.93    2.28
   4  -1   5   79.02    2.32
  -5   1  -5    5.36    0.22
  -5   1  -5    5.13    0.25
  -5   1  -5    5.73    0.23
   5  -1   5    5.20    0.18
   5  -1   5    5.03    0.24
   5  -1   5    5.13    0.21
  -6   1  -5   31.08    0.96
  -6   1  -5   30.23    0.93
   6  -1   5   29.06    0.95
   6  -1   5   29.41    0.92
  -7   1  -5    4.85    0.23
  -7   1  -5    4.20    0.26
   7  -1   5    4.24    0.25
   7  -1   5    4.76    0.22
  -8   1  -5   19.37    0.66
  -8   1  -5   19.66    0.71
   8  -1   5   19.99    0.67
   8  -1   5   20.44    0.71
  -9   1  -5    3.88    0.28
   9  -1   5    3.82    0.28
   9  -1   5    2.67    0.30
 -10   1  -5    1.89    0.22
  10  -1   5    1.64    0.21
 -11   1  -5    0.12    0.15
  11  -1   5    0.04    0.14
 -12   1  -5   -0.04    0.15
  12  -1   5   -0.25    0.14
 -13   1  -5    0.16    0.18
  13  -1   5   -0.10    0.17
   9   0  -5    0.06    0.09
   8   0  -5    1.58    0.16
   7   0  -5    0.87    0.11
   7   0  -5    0.80    0.11
  -7   0   5    0.62    0.16
   6   0  -5    0.02    0.05
   6   0  -5    0.04    0.06
  -6   0   5    0.02    0.11
   5   0  -5   31.34    0.97
   5   0  -5   32.78    0.97
  -5   0   5   33.12    1.10
   4   0  -5   10.57    0.34
   4   0  -5   10.87    0.37
   4   0  -5   10.57    0.34
  -4   0   5   10.63    0.46
   3   0  -5    4.70    0.18
  -3   0   5    4.64    0.26
   2   0  -5   37.33    1.07
  -2   0   5   36.33    1.16
   1   0  -5   28.95    0.82
   1   0  -5   28.67    0.82
  -1   0   5   26.80    0.90
   0   0  -5   26.87    0.77
   0   0  -5   26.41    0.77
   0   0   5   25.90    0.83
  -1   0  -5   19.62    0.57
  -1   0  -5   17.94    0.55
  -1   0  -5   18.38    0.55
  -1   0  -5   18.77    0.57
  -1   0  -5   19.26    0.57
   1   0   5   18.36    0.60
   1   0   5   18.41    0.54
  -2   0  -5    4.79    0.18
  -2   0  -5    5.11    0.18
  -2   0  -5    4.92    0.20
  -2   0  -5    5.06    0.18
   2   0   5    5.42    0.19
   2   0   5    4.89    0.20
   2   0   5    5.02    0.19
  -3   0  -5   30.50    0.91
  -3   0  -5   30.78    0.92
  -3   0  -5   30.91    0.91
   3   0   5   26.21    0.93
   3   0   5   31.65    0.91
   3   0   5   31.84    0.88
   3   0   5   29.96    0.92
   3   0   5   32.38    0.92
  -4   0  -5   63.52    1.87
  -4   0  -5   61.65    1.88
  -4   0  -5   67.01    1.87
   4   0   5   64.85    1.86
   4   0   5   63.76    1.84
   4   0   5   61.87    1.88
   4   0   5   67.93    1.90
   4   0   5   64.90    1.84
  -5   0  -5   25.58    0.83
  -5   0  -5   28.71    0.82
  -5   0  -5   26.91    0.81
   5   0   5   24.37    0.82
   5   0   5   25.98    0.80
  -6   0  -5    3.18    0.18
  -6   0  -5    3.09    0.21
  -6   0  -5    3.50    0.18
   6   0   5    3.06    0.20
  -7   0  -5    8.84    0.38
  -7   0  -5    8.81    0.35
   7   0   5    9.05    0.35
   7   0   5    9.50    0.39
  -8   0  -5    0.36    0.12
  -8   0  -5    0.39    0.08
   8   0   5    0.53    0.13
   8   0   5    0.42    0.09
  -9   0  -5   11.12    0.48
   9   0   5   10.77    0.48
 -10   0  -5    1.56    0.21
  10   0   5    2.08    0.24
 -11   0  -5    4.17    0.35
  11   0   5    4.18    0.35
 -12   0  -5    0.34    0.17
  12   0   5    0.28    0.18
 -13   0  -5    0.47    0.20
  13   0   5    0.81    0.22
   9  -1  -5    0.29    0.10
   8  -1  -5    0.48    0.10
   7  -1  -5    4.10    0.20
   7  -1  -5    4.03    0.21
   6  -1  -5    5.61    0.23
   6  -1  -5    5.38    0.22
   5  -1  -5    1.43    0.10
   5  -1  -5    1.45    0.10
  -5   1   5    1.26    0.18
   4  -1  -5   18.77    0.57
   4  -1  -5   18.82    0.57
   4  -1  -5   19.63    0.59
  -4   1   5   19.35    0.70
   3  -1  -5    8.88    0.28
  -3   1   5    8.99    0.39
  -2   1   5    8.34    0.35
   1  -1  -5   28.01    0.87
  -1   1   5   28.21    0.90
   0  -1  -5   26.10    0.81
   0   1   5   26.79    0.84
  -1  -1  -5   23.79    0.74
  -1  -1  -5   24.81    0.72
  -1  -1  -5   25.23    0.72
   1   1   5   23.76    0.76
  -2  -1  -5   38.20    1.13
  -2  -1  -5   39.40    1.14
  -2  -1  -5   38.33    1.18
  -2  -1  -5   37.90    1.12
  -2  -1  -5   39.25    1.14
   2   1   5   39.07    1.13
   2   1   5   37.80    1.15
   2   1   5   40.65    1.14
   2   1   5   40.07    1.13
  -3  -1  -5   20.89    0.62
  -3  -1  -5   19.84    0.62
  -3  -1  -5   20.73    0.62
  -3  -1  -5   19.72    0.63
   3   1   5   19.59    0.62
   3   1   5   20.51    0.63
   3   1   5   20.10    0.61
  -4  -1  -5   18.26    0.57
  -4  -1  -5   17.39    0.56
  -4  -1  -5   17.89    0.59
  -4  -1  -5   18.01    0.53
   4   1   5   19.05    0.58
   4   1   5   17.75    0.55
   4   1   5   17.31    0.58
   4   1   5   17.90    0.55
  -5  -1  -5   22.82    0.75
  -5  -1  -5   23.96    0.74
  -5  -1  -5   24.83    0.74
   5   1   5   22.14    0.75
   5   1   5   23.79    0.72
  -6  -1  -5   14.34    0.52
  -6  -1  -5   14.27    0.49
  -6  -1  -5   15.59    0.50
   6   1   5   13.60    0.47
   6   1   5   13.70    0.51
  -7  -1  -5   13.31    0.50
  -7  -1  -5   13.14    0.46
   7   1   5   12.24    0.49
   7   1   5   13.30    0.46
  -8  -1  -5    0.01    0.10
  -8  -1  -5    0.05    0.05
   8   1   5    0.03    0.06
   8   1   5    0.06    0.10
  -9  -1  -5    0.56    0.15
   9   1   5    0.49    0.14
 -10  -1  -5    2.28    0.25
  10   1   5    2.28    0.25
 -11  -1  -5    1.97    0.25
  11   1   5    1.68    0.24
 -12  -1  -5    1.14    0.23
  12   1   5    1.15    0.23
 -13  -1  -5   -0.09    0.17
  13   1   5    0.44    0.19
   9  -2  -5    1.04    0.14
   8  -2  -5    1.06    0.12
   7  -2  -5    0.89    0.11
   7  -2  -5    1.03    0.11
   6  -2  -5   -0.02    0.04
   6  -2  -5    0.10    0.06
   5  -2  -5    0.67    0.07
   5  -2  -5    0.68    0.07
   3  -2  -5   20.03    0.69
   2  -2  -5   27.14    0.87
   1  -2  -5   14.74    0.51
   0  -2  -5   32.27    0.94
   0  -2  -5   33.11    1.00
  -1  -2  -5  351.54   10.32
  -1  -2  -5  368.53   10.30
  -1  -2  -5  367.59   10.32
   1   2   5  375.04   10.40
  -2  -2  -5    6.99    0.23
  -2  -2  -5    7.10    0.27
  -2  -2  -5    6.80    0.23
  -2  -2  -5    7.39    0.26
   2   2   5    7.16    0.27
   2   2   5    6.71    0.24
   2   2   5    7.60    0.24
  -3  -2  -5   24.73    0.75
  -3  -2  -5   24.55    0.75
  -3  -2  -5   24.22    0.76
  -3  -2  -5   24.49    0.75
   3   2   5   26.62    0.76
   3   2   5   25.26    0.76
   3   2   5   23.93    0.75
  -4  -2  -5   27.36    0.86
  -4  -2  -5   27.20    0.81
  -4  -2  -5   28.23    0.84
  -4  -2  -5   26.89    0.84
   4   2   5   27.44    0.85
   4   2   5   29.12    0.85
   4   2   5   27.19    0.82
   4   2   5   27.17    0.84
  -5  -2  -5   16.69    0.55
  -5  -2  -5   17.32    0.55
  -5  -2  -5   16.20    0.57
   5   2   5   16.94    0.53
  -6  -2  -5   15.48    0.57
  -6  -2  -5   16.40    0.55
  -6  -2  -5   17.42    0.56
   6   2   5   16.30    0.54
  -7  -2  -5    5.75    0.30
  -7  -2  -5    5.39    0.25
  -8  -2  -5    5.45    0.25
  -8  -2  -5    4.63    0.30
   8   2   5    4.73    0.24
  -9  -2  -5    2.17    0.23
 -10  -2  -5    4.68    0.34
  10   2   5    4.67    0.34
 -11  -2  -5    1.02    0.20
  11   2   5    0.87    0.20
 -12  -2  -5    1.36    0.24
  12   2   5    1.60    0.26
 -13  -2  -5    1.30    0.25
   9  -3  -5    1.10    0.14
   8  -3  -5    0.44    0.09
   7  -3  -5    0.97    0.18
   7  -3  -5    1.10    0.12
   7  -3  -5    0.84    0.10
   6  -3  -5    0.04    0.05
   6  -3  -5   -0.08    0.09
   6  -3  -5    0.03    0.05
   5  -3  -5    1.03    0.08
   5  -3  -5    1.00    0.09
   5  -3  -5    0.91    0.15
   4  -3  -5    2.91    0.22
   4  -3  -5    3.54    0.16
   3  -3  -5    6.32    0.21
   3  -3  -5    5.89    0.29
   2  -3  -5    4.12    0.23
   1  -3  -5   31.03    0.98
   0  -3  -5    1.28    0.08
   0  -3  -5    1.39    0.09
   0  -3  -5    1.59    0.12
  -1  -3  -5    0.11    0.05
  -1  -3  -5    0.08    0.05
  -1  -3  -5    0.06    0.03
  -1  -3  -5    0.11    0.03
   1   3   5    0.07    0.05
  -2  -3  -5   28.67    0.89
  -2  -3  -5   28.59    0.86
  -2  -3  -5   28.47    0.84
  -2  -3  -5   27.63    0.84
   2   3   5   29.81    0.85
   2   3   5   27.98    0.84
   2   3   5   29.37    0.89
  -3  -3  -5    0.39    0.06
  -3  -3  -5    0.41    0.06
  -3  -3  -5    0.52    0.08
   3   3   5    0.33    0.07
   3   3   5    0.35    0.07
  -4  -3  -5   16.03    0.52
  -4  -3  -5   17.11    0.54
  -4  -3  -5   17.03    0.56
  -4  -3  -5   16.59    0.54
   4   3   5   17.81    0.56
   4   3   5   16.42    0.56
  -5  -3  -5    6.31    0.21
  -5  -3  -5    6.79    0.27
  -5  -3  -5    6.47    0.29
  -5  -3  -5    6.49    0.26
   5   3   5    6.21    0.24
  -6  -3  -5    3.42    0.19
  -6  -3  -5    3.77    0.20
  -6  -3  -5    3.49    0.22
   6   3   5    3.40    0.17
  -7  -3  -5   10.82    0.46
  -7  -3  -5   12.12    0.43
  -8  -3  -5   21.61    0.77
  -8  -3  -5   21.16    0.72
  -9  -3  -5    1.79    0.21
 -10  -3  -5    1.47    0.22
 -11  -3  -5    0.45    0.17
 -12  -3  -5    0.88    0.23
  12   3   5    0.19    0.19
   9  -4  -5    0.30    0.10
   8  -4  -5    0.89    0.12
   7  -4  -5    6.32    0.38
   7  -4  -5    6.31    0.27
   7  -4  -5    6.54    0.28
   6  -4  -5    4.57    0.31
   6  -4  -5    4.56    0.20
   6  -4  -5    4.83    0.21
   5  -4  -5    0.11    0.05
   5  -4  -5    0.13    0.05
   5  -4  -5    0.10    0.09
   4  -4  -5    3.01    0.17
   4  -4  -5    2.90    0.13
   4  -4  -5    2.96    0.13
   4  -4  -5    2.98    0.22
   3  -4  -5    5.05    0.20
   3  -4  -5    5.04    0.28
   2  -4  -5   25.07    0.73
   2  -4  -5   23.98    0.82
   1  -4  -5   10.38    0.42
   1  -4  -5   11.11    0.35
   0  -4  -5   17.07    0.51
   0  -4  -5   16.13    0.51
   0  -4  -5   17.29    0.60
   0  -4  -5   17.67    0.53
   0   4   5   18.45    0.60
  -1  -4  -5    7.94    0.26
  -1  -4  -5    7.83    0.26
  -1  -4  -5    7.88    0.33
  -1  -4  -5    8.15    0.29
   1   4   5    8.16    0.33
  -2  -4  -5   44.77    1.32
  -2  -4  -5   43.61    1.35
  -2  -4  -5   45.74    1.32
  -2  -4  -5   44.55    1.30
  -2  -4  -5   42.79    1.30
   2   4   5   44.45    1.35
   2   4   5   45.83    1.30
  -3  -4  -5   14.12    0.46
  -3  -4  -5   13.84    0.48
  -3  -4  -5   14.06    0.48
  -3  -4  -5   13.33    0.45
   3   4   5   15.04    0.47
   3   4   5   13.90    0.49
  -4  -4  -5   35.68    1.09
  -4  -4  -5   36.73    1.07
  -4  -4  -5   33.18    1.06
   4   4   5   34.99    1.09
  -5  -4  -5    4.99    0.22
  -5  -4  -5    4.48    0.25
  -5  -4  -5    4.91    0.22
   5   4   5    4.52    0.24
   5   4   5    4.51    0.20
  -6  -4  -5   17.38    0.58
  -6  -4  -5   16.19    0.60
  -6  -4  -5   17.07    0.57
   6   4   5   16.31    0.55
  -7  -4  -5   14.71    0.44
  -7  -4  -5   13.48    0.55
  -7  -4  -5   14.36    0.51
  -8  -4  -5    1.38    0.14
  -8  -4  -5    1.42    0.19
  -9  -4  -5    2.40    0.26
 -10  -4  -5    0.46    0.16
 -11  -4  -5    0.83    0.21
 -12  -4  -5    0.33    0.19
   9  -5  -5    0.71    0.12
   8  -5  -5    0.31    0.10
   7  -5  -5    1.10    0.21
   7  -5  -5    1.10    0.12
   6  -5  -5   12.41    0.55
   6  -5  -5   12.54    0.43
   6  -5  -5   12.06    0.43
   5  -5  -5    2.82    0.15
   5  -5  -5    3.10    0.16
   5  -5  -5    3.34    0.26
   4  -5  -5    3.02    0.24
   4  -5  -5    2.87    0.14
   4  -5  -5    3.02    0.14
   3  -5  -5    5.14    0.21
   3  -5  -5    4.56    0.18
   3  -5  -5    4.32    0.28
   2  -5  -5    4.09    0.16
   2  -5  -5    4.20    0.16
   2  -5  -5    4.32    0.26
   2  -5  -5    4.45    0.19
   1  -5  -5   10.27    0.35
   1  -5  -5    9.96    0.32
   1  -5  -5    9.98    0.32
   1  -5  -5   10.17    0.42
   0  -5  -5    6.66    0.26
   0  -5  -5    6.64    0.24
   0  -5  -5    6.85    0.32
   0  -5  -5    6.91    0.24
  -1  -5  -5   24.13    0.75
  -1  -5  -5   24.41    0.75
  -1  -5  -5   24.86    0.82
  -1  -5  -5   24.90    0.77
   1   5   5   25.01    0.82
   1   5   5   25.30    0.74
  -2  -5  -5   12.44    0.43
  -2  -5  -5   12.81    0.44
  -2  -5  -5   12.21    0.41
  -2  -5  -5   11.70    0.41
   2   5   5   12.63    0.46
   2   5   5   13.01    0.42
   2   5   5   11.72    0.42
  -3  -5  -5    3.39    0.19
  -3  -5  -5    3.14    0.16
  -3  -5  -5    3.05    0.16
   3   5   5    3.27    0.18
   3   5   5    3.17    0.20
   3   5   5    3.12    0.20
  -4  -5  -5    2.19    0.15
  -4  -5  -5    2.17    0.18
  -4  -5  -5    2.52    0.15
   4   5   5    2.50    0.18
   4   5   5    2.23    0.19
  -5  -5  -5   20.91    0.67
  -5  -5  -5   19.39    0.69
  -5  -5  -5   20.84    0.67
   5   5   5   19.70    0.68
  -6  -5  -5    0.10    0.10
  -6  -5  -5    0.22    0.07
   6   5   5    0.07    0.14
  -7  -5  -5    0.85    0.09
  -7  -5  -5    0.67    0.11
  -7  -5  -5    0.57    0.14
   7   5   5    0.59    0.18
  -8  -5  -5    3.82    0.30
  -9  -5  -5    1.06    0.19
 -10  -5  -5    0.69    0.19
 -11  -5  -5    0.59    0.19
 -12  -5  -5   -0.09    0.18
   8  -6  -5    1.00    0.14
   7  -6  -5    1.53    0.15
   6  -6  -5    1.68    0.15
   6  -6  -5    1.88    0.24
   6  -6  -5    1.98    0.15
   5  -6  -5    3.40    0.18
   5  -6  -5    3.18    0.17
   5  -6  -5    3.27    0.29
   4  -6  -5    4.51    0.19
   4  -6  -5    3.92    0.29
   4  -6  -5    4.25    0.19
   3  -6  -5    0.04    0.05
   3  -6  -5    0.12    0.10
   3  -6  -5    0.07    0.05
   3  -6  -5    0.15    0.08
   2  -6  -5    2.36    0.15
   2  -6  -5    2.15    0.21
   2  -6  -5    2.25    0.12
   2  -6  -5    2.12    0.12
   1  -6  -5    6.06    0.24
   1  -6  -5    6.36    0.26
   1  -6  -5    6.85    0.33
   1  -6  -5    6.31    0.24
   0  -6  -5    6.03    0.23
   0  -6  -5    6.30    0.24
   0  -6  -5    6.16    0.26
   0  -6  -5    5.75    0.31
   0   6   5    6.29    0.23
  -1  -6  -5   16.37    0.52
  -1  -6  -5   15.80    0.59
  -1  -6  -5   16.01    0.54
  -1  -6  -5   15.08    0.52
  -1  -6  -5   16.39    0.54
  -1  -6  -5   15.62    0.52
   1   6   5   17.02    0.52
   1   6   5   16.33    0.51
  -2  -6  -5   28.56    0.90
  -2  -6  -5   29.61    0.90
  -2  -6  -5   29.17    0.93
   2   6   5   28.83    0.91
   2   6   5   30.77    0.90
  -3  -6  -5   27.30    0.87
  -3  -6  -5   25.97    0.84
  -3  -6  -5   27.04    0.85
   3   6   5   27.82    0.86
  -4  -6  -5   16.15    0.59
  -4  -6  -5   16.74    0.56
  -4  -6  -5   16.50    0.56
   4   6   5   16.31    0.58
  -5  -6  -5   10.31    0.40
  -5  -6  -5   10.28    0.43
   5   6   5   10.23    0.42
  -6  -6  -5    5.39    0.27
  -6  -6  -5    5.31    0.31
   6   6   5    5.11    0.31
  -7  -6  -5    2.03    0.18
  -7  -6  -5    2.39    0.23
   7   6   5    2.86    0.26
  -8  -6  -5    4.67    0.33
   8   6   5    5.06    0.39
  -9  -6  -5    2.77    0.28
 -10  -6  -5    0.28    0.18
 -11  -6  -5    0.07    0.18
   8  -7  -5    0.17    0.09
   7  -7  -5    0.11    0.08
   6  -7  -5    0.84    0.12
   5  -7  -5    1.75    0.23
   5  -7  -5    1.84    0.15
   5  -7  -5    1.68    0.14
   4  -7  -5    0.71    0.09
   4  -7  -5    0.69    0.10
   4  -7  -5    0.84    0.18
   3  -7  -5   13.32    0.56
   3  -7  -5   11.74    0.42
   3  -7  -5   12.30    0.43
   2  -7  -5    0.22    0.11
   2  -7  -5    0.22    0.06
   2  -7  -5    0.21    0.06
   2  -7  -5    0.07    0.08
   1  -7  -5    6.43    0.26
   1  -7  -5    6.80    0.35
   1  -7  -5    6.27    0.26
   1  -7  -5    6.52    0.29
   0  -7  -5    9.46    0.35
   0  -7  -5    9.86    0.38
   0  -7  -5    9.57    0.36
   0  -7  -5    9.71    0.44
   0   7   5   10.56    0.35
  -1  -7  -5    2.82    0.16
  -1  -7  -5    2.65    0.19
  -1  -7  -5    2.58    0.16
  -1  -7  -5    2.69    0.23
  -1  -7  -5    2.35    0.15
   1   7   5    2.85    0.19
  -2  -7  -5    4.09    0.21
  -2  -7  -5    4.50    0.25
  -2  -7  -5    4.48    0.22
   2   7   5    4.60    0.24
  -3  -7  -5    8.86    0.38
  -3  -7  -5    8.98    0.35
  -3  -7  -5    8.67    0.35
   3   7   5    8.60    0.37
  -4  -7  -5    3.12    0.19
  -4  -7  -5    3.10    0.23
   4   7   5    2.50    0.23
  -5  -7  -5    6.20    0.34
  -5  -7  -5    6.39    0.30
   5   7   5    6.08    0.33
  -6  -7  -5    0.97    0.13
  -6  -7  -5    1.12    0.18
   6   7   5    0.77    0.17
  -7  -7  -5    0.77    0.13
  -7  -7  -5    0.49    0.16
   7   7   5    0.75    0.19
  -8  -7  -5    0.32    0.16
   8   7   5    0.49    0.20
  -9  -7  -5    3.42    0.33
 -10  -7  -5    0.78    0.21
 -11  -7  -5    0.89    0.24
   7  -8  -5    0.61    0.12
   6  -8  -5    2.99    0.21
   5  -8  -5    7.61    0.53
   5  -8  -5    6.35    0.30
   4  -8  -5    4.27    0.23
   4  -8  -5    4.74    0.34
   3  -8  -5    1.59    0.14
   3  -8  -5    1.64    0.14
   3  -8  -5    1.58    0.21
   2  -8  -5   11.51    0.53
   2  -8  -5   11.40    0.42
   2  -8  -5   11.11    0.41
   1  -8  -5    3.93    0.24
   1  -8  -5    3.89    0.21
   1  -8  -5    4.22    0.21
   1  -8  -5    4.21    0.30
  -1   8   5    3.86    0.19
   0  -8  -5    0.52    0.11
   0  -8  -5    0.52    0.14
   0  -8  -5    0.56    0.09
   0  -8  -5    0.50    0.09
   0   8   5    0.46    0.10
  -1  -8  -5    2.62    0.17
  -1  -8  -5    2.54    0.21
  -1  -8  -5    2.44    0.17
   1   8   5    2.56    0.20
  -2  -8  -5    1.17    0.16
  -2  -8  -5    1.15    0.12
   2   8   5    1.16    0.15
  -3  -8  -5    0.80    0.12
  -3  -8  -5    0.59    0.13
   3   8   5    0.93    0.15
  -4  -8  -5    8.02    0.39
  -4  -8  -5    8.12    0.35
   4   8   5    8.53    0.39
  -5  -8  -5    4.34    0.30
  -5  -8  -5    4.03    0.24
   5   8   5    4.09    0.30
  -6  -8  -5   11.70    0.52
  -6  -8  -5   11.17    0.47
   6   8   5   11.99    0.54
  -7  -8  -5    2.95    0.29
   7   8   5    2.99    0.28
  -8  -8  -5    0.98    0.21
   8   8   5    1.68    0.26
  -9  -8  -5    0.79    0.20
   9   8   5    1.00    0.24
 -10  -8  -5    1.51    0.27
  10   8   5    0.78    0.23
   6  -9  -5    0.44    0.11
   5  -9  -5    1.53    0.16
   4  -9  -5    3.99    0.24
   3  -9  -5    7.15    0.43
   3  -9  -5    7.01    0.32
   2  -9  -5    3.00    0.30
   2  -9  -5    3.03    0.20
   1  -9  -5    2.49    0.22
   1  -9  -5    2.69    0.27
   1  -9  -5    2.46    0.19
  -1   9   5    2.56    0.18
   0  -9  -5    6.09    0.32
   0  -9  -5    6.28    0.29
   0  -9  -5    5.69    0.28
   0  -9  -5    6.61    0.39
   0   9   5    6.59    0.30
  -1  -9  -5    3.70    0.27
  -1  -9  -5    3.73    0.22
   1   9   5    3.86    0.25
  -2  -9  -5    6.91    0.33
  -2  -9  -5    7.80    0.38
   2   9   5    7.46    0.35
  -3  -9  -5    5.68    0.29
  -3  -9  -5    5.88    0.34
   3   9   5    5.73    0.33
  -4  -9  -5   -0.07    0.07
  -4  -9  -5    0.09    0.12
   4   9   5   -0.02    0.12
  -5  -9  -5    6.07    0.31
  -5  -9  -5    6.00    0.38
   5   9   5    5.94    0.38
  -6  -9  -5    7.77    0.44
   6   9   5    7.82    0.45
  -7  -9  -5    1.34    0.24
   7   9   5    1.94    0.27
  -8  -9  -5    0.35    0.19
   8   9   5    0.43    0.20
  -9  -9  -5   -0.20    0.16
   9   9   5    0.03    0.21
  10   9   5    0.16    0.23
   5 -10  -5    0.71    0.13
   4 -10  -5    2.97    0.22
   3 -10  -5    2.44    0.21
   2 -10  -5    4.15    0.35
   2 -10  -5    3.99    0.25
   1 -10  -5    1.14    0.21
   1 -10  -5    1.23    0.15
  -1  10   5    1.35    0.14
   0 -10  -5    3.11    0.22
   0 -10  -5    2.48    0.21
   0 -10  -5    2.49    0.23
   0  10   5    2.68    0.22
  -1 -10  -5    2.99    0.22
  -1 -10  -5    3.45    0.28
   1  10   5    3.60    0.26
  -2 -10  -5    1.22    0.15
  -2 -10  -5    0.96    0.17
   2  10   5    1.61    0.19
  -3 -10  -5    1.10    0.15
  -3 -10  -5    1.06    0.18
   3  10   5    1.20    0.19
  -4 -10  -5    6.29    0.33
  -4 -10  -5    6.33    0.38
   4  10   5    6.51    0.39
  -5 -10  -5   -0.06    0.08
  -5 -10  -5   -0.01    0.13
   5  10   5   -0.16    0.15
  -6 -10  -5    0.86    0.20
   6  10   5    0.81    0.21
  -7 -10  -5    2.90    0.32
   7  10   5    2.50    0.30
  -8 -10  -5    0.24    0.20
   8  10   5    0.07    0.21
   9  10   5    0.01    0.21
   4 -11  -5    0.14    0.10
   3 -11  -5    0.94    0.15
   2 -11  -5    4.40    0.28
   1 -11  -5    5.94    0.33
   1 -11  -5    6.76    0.34
  -1  11   5    7.39    0.32
   0 -11  -5    2.01    0.20
   0  11   5    2.15    0.20
  -1 -11  -5    2.21    0.24
  -1 -11  -5    1.76    0.19
   1  11   5    1.91    0.21
  -2 -11  -5    5.03    0.36
  -2 -11  -5    4.71    0.29
   2  11   5    5.33    0.35
  -3 -11  -5    4.68    0.30
  -3 -11  -5    5.46    0.37
   3  11   5    5.27    0.36
  -4 -11  -5    1.43    0.22
  -4 -11  -5    1.67    0.23
   4  11   5    2.02    0.25
  -5 -11  -5    1.08    0.22
   5  11   5    0.81    0.21
  -6 -11  -5    0.88    0.22
   6  11   5    0.83    0.23
  -7 -11  -5    1.87    0.28
   7  11   5    0.87    0.25
   8  11   5    1.10    0.26
   2 -12  -5    2.28    0.23
   2 -12  -5    2.03    0.22
   1 -12  -5    3.51    0.28
   1 -12  -5    3.98    0.28
   0 -12  -5    3.30    0.27
   0  12   5    3.70    0.28
  -1 -12  -5    2.46    0.23
   1  12   5    2.37    0.24
  -2 -12  -5    0.71    0.14
  -2 -12  -5    0.85    0.20
   2  12   5    1.13    0.20
  -3 -12  -5    0.46    0.18
   3  12   5    0.81    0.20
  -4 -12  -5    0.29    0.17
   4  12   5    0.56    0.19
  -5 -12  -5    0.59    0.19
   5  12   5    0.55    0.21
   6  12   5    0.53    0.22
   0  12  -6    2.25    0.32
  -1  12  -6    7.72    0.52
  -1  12  -6    7.28    0.50
  -2  12  -6    3.03    0.34
  -2  12  -6    4.84    0.42
   2 -12   6    3.45    0.36
  -3  12  -6    0.85    0.24
  -3  12  -6    1.48    0.27
  -4  12  -6    2.16    0.29
   2  11  -6    6.07    0.45
   2  11  -6    6.42    0.46
  -2 -11   6    5.76    0.45
  -2 -11   6    6.19    0.43
   1  11  -6    3.41    0.35
   1  11  -6    3.09    0.35
  -1 -11   6    2.61    0.32
  -1 -11   6    3.20    0.32
   0  11  -6    2.65    0.34
   0  11  -6    3.39    0.35
   0 -11   6    3.22    0.33
  -1  11  -6    0.68    0.21
  -1  11  -6    1.07    0.24
   1 -11   6    1.34    0.23
  -2  11  -6    3.94    0.37
  -2  11  -6    3.64    0.36
   2 -11   6    3.94    0.36
  -3  11  -6    5.63    0.43
  -3  11  -6    5.94    0.43
   3 -11   6    4.96    0.40
  -4  11  -6    0.75    0.23
  -4  11  -6    0.79    0.23
   4 -11   6    0.70    0.21
  -5  11  -6    0.98    0.24
  -5  11  -6    1.36    0.26
   5 -11   6    1.18    0.24
  -6  11  -6    1.07    0.25
  -6  11  -6    1.19    0.25
   6 -11   6    1.12    0.24
   4  10  -6    1.32    0.25
   4  10  -6    1.03    0.22
  -4 -10   6    0.79    0.22
  -4 -10   6    0.83    0.19
   3  10  -6    1.94    0.27
   3  10  -6    2.64    0.30
  -3 -10   6    2.28    0.30
  -3 -10   6    2.14    0.26
   2  10  -6    1.81    0.28
   2  10  -6    2.24    0.28
  -2 -10   6    2.57    0.28
  -2 -10   6    1.70    0.25
   1  10  -6    4.96    0.38
   1  10  -6    4.40    0.38
  -1 -10   6    4.42    0.35
  -1 -10   6    4.53    0.37
   0  10  -6    1.61    0.23
   0  10  -6    2.12    0.28
   0 -10   6    1.56    0.23
  -1  10  -6    3.37    0.34
  -1  10  -6    2.87    0.30
   1 -10   6    3.10    0.29
  -2  10  -6    1.93    0.25
  -2  10  -6    1.80    0.26
   2 -10   6    1.64    0.23
  -3  10  -6    6.09    0.42
  -3  10  -6    6.34    0.42
   3 -10   6    6.24    0.41
  -4  10  -6    4.03    0.36
  -4  10  -6    3.59    0.35
   4 -10   6    3.70    0.35
  -5  10  -6    1.95    0.26
  -5  10  -6    1.95    0.27
   5 -10   6    1.62    0.25
  -6  10  -6    3.49    0.35
  -6  10  -6    3.90    0.37
   6 -10   6    4.31    0.39
  -7  10  -6    3.08    0.32
  -7  10  -6    3.61    0.36
   7 -10   6    3.38    0.36
  -8  10  -6   -0.06    0.19
  -8  10  -6    0.09    0.18
   8 -10   6   -0.14    0.16
   5   9  -6    1.63    0.25
   5   9  -6    1.71    0.25
  -5  -9   6    2.04    0.30
  -5  -9   6    1.97    0.23
   4   9  -6    0.83    0.22
   4   9  -6    0.92    0.20
  -4  -9   6    0.81    0.21
  -4  -9   6    0.93    0.18
   3   9  -6    2.81    0.28
   3   9  -6    2.96    0.31
  -3  -9   6    2.61    0.26
  -3  -9   6    2.68    0.31
   2   9  -6    5.01    0.37
   2   9  -6    4.83    0.37
  -2  -9   6    4.84    0.38
  -2  -9   6    4.80    0.34
   1   9  -6    4.51    0.34
   1   9  -6    4.37    0.35
  -1  -9   6    4.02    0.33
  -1  -9   6    4.77    0.33
   0   9  -6    3.05    0.29
   0   9  -6    3.34    0.32
   0  -9   6    2.99    0.30
   0  -9   6    2.94    0.27
  -1   9  -6    5.87    0.38
  -1   9  -6    5.33    0.37
   1  -9   6    6.37    0.37
  -2   9  -6    4.03    0.33
  -2   9  -6    4.01    0.33
   2  -9   6    4.01    0.32
  -3   9  -6    3.75    0.33
  -3   9  -6    2.79    0.28
   3  -9   6    2.99    0.29
  -4   9  -6    6.90    0.42
  -4   9  -6    7.62    0.42
   4  -9   6    6.58    0.40
  -5   9  -6    2.52    0.29
  -5   9  -6    2.85    0.31
   5  -9   6    2.87    0.29
  -6   9  -6    1.77    0.25
  -6   9  -6    2.05    0.27
   6  -9   6    1.54    0.23
  -7   9  -6    1.17    0.24
  -7   9  -6    1.15    0.23
   7  -9   6    1.18    0.23
  -8   9  -6    1.24    0.24
  -8   9  -6    1.00    0.23
   8  -9   6    1.64    0.27
  -9   9  -6    0.17    0.20
  -9   9  -6    0.24    0.19
   9  -9   6    0.31    0.20
   6   8  -6    0.03    0.09
   6   8  -6    0.05    0.17
  -6  -8   6   -0.19    0.14
  -6  -8   6    0.10    0.12
   5   8  -6    0.98    0.15
   5   8  -6    0.98    0.20
   5   8  -6    1.28    0.22
  -5  -8   6    1.51    0.24
  -5  -8   6    1.49    0.19
   4   8  -6    4.10    0.34
   4   8  -6    4.03    0.33
   4   8  -6    3.81    0.27
  -4  -8   6    3.61    0.34
  -4  -8   6    4.28    0.29
   3   8  -6    1.20    0.22
   3   8  -6    0.94    0.15
   3   8  -6    0.81    0.18
  -3  -8   6    1.00    0.17
  -3  -8   6    1.32    0.23
   2   8  -6    1.53    0.22
   2   8  -6    1.08    0.15
   2   8  -6    1.09    0.18
  -2  -8   6    1.03    0.20
  -2  -8   6    1.02    0.17
   1   8  -6    7.44    0.40
   1   8  -6    7.16    0.39
   1   8  -6    6.63    0.33
  -1  -8   6    7.01    0.41
  -1  -8   6    6.78    0.36
   0   8  -6    2.42    0.24
   0   8  -6    2.24    0.19
   0   8  -6    2.37    0.26
   0  -8   6    1.98    0.21
   0  -8   6    2.16    0.24
  -1   8  -6    5.71    0.35
  -1   8  -6    5.90    0.36
  -1   8  -6    6.27    0.31
   1  -8   6    5.77    0.34
  -2   8  -6   10.34    0.42
  -2   8  -6    9.69    0.47
  -2   8  -6   10.32    0.48
   2  -8   6    9.58    0.45
  -3   8  -6   10.24    0.49
  -3   8  -6   11.19    0.50
   3  -8   6   10.73    0.48
  -4   8  -6    9.83    0.48
  -4   8  -6   10.57    0.49
   4  -8   6   10.01    0.47
  -5   8  -6   11.02    0.52
  -5   8  -6   10.95    0.51
   5  -8   6   10.73    0.50
  -6   8  -6    4.21    0.34
  -6   8  -6    4.06    0.34
   6  -8   6    3.87    0.32
  -7   8  -6    2.24    0.27
  -7   8  -6    2.37    0.28
   7  -8   6    2.87    0.30
  -8   8  -6    1.49    0.23
  -8   8  -6    1.23    0.22
   8  -8   6    1.50    0.24
  -9   8  -6    1.60    0.26
  -9   8  -6    1.25    0.24
   9  -8   6    1.43    0.26
 -10   8  -6    0.64    0.22
 -10   8  -6    0.68    0.22
  10  -8   6    0.61    0.21
   7   7  -6    0.02    0.10
   7   7  -6    0.51    0.19
  -7  -7   6    0.16    0.17
   6   7  -6    1.31    0.23
   6   7  -6    1.12    0.17
  -6  -7   6    1.37    0.24
  -6  -7   6    1.85    0.19
   5   7  -6    1.28    0.17
   5   7  -6    1.32    0.19
   5   7  -6    1.53    0.23
  -5  -7   6    1.29    0.17
  -5  -7   6    1.37    0.24
   4   7  -6    2.02    0.23
   4   7  -6    1.69    0.18
   4   7  -6    2.07    0.24
  -4  -7   6    2.14    0.26
  -4  -7   6    2.42    0.21
   3   7  -6    3.24    0.23
   3   7  -6    3.10    0.28
   3   7  -6    3.25    0.27
  -3  -7   6    2.98    0.29
  -3  -7   6    3.14    0.24
   2   7  -6    3.62    0.28
   2   7  -6    3.66    0.24
   2   7  -6    3.48    0.27
  -2  -7   6    4.27    0.31
  -2  -7   6    3.51    0.25
   1   7  -6    9.43    0.45
   1   7  -6   10.43    0.42
   1   7  -6    9.71    0.44
  -1  -7   6    9.91    0.48
  -1  -7   6    9.86    0.42
   0   7  -6   43.62    1.31
   0   7  -6   41.19    1.33
   0   7  -6   41.05    1.33
   0  -7   6   41.74    1.31
   0  -7   6   40.72    1.37
  -1   7  -6    6.93    0.37
  -1   7  -6    6.67    0.30
  -1   7  -6    6.70    0.32
  -1   7  -6    6.92    0.36
   1  -7   6    6.65    0.34
  -2   7  -6    8.18    0.35
  -2   7  -6    8.04    0.32
  -2   7  -6    7.82    0.40
  -2   7  -6    8.19    0.39
   2  -7   6    7.41    0.37
  -3   7  -6   10.67    0.47
  -3   7  -6    9.29    0.42
  -3   7  -6   11.14    0.43
  -3   7  -6   10.74    0.47
   3  -7   6   10.63    0.46
  -4   7  -6   23.19    0.83
  -4   7  -6   23.79    0.82
  -4   7  -6   22.39    0.78
   4  -7   6   23.09    0.82
  -5   7  -6    5.12    0.34
  -5   7  -6    4.55    0.32
   5  -7   6    4.71    0.31
  -6   7  -6    4.91    0.34
  -6   7  -6    4.83    0.33
   6  -7   6    4.21    0.32
  -7   7  -6    3.28    0.31
  -7   7  -6    3.72    0.33
   7  -7   6    3.35    0.30
  -8   7  -6    3.87    0.34
  -8   7  -6    4.45    0.35
   8  -7   6    3.99    0.35
  -9   7  -6    2.17    0.28
  -9   7  -6    2.10    0.27
   9  -7   6    2.00    0.27
 -10   7  -6    3.10    0.33
 -10   7  -6    2.98    0.32
  10  -7   6    3.03    0.33
   7   6  -6    0.87    0.15
   7   6  -6    0.69    0.19
  -7  -6   6    1.08    0.23
   6   6  -6    3.31    0.26
   6   6  -6    4.03    0.32
  -6  -6   6    3.88    0.35
  -6  -6   6    4.04    0.24
   5   6  -6    1.03    0.15
   5   6  -6    0.85    0.16
   5   6  -6    1.05    0.19
  -5  -6   6    1.10    0.15
  -5  -6   6    1.12    0.20
   4   6  -6    4.36    0.25
   4   6  -6    3.54    0.27
   4   6  -6    3.59    0.28
  -4  -6   6    4.05    0.24
  -4  -6   6    3.76    0.32
   3   6  -6    1.83    0.20
   3   6  -6    1.63    0.20
   3   6  -6    1.78    0.17
  -3  -6   6    1.62    0.22
  -3  -6   6    1.76    0.17
   2   6  -6    3.76    0.27
   2   6  -6    3.76    0.26
   2   6  -6    3.79    0.23
  -2  -6   6    3.65    0.23
  -2  -6   6    3.82    0.29
   1   6  -6   11.01    0.46
   1   6  -6   11.26    0.43
   1   6  -6   10.90    0.45
  -1  -6   6   10.48    0.43
  -1  -6   6   10.98    0.49
   0   6  -6    0.29    0.13
   0   6  -6    0.29    0.11
   0   6  -6    0.25    0.09
   0  -6   6    0.30    0.12
   0  -6   6    0.27    0.10
  -1   6  -6    9.71    0.41
  -1   6  -6    9.52    0.36
  -1   6  -6    9.31    0.41
  -1   6  -6    9.36    0.38
   1  -6   6    9.00    0.43
   1  -6   6    9.85    0.40
  -2   6  -6    5.54    0.23
  -2   6  -6    5.69    0.30
  -2   6  -6    5.25    0.26
  -2   6  -6    5.36    0.30
   2  -6   6    5.35    0.29
  -3   6  -6    0.08    0.13
  -3   6  -6    0.28    0.11
  -3   6  -6    0.22    0.08
  -3   6  -6    0.37    0.06
   3  -6   6    0.32    0.11
  -4   6  -6    0.43    0.12
  -4   6  -6    0.12    0.13
  -4   6  -6    0.26    0.08
   4  -6   6    0.13    0.10
  -5   6  -6    6.47    0.30
  -5   6  -6    6.47    0.35
  -5   6  -6    6.38    0.35
   5  -6   6    6.34    0.34
  -6   6  -6    2.71    0.25
  -6   6  -6    2.95    0.27
   6  -6   6    2.90    0.26
  -7   6  -6    8.35    0.43
  -7   6  -6    8.30    0.43
   7  -6   6    7.89    0.42
  -8   6  -6    1.81    0.23
  -8   6  -6    2.57    0.27
   8  -6   6    1.92    0.23
  -9   6  -6    1.24    0.21
  -9   6  -6    1.31    0.24
   9  -6   6    1.16    0.22
 -10   6  -6    0.76    0.21
 -10   6  -6    0.49    0.18
  10  -6   6    0.33    0.18
 -11   6  -6    1.68    0.26
 -11   6  -6    1.47    0.25
  11  -6   6    2.03    0.28
   8   5  -6    0.85    0.14
  -8  -5   6    1.99    0.27
   7   5  -6    0.65    0.13
   7   5  -6    0.43    0.16
  -7  -5   6    0.55    0.18
   6   5  -6    1.74    0.22
   6   5  -6    1.51    0.17
  -6  -5   6    2.03    0.26
  -6  -5   6    1.75    0.16
   5   5  -6    1.98    0.24
   5   5  -6    2.24    0.23
   5   5  -6    2.31    0.19
  -5  -5   6    2.08    0.25
  -5  -5   6    2.45    0.18
   4   5  -6   12.58    0.47
   4   5  -6   11.82    0.49
   4   5  -6   11.97    0.49
  -4  -5   6   12.90    0.45
  -4  -5   6   12.37    0.56
   3   5  -6   19.68    0.68
   3   5  -6   19.81    0.68
   3   5  -6   18.92    0.65
  -3  -5   6   18.73    0.74
  -3  -5   6   19.56    0.64
   2   5  -6    3.13    0.19
   2   5  -6    3.25    0.23
   2   5  -6    2.92    0.22
   2   5  -6    3.26    0.18
  -2  -5   6    3.21    0.25
  -2  -5   6    2.88    0.19
   1   5  -6    3.32    0.18
   1   5  -6    3.25    0.19
   1   5  -6    3.46    0.22
   1   5  -6    3.34    0.23
  -1  -5   6    3.26    0.25
  -1  -5   6    2.88    0.19
   0   5  -6   31.15    0.99
   0   5  -6   31.50    0.99
   0   5  -6   31.19    0.97
   0   5  -6   31.85    0.97
   0  -5   6   30.64    0.97
   0  -5   6   30.07    1.03
  -1   5  -6   28.79    0.93
  -1   5  -6   29.23    0.90
  -1   5  -6   27.96    0.92
  -1   5  -6   30.00    0.90
   1  -5   6   27.89    0.91
   1  -5   6   27.78    0.95
  -2   5  -6   29.52    0.96
  -2   5  -6   29.85    0.90
  -2   5  -6   30.79    0.97
  -2   5  -6   29.67    0.94
  -2   5  -6   30.75    0.94
   2  -5   6   28.49    0.95
  -3   5  -6   29.00    0.90
  -3   5  -6   29.31    0.84
  -3   5  -6   28.41    0.93
  -3   5  -6   28.69    0.93
  -3   5  -6   28.32    0.90
   3  -5   6   26.99    0.91
   3  -5   6   27.89    0.88
  -4   5  -6    3.42    0.24
  -4   5  -6    3.61    0.25
  -4   5  -6    3.72    0.21
  -4   5  -6    3.59    0.20
   4  -5   6    3.52    0.18
   4  -5   6    3.12    0.23
  -5   5  -6   21.92    0.78
  -5   5  -6   22.75    0.78
  -5   5  -6   22.92    0.75
   5  -5   6   22.34    0.77
  -6   5  -6   24.35    0.80
  -6   5  -6   23.65    0.84
  -6   5  -6   24.57    0.83
   6  -5   6   23.63    0.83
  -7   5  -6    4.32    0.30
  -7   5  -6    3.57    0.29
   7  -5   6    3.66    0.29
   7  -5   6    3.55    0.17
  -8   5  -6    4.95    0.34
  -8   5  -6    4.93    0.33
   8  -5   6    4.39    0.31
  -9   5  -6    3.17    0.29
  -9   5  -6    3.33    0.30
   9  -5   6    3.47    0.31
 -10   5  -6    1.70    0.24
 -10   5  -6    1.54    0.23
  10  -5   6    1.85    0.24
 -11   5  -6    0.01    0.17
 -11   5  -6   -0.03    0.15
  11  -5   6    0.00    0.16
 -12   5  -6   -0.03    0.17
   8   4  -6    0.05    0.10
  -8  -4   6    0.15    0.16
   7   4  -6    1.40    0.17
  -7  -4   6    1.40    0.23
   6   4  -6    1.97    0.18
   6   4  -6    2.38    0.23
  -6  -4   6    1.96    0.25
   5   4  -6    3.89    0.26
   5   4  -6    3.53    0.22
  -5  -4   6    3.91    0.18
  -5  -4   6    3.73    0.31
   4   4  -6    4.77    0.23
   4   4  -6    4.33    0.23
   4   4  -6    4.76    0.27
   4   4  -6    4.88    0.27
  -4  -4   6    4.71    0.32
  -4  -4   6    4.91    0.21
   3   4  -6   27.90    0.86
   3   4  -6   25.04    0.85
   3   4  -6   26.09    0.83
   3   4  -6   26.04    0.83
  -3  -4   6   26.10    0.81
  -3  -4   6   26.71    0.93
   2   4  -6    4.41    0.21
   2   4  -6    4.60    0.22
   2   4  -6    4.86    0.25
   2   4  -6    4.85    0.22
   2   4  -6    4.68    0.25
  -2  -4   6    4.71    0.29
  -2  -4   6    4.68    0.21
   1   4  -6    9.05    0.36
   1   4  -6    8.96    0.36
   1   4  -6    9.10    0.33
   1   4  -6    8.79    0.34
  -1  -4   6    9.79    0.34
  -1  -4   6    8.90    0.34
  -1  -4   6    8.94    0.41
   0   4  -6    9.18    0.34
   0   4  -6    9.19    0.33
   0   4  -6    8.93    0.36
   0   4  -6    8.93    0.36
   0  -4   6    8.95    0.39
   0  -4   6    9.00    0.34
   0  -4   6    9.30    0.34
  -1   4  -6   13.51    0.46
  -1   4  -6   13.17    0.48
  -1   4  -6   13.90    0.46
  -1   4  -6   13.21    0.48
   1  -4   6   13.60    0.48
   1  -4   6   12.40    0.50
   1  -4   6   13.07    0.46
  -2   4  -6   16.78    0.51
  -2   4  -6   16.22    0.57
  -2   4  -6   17.35    0.55
  -2   4  -6   16.17    0.57
  -2   4  -6   16.22    0.54
   2  -4   6   15.35    0.55
   2  -4   6   16.39    0.59
  -3   4  -6   20.69    0.69
  -3   4  -6   20.94    0.67
  -3   4  -6   20.11    0.70
  -3   4  -6   21.17    0.67
   3  -4   6   21.06    0.65
   3  -4   6   20.18    0.68
  -4   4  -6   36.54    1.19
  -4   4  -6   38.82    1.17
  -4   4  -6   39.82    1.17
  -4   4  -6   37.36    1.19
   4  -4   6   36.18    1.18
   4  -4   6   39.23    1.15
  -5   4  -6    9.93    0.41
  -5   4  -6    9.50    0.41
  -5   4  -6    9.79    0.38
  -5   4  -6    9.68    0.38
   5  -4   6    9.67    0.40
   5  -4   6    9.93    0.36
  -6   4  -6    0.38    0.08
  -6   4  -6    0.18    0.13
  -6   4  -6    0.35    0.12
   6  -4   6    0.20    0.10
  -7   4  -6   12.82    0.48
  -7   4  -6   12.28    0.52
  -7   4  -6   13.53    0.53
   7  -4   6   12.74    0.52
   7  -4   6   13.10    0.42
  -8   4  -6    6.91    0.38
  -8   4  -6    7.54    0.39
   8  -4   6    6.92    0.27
   8  -4   6    7.22    0.38
  -9   4  -6    2.08    0.23
  -9   4  -6    2.60    0.27
   9  -4   6    2.18    0.24
 -10   4  -6    1.19    0.20
 -10   4  -6    0.96    0.21
  10  -4   6    1.44    0.23
 -11   4  -6    1.61    0.25
 -11   4  -6    1.44    0.23
  11  -4   6    1.87    0.27
 -12   4  -6    0.85    0.22
 -12   4  -6    0.65    0.21
  12  -4   6    0.63    0.21
   8   3  -6    1.12    0.15
  -8  -3   6    1.36    0.25
   7   3  -6    1.14    0.14
  -7  -3   6    0.92    0.20
   6   3  -6    2.35    0.19
  -6  -3   6    2.82    0.29
   5   3  -6    3.35    0.18
   5   3  -6    2.53    0.18
  -5  -3   6    3.39    0.29
   4   3  -6    0.38    0.10
   4   3  -6    0.47    0.09
   4   3  -6    0.47    0.08
  -4  -3   6    0.41    0.13
   3   3  -6    6.19    0.26
   3   3  -6    6.45    0.26
   3   3  -6    6.46    0.29
  -3  -3   6    6.77    0.23
  -3  -3   6    6.24    0.35
   2   3  -6   14.08    0.49
   2   3  -6   13.64    0.47
   2   3  -6   14.08    0.46
  -2  -3   6   15.25    0.45
  -2  -3   6   13.69    0.55
  -2  -3   6   13.92    0.45
   1   3  -6    3.66    0.17
   1   3  -6    3.82    0.20
   1   3  -6    3.69    0.17
   1   3  -6    3.75    0.17
  -1  -3   6    3.71    0.17
  -1  -3   6    3.91    0.17
  -1  -3   6    3.86    0.24
   0   3  -6    4.53    0.22
   0   3  -6    4.44    0.19
   0   3  -6    4.48    0.19
   0   3  -6    4.54    0.22
   0  -3   6    4.41    0.25
   0  -3   6    4.11    0.19
   0  -3   6    4.51    0.19
  -1   3  -6    5.37    0.25
  -1   3  -6    5.34    0.22
  -1   3  -6    5.31    0.24
  -1   3  -6    5.55    0.22
   1  -3   6    5.45    0.27
   1  -3   6    5.20    0.23
   1  -3   6    5.85    0.23
  -2   3  -6   32.77    1.04
  -2   3  -6   34.25    1.04
  -2   3  -6   33.37    1.02
  -2   3  -6   34.38    1.02
   2  -3   6   35.44    1.03
   2  -3   6   34.37    1.06
   2  -3   6   32.61    1.03
  -3   3  -6   43.29    1.26
  -3   3  -6   41.79    1.25
  -3   3  -6   41.87    1.27
  -3   3  -6   41.76    1.28
   3  -3   6   42.62    1.28
   3  -3   6   40.23    1.26
  -4   3  -6   13.09    0.48
  -4   3  -6   12.98    0.46
  -4   3  -6   13.44    0.46
  -4   3  -6   13.58    0.48
   4  -3   6   13.03    0.48
   4  -3   6   13.32    0.47
   4  -3   6   13.52    0.44
  -5   3  -6   19.25    0.62
  -5   3  -6   19.19    0.65
  -5   3  -6   18.60    0.62
   5  -3   6   17.28    0.63
   5  -3   6   19.34    0.61
  -6   3  -6   18.96    0.63
  -6   3  -6   18.52    0.66
   6  -3   6   18.78    0.66
  -7   3  -6    1.90    0.19
  -7   3  -6    2.28    0.17
   7  -3   6    2.00    0.15
   7  -3   6    2.34    0.11
   7  -3   6    1.90    0.19
  -8   3  -6    5.39    0.34
   8  -3   6    5.64    0.23
   8  -3   6    5.15    0.32
  -9   3  -6    2.38    0.25
   9  -3   6    2.33    0.15
   9  -3   6    2.35    0.24
 -10   3  -6    0.59    0.16
  10  -3   6    0.66    0.17
 -11   3  -6    3.72    0.34
 -11   3  -6    3.57    0.33
  11  -3   6    2.96    0.31
 -12   3  -6    1.47    0.25
 -12   3  -6    1.37    0.24
  12  -3   6    2.11    0.29
   9   2  -6    0.23    0.11
   8   2  -6   -0.01    0.09
  -8  -2   6   -0.29    0.12
   7   2  -6    0.19    0.09
  -7  -2   6    0.20    0.15
   6   2  -6    2.65    0.25
   6   2  -6    2.77    0.18
  -6  -2   6    2.81    0.28
   5   2  -6    0.23    0.07
   5   2  -6    0.16    0.06
  -5  -2   6    0.12    0.12
   4   2  -6    5.04    0.24
   4   2  -6    4.81    0.22
   4   2  -6    4.81    0.21
  -4  -2   6    5.15    0.31
   3   2  -6    6.10    0.23
   3   2  -6    5.82    0.23
   3   2  -6    5.91    0.26
  -3  -2   6    6.26    0.33
   2   2  -6   16.93    0.52
   2   2  -6   17.58    0.55
   2   2  -6   16.02    0.52
  -2  -2   6   16.49    0.62
   1   2  -6   23.17    0.70
   1   2  -6   23.91    0.72
   1   2  -6   22.44    0.70
  -1  -2   6   22.94    0.78
   0   2  -6   30.21    0.90
   0   2  -6   30.65    0.92
   0   2  -6   30.03    0.90
   0  -2   6   30.16    0.90
   0  -2   6   31.71    0.90
   0  -2   6   30.14    0.98
  -1   2  -6   10.04    0.35
  -1   2  -6   10.08    0.33
  -1   2  -6    9.79    0.33
  -1   2  -6    9.61    0.35
   1  -2   6   10.76    0.34
   1  -2   6    9.74    0.34
   1  -2   6    9.74    0.39
  -2   2  -6    7.40    0.29
  -2   2  -6    7.58    0.27
  -2   2  -6    7.43    0.27
   2  -2   6    8.08    0.28
   2  -2   6    7.42    0.31
   2  -2   6    7.52    0.28
  -3   2  -6    5.61    0.23
  -3   2  -6    5.85    0.23
  -3   2  -6    5.94    0.25
   3  -2   6    5.57    0.24
   3  -2   6    5.49    0.24
   3  -2   6    5.85    0.25
  -4   2  -6    1.32    0.13
  -4   2  -6    1.47    0.11
  -4   2  -6    1.28    0.11
   4  -2   6    1.60    0.10
   4  -2   6    1.17    0.12
   4  -2   6    1.32    0.11
  -5   2  -6    1.46    0.12
  -5   2  -6    1.48    0.13
  -5   2  -6    1.38    0.15
   5  -2   6    1.33    0.14
   5  -2   6    1.54    0.11
   5  -2   6    1.51    0.11
  -6   2  -6    8.06    0.31
  -6   2  -6    7.29    0.30
  -6   2  -6    7.13    0.33
   6  -2   6    6.90    0.33
   6  -2   6    7.06    0.26
   6  -2   6    6.84    0.28
  -7   2  -6    1.05    0.15
  -7   2  -6    1.22    0.12
   7  -2   6    1.46    0.09
   7  -2   6    1.36    0.17
  -8   2  -6    2.25    0.17
  -8   2  -6    2.34    0.23
   8  -2   6    1.81    0.20
  -9   2  -6    2.82    0.26
   9  -2   6    2.19    0.23
 -10   2  -6    5.84    0.37
  10  -2   6    5.30    0.35
 -11   2  -6    0.17    0.15
  11  -2   6    0.10    0.15
 -12   2  -6    1.04    0.23
  12  -2   6    0.98    0.23
   8   1  -6    2.10    0.19
  -8  -1   6    2.40    0.29
   7   1  -6    0.70    0.11
  -7  -1   6    0.81    0.18
   6   1  -6    2.53    0.16
   6   1  -6    2.14    0.16
  -6  -1   6    2.25    0.25
   5   1  -6   14.70    0.47
   5   1  -6   13.30    0.47
  -5  -1   6   14.16    0.59
   4   1  -6    0.76    0.08
   4   1  -6    0.93    0.11
   4   1  -6    0.91    0.09
  -4  -1   6    0.86    0.15
   3   1  -6   28.06    0.86
   3   1  -6   29.41    0.86
  -3  -1   6   30.29    0.99
   2   1  -6   47.49    1.36
   2   1  -6   45.55    1.36
   2   1  -6   48.30    1.38
  -2  -1   6   47.49    1.47
   1   1  -6   11.23    0.35
   1   1  -6   11.66    0.37
   1   1  -6   11.46    0.35
  -1  -1   6   11.40    0.45
   0   1  -6   51.42    1.49
   0   1  -6   50.25    1.49
   0   1  -6   53.07    1.49
   0   1  -6   53.60    1.51
   0  -1   6   51.99    1.58
  -1   1  -6   43.01    1.27
  -1   1  -6   43.92    1.27
  -1   1  -6   44.39    1.29
   1  -1   6   44.47    1.34
   1  -1   6   44.23    1.27
   1  -1   6   44.28    1.27
  -2   1  -6   13.58    0.43
  -2   1  -6   14.06    0.45
  -2   1  -6   13.78    0.41
  -2   1  -6   12.85    0.43
   2  -1   6   13.85    0.44
   2  -1   6   13.15    0.43
   2  -1   6   14.06    0.47
  -3   1  -6   26.78    0.81
  -3   1  -6   25.84    0.80
  -3   1  -6   27.41    0.83
   3  -1   6   27.67    0.82
   3  -1   6   25.42    0.81
   3  -1   6   26.47    0.82
  -4   1  -6   47.05    1.39
  -4   1  -6   48.33    1.39
  -4   1  -6   48.06    1.41
   4  -1   6   46.21    1.38
   4  -1   6   45.70    1.40
  -5   1  -6   19.26    0.61
  -5   1  -6   19.01    0.61
  -5   1  -6   19.70    0.64
   5  -1   6   18.27    0.59
   5  -1   6   18.15    0.57
   5  -1   6   18.10    0.62
  -6   1  -6   20.01    0.66
  -6   1  -6   20.32    0.69
  -6   1  -6   21.29    0.67
   6  -1   6   20.10    0.65
   6  -1   6   18.94    0.67
  -7   1  -6   15.69    0.58
  -7   1  -6   15.70    0.55
   7  -1   6   15.39    0.57
  -8   1  -6   14.95    0.54
  -8   1  -6   15.41    0.59
   8  -1   6   14.61    0.57
  -9   1  -6    9.45    0.44
   9  -1   6    9.22    0.44
 -10   1  -6    0.67    0.17
  10  -1   6    0.65    0.17
 -11   1  -6    1.27    0.21
  11  -1   6    1.65    0.24
 -12   1  -6    0.33    0.18
  12  -1   6    0.31    0.19
 -13   1  -6    0.23    0.19
  13  -1   6    0.51    0.21
   9   0  -6    0.25    0.10
   8   0  -6    0.84    0.12
   7   0  -6   -0.06    0.07
  -7   0   6    0.10    0.14
   6   0  -6    0.19    0.06
   6   0  -6    0.24    0.07
  -6   0   6    0.37    0.14
   5   0  -6    0.63    0.08
   5   0  -6    0.62    0.08
  -5   0   6    0.66    0.15
   4   0  -6    3.38    0.20
   4   0  -6    4.11    0.16
   4   0  -6    3.87    0.16
  -4   0   6    3.96    0.27
   3   0  -6    0.07    0.05
  -3   0   6    0.06    0.08
   2   0  -6    7.27    0.24
  -2   0   6    6.56    0.33
   1   0  -6   19.47    0.57
  -1   0   6   18.79    0.66
   0   0  -6   16.27    0.54
   0   0  -6   16.72    0.50
   0   0   6   16.26    0.57
  -1   0  -6    4.87    0.17
  -1   0  -6    4.81    0.19
  -1   0  -6    5.04    0.17
  -1   0  -6    4.87    0.19
   1   0   6    4.95    0.23
  -2   0  -6   41.48    1.25
  -2   0  -6   42.65    1.25
  -2   0  -6   43.19    1.27
  -2   0  -6   43.56    1.26
   2   0   6   46.33    1.26
   2   0   6   43.08    1.29
   2   0   6   42.21    1.25
  -3   0  -6    1.62    0.13
  -3   0  -6    1.74    0.11
  -3   0  -6    1.72    0.10
   3   0   6    1.75    0.12
   3   0   6    1.64    0.12
   3   0   6    2.07    0.13
  -4   0  -6   25.02    0.80
  -4   0  -6   25.91    0.78
  -4   0  -6   24.18    0.78
   4   0   6   27.14    0.80
   4   0   6   25.09    0.79
   4   0   6   25.09    0.76
   4   0   6   25.59    0.74
  -5   0  -6   30.28    0.95
  -5   0  -6   30.74    0.92
  -5   0  -6   28.88    0.92
   5   0   6   30.26    0.90
   5   0   6   29.81    0.88
   5   0   6   30.10    0.87
   5   0   6   29.89    0.94
  -6   0  -6    4.51    0.25
  -6   0  -6    4.97    0.22
  -6   0  -6    4.33    0.22
   6   0   6    4.42    0.24
   6   0   6    4.93    0.21
  -7   0  -6    2.13    0.16
  -7   0  -6    2.40    0.21
   7   0   6    2.59    0.15
   7   0   6    2.46    0.20
  -8   0  -6    0.08    0.11
  -8   0  -6    0.08    0.07
   8   0   6   -0.02    0.10
  -9   0  -6    4.41    0.31
   9   0   6    4.01    0.29
 -10   0  -6    0.37    0.14
  10   0   6    0.52    0.15
 -11   0  -6   -0.12    0.13
  11   0   6    0.03    0.13
 -12   0  -6    0.10    0.17
  12   0   6   -0.02    0.16
 -13   0  -6    0.17    0.19
  13   0   6    0.32    0.21
   9  -1  -6    0.48    0.11
   8  -1  -6    0.68    0.11
   7  -1  -6    2.31    0.16
   7  -1  -6    2.70    0.18
   6  -1  -6    3.13    0.16
   6  -1  -6    2.64    0.16
   5  -1  -6    7.49    0.26
   5  -1  -6    7.76    0.27
  -4   1   6    0.63    0.14
  -3   1   6   -0.01    0.08
  -2   1   6    2.91    0.21
   1  -1  -6    3.82    0.20
  -1   1   6    3.67    0.22
   0  -1  -6    7.69    0.30
   0   1   6    7.90    0.33
  -1  -1  -6   32.52    0.93
  -1  -1  -6   30.96    0.96
   1   1   6   31.44    0.99
  -2  -1  -6    6.58    0.24
  -2  -1  -6    6.30    0.21
  -2  -1  -6    6.19    0.23
  -2  -1  -6    6.38    0.21
   2   1   6    6.29    0.26
   2   1   6    6.11    0.21
  -3  -1  -6   82.68    2.43
  -3  -1  -6   84.41    2.43
  -3  -1  -6   83.49    2.45
   3   1   6   86.26    2.43
   3   1   6   82.05    2.43
   3   1   6   85.93    2.45
   3   1   6   89.11    2.44
  -4  -1  -6    0.95    0.09
  -4  -1  -6    0.97    0.09
  -4  -1  -6    0.91    0.11
   4   1   6    0.89    0.10
   4   1   6    0.78    0.08
   4   1   6    0.84    0.10
  -5  -1  -6    7.96    0.31
  -5  -1  -6    8.64    0.31
  -5  -1  -6    8.41    0.34
   5   1   6    8.36    0.29
   5   1   6    7.91    0.28
   5   1   6    7.33    0.31
  -6  -1  -6   18.83    0.66
  -6  -1  -6   19.71    0.64
  -6  -1  -6   20.65    0.64
   6   1   6   18.42    0.65
   6   1   6   19.31    0.62
  -7  -1  -6   14.43    0.50
  -7  -1  -6   15.00    0.51
  -7  -1  -6   13.61    0.54
   7   1   6   13.99    0.53
   7   1   6   14.02    0.49
  -8  -1  -6    0.53    0.09
  -8  -1  -6    0.44    0.12
   8   1   6    0.52    0.13
  -9  -1  -6    1.87    0.22
   9   1   6    2.53    0.24
 -10  -1  -6    3.47    0.31
  10   1   6    3.89    0.32
 -11  -1  -6    1.86    0.25
  11   1   6    1.65    0.23
 -12  -1  -6    0.93    0.23
  12   1   6    0.63    0.20
 -13  -1  -6   -0.20    0.16
  13   1   6   -0.15    0.16
   9  -2  -6    0.57    0.11
   8  -2  -6    2.07    0.17
   7  -2  -6    3.08    0.18
   7  -2  -6    3.49    0.18
   6  -2  -6    3.03    0.16
   6  -2  -6    3.17    0.16
   5  -2  -6    3.77    0.16
   5  -2  -6    3.79    0.15
   4  -2  -6    4.55    0.27
   3  -2  -6    7.86    0.35
   2  -2  -6    3.55    0.21
   1  -2  -6    7.69    0.32
   0  -2  -6    7.27    0.30
  -1  -2  -6   85.37    2.38
  -1  -2  -6   81.19    2.42
  -2  -2  -6  128.60    3.62
  -2  -2  -6  128.16    3.59
  -2  -2  -6  120.22    3.57
  -2  -2  -6  124.16    3.57
   2   2   6  124.12    3.56
   2   2   6  131.42    3.61
  -3  -2  -6    3.03    0.16
  -3  -2  -6    2.98    0.14
  -3  -2  -6    2.98    0.14
   3   2   6    3.00    0.15
   3   2   6    3.34    0.16
   3   2   6    3.18    0.15
  -4  -2  -6   18.60    0.61
  -4  -2  -6   18.49    0.59
  -4  -2  -6   18.61    0.59
  -4  -2  -6   18.43    0.57
   4   2   6   18.07    0.59
   4   2   6   17.67    0.59
   4   2   6   19.87    0.60
  -5  -2  -6   18.10    0.61
  -5  -2  -6   19.05    0.59
  -5  -2  -6   17.87    0.58
   5   2   6   17.82    0.58
   5   2   6   16.96    0.59
  -6  -2  -6   11.80    0.46
  -6  -2  -6   12.40    0.43
  -6  -2  -6   12.07    0.43
   6   2   6   12.45    0.41
   6   2   6   11.33    0.45
  -7  -2  -6    8.88    0.34
  -7  -2  -6    6.87    0.39
  -7  -2  -6    8.32    0.37
   7   2   6    7.59    0.31
   7   2   6    8.11    0.36
  -8  -2  -6    8.06    0.34
  -8  -2  -6    8.18    0.39
   8   2   6    7.39    0.37
  -9  -2  -6   -0.17    0.11
   9   2   6    0.00    0.12
 -10  -2  -6    6.92    0.41
  10   2   6    7.83    0.42
 -11  -2  -6    1.57    0.24
  11   2   6    1.11    0.21
 -12  -2  -6    1.28    0.24
  12   2   6    1.23    0.23
   8  -3  -6    0.76    0.11
   7  -3  -6    1.73    0.14
   7  -3  -6    1.30    0.23
   7  -3  -6    1.70    0.15
   6  -3  -6   -0.04    0.05
   6  -3  -6   -0.04    0.05
   6  -3  -6   -0.03    0.10
   5  -3  -6    8.12    0.28
   5  -3  -6    8.15    0.40
   5  -3  -6    7.97    0.27
   4  -3  -6   10.72    0.46
   3  -3  -6   12.13    0.48
   2  -3  -6    5.15    0.27
   1  -3  -6   11.14    0.43
   0  -3  -6   11.99    0.36
   0  -3  -6   11.29    0.43
  -1  -3  -6    2.22    0.10
  -1  -3  -6    2.74    0.13
  -1  -3  -6    3.07    0.10
  -1  -3  -6    2.29    0.16
   1   3   6    2.66    0.17
  -2  -3  -6   14.50    0.46
  -2  -3  -6   15.56    0.52
  -2  -3  -6   15.02    0.46
  -2  -3  -6   15.48    0.49
   2   3   6   14.21    0.45
   2   3   6   15.77    0.52
  -3  -3  -6    7.97    0.28
  -3  -3  -6    8.05    0.30
  -3  -3  -6    7.41    0.27
   3   3   6    7.86    0.28
   3   3   6    7.45    0.28
   3   3   6    7.98    0.30
  -4  -3  -6    5.07    0.21
  -4  -3  -6    5.18    0.21
  -4  -3  -6    5.04    0.24
   4   3   6    5.08    0.22
   4   3   6    5.16    0.23
   4   3   6    4.74    0.22
  -5  -3  -6    0.28    0.07
  -5  -3  -6    0.34    0.07
  -5  -3  -6    0.27    0.04
  -5  -3  -6    0.15    0.09
   5   3   6    0.33    0.08
  -6  -3  -6    3.10    0.18
  -6  -3  -6    2.80    0.21
  -6  -3  -6    2.65    0.17
   6   3   6    2.99    0.18
   6   3   6    2.99    0.15
  -7  -3  -6    1.14    0.16
  -7  -3  -6    1.14    0.13
  -8  -3  -6    2.25    0.18
  -8  -3  -6    2.12    0.22
  -9  -3  -6    9.75    0.46
 -10  -3  -6    0.03    0.14
  10   3   6   -0.13    0.12
 -11  -3  -6    0.63    0.19
  11   3   6    0.60    0.18
 -12  -3  -6    0.71    0.21
  12   3   6    0.99    0.23
   8  -4  -6    0.13    0.08
   7  -4  -6    1.59    0.14
   7  -4  -6    1.48    0.13
   6  -4  -6    3.44    0.17
   6  -4  -6    4.08    0.30
   6  -4  -6    3.77    0.18
   5  -4  -6    0.19    0.11
   5  -4  -6    0.33    0.06
   5  -4  -6    0.18    0.06
   4  -4  -6    6.65    0.35
   3  -4  -6    2.05    0.21
   2  -4  -6   12.96    0.51
   1  -4  -6    3.30    0.22
   1  -4  -6    3.54    0.14
   0  -4  -6    4.65    0.25
   0  -4  -6    4.62    0.18
  -1  -4  -6    3.09    0.12
  -1  -4  -6    2.72    0.18
  -1  -4  -6    2.69    0.12
  -1  -4  -6    3.35    0.15
   1   4   6    3.26    0.19
  -2  -4  -6    6.66    0.29
  -2  -4  -6    6.50    0.23
  -2  -4  -6    6.77    0.24
  -2  -4  -6    6.71    0.26
   2   4   6    7.09    0.29
   2   4   6    5.40    0.22
   2   4   6    6.67    0.22
  -3  -4  -6   31.32    0.99
  -3  -4  -6   33.06    0.99
  -3  -4  -6   33.57    1.01
   3   4   6   33.72    0.99
   3   4   6   33.40    1.03
  -4  -4  -6   22.20    0.73
  -4  -4  -6   22.71    0.75
  -4  -4  -6   24.32    0.73
   4   4   6   22.61    0.76
   4   4   6   24.49    0.74
  -5  -4  -6    9.39    0.35
  -5  -4  -6    8.98    0.38
  -5  -4  -6    9.55    0.35
   5   4   6    8.73    0.36
  -6  -4  -6    2.38    0.11
  -6  -4  -6    2.49    0.21
  -6  -4  -6    2.72    0.17
  -6  -4  -6    2.72    0.17
   6   4   6    2.59    0.18
  -7  -4  -6   16.79    0.59
  -7  -4  -6   16.66    0.62
  -8  -4  -6    7.46    0.39
  -8  -4  -6    7.78    0.34
  -9  -4  -6    0.30    0.15
 -10  -4  -6    2.57    0.27
 -11  -4  -6    0.41    0.19
 -12  -4  -6   -0.04    0.17
  12   4   6   -0.16    0.16
   8  -5  -6    0.53    0.10
   7  -5  -6    0.90    0.11
   6  -5  -6    3.74    0.19
   6  -5  -6    3.86    0.31
   6  -5  -6    3.65    0.19
   5  -5  -6    3.38    0.16
   5  -5  -6    3.74    0.29
   5  -5  -6    3.92    0.17
   4  -5  -6    5.27    0.32
   4  -5  -6    4.87    0.19
   4  -5  -6    4.70    0.19
   3  -5  -6    5.98    0.21
   3  -5  -6    5.86    0.21
   3  -5  -6    6.14    0.34
   2  -5  -6   12.97    0.52
   2  -5  -6   12.63    0.39
   2  -5  -6   12.14    0.39
   2  -5  -6   13.10    0.43
   1  -5  -6   11.63    0.46
   1  -5  -6   10.55    0.35
   1  -5  -6   10.02    0.33
   1  -5  -6   10.09    0.33
   0  -5  -6    4.93    0.18
   0  -5  -6    5.15    0.28
   0  -5  -6    5.13    0.19
   0  -5  -6    5.20    0.21
  -1  -5  -6   14.08    0.44
  -1  -5  -6   14.08    0.47
  -1  -5  -6   13.60    0.44
  -1  -5  -6   13.63    0.44
  -1  -5  -6   14.50    0.53
  -2  -5  -6    3.46    0.19
  -2  -5  -6    3.40    0.19
  -2  -5  -6    3.51    0.22
  -2  -5  -6    3.56    0.16
  -2  -5  -6    3.32    0.16
   2   5   6    3.71    0.16
  -3  -5  -6   13.31    0.45
  -3  -5  -6   12.98    0.44
  -3  -5  -6   13.56    0.47
   3   5   6   13.22    0.44
   3   5   6   12.68    0.50
  -4  -5  -6    7.73    0.30
  -4  -5  -6    7.73    0.33
  -4  -5  -6    7.71    0.30
   4   5   6    7.66    0.41
  -5  -5  -6   20.26    0.69
  -5  -5  -6   21.89    0.70
  -5  -5  -6   21.66    0.73
  -6  -5  -6    8.80    0.37
  -6  -5  -6    9.42    0.41
  -7  -5  -6    2.41    0.23
  -7  -5  -6    2.01    0.18
  -8  -5  -6    2.53    0.25
  -8  -5  -6    2.55    0.20
  -9  -5  -6    1.57    0.22
 -10  -5  -6    0.21    0.16
 -11  -5  -6    1.27    0.24
 -12  -5  -6    0.41    0.21
   7  -6  -6    1.39    0.14
   6  -6  -6    2.99    0.18
   6  -6  -6    2.66    0.17
   5  -6  -6    5.24    0.23
   5  -6  -6    5.81    0.37
   5  -6  -6    5.03    0.22
   4  -6  -6    4.73    0.20
   4  -6  -6    4.93    0.20
   4  -6  -6    4.93    0.33
   3  -6  -6   10.14    0.34
   3  -6  -6   10.17    0.47
   3  -6  -6    9.66    0.34
   2  -6  -6    0.50    0.07
   2  -6  -6    0.65    0.14
   2  -6  -6    0.54    0.07
   1  -6  -6   12.66    0.42
   1  -6  -6   13.37    0.44
   1  -6  -6   12.77    0.42
   1  -6  -6   13.40    0.54
   0  -6  -6   13.07    0.44
   0  -6  -6   12.84    0.52
   0  -6  -6   12.44    0.42
   0  -6  -6   12.67    0.42
  -1  -6  -6    0.61    0.08
  -1  -6  -6    0.72    0.08
  -1  -6  -6    0.74    0.11
  -1  -6  -6    0.69    0.08
  -1  -6  -6    0.84    0.14
  -2  -6  -6    5.19    0.23
  -2  -6  -6    5.24    0.23
  -2  -6  -6    5.65    0.26
   2   6   6    5.45    0.22
  -3  -6  -6    4.98    0.26
  -3  -6  -6    4.99    0.23
  -3  -6  -6    4.99    0.23
   3   6   6    5.42    0.24
  -4  -6  -6    7.50    0.31
  -4  -6  -6    7.90    0.31
  -4  -6  -6    7.31    0.34
  -5  -6  -6    5.53    0.30
  -5  -6  -6    5.77    0.27
  -6  -6  -6    4.89    0.31
  -6  -6  -6    5.23    0.27
  -7  -6  -6    2.96    0.27
  -7  -6  -6    3.39    0.22
  -8  -6  -6    4.28    0.33
  -9  -6  -6    5.21    0.38
 -10  -6  -6    0.54    0.20
 -11  -6  -6    0.36    0.20
   7  -7  -6    0.22    0.08
   6  -7  -6    0.11    0.07
   5  -7  -6    0.36    0.08
   5  -7  -6    0.24    0.17
   5  -7  -6    0.30    0.08
   4  -7  -6    1.21    0.12
   4  -7  -6    1.38    0.21
   4  -7  -6    1.23    0.12
   3  -7  -6    3.70    0.18
   3  -7  -6    3.75    0.18
   3  -7  -6    3.37    0.29
   2  -7  -6    8.29    0.31
   2  -7  -6    8.71    0.43
   2  -7  -6    7.84    0.30
   1  -7  -6    2.66    0.25
   1  -7  -6    2.08    0.14
   1  -7  -6    2.29    0.14
   0  -7  -6   14.13    0.48
   0  -7  -6   13.96    0.58
   0  -7  -6   14.74    0.48
   0  -7  -6   14.35    0.50
  -1  -7  -6   13.51    0.46
  -1  -7  -6   13.16    0.46
  -1  -7  -6   13.26    0.49
  -1  -7  -6   13.64    0.56
  -2  -7  -6   -0.10    0.08
  -2  -7  -6    0.03    0.06
  -2  -7  -6    0.02    0.06
   2   7   6    0.01    0.10
  -3  -7  -6    3.68    0.20
  -3  -7  -6    3.88    0.21
  -3  -7  -6    3.61    0.24
   3   7   6    3.37    0.24
  -4  -7  -6    2.69    0.22
  -4  -7  -6    2.72    0.19
   4   7   6    2.66    0.24
  -5  -7  -6    0.14    0.11
  -5  -7  -6    0.24    0.08
   5   7   6    0.11    0.14
  -6  -7  -6    0.10    0.12
  -6  -7  -6    0.32    0.09
   6   7   6   -0.11    0.14
  -7  -7  -6    0.52    0.16
  -7  -7  -6    0.47    0.11
   7   7   6    0.10    0.18
  -8  -7  -6    0.13    0.14
   8   7   6    0.36    0.20
  -9  -7  -6    0.67    0.20
 -10  -7  -6    0.21    0.18
 -11  -7  -6    0.39    0.21
   6  -8  -6    0.85    0.12
   5  -8  -6    2.67    0.19
   4  -8  -6    3.25    0.20
   4  -8  -6    3.47    0.33
   3  -8  -6    4.17    0.33
   3  -8  -6    4.49    0.22
   3  -8  -6    4.15    0.22
   2  -8  -6    7.66    0.31
   2  -8  -6    7.85    0.43
   2  -8  -6    7.54    0.31
   1  -8  -6   15.62    0.63
   1  -8  -6   13.98    0.49
   1  -8  -6   13.48    0.49
   0  -8  -6   12.03    0.44
   0  -8  -6   11.96    0.44
   0  -8  -6   12.49    0.47
   0  -8  -6   12.31    0.54
  -1  -8  -6   12.45    0.44
  -1  -8  -6   11.77    0.46
  -1  -8  -6   12.31    0.54
  -1  -8  -6   11.67    0.44
   1   8   6   11.96    0.43
  -2  -8  -6    3.56    0.24
  -2  -8  -6    3.69    0.21
   2   8   6    3.21    0.23
  -3  -8  -6    3.60    0.21
  -3  -8  -6    3.63    0.25
   3   8   6    3.08    0.25
  -4  -8  -6    1.22    0.14
  -4  -8  -6    1.36    0.18
   4   8   6    1.58    0.19
  -5  -8  -6   11.71    0.46
  -5  -8  -6   10.89    0.50
   5   8   6   11.21    0.49
  -6  -8  -6    3.61    0.31
  -6  -8  -6    4.11    0.25
   6   8   6    4.43    0.35
  -7  -8  -6    0.96    0.20
   7   8   6    0.89    0.21
  -8  -8  -6    5.95    0.42
  -9  -8  -6    1.17    0.23
   9   8   6    0.67    0.22
 -10  -8  -6    2.48    0.32
   5  -9  -6    0.62    0.11
   4  -9  -6    0.58    0.11
   3  -9  -6    2.27    0.18
   2  -9  -6    1.73    0.24
   2  -9  -6    2.03    0.17
   1  -9  -6    0.86    0.18
   1  -9  -6    1.07    0.13
   0  -9  -6    4.76    0.25
   0  -9  -6    5.00    0.35
   0  -9  -6    5.13    0.26
   0   9   6    4.90    0.23
  -1  -9  -6    7.59    0.36
  -1  -9  -6    7.30    0.32
   1   9   6    7.71    0.33
  -2  -9  -6    8.04    0.35
  -2  -9  -6    7.88    0.39
   2   9   6    8.79    0.38
  -3  -9  -6    2.93    0.21
  -3  -9  -6    3.01    0.26
   3   9   6    3.05    0.27
  -4  -9  -6    5.15    0.33
  -4  -9  -6    4.91    0.28
   4   9   6    5.39    0.35
  -5  -9  -6   -0.13    0.12
  -5  -9  -6   -0.11    0.07
   5   9   6   -0.14    0.14
  -6  -9  -6   10.14    0.45
  -6  -9  -6   10.45    0.52
  -7  -9  -6    1.83    0.25
   7   9   6    1.83    0.25
  -8  -9  -6    0.13    0.17
   8   9   6    0.04    0.20
  -9  -9  -6    0.84    0.23
   9   9   6    0.57    0.22
   4 -10  -6    1.72    0.17
   3 -10  -6    2.54    0.20
   2 -10  -6    2.16    0.19
   1 -10  -6    0.12    0.17
   1 -10  -6    0.41    0.10
   0 -10  -6    1.51    0.17
   0 -10  -6    1.56    0.16
   0  10   6    1.75    0.15
  -1 -10  -6    7.19    0.35
   1  10   6    8.43    0.36
  -2 -10  -6    4.71    0.28
  -2 -10  -6    5.12    0.33
   2  10   6    5.68    0.31
  -3 -10  -6    1.36    0.17
  -3 -10  -6    1.22    0.19
   3  10   6    1.37    0.20
  -4 -10  -6    2.02    0.24
  -4 -10  -6    2.10    0.21
   4  10   6    2.54    0.26
  -5 -10  -6    1.62    0.24
  -5 -10  -6    1.71    0.20
   5  10   6    1.89    0.26
  -6 -10  -6   -0.08    0.14
   6  10   6    0.15    0.19
  -7 -10  -6    0.95    0.23
   7  10   6    0.84    0.23
  -8 -10  -6    0.63    0.21
   8  10   6    0.45    0.23
   9  10   6    0.42    0.22
   3 -11  -6    0.35    0.11
   2 -11  -6    2.99    0.23
   1 -11  -6    1.66    0.18
   1 -11  -6    1.71    0.18
   0 -11  -6    0.86    0.14
  -1 -11  -6    0.73    0.13
   1  11   6    1.21    0.16
  -2 -11  -6    3.53    0.26
   2  11   6    3.30    0.28
  -3 -11  -6    6.30    0.35
  -3 -11  -6    6.20    0.39
   3  11   6    6.51    0.38
  -4 -11  -6    2.88    0.24
  -4 -11  -6    2.56    0.28
   4  11   6    2.48    0.27
  -5 -11  -6    1.46    0.24
   5  11   6    1.77    0.27
  -6 -11  -6    0.03    0.17
   6  11   6   -0.04    0.20
  -7 -11  -6    0.90    0.23
   7  11   6    0.32    0.22
   0 -12  -6    1.28    0.18
  -1 -12  -6    3.37    0.27
   1  12   6    3.62    0.28
  -2 -12  -6    2.70    0.25
   2  12   6    2.78    0.25
  -3 -12  -6    2.90    0.26
   3  12   6    3.45    0.30
  -4 -12  -6    1.99    0.27
   4  12   6    2.03    0.26
  -5 -12  -6    1.22    0.24
   5  12   6    1.68    0.27
   1  11  -7    3.13    0.36
  -1 -11   7    2.20    0.31
   0  11  -7    2.47    0.32
   0  11  -7    1.68    0.27
   0 -11   7    2.49    0.29
   0 -11   7    1.83    0.28
  -1  11  -7    2.68    0.33
  -1  11  -7    5.08    0.42
   1 -11   7    3.93    0.36
   1 -11   7    2.94    0.33
  -2  11  -7    1.52    0.26
  -2  11  -7    1.26    0.27
   2 -11   7    1.39    0.25
  -3  11  -7    3.84    0.38
  -3  11  -7    2.28    0.30
   3 -11   7    2.40    0.30
  -4  11  -7    2.46    0.32
  -4  11  -7    1.96    0.29
   4 -11   7    1.90    0.27
  -5  11  -7    0.24    0.20
  -5  11  -7    0.48    0.22
   5 -11   7    0.36    0.21
  -6  11  -7    0.68    0.24
   3  10  -7    1.71    0.27
  -3 -10   7    1.71    0.27
   2  10  -7    2.27    0.29
   2  10  -7    2.48    0.29
  -2 -10   7    2.65    0.32
  -2 -10   7    2.31    0.27
   1  10  -7    5.81    0.42
   1  10  -7    5.60    0.41
  -1 -10   7    5.12    0.36
  -1 -10   7    4.58    0.40
   0  10  -7    1.57    0.26
   0  10  -7    1.61    0.24
   0 -10   7    1.64    0.26
   0 -10   7    2.16    0.26
  -1  10  -7    3.06    0.31
  -1  10  -7    3.05    0.32
   1 -10   7    2.94    0.30
   1 -10   7    3.13    0.33
  -2  10  -7    2.78    0.31
  -2  10  -7    3.03    0.33
   2 -10   7    3.03    0.30
  -3  10  -7    4.34    0.38
  -3  10  -7    5.95    0.42
   3 -10   7    5.29    0.39
  -4  10  -7    4.60    0.40
  -4  10  -7    4.06    0.38
   4 -10   7    4.24    0.38
  -5  10  -7    3.08    0.33
  -5  10  -7    3.06    0.32
   5 -10   7    2.52    0.29
  -6  10  -7    6.99    0.46
  -6  10  -7    5.77    0.46
   6 -10   7    6.09    0.45
  -7  10  -7    6.20    0.48
  -7  10  -7    6.66    0.47
   7 -10   7    6.08    0.47
   4   9  -7    0.49    0.20
  -4  -9   7    0.58    0.20
  -4  -9   7    0.80    0.17
   3   9  -7    0.00    0.15
   3   9  -7   -0.01    0.16
  -3  -9   7   -0.08    0.14
  -3  -9   7   -0.09    0.11
   2   9  -7    2.08    0.28
   2   9  -7    2.70    0.30
  -2  -9   7    2.53    0.31
  -2  -9   7    2.32    0.24
   1   9  -7    1.09    0.23
   1   9  -7    1.18    0.21
  -1  -9   7    1.48    0.21
  -1  -9   7    1.35    0.23
   0   9  -7    1.48    0.22
   0   9  -7    1.45    0.24
   0  -9   7    1.35    0.20
   0  -9   7    1.15    0.21
  -1   9  -7    2.99    0.29
  -1   9  -7    3.26    0.32
   1  -9   7    2.96    0.28
   1  -9   7    3.11    0.30
  -2   9  -7    3.39    0.31
  -2   9  -7    2.72    0.29
   2  -9   7    2.68    0.27
  -3   9  -7    0.49    0.17
  -3   9  -7    0.87    0.21
   3  -9   7    0.79    0.18
  -4   9  -7    3.85    0.35
  -4   9  -7    3.72    0.34
   4  -9   7    3.38    0.31
  -5   9  -7    2.07    0.29
  -5   9  -7    2.26    0.28
   5  -9   7    2.22    0.27
  -6   9  -7    1.15    0.23
  -6   9  -7    0.93    0.23
   6  -9   7    1.12    0.23
  -7   9  -7    2.57    0.30
  -7   9  -7    1.62    0.26
   7  -9   7    2.07    0.28
  -8   9  -7    0.94    0.23
  -8   9  -7    0.38    0.21
   8  -9   7    0.76    0.22
  -9   9  -7    0.28    0.20
   5   8  -7    1.80    0.20
   5   8  -7    2.52    0.29
  -5  -8   7    2.31    0.22
  -5  -8   7    2.28    0.30
   4   8  -7    3.80    0.33
   4   8  -7    3.40    0.26
  -4  -8   7    3.89    0.27
  -4  -8   7    3.56    0.35
   3   8  -7    3.89    0.33
   3   8  -7    4.05    0.27
   3   8  -7    3.30    0.32
  -3  -8   7    3.60    0.34
  -3  -8   7    4.03    0.28
   2   8  -7    4.08    0.31
   2   8  -7    3.78    0.26
   2   8  -7    4.56    0.34
  -2  -8   7    3.90    0.33
  -2  -8   7    4.54    0.29
   1   8  -7    2.43    0.21
   1   8  -7    2.57    0.25
   1   8  -7    2.25    0.26
  -1  -8   7    2.29    0.22
  -1  -8   7    2.72    0.28
   0   8  -7    3.70    0.25
   0   8  -7    3.65    0.30
   0   8  -7    3.49    0.31
   0  -8   7    3.35    0.29
   0  -8   7    3.26    0.27
  -1   8  -7    3.24    0.30
  -1   8  -7    2.67    0.21
  -1   8  -7    2.30    0.25
   1  -8   7    2.63    0.24
   1  -8   7    2.42    0.26
  -2   8  -7    8.73    0.45
  -2   8  -7    8.81    0.39
  -2   8  -7    8.07    0.43
   2  -8   7    8.54    0.42
  -3   8  -7    7.78    0.43
  -3   8  -7    7.95    0.43
   3  -8   7    7.47    0.40
  -4   8  -7    3.98    0.32
  -4   8  -7    3.61    0.33
   4  -8   7    3.97    0.31
  -5   8  -7    6.87    0.42
  -5   8  -7    7.62    0.44
   5  -8   7    6.98    0.41
  -6   8  -7    3.17    0.30
  -6   8  -7    3.53    0.33
   6  -8   7    3.21    0.30
  -7   8  -7    2.14    0.27
  -7   8  -7    2.11    0.27
   7  -8   7    2.52    0.29
  -8   8  -7    3.58    0.35
  -8   8  -7    3.53    0.34
   8  -8   7    3.71    0.35
  -9   8  -7    2.31    0.31
  -9   8  -7    3.25    0.33
   9  -8   7    2.81    0.32
 -10   8  -7    0.97    0.24
   6   7  -7    0.11    0.11
   6   7  -7    0.36    0.18
  -6  -7   7    0.26    0.18
   5   7  -7    0.55    0.13
   5   7  -7    0.52    0.18
  -5  -7   7    0.63    0.13
  -5  -7   7    0.88    0.21
   4   7  -7    3.88    0.32
   4   7  -7    4.09    0.27
  -4  -7   7    4.58    0.37
  -4  -7   7    4.21    0.26
   3   7  -7    0.80    0.14
   3   7  -7    0.73    0.17
   3   7  -7    0.68    0.18
  -3  -7   7    0.69    0.18
  -3  -7   7    0.87    0.14
   2   7  -7    1.74    0.21
   2   7  -7    1.97    0.19
   2   7  -7    2.04    0.23
  -2  -7   7    1.87    0.19
  -2  -7   7    1.97    0.25
   1   7  -7   10.56    0.44
   1   7  -7   10.32    0.48
   1   7  -7   10.55    0.47
  -1  -7   7   11.02    0.45
  -1  -7   7   10.19    0.51
   0   7  -7    3.92    0.24
   0   7  -7    3.59    0.30
   0   7  -7    3.61    0.28
   0  -7   7    3.79    0.26
   0  -7   7    3.51    0.29
  -1   7  -7   17.64    0.62
  -1   7  -7   17.47    0.65
  -1   7  -7   16.82    0.65
   1  -7   7   16.40    0.63
   1  -7   7   16.69    0.68
  -2   7  -7    6.30    0.37
  -2   7  -7    6.65    0.32
  -2   7  -7    6.10    0.36
   2  -7   7    6.18    0.36
   2  -7   7    7.31    0.36
  -3   7  -7    7.31    0.39
  -3   7  -7    7.46    0.34
  -3   7  -7    7.08    0.39
   3  -7   7    6.81    0.36
  -4   7  -7   19.09    0.69
  -4   7  -7   19.71    0.74
  -4   7  -7   19.35    0.73
   4  -7   7   19.48    0.72
  -5   7  -7    4.63    0.34
  -5   7  -7    5.60    0.37
   5  -7   7    5.43    0.34
  -6   7  -7    2.19    0.26
  -6   7  -7    2.73    0.29
   6  -7   7    2.38    0.26
  -7   7  -7    0.75    0.19
  -7   7  -7    1.03    0.21
   7  -7   7    0.75    0.18
  -8   7  -7    1.51    0.24
  -8   7  -7    1.45    0.23
   8  -7   7    1.59    0.24
  -9   7  -7    1.30    0.24
  -9   7  -7    1.44    0.25
   9  -7   7    1.01    0.23
 -10   7  -7    2.58    0.31
 -10   7  -7    2.56    0.31
  10  -7   7    2.91    0.33
   6   6  -7    0.80    0.20
   6   6  -7    0.84    0.15
  -6  -6   7    0.88    0.23
   5   6  -7    1.19    0.20
   5   6  -7    0.99    0.15
  -5  -6   7    1.31    0.24
  -5  -6   7    1.29    0.14
   4   6  -7    2.78    0.26
   4   6  -7    2.08    0.19
  -4  -6   7    1.96    0.26
  -4  -6   7    2.36    0.19
   3   6  -7    2.41    0.20
   3   6  -7    2.07    0.22
   3   6  -7    2.35    0.23
  -3  -6   7    2.18    0.19
  -3  -6   7    2.45    0.27
   2   6  -7    6.49    0.31
   2   6  -7    6.41    0.34
   2   6  -7    6.81    0.36
  -2  -6   7    6.82    0.31
  -2  -6   7    6.64    0.40
   1   6  -7   10.61    0.43
   1   6  -7   10.88    0.47
   1   6  -7   11.36    0.47
  -1  -6   7   11.29    0.44
  -1  -6   7   11.44    0.52
   0   6  -7   17.46    0.64
   0   6  -7   17.99    0.62
   0   6  -7   16.77    0.64
   0  -6   7   17.61    0.69
   0  -6   7   17.38    0.62
  -1   6  -7    1.03    0.13
  -1   6  -7    1.05    0.19
  -1   6  -7    0.72    0.14
   1  -6   7    0.97    0.14
   1  -6   7    1.08    0.17
  -2   6  -7   11.56    0.45
  -2   6  -7   11.41    0.48
  -2   6  -7   11.39    0.41
  -2   6  -7   11.84    0.48
   2  -6   7   11.37    0.49
   2  -6   7   11.14    0.46
  -3   6  -7    3.58    0.22
  -3   6  -7    3.46    0.26
  -3   6  -7    3.17    0.27
   3  -6   7    3.24    0.24
   3  -6   7    3.27    0.25
  -4   6  -7    1.96    0.17
  -4   6  -7    2.32    0.23
  -4   6  -7    2.54    0.25
   4  -6   7    1.92    0.20
  -5   6  -7    7.35    0.39
  -5   6  -7    7.11    0.33
  -5   6  -7    6.78    0.38
   5  -6   7    6.98    0.37
  -6   6  -7    4.46    0.33
  -6   6  -7    4.80    0.33
   6  -6   7    4.25    0.30
  -7   6  -7    2.48    0.28
  -7   6  -7    1.85    0.23
   7  -6   7    2.33    0.25
  -8   6  -7    4.21    0.35
  -8   6  -7    4.21    0.35
   8  -6   7    4.28    0.33
  -9   6  -7    2.14    0.28
  -9   6  -7    1.80    0.24
   9  -6   7    1.90    0.26
 -10   6  -7    0.70    0.22
 -10   6  -7    0.55    0.19
  10  -6   7    0.68    0.20
 -11   6  -7    3.45    0.36
 -11   6  -7    4.02    0.37
  11  -6   7    3.61    0.37
   7   5  -7    0.37    0.17
   7   5  -7    0.28    0.11
  -7  -5   7    0.54    0.20
   6   5  -7    0.20    0.15
   6   5  -7    0.44    0.12
  -6  -5   7    0.42    0.18
   5   5  -7    0.78    0.13
   5   5  -7    0.50    0.16
  -5  -5   7    0.77    0.19
   4   5  -7    2.78    0.25
   4   5  -7    2.72    0.20
  -4  -5   7    2.97    0.17
  -4  -5   7    2.91    0.30
   3   5  -7    5.21    0.31
   3   5  -7    5.29    0.27
   3   5  -7    5.62    0.31
  -3  -5   7    5.83    0.25
  -3  -5   7    5.64    0.37
   2   5  -7    3.08    0.25
   2   5  -7    3.18    0.21
   2   5  -7    3.56    0.25
  -2  -5   7    3.14    0.28
  -2  -5   7    3.34    0.20
   1   5  -7    3.36    0.24
   1   5  -7    3.54    0.21
   1   5  -7    3.48    0.20
   1   5  -7    3.24    0.25
  -1  -5   7    3.32    0.20
  -1  -5   7    3.67    0.27
   0   5  -7    1.56    0.19
   0   5  -7    1.49    0.17
   0   5  -7    1.43    0.14
   0   5  -7    1.28    0.13
   0  -5   7    1.19    0.13
   0  -5   7    1.53    0.20
  -1   5  -7   10.95    0.44
  -1   5  -7   11.04    0.41
  -1   5  -7   10.71    0.41
  -1   5  -7   10.77    0.43
   1  -5   7   10.34    0.41
   1  -5   7   10.91    0.47
  -2   5  -7   10.58    0.44
  -2   5  -7   10.61    0.40
  -2   5  -7   10.71    0.40
  -2   5  -7   10.26    0.43
  -2   5  -7   10.82    0.36
   2  -5   7   10.21    0.45
   2  -5   7   10.30    0.42
  -3   5  -7    6.00    0.31
  -3   5  -7    5.98    0.32
  -3   5  -7    6.29    0.29
   3  -5   7    5.97    0.32
   3  -5   7    6.02    0.30
  -4   5  -7    0.86    0.12
  -4   5  -7    0.39    0.14
  -4   5  -7    0.56    0.13
   4  -5   7    0.41    0.11
  -5   5  -7   12.16    0.51
  -5   5  -7   12.45    0.47
  -5   5  -7   13.13    0.52
   5  -5   7   11.68    0.49
  -6   5  -7   12.32    0.47
  -6   5  -7   12.64    0.52
  -6   5  -7   12.15    0.52
   6  -5   7   12.17    0.51
  -7   5  -7   18.92    0.71
  -7   5  -7   17.87    0.70
   7  -5   7   18.49    0.70
  -8   5  -7    0.25    0.16
  -8   5  -7    0.00    0.13
   8  -5   7    0.06    0.13
  -9   5  -7    2.34    0.27
  -9   5  -7    2.10    0.26
   9  -5   7    2.10    0.25
 -10   5  -7    1.86    0.25
 -10   5  -7    1.73    0.26
  10  -5   7    1.85    0.25
 -11   5  -7   -0.04    0.17
 -11   5  -7    0.21    0.18
  11  -5   7    0.08    0.16
 -12   5  -7   -0.05    0.19
   7   4  -7    0.24    0.11
  -7  -4   7    0.17    0.16
   6   4  -7    0.98    0.18
   6   4  -7    0.82    0.13
  -6  -4   7    0.92    0.21
   5   4  -7    0.34    0.10
  -5  -4   7    0.70    0.18
   4   4  -7    7.02    0.32
  -4  -4   7    8.20    0.44
   3   4  -7   10.08    0.39
   3   4  -7   10.66    0.42
   3   4  -7   10.64    0.43
   3   4  -7   10.65    0.39
  -3  -4   7   10.42    0.50
  -3  -4   7   10.21    0.35
   2   4  -7    3.61    0.25
   2   4  -7    3.79    0.21
   2   4  -7    3.87    0.24
   2   4  -7    4.14    0.20
   2   4  -7    3.73    0.20
  -2  -4   7    3.84    0.18
  -2  -4   7    4.07    0.29
   1   4  -7   11.37    0.43
   1   4  -7   11.20    0.41
   1   4  -7   11.13    0.40
   1   4  -7   11.06    0.43
  -1  -4   7   11.49    0.49
  -1  -4   7   11.02    0.39
   0   4  -7   11.97    0.43
   0   4  -7   12.39    0.46
   0   4  -7   12.63    0.43
   0   4  -7   12.15    0.46
   0  -4   7   12.37    0.43
   0  -4   7   12.13    0.50
  -1   4  -7   12.79    0.48
  -1   4  -7   12.58    0.45
  -1   4  -7   13.30    0.48
  -1   4  -7   13.19    0.46
   1  -4   7   12.65    0.45
   1  -4   7   12.92    0.51
   1  -4   7   13.39    0.46
  -2   4  -7    6.81    0.28
  -2   4  -7    6.76    0.28
  -2   4  -7    6.65    0.31
  -2   4  -7    6.78    0.32
   2  -4   7    6.85    0.33
   2  -4   7    6.42    0.29
  -3   4  -7   14.66    0.51
  -3   4  -7   14.58    0.54
  -3   4  -7   14.52    0.53
  -3   4  -7   14.58    0.51
   3  -4   7   14.20    0.52
   3  -4   7   14.84    0.54
  -4   4  -7    8.21    0.38
  -4   4  -7    8.92    0.35
  -4   4  -7    8.62    0.35
  -4   4  -7    8.62    0.38
   4  -4   7    8.75    0.37
   4  -4   7    8.94    0.37
  -5   4  -7    6.29    0.29
  -5   4  -7    6.47    0.33
  -5   4  -7    6.25    0.32
   5  -4   7    6.29    0.31
   5  -4   7    6.25    0.29
  -6   4  -7    6.12    0.34
  -6   4  -7    6.45    0.30
  -6   4  -7    6.41    0.34
   6  -4   7    6.21    0.33
  -7   4  -7    0.20    0.08
  -7   4  -7    0.37    0.16
  -7   4  -7    0.41    0.13
   7  -4   7    0.18    0.11
  -8   4  -7   11.30    0.51
  -8   4  -7   11.83    0.51
   8  -4   7   10.53    0.49
  -9   4  -7    0.80    0.20
  -9   4  -7    0.93    0.19
   9  -4   7    0.72    0.18
 -10   4  -7    0.80    0.20
 -10   4  -7    0.65    0.21
  10  -4   7    0.73    0.18
 -11   4  -7    0.88    0.23
 -11   4  -7    0.92    0.22
  11  -4   7    1.23    0.24
 -12   4  -7    0.41    0.22
 -12   4  -7    0.48    0.22
  12  -4   7    0.55    0.22
   8   3  -7    0.26    0.11
   7   3  -7    3.44    0.24
  -7  -3   7    3.63    0.35
   6   3  -7    1.90    0.17
  -6  -3   7    2.08    0.27
   5   3  -7    1.93    0.16
  -5  -3   7    1.88    0.25
   4   3  -7    0.33    0.08
   4   3  -7    0.15    0.07
  -4  -3   7    0.11    0.12
   3   3  -7    3.45    0.18
   3   3  -7    3.57    0.21
   3   3  -7    3.03    0.18
  -3  -3   7    3.26    0.27
   2   3  -7    4.46    0.20
   2   3  -7    4.38    0.20
   2   3  -7    4.42    0.23
  -2  -3   7    4.32    0.29
   1   3  -7   19.68    0.62
   1   3  -7   19.27    0.64
   1   3  -7   18.75    0.62
  -1  -3   7   19.60    0.71
  -1  -3   7   19.82    0.59
   0   3  -7    7.54    0.28
   0   3  -7    7.44    0.31
   0   3  -7    7.32    0.29
   0  -3   7    7.27    0.27
   0  -3   7    7.97    0.28
   0  -3   7    7.94    0.36
  -1   3  -7    5.49    0.24
  -1   3  -7    5.37    0.27
  -1   3  -7    6.23    0.24
  -1   3  -7    6.15    0.27
   1  -3   7    6.06    0.30
   1  -3   7    5.96    0.24
   1  -3   7    6.16    0.24
  -2   3  -7   17.76    0.60
  -2   3  -7   17.85    0.60
  -2   3  -7   17.37    0.57
  -2   3  -7   17.44    0.58
   2  -3   7   17.70    0.62
   2  -3   7   18.54    0.58
   2  -3   7   17.37    0.58
  -3   3  -7   34.50    1.05
  -3   3  -7   34.32    1.05
  -3   3  -7   35.57    1.08
  -3   3  -7   33.92    1.07
   3  -3   7   34.02    1.06
   3  -3   7   34.82    1.09
  -4   3  -7   22.45    0.75
  -4   3  -7   22.90    0.72
  -4   3  -7   22.46    0.72
  -4   3  -7   22.63    0.75
   4  -3   7   21.47    0.73
   4  -3   7   21.84    0.73
  -5   3  -7    5.70    0.27
  -5   3  -7    6.12    0.30
  -5   3  -7    5.66    0.26
   5  -3   7    6.16    0.29
   5  -3   7    5.76    0.24
   5  -3   7    5.92    0.26
  -6   3  -7    7.13    0.35
  -6   3  -7    6.83    0.31
   6  -3   7    7.32    0.29
   6  -3   7    6.50    0.32
  -7   3  -7    9.02    0.42
  -7   3  -7    9.56    0.38
   7  -3   7    9.18    0.42
   7  -3   7    9.42    0.34
  -8   3  -7    4.39    0.31
   8  -3   7    4.22    0.29
  -9   3  -7    2.66    0.27
   9  -3   7    2.37    0.25
 -10   3  -7    0.29    0.15
  10  -3   7    0.42    0.16
 -11   3  -7    1.54    0.24
 -11   3  -7    1.68    0.24
  11  -3   7    1.47    0.25
 -12   3  -7    2.06    0.28
 -12   3  -7    1.69    0.27
  12  -3   7    1.88    0.28
   8   2  -7    0.57    0.12
  -8  -2   7    0.91    0.22
   7   2  -7    0.50    0.11
  -7  -2   7    0.53    0.20
   6   2  -7    1.05    0.13
  -6  -2   7    1.19    0.21
   5   2  -7    0.91    0.11
   5   2  -7    0.95    0.11
  -5  -2   7    0.81    0.17
   4   2  -7    0.04    0.06
   4   2  -7    0.00    0.05
  -4  -2   7   -0.13    0.10
   3   2  -7    0.09    0.05
   3   2  -7    0.06    0.07
   3   2  -7    0.06    0.05
  -3  -2   7   -0.02    0.09
   2   2  -7    3.46    0.16
   2   2  -7    3.67    0.19
   2   2  -7    3.67    0.17
  -2  -2   7    3.58    0.26
   1   2  -7    1.68    0.11
   1   2  -7    1.80    0.14
   1   2  -7    1.76    0.11
  -1  -2   7    2.03    0.20
   0   2  -7   35.45    1.08
   0   2  -7   37.54    1.10
   0   2  -7   35.75    1.08
   0  -2   7   37.30    1.17
  -1   2  -7    8.04    0.29
  -1   2  -7    7.81    0.28
  -1   2  -7    7.94    0.31
   1  -2   7    8.53    0.28
   1  -2   7    7.87    0.28
   1  -2   7    7.83    0.35
  -2   2  -7   25.85    0.77
  -2   2  -7   26.04    0.82
  -2   2  -7   25.88    0.80
  -2   2  -7   25.81    0.80
   2  -2   7   26.04    0.85
   2  -2   7   25.35    0.80
   2  -2   7   27.83    0.80
  -3   2  -7   11.26    0.42
  -3   2  -7   11.44    0.40
  -3   2  -7   11.35    0.40
   3  -2   7   12.38    0.41
   3  -2   7   11.27    0.40
   3  -2   7   11.14    0.42
  -4   2  -7    8.40    0.32
  -4   2  -7    8.63    0.32
  -4   2  -7    7.95    0.34
   4  -2   7    8.62    0.33
   4  -2   7    8.20    0.33
  -5   2  -7    0.60    0.09
  -5   2  -7    0.65    0.12
  -5   2  -7    0.72    0.10
   5  -2   7    0.55    0.10
   5  -2   7    0.91    0.10
  -6   2  -7    5.80    0.26
  -6   2  -7    5.99    0.26
  -6   2  -7    5.56    0.30
   6  -2   7    5.47    0.22
   6  -2   7    5.14    0.28
  -7   2  -7    1.17    0.16
  -7   2  -7    1.36    0.13
   7  -2   7    1.27    0.09
   7  -2   7    1.46    0.17
  -8   2  -7    0.30    0.09
  -8   2  -7    0.21    0.13
   8  -2   7    0.36    0.05
   8  -2   7    0.21    0.12
  -9   2  -7    0.62    0.16
   9  -2   7    0.60    0.16
 -10   2  -7    1.04    0.20
  10  -2   7    1.00    0.19
 -11   2  -7    0.07    0.16
  11  -2   7    0.36    0.17
 -12   2  -7    0.30    0.18
  12  -2   7    0.10    0.18
   8   1  -7    0.59    0.12
  -8  -1   7    0.54    0.19
   7   1  -7    1.16    0.14
  -7  -1   7    0.92    0.21
   6   1  -7    4.72    0.23
   6   1  -7    4.63    0.23
  -6  -1   7    5.51    0.38
   5   1  -7    3.34    0.18
   5   1  -7    3.84    0.18
  -5  -1   7    3.66    0.30
   4   1  -7   10.39    0.37
   4   1  -7   11.37    0.37
  -4  -1   7   10.93    0.51
   3   1  -7    3.90    0.16
   3   1  -7    3.80    0.16
  -3  -1   7    4.02    0.28
   2   1  -7    3.38    0.14
   2   1  -7    3.35    0.14
   2   1  -7    3.44    0.17
  -2  -1   7    3.61    0.25
   1   1  -7    9.34    0.31
   1   1  -7    9.62    0.31
   1   1  -7   10.30    0.34
  -1  -1   7    9.54    0.42
   0   1  -7    4.61    0.19
   0   1  -7    4.54    0.17
   0   1  -7    4.42    0.17
   0  -1   7    4.61    0.25
  -1   1  -7   19.40    0.60
  -1   1  -7   20.38    0.62
  -1   1  -7   19.31    0.62
  -1   1  -7   19.82    0.60
   1  -1   7   20.33    0.68
  -2   1  -7    4.58    0.21
  -2   1  -7    4.47    0.18
  -2   1  -7    4.75    0.17
  -2   1  -7    4.53    0.18
   2  -1   7    4.64    0.19
   2  -1   7    4.60    0.23
   2  -1   7    4.52    0.19
  -3   1  -7    8.34    0.30
  -3   1  -7    8.41    0.33
  -3   1  -7    8.51    0.30
   3  -1   7    8.35    0.33
   3  -1   7    8.78    0.31
   3  -1   7    8.29    0.31
  -4   1  -7   22.44    0.70
  -4   1  -7   21.67    0.72
  -4   1  -7   21.98    0.70
   4  -1   7   21.56    0.70
   4  -1   7   24.36    0.72
   4  -1   7   20.84    0.70
  -5   1  -7   11.57    0.41
  -5   1  -7   11.72    0.41
  -5   1  -7   11.34    0.43
   5  -1   7   11.10    0.38
   5  -1   7   10.79    0.42
  -6   1  -7    4.56    0.22
  -6   1  -7    3.97    0.25
  -6   1  -7    4.42    0.22
   6  -1   7    4.00    0.19
   6  -1   7    4.30    0.16
   6  -1   7    4.02    0.24
  -7   1  -7   15.09    0.52
  -7   1  -7   14.30    0.55
   7  -1   7   13.78    0.54
  -8   1  -7   13.34    0.55
  -8   1  -7   14.62    0.52
   8  -1   7   13.30    0.54
  -9   1  -7   11.91    0.52
   9  -1   7   11.10    0.50
 -10   1  -7    3.83    0.33
  10  -1   7    3.68    0.31
 -11   1  -7    1.12    0.21
  11  -1   7    1.09    0.20
 -12   1  -7    0.39    0.21
  12  -1   7    0.53    0.20
   8   0  -7    0.59    0.11
   7   0  -7    1.15    0.13
   6   0  -7    1.83    0.14
   6   0  -7    1.81    0.14
  -6   0   7    1.98    0.25
   5   0  -7    2.38    0.14
   5   0  -7    2.64    0.14
  -5   0   7    3.27    0.29
   4   0  -7    8.08    0.28
   4   0  -7    8.18    0.28
  -4   0   7    8.70    0.44
  -3   0   7    9.62    0.45
   2   0  -7    4.34    0.17
  -2   0   7    4.11    0.27
   1   0  -7    1.39    0.09
  -1   0   7    1.39    0.16
   0   0  -7    5.28    0.19
   0   0  -7    4.54    0.22
   0   0   7    4.70    0.26
  -1   0  -7    8.91    0.29
  -1   0  -7    9.70    0.32
  -1   0  -7    9.48    0.33
  -1   0  -7    8.91    0.29
   1   0   7    9.22    0.37
  -2   0  -7    1.21    0.08
  -2   0  -7    1.42    0.09
  -2   0  -7    1.26    0.11
  -2   0  -7    1.17    0.08
   2   0   7    1.24    0.08
   2   0   7    1.24    0.13
  -3   0  -7   19.34    0.59
  -3   0  -7   18.11    0.59
  -3   0  -7   18.35    0.61
   3   0   7   20.38    0.59
   3   0   7   17.94    0.59
   3   0   7   18.95    0.61
  -4   0  -7   19.03    0.61
  -4   0  -7   19.04    0.61
  -4   0  -7   19.35    0.63
   4   0   7   19.65    0.62
   4   0   7   18.39    0.61
   4   0   7   19.00    0.60
  -5   0  -7   19.55    0.61
  -5   0  -7   17.72    0.63
  -5   0  -7   18.39    0.60
   5   0   7   18.97    0.57
   5   0   7   18.76    0.55
   5   0   7   17.45    0.61
  -6   0  -7   11.20    0.40
  -6   0  -7   10.28    0.39
  -6   0  -7   10.35    0.42
   6   0   7   10.53    0.34
   6   0   7   10.33    0.41
  -7   0  -7    0.80    0.11
  -7   0  -7    1.09    0.16
   7   0   7    0.85    0.14
  -8   0  -7    2.84    0.25
  -8   0  -7    2.61    0.19
   8   0   7    2.76    0.23
  -9   0  -7    4.96    0.33
   9   0   7    4.70    0.31
 -10   0  -7    0.49    0.16
  10   0   7    0.63    0.17
 -11   0  -7    0.21    0.16
  11   0   7    0.35    0.16
 -12   0  -7   -0.10    0.16
  12   0   7   -0.16    0.15
 -13   0  -7   -0.16    0.18
   8  -1  -7    0.73    0.12
   7  -1  -7    0.38    0.09
   6  -1  -7    1.40    0.12
   6  -1  -7    1.44    0.12
   5  -1  -7    8.32    0.29
   5  -1  -7    8.28    0.29
  -4   1   7    9.95    0.48
  -3   1   7    8.95    0.43
   2  -1  -7    7.55    0.34
  -2   1   7    7.90    0.37
   1  -1  -7   17.03    0.60
  -1   1   7   18.06    0.64
   0  -1  -7   11.51    0.42
   0  -1  -7   12.23    0.37
   0   1   7   11.89    0.46
  -1  -1  -7    8.07    0.31
  -1  -1  -7    8.16    0.28
   1   1   7    7.90    0.34
  -2  -1  -7    4.98    0.20
  -2  -1  -7    4.58    0.18
  -2  -1  -7    4.95    0.18
  -2  -1  -7    4.86    0.21
   2   1   7    4.81    0.23
  -3  -1  -7    0.96    0.08
  -3  -1  -7    0.95    0.08
  -3  -1  -7    1.01    0.11
   3   1   7    0.83    0.08
   3   1   7    1.16    0.10
   3   1   7    1.02    0.11
  -4  -1  -7   24.14    0.74
  -4  -1  -7   23.68    0.77
  -4  -1  -7   23.35    0.74
   4   1   7   25.35    0.76
   4   1   7   23.58    0.75
   4   1   7   24.33    0.73
  -5  -1  -7   16.57    0.55
  -5  -1  -7   16.68    0.55
  -5  -1  -7   17.12    0.58
   5   1   7   16.14    0.56
   5   1   7   16.91    0.52
  -6  -1  -7    0.65    0.09
  -6  -1  -7    0.73    0.10
  -6  -1  -7    0.72    0.13
   6   1   7    0.68    0.11
   6   1   7    0.66    0.08
  -7  -1  -7    8.53    0.38
  -7  -1  -7    8.58    0.34
   7   1   7    8.02    0.31
   7   1   7    7.91    0.36
  -8  -1  -7    0.11    0.11
  -8  -1  -7    0.05    0.07
   8   1   7    0.06    0.10
  -9  -1  -7    0.34    0.14
   9   1   7    0.09    0.12
 -10  -1  -7    3.71    0.32
  10   1   7    3.36    0.29
 -11  -1  -7    0.61    0.19
  11   1   7    0.67    0.18
 -12  -1  -7    0.48    0.20
  12   1   7    0.52    0.18
   8  -2  -7    0.09    0.08
   7  -2  -7    2.21    0.16
   7  -2  -7    2.34    0.16
   6  -2  -7    2.13    0.24
   6  -2  -7    2.27    0.13
   6  -2  -7    1.79    0.13
   5  -2  -7    0.94    0.08
   5  -2  -7    1.07    0.17
   5  -2  -7    0.98    0.08
   4  -2  -7    1.82    0.20
   3  -2  -7    8.68    0.39
   2  -2  -7    1.40    0.15
   1  -2  -7    7.85    0.33
   0  -2  -7    0.68    0.10
  -1  -2  -7   17.55    0.61
  -1  -2  -7   18.78    0.56
  -2  -2  -7   21.53    0.65
  -2  -2  -7   21.11    0.67
  -2  -2  -7   21.73    0.65
  -2  -2  -7   22.64    0.70
  -3  -2  -7    4.70    0.19
  -3  -2  -7    4.81    0.22
  -3  -2  -7    4.86    0.19
   3   2   7    5.20    0.19
   3   2   7    4.90    0.21
   3   2   7    4.89    0.19
  -4  -2  -7    2.77    0.15
  -4  -2  -7    2.54    0.15
  -4  -2  -7    3.12    0.18
   4   2   7    2.55    0.15
   4   2   7    2.80    0.15
   4   2   7    2.84    0.16
  -5  -2  -7   12.69    0.44
  -5  -2  -7   13.01    0.47
  -5  -2  -7   12.75    0.44
   5   2   7   12.38    0.45
   5   2   7   12.98    0.43
  -6  -2  -7   16.57    0.57
  -6  -2  -7   16.75    0.60
  -6  -2  -7   17.93    0.58
   6   2   7   16.32    0.58
   6   2   7   16.43    0.55
  -7  -2  -7    5.90    0.28
  -7  -2  -7    5.40    0.31
   7   2   7    6.03    0.26
   7   2   7    5.94    0.30
  -8  -2  -7    2.76    0.19
  -8  -2  -7    2.93    0.26
   8   2   7    2.25    0.21
  -9  -2  -7    0.28    0.14
   9   2   7    0.06    0.12
 -10  -2  -7    0.17    0.15
  10   2   7    0.11    0.13
 -11  -2  -7    1.48    0.24
  11   2   7    1.84    0.25
 -12  -2  -7    1.17    0.24
  12   2   7    0.71    0.21
   8  -3  -7    0.95    0.12
   7  -3  -7    0.70    0.10
   7  -3  -7    0.73    0.10
   6  -3  -7    0.68    0.08
   6  -3  -7    0.54    0.15
   6  -3  -7    0.56    0.08
   5  -3  -7    0.75    0.07
   5  -3  -7    0.72    0.14
   4  -3  -7    7.01    0.36
   3  -3  -7   15.44    0.59
   2  -3  -7   23.86    0.82
   1  -3  -7    7.29    0.33
   0  -3  -7   28.36    0.82
   0  -3  -7   27.19    0.90
  -1  -3  -7   30.59    0.90
  -1  -3  -7   29.68    0.96
  -2  -3  -7   41.27    1.24
  -2  -3  -7   38.48    1.17
  -2  -3  -7   39.05    1.17
  -2  -3  -7   40.64    1.20
   2   3   7   42.57    1.24
  -3  -3  -7    3.94    0.17
  -3  -3  -7    3.92    0.17
  -3  -3  -7    3.84    0.20
   3   3   7    3.78    0.16
   3   3   7    4.24    0.17
   3   3   7    3.73    0.20
  -4  -3  -7    5.59    0.26
  -4  -3  -7    5.66    0.24
  -4  -3  -7    5.99    0.24
   4   3   7    5.57    0.24
   4   3   7    6.30    0.25
   4   3   7    6.23    0.26
  -5  -3  -7    8.28    0.31
  -5  -3  -7    7.89    0.28
  -5  -3  -7    8.00    0.34
  -5  -3  -7    7.73    0.31
   5   3   7    7.25    0.31
   5   3   7    7.93    0.31
  -6  -3  -7   12.05    0.47
  -6  -3  -7   12.01    0.44
  -6  -3  -7   12.83    0.45
   6   3   7   12.04    0.44
   6   3   7   11.52    0.45
  -7  -3  -7    4.83    0.30
  -7  -3  -7    5.14    0.26
   7   3   7    5.06    0.25
   7   3   7    4.62    0.27
  -8  -3  -7    8.86    0.43
  -8  -3  -7    9.34    0.38
   8   3   7    8.81    0.41
  -9  -3  -7    3.63    0.32
   9   3   7    3.69    0.29
 -10  -3  -7    7.50    0.43
  10   3   7    6.49    0.40
 -11  -3  -7    0.26    0.18
  11   3   7    0.17    0.15
 -12  -3  -7    1.04    0.24
  12   3   7    0.67    0.20
   7  -4  -7    0.94    0.11
   6  -4  -7    1.43    0.12
   6  -4  -7    1.51    0.12
   5  -4  -7    1.48    0.10
   5  -4  -7    1.62    0.11
   5  -4  -7    1.39    0.19
   4  -4  -7    2.53    0.23
   3  -4  -7    5.08    0.31
   2  -4  -7    7.86    0.38
   1  -4  -7   17.08    0.63
   0  -4  -7    5.84    0.22
   0  -4  -7    5.60    0.29
  -1  -4  -7    0.13    0.07
  -1  -4  -7    0.05    0.06
  -1  -4  -7    0.10    0.04
  -1  -4  -7    0.19    0.04
  -2  -4  -7    2.24    0.12
  -2  -4  -7    2.05    0.12
  -2  -4  -7    2.58    0.16
  -2  -4  -7    2.41    0.18
   2   4   7    2.64    0.17
  -3  -4  -7    2.77    0.14
  -3  -4  -7    2.57    0.14
  -3  -4  -7    2.74    0.18
   3   4   7    2.84    0.18
   3   4   7    2.58    0.13
   3   4   7    2.72    0.14
  -4  -4  -7    1.20    0.14
  -4  -4  -7    1.38    0.11
  -4  -4  -7    1.08    0.10
   4   4   7    1.20    0.11
   4   4   7    1.26    0.13
   4   4   7    1.19    0.12
  -5  -4  -7    2.39    0.16
  -5  -4  -7    2.66    0.16
  -5  -4  -7    2.39    0.19
   5   4   7    2.46    0.17
   5   4   7    2.16    0.17
  -6  -4  -7   -0.08    0.05
  -6  -4  -7   -0.06    0.09
   6   4   7    0.03    0.07
  -7  -4  -7    5.60    0.33
  -7  -4  -7    5.45    0.27
  -8  -4  -7    6.54    0.32
  -8  -4  -7    7.01    0.38
  -9  -4  -7    1.90    0.23
 -10  -4  -7   -0.02    0.14
  10   4   7   -0.12    0.13
 -11  -4  -7    0.63    0.20
  11   4   7    0.50    0.18
 -12  -4  -7    0.04    0.18
  12   4   7    0.27    0.18
   7  -5  -7    0.53    0.09
   6  -5  -7    3.85    0.19
   6  -5  -7    3.95    0.19
   5  -5  -7    1.36    0.20
   5  -5  -7    1.13    0.10
   5  -5  -7    1.28    0.11
   4  -5  -7    0.98    0.08
   4  -5  -7    1.19    0.19
   4  -5  -7    1.16    0.09
   3  -5  -7    3.35    0.26
   2  -5  -7   10.64    0.47
   1  -5  -7   15.81    0.61
   0  -5  -7   13.67    0.43
   0  -5  -7   14.37    0.45
   0  -5  -7   13.04    0.42
   0  -5  -7   14.08    0.54
  -1  -5  -7    7.42    0.26
  -1  -5  -7    7.18    0.26
  -1  -5  -7    7.77    0.36
  -1  -5  -7    7.84    0.29
  -2  -5  -7   23.64    0.79
  -2  -5  -7   23.68    0.73
  -2  -5  -7   22.16    0.71
  -2  -5  -7   22.57    0.71
  -3  -5  -7    9.38    0.34
  -3  -5  -7    9.91    0.37
  -3  -5  -7    9.52    0.35
   3   5   7    9.67    0.33
   3   5   7    9.02    0.33
  -4  -5  -7    4.04    0.23
  -4  -5  -7    3.73    0.20
  -4  -5  -7    4.10    0.20
  -5  -5  -7    2.99    0.18
  -5  -5  -7    3.03    0.22
  -5  -5  -7    2.81    0.18
  -6  -5  -7    6.18    0.33
  -6  -5  -7    6.66    0.30
  -7  -5  -7    0.75    0.16
  -7  -5  -7    1.08    0.13
  -8  -5  -7    0.73    0.17
  -8  -5  -7    0.55    0.12
  -9  -5  -7    0.37    0.16
 -10  -5  -7    0.10    0.16
 -11  -5  -7    0.75    0.21
 -12  -5  -7    0.32    0.21
  12   5   7   -0.02    0.18
   7  -6  -7    0.20    0.08
   6  -6  -7    1.59    0.15
   6  -6  -7    2.02    0.15
   5  -6  -7    4.83    0.21
   5  -6  -7    4.53    0.20
   4  -6  -7    1.90    0.12
   4  -6  -7    1.77    0.12
   4  -6  -7    2.07    0.24
   3  -6  -7    3.71    0.16
   3  -6  -7    4.00    0.17
   3  -6  -7    3.77    0.29
   2  -6  -7    2.39    0.12
   2  -6  -7    2.38    0.24
   2  -6  -7    2.37    0.12
   1  -6  -7    9.21    0.43
   1  -6  -7    8.39    0.29
   1  -6  -7    8.39    0.29
   0  -6  -7   15.03    0.59
   0  -6  -7   14.26    0.46
   0  -6  -7   14.26    0.46
  -1  -6  -7   19.08    0.61
  -1  -6  -7   19.15    0.69
  -1  -6  -7   18.55    0.58
  -1  -6  -7   16.81    0.58
  -2  -6  -7   12.11    0.50
  -2  -6  -7   11.54    0.41
  -2  -6  -7   12.01    0.44
  -2  -6  -7   12.00    0.41
  -3  -6  -7   22.72    0.74
  -3  -6  -7   22.69    0.71
  -3  -6  -7   21.06    0.71
  -4  -6  -7    4.03    0.25
  -4  -6  -7    3.85    0.21
  -4  -6  -7    3.95    0.21
  -5  -6  -7   11.83    0.45
  -5  -6  -7   11.77    0.48
  -6  -6  -7    3.29    0.27
  -6  -6  -7    3.21    0.22
  -7  -6  -7    2.52    0.20
  -7  -6  -7    2.76    0.26
  -8  -6  -7    1.66    0.23
  -8  -6  -7    1.75    0.18
  -9  -6  -7    4.74    0.38
 -10  -6  -7    1.54    0.26
 -11  -6  -7    0.65    0.22
   6  -7  -7   -0.07    0.06
   5  -7  -7    0.97    0.11
   5  -7  -7    1.00    0.11
   4  -7  -7    0.98    0.10
   4  -7  -7    0.88    0.19
   4  -7  -7    0.80    0.09
   3  -7  -7    0.38    0.07
   3  -7  -7    0.42    0.07
   3  -7  -7    0.27    0.12
   2  -7  -7    1.68    0.12
   2  -7  -7    1.65    0.21
   2  -7  -7    1.95    0.13
   1  -7  -7    1.44    0.20
   1  -7  -7    1.27    0.11
   1  -7  -7    1.40    0.12
   0  -7  -7    5.66    0.24
   0  -7  -7    6.23    0.35
   0  -7  -7    5.61    0.24
  -1  -7  -7    6.04    0.25
  -1  -7  -7    5.35    0.24
  -1  -7  -7    6.16    0.35
  -1  -7  -7    6.40    0.29
  -2  -7  -7    9.54    0.36
  -2  -7  -7    8.90    0.35
  -2  -7  -7    9.42    0.38
  -3  -7  -7   14.63    0.53
  -3  -7  -7   15.46    0.56
  -3  -7  -7   15.47    0.53
  -4  -7  -7    7.89    0.37
  -4  -7  -7    7.88    0.33
  -5  -7  -7    4.24    0.29
  -5  -7  -7    4.06    0.24
  -6  -7  -7    1.08    0.14
  -6  -7  -7    1.17    0.18
  -7  -7  -7    0.45    0.16
  -7  -7  -7    0.56    0.12
  -8  -7  -7    1.65    0.22
  -9  -7  -7    0.45    0.19
 -10  -7  -7    0.73    0.22
 -11  -7  -7   -0.16    0.18
   5  -8  -7    0.41    0.09
   4  -8  -7    0.98    0.12
   3  -8  -7    4.03    0.21
   3  -8  -7    3.95    0.34
   3  -8  -7    4.07    0.21
   2  -8  -7    1.21    0.20
   2  -8  -7    1.24    0.12
   2  -8  -7    1.13    0.12
   1  -8  -7    4.10    0.21
   1  -8  -7    5.08    0.35
   1  -8  -7    4.46    0.22
   0  -8  -7    5.21    0.24
   0  -8  -7    5.13    0.35
   0  -8  -7    4.79    0.24
  -1  -8  -7    2.54    0.17
  -1  -8  -7    2.65    0.17
  -1  -8  -7    3.17    0.28
  -2  -8  -7    1.56    0.15
  -2  -8  -7    1.59    0.18
  -3  -8  -7    2.63    0.23
  -3  -8  -7    2.08    0.18
  -4  -8  -7    2.69    0.20
  -4  -8  -7    2.96    0.25
  -5  -8  -7    1.23    0.19
  -5  -8  -7    1.28    0.15
  -6  -8  -7    3.52    0.24
  -6  -8  -7    4.01    0.32
  -7  -8  -7   -0.12    0.13
  -7  -8  -7    0.07    0.09
  -8  -8  -7    0.09    0.15
  -9  -8  -7    1.29    0.24
 -10  -8  -7    0.87    0.24
   4  -9  -7    1.35    0.14
   3  -9  -7    0.59    0.11
   2  -9  -7    4.46    0.24
   1  -9  -7    2.05    0.26
   1  -9  -7    1.96    0.17
   0  -9  -7    2.98    0.30
   0  -9  -7    3.16    0.20
   0  -9  -7    3.22    0.20
  -1  -9  -7    3.51    0.21
  -2  -9  -7    3.25    0.21
  -3  -9  -7    3.83    0.28
  -3  -9  -7    3.81    0.24
  -4  -9  -7    7.11    0.35
  -4  -9  -7    7.71    0.40
  -5  -9  -7    2.72    0.27
  -5  -9  -7    2.73    0.22
  -6  -9  -7    7.99    0.39
  -6  -9  -7    8.37    0.45
  -7  -9  -7    5.08    0.40
  -8  -9  -7    1.00    0.24
  -9  -9  -7    0.44    0.20
   3 -10  -7    1.81    0.18
   2 -10  -7    1.54    0.16
   1 -10  -7    0.53    0.11
   0 -10  -7    2.41    0.20
  -1 -10  -7    2.37    0.19
  -2 -10  -7    5.82    0.31
  -3 -10  -7    3.56    0.25
  -4 -10  -7    0.71    0.14
  -4 -10  -7    0.81    0.17
   4  10   7    0.64    0.19
  -5 -10  -7    3.96    0.27
  -5 -10  -7    4.17    0.35
  -6 -10  -7    1.40    0.24
  -7 -10  -7    2.53    0.30
  -8 -10  -7    0.51    0.21
   8  10   7    0.32    0.23
   2 -11  -7    0.10    0.09
   1 -11  -7    0.64    0.13
   1 -11  -7    0.71    0.13
   0 -11  -7   -0.02    0.08
  -1 -11  -7    1.18    0.16
  -2 -11  -7    0.19    0.10
   2  11   7   -0.03    0.13
  -3 -11  -7    1.37    0.18
   3  11   7    1.37    0.20
  -4 -11  -7    2.52    0.24
  -5 -11  -7    0.35    0.18
  -5 -11  -7    0.38    0.16
   5  11   7    0.55    0.21
  -6 -11  -7    0.45    0.18
   6  11   7    0.32    0.22
   7  11   7    0.60    0.24
  -2 -12  -7    2.19    0.23
  -3 -12  -7    1.89    0.22
  -1  11  -8    3.06    0.34
  -2  11  -8    1.04    0.25
   2 -11   8    1.97    0.29
  -3  11  -8    1.36    0.26
   3 -11   8    1.80    0.27
  -4  11  -8    1.84    0.30
   1  10  -8    4.48    0.41
   1  10  -8    4.73    0.40
  -1 -10   8    4.61    0.41
  -1 -10   8    3.97    0.35
   0  10  -8    2.58    0.31
   0  10  -8    2.63    0.31
   0 -10   8    3.16    0.35
   0 -10   8    2.93    0.30
  -1  10  -8    0.57    0.22
  -1  10  -8    0.44    0.19
   1 -10   8    0.61    0.18
   1 -10   8    0.45    0.17
  -2  10  -8    2.63    0.32
  -2  10  -8    2.33    0.29
   2 -10   8    2.49    0.28
   2 -10   8    2.04    0.28
  -3  10  -8    3.83    0.37
  -3  10  -8    3.14    0.33
   3 -10   8    3.55    0.34
   3 -10   8    3.53    0.34
  -4  10  -8    3.33    0.35
  -4  10  -8    3.29    0.35
   4 -10   8    4.10    0.36
  -5  10  -8    0.76    0.21
  -5  10  -8    0.99    0.24
   5 -10   8    0.92    0.22
  -6  10  -8    2.02    0.29
  -6  10  -8    2.04    0.29
   6 -10   8    2.41    0.30
  -7  10  -8    2.45    0.32
   3   9  -8    0.79    0.21
  -3  -9   8    0.91    0.23
   2   9  -8    0.54    0.20
   2   9  -8    0.93    0.21
  -2  -9   8    0.84    0.20
  -2  -9   8    0.64    0.15
   1   9  -8    2.69    0.30
   1   9  -8    2.89    0.29
  -1  -9   8    2.63    0.26
  -1  -9   8    2.86    0.32
   0   9  -8    2.12    0.27
   0   9  -8    1.79    0.25
   0  -9   8    1.75    0.25
   0  -9   8    2.15    0.24
  -1   9  -8    2.19    0.28
  -1   9  -8    2.17    0.26
   1  -9   8    1.63    0.24
   1  -9   8    1.62    0.22
  -2   9  -8    0.90    0.20
  -2   9  -8    1.42    0.25
   2  -9   8    1.09    0.20
   2  -9   8    1.26    0.22
  -3   9  -8    2.44    0.27
  -3   9  -8    2.52    0.29
   3  -9   8    1.95    0.25
   3  -9   8    2.36    0.26
  -4   9  -8    2.27    0.28
  -4   9  -8    2.54    0.30
   4  -9   8    2.33    0.27
  -5   9  -8    2.45    0.29
  -5   9  -8    3.56    0.35
   5  -9   8    2.44    0.28
  -6   9  -8    1.12    0.25
  -6   9  -8    1.52    0.25
   6  -9   8    1.50    0.23
  -7   9  -8    3.21    0.35
  -7   9  -8    2.29    0.30
   7  -9   8    2.44    0.30
  -8   9  -8    0.03    0.19
  -8   9  -8   -0.14    0.18
   8  -9   8    0.24    0.19
   4   8  -8    1.10    0.17
   4   8  -8    0.72    0.19
  -4  -8   8    1.64    0.27
  -4  -8   8    1.31    0.18
   3   8  -8    0.93    0.16
   3   8  -8    0.96    0.21
  -3  -8   8    1.16    0.17
  -3  -8   8    0.88    0.22
   2   8  -8    4.30    0.29
   2   8  -8    4.28    0.34
   2   8  -8    3.75    0.34
  -2  -8   8    4.33    0.28
  -2  -8   8    3.52    0.35
   1   8  -8    2.76    0.24
   1   8  -8    3.25    0.32
   1   8  -8    3.23    0.29
  -1  -8   8    2.98    0.26
  -1  -8   8    2.64    0.29
   0   8  -8    2.36    0.25
   0   8  -8    2.24    0.21
   0   8  -8    2.47    0.28
   0  -8   8    2.02    0.22
   0  -8   8    2.25    0.26
  -1   8  -8    5.56    0.36
  -1   8  -8    5.32    0.30
  -1   8  -8    5.52    0.37
   1  -8   8    5.15    0.36
   1  -8   8    5.35    0.33
  -2   8  -8    3.66    0.33
  -2   8  -8    3.50    0.31
  -2   8  -8    3.82    0.26
   2  -8   8    3.85    0.30
   2  -8   8    2.99    0.29
  -3   8  -8    3.31    0.31
  -3   8  -8    2.78    0.28
   3  -8   8    3.01    0.28
   3  -8   8    2.76    0.27
  -4   8  -8    6.32    0.39
  -4   8  -8    6.52    0.41
   4  -8   8    5.86    0.37
  -5   8  -8    3.13    0.31
  -5   8  -8    3.38    0.31
   5  -8   8    3.30    0.31
  -6   8  -8    3.52    0.32
  -6   8  -8    3.89    0.36
   6  -8   8    2.99    0.30
  -7   8  -8    1.37    0.24
  -7   8  -8    0.91    0.23
   7  -8   8    1.30    0.22
  -8   8  -8    2.92    0.33
  -8   8  -8    3.24    0.35
   8  -8   8    2.95    0.32
  -9   8  -8    0.61    0.23
  -9   8  -8    0.97    0.24
   9  -8   8    1.34    0.26
   5   7  -8    0.33    0.12
   5   7  -8   -0.05    0.15
  -5  -7   8    0.50    0.21
   4   7  -8    0.97    0.15
   4   7  -8    1.12    0.20
  -4  -7   8    1.46    0.25
   3   7  -8    1.18    0.16
   3   7  -8    1.12    0.20
  -3  -7   8    1.10    0.22
  -3  -7   8    0.99    0.14
   2   7  -8    0.33    0.11
   2   7  -8    0.38    0.14
   2   7  -8    0.37    0.17
  -2  -7   8    0.17    0.15
  -2  -7   8    0.10    0.10
   1   7  -8    2.42    0.24
   1   7  -8    2.26    0.21
   1   7  -8    2.77    0.27
  -1  -7   8    2.80    0.23
  -1  -7   8    1.98    0.26
   0   7  -8    5.17    0.33
   0   7  -8    5.22    0.35
   0   7  -8    4.82    0.28
   0  -7   8    5.19    0.36
   0  -7   8    4.82    0.29
  -1   7  -8    2.95    0.22
  -1   7  -8    3.45    0.30
  -1   7  -8    3.01    0.27
   1  -7   8    3.01    0.28
   1  -7   8    2.91    0.25
  -2   7  -8    8.72    0.44
  -2   7  -8    8.11    0.42
  -2   7  -8    8.51    0.38
   2  -7   8    8.11    0.40
   2  -7   8    7.76    0.43
  -3   7  -8    4.29    0.34
  -3   7  -8    4.61    0.32
  -3   7  -8    4.20    0.26
   3  -7   8    4.64    0.30
   3  -7   8    4.45    0.31
  -4   7  -8    7.24    0.41
  -4   7  -8    7.38    0.35
  -4   7  -8    7.13    0.40
   4  -7   8    6.01    0.36
   4  -7   8    6.60    0.37
  -5   7  -8    8.42    0.46
  -5   7  -8    8.90    0.47
   5  -7   8    8.90    0.44
  -6   7  -8    2.94    0.30
  -6   7  -8    2.82    0.28
   6  -7   8    3.36    0.29
  -7   7  -8    1.63    0.25
  -7   7  -8    0.93    0.20
   7  -7   8    1.12    0.21
  -8   7  -8    1.33    0.23
  -8   7  -8    1.25    0.24
   8  -7   8    1.38    0.23
  -9   7  -8    1.60    0.26
  -9   7  -8    1.23    0.24
   9  -7   8    1.25    0.24
 -10   7  -8    0.89    0.24
 -10   7  -8    1.58    0.27
  10  -7   8    1.17    0.25
   5   6  -8    0.32    0.11
   5   6  -8    0.77    0.19
  -5  -6   8    0.87    0.21
   4   6  -8    0.92    0.18
   4   6  -8    0.53    0.12
  -4  -6   8    0.60    0.19
   3   6  -8    2.30    0.20
   3   6  -8    1.99    0.23
  -3  -6   8    2.24    0.17
  -3  -6   8    1.95    0.26
   2   6  -8    2.13    0.23
   2   6  -8    1.78    0.18
   2   6  -8    1.92    0.20
  -2  -6   8    2.02    0.18
  -2  -6   8    1.87    0.25
   1   6  -8    4.68    0.31
   1   6  -8    4.30    0.26
   1   6  -8    4.79    0.30
  -1  -6   8    4.41    0.34
  -1  -6   8    4.71    0.26
   0   6  -8   21.24    0.75
   0   6  -8   22.65    0.79
   0   6  -8   21.41    0.78
   0  -6   8   22.68    0.84
   0  -6   8   22.32    0.75
  -1   6  -8    9.63    0.44
  -1   6  -8    9.31    0.39
  -1   6  -8    8.09    0.41
   1  -6   8    9.64    0.46
   1  -6   8    8.61    0.39
  -2   6  -8    4.50    0.26
  -2   6  -8    4.60    0.30
  -2   6  -8    4.24    0.31
   2  -6   8    4.49    0.27
   2  -6   8    4.68    0.31
  -3   6  -8    3.49    0.23
  -3   6  -8    3.04    0.27
  -3   6  -8    3.61    0.29
   3  -6   8    3.15    0.25
   3  -6   8    3.31    0.25
  -4   6  -8    6.05    0.36
  -4   6  -8    6.48    0.31
  -4   6  -8    6.73    0.37
   4  -6   8    6.21    0.34
   4  -6   8    5.78    0.33
  -5   6  -8    4.18    0.25
  -5   6  -8    4.20    0.33
  -5   6  -8    4.62    0.33
   5  -6   8    4.19    0.27
   5  -6   8    4.08    0.30
  -6   6  -8    1.00    0.21
  -6   6  -8    0.98    0.18
   6  -6   8    0.99    0.18
  -7   6  -8    2.97    0.29
  -7   6  -8    3.30    0.32
   7  -6   8    2.80    0.27
  -8   6  -8    0.92    0.20
  -8   6  -8    1.29    0.23
   8  -6   8    1.11    0.20
  -9   6  -8    3.23    0.32
  -9   6  -8    3.21    0.32
   9  -6   8    2.91    0.32
 -10   6  -8    1.29    0.26
 -10   6  -8    1.46    0.25
  10  -6   8    1.16    0.23
 -11   6  -8    2.00    0.31
 -11   6  -8    2.34    0.30
  11  -6   8    2.03    0.30
   6   5  -8    1.46    0.21
   6   5  -8    1.40    0.17
  -6  -5   8    1.69    0.26
   5   5  -8    0.76    0.13
   5   5  -8    1.02    0.18
  -5  -5   8    0.92    0.22
   4   5  -8    1.40    0.19
   4   5  -8    1.76    0.17
  -4  -5   8    1.88    0.26
   3   5  -8    0.76    0.16
   3   5  -8    0.47    0.11
  -3  -5   8    0.47    0.08
  -3  -5   8    0.84    0.20
   2   5  -8    4.06    0.26
   2   5  -8    3.64    0.28
   2   5  -8    3.50    0.22
  -2  -5   8    3.86    0.32
  -2  -5   8    4.01    0.20
   1   5  -8    2.12    0.21
   1   5  -8    1.84    0.17
   1   5  -8    2.04    0.20
  -1  -5   8    1.77    0.16
  -1  -5   8    1.92    0.24
   0   5  -8   -0.12    0.11
   0   5  -8    0.03    0.07
   0   5  -8   -0.05    0.09
   0  -5   8   -0.01    0.08
   0  -5   8   -0.02    0.10
  -1   5  -8    9.00    0.36
  -1   5  -8    9.07    0.39
  -1   5  -8    9.09    0.40
   1  -5   8    8.82    0.36
   1  -5   8    8.34    0.42
  -2   5  -8    7.07    0.32
  -2   5  -8    6.98    0.36
  -2   5  -8    6.96    0.35
   2  -5   8    7.03    0.37
   2  -5   8    6.82    0.32
  -3   5  -8    3.86    0.28
  -3   5  -8    4.67    0.25
  -3   5  -8    4.08    0.27
   3  -5   8    4.01    0.27
   3  -5   8    4.25    0.26
  -4   5  -8    0.19    0.11
  -4   5  -8    0.23    0.14
  -4   5  -8    0.14    0.08
   4  -5   8    0.23    0.10
   4  -5   8    0.06    0.10
  -5   5  -8    4.52    0.31
  -5   5  -8    4.34    0.31
  -5   5  -8    4.96    0.26
   5  -5   8    4.10    0.28
   5  -5   8    4.51    0.27
  -6   5  -8    4.92    0.27
  -6   5  -8    4.74    0.33
  -6   5  -8    4.67    0.32
   6  -5   8    4.90    0.30
   6  -5   8    5.01    0.28
  -7   5  -8    5.07    0.35
  -7   5  -8    5.10    0.35
   7  -5   8    4.72    0.27
   7  -5   8    4.96    0.32
  -8   5  -8    3.73    0.33
  -8   5  -8    2.89    0.30
   8  -5   8    3.05    0.29
  -9   5  -8    0.13    0.17
  -9   5  -8   -0.02    0.14
   9  -5   8    0.23    0.15
 -10   5  -8    0.24    0.18
 -10   5  -8    0.77    0.22
  10  -5   8    0.38    0.17
 -11   5  -8    0.64    0.23
 -11   5  -8    0.27    0.20
  11  -5   8    0.50    0.20
   6   4  -8    0.38    0.11
  -6  -4   8    0.60    0.21
   5   4  -8    2.56    0.20
  -5  -4   8    2.43    0.30
   4   4  -8    2.78    0.20
  -4  -4   8    3.26    0.32
   3   4  -8   13.42    0.51
  -3  -4   8   15.51    0.65
   2   4  -8    1.77    0.16
   2   4  -8    2.13    0.15
   2   4  -8    2.29    0.21
   2   4  -8    2.24    0.22
  -2  -4   8    1.90    0.24
   1   4  -8    1.95    0.19
   1   4  -8    1.63    0.15
   1   4  -8    2.12    0.19
   1   4  -8    2.06    0.15
  -1  -4   8    1.89    0.13
  -1  -4   8    2.18    0.24
   0   4  -8    5.32    0.27
   0   4  -8    5.08    0.25
   0   4  -8    5.51    0.29
   0   4  -8    5.43    0.24
   0  -4   8    4.64    0.31
  -1   4  -8   15.93    0.57
  -1   4  -8   15.36    0.53
  -1   4  -8   15.65    0.56
  -1   4  -8   15.68    0.54
   1  -4   8   15.55    0.61
   1  -4   8   15.17    0.53
  -2   4  -8   18.96    0.65
  -2   4  -8   18.90    0.62
  -2   4  -8   18.24    0.62
  -2   4  -8   19.13    0.65
   2  -4   8   17.90    0.62
   2  -4   8   18.44    0.68
  -3   4  -8   25.21    0.83
  -3   4  -8   23.49    0.81
  -3   4  -8   25.11    0.84
  -3   4  -8   24.87    0.81
   3  -4   8   25.32    0.82
   3  -4   8   25.51    0.85
  -4   4  -8    9.27    0.38
  -4   4  -8    9.51    0.41
  -4   4  -8    9.69    0.42
   4  -4   8    9.32    0.40
   4  -4   8    9.23    0.39
  -5   4  -8   12.74    0.52
  -5   4  -8   13.27    0.48
  -5   4  -8   12.85    0.52
   5  -4   8   12.52    0.50
   5  -4   8   12.89    0.49
  -6   4  -8   17.27    0.65
  -6   4  -8   16.79    0.65
  -6   4  -8   17.43    0.61
   6  -4   8   16.80    0.60
   6  -4   8   16.86    0.64
  -7   4  -8    3.07    0.28
  -7   4  -8    2.95    0.21
  -7   4  -8    3.23    0.29
   7  -4   8    3.06    0.20
   7  -4   8    2.90    0.26
  -8   4  -8    4.21    0.33
  -8   4  -8    3.63    0.31
   8  -4   8    4.04    0.31
  -9   4  -8    3.27    0.31
  -9   4  -8    3.37    0.31
   9  -4   8    2.68    0.27
 -10   4  -8    1.47    0.24
 -10   4  -8    1.85    0.27
  10  -4   8    1.92    0.26
 -11   4  -8    0.19    0.19
 -11   4  -8   -0.06    0.17
  11  -4   8    0.35    0.18
 -12   4  -8    0.16    0.20
 -12   4  -8    0.09    0.22
   7   3  -8    1.22    0.16
  -7  -3   8    1.02    0.23
   6   3  -8    1.90    0.18
  -6  -3   8    2.22    0.30
   5   3  -8    3.14    0.21
  -5  -3   8    4.06    0.35
   4   3  -8    1.23    0.13
  -4  -3   8    1.01    0.21
   3   3  -8    3.50    0.19
   3   3  -8    3.48    0.19
  -3  -3   8    3.52    0.29
   2   3  -8    8.09    0.31
   2   3  -8    7.92    0.31
   2   3  -8    7.92    0.31
  -2  -3   8    8.15    0.42
   1   3  -8    0.42    0.08
   1   3  -8    0.51    0.10
   1   3  -8    0.34    0.07
  -1  -3   8    0.09    0.10
   0   3  -8    1.54    0.15
   0   3  -8    1.62    0.12
   0   3  -8    1.58    0.13
   0  -3   8    1.45    0.18
   0  -3   8    1.49    0.11
  -1   3  -8    0.19    0.07
  -1   3  -8    0.19    0.06
  -1   3  -8    0.14    0.11
  -1   3  -8    0.32    0.09
   1  -3   8    0.19    0.07
   1  -3   8    0.26    0.11
  -2   3  -8    3.43    0.17
  -2   3  -8    2.87    0.20
  -2   3  -8    3.10    0.13
  -2   3  -8    3.04    0.18
  -2   3  -8    2.81    0.22
   2  -3   8    3.03    0.18
   2  -3   8    3.25    0.23
   2  -3   8    3.04    0.23
  -3   3  -8    2.96    0.18
  -3   3  -8    3.10    0.17
  -3   3  -8    2.85    0.22
  -3   3  -8    2.93    0.21
   3  -3   8    2.99    0.19
   3  -3   8    3.00    0.22
   3  -3   8    2.83    0.21
  -4   3  -8   28.05    0.88
  -4   3  -8   27.84    0.91
  -4   3  -8   27.09    0.87
  -4   3  -8   27.41    0.90
   4  -3   8   27.93    0.90
   4  -3   8   27.11    0.89
  -5   3  -8    2.71    0.19
  -5   3  -8    2.57    0.22
   5  -3   8    2.62    0.21
   5  -3   8    2.43    0.18
  -6   3  -8    2.11    0.22
  -6   3  -8    2.00    0.17
   6  -3   8    1.94    0.20
   6  -3   8    2.14    0.16
  -7   3  -8    3.74    0.28
  -7   3  -8    4.22    0.24
   7  -3   8    3.32    0.25
   7  -3   8    3.55    0.19
  -8   3  -8    4.98    0.33
   8  -3   8    4.75    0.32
  -9   3  -8    3.70    0.32
   9  -3   8    3.34    0.30
 -10   3  -8    0.48    0.17
  10  -3   8    0.64    0.17
 -11   3  -8    1.42    0.25
  11  -3   8    1.15    0.23
 -12   3  -8    1.34    0.25
 -12   3  -8    1.14    0.25
  12  -3   8    1.24    0.25
   7   2  -8    0.54    0.11
  -7  -2   8    0.56    0.21
   6   2  -8    1.86    0.16
  -6  -2   8    1.86    0.28
   5   2  -8    2.75    0.18
  -5  -2   8    3.93    0.34
   4   2  -8    1.26    0.12
   4   2  -8    1.34    0.12
  -4  -2   8    1.40    0.22
   3   2  -8    0.31    0.07
   3   2  -8    0.31    0.07
  -3  -2   8    0.42    0.14
   2   2  -8   14.25    0.47
   2   2  -8   14.63    0.47
  -2  -2   8   14.63    0.60
   1   2  -8    9.58    0.35
   1   2  -8    9.04    0.32
   1   2  -8    8.91    0.32
   1   2  -8    9.16    0.32
  -1  -2   8    9.15    0.43
   0   2  -8    2.76    0.15
   0   2  -8    3.05    0.15
   0   2  -8    3.20    0.18
   0  -2   8    2.99    0.23
  -1   2  -8    5.54    0.22
  -1   2  -8    5.59    0.25
  -1   2  -8    5.38    0.22
   1  -2   8    5.56    0.29
   1  -2   8    5.21    0.20
  -2   2  -8    6.36    0.26
  -2   2  -8    6.88    0.29
  -2   2  -8    6.91    0.29
  -2   2  -8    6.43    0.23
  -2   2  -8    6.41    0.26
   2  -2   8    7.06    0.26
   2  -2   8    6.56    0.25
   2  -2   8    6.78    0.32
  -3   2  -8   19.63    0.63
  -3   2  -8   19.12    0.65
  -3   2  -8   19.85    0.63
   3  -2   8   19.05    0.63
   3  -2   8   20.42    0.63
   3  -2   8   19.47    0.67
  -4   2  -8    2.54    0.16
  -4   2  -8    2.29    0.19
  -4   2  -8    2.42    0.15
   4  -2   8    2.40    0.17
   4  -2   8    2.52    0.17
  -5   2  -8    8.73    0.37
  -5   2  -8    7.90    0.33
  -5   2  -8    8.21    0.33
   5  -2   8    8.18    0.35
   5  -2   8    8.59    0.33
  -6   2  -8    7.91    0.36
  -6   2  -8    7.61    0.32
   6  -2   8    7.12    0.28
   6  -2   8    6.84    0.33
  -7   2  -8    3.56    0.22
  -7   2  -8    4.02    0.27
   7  -2   8    2.95    0.24
   7  -2   8    3.30    0.16
  -8   2  -8    0.59    0.11
  -8   2  -8    0.31    0.14
   8  -2   8    0.51    0.14
  -9   2  -8    0.99    0.19
   9  -2   8    0.66    0.16
 -10   2  -8    0.83    0.19
  10  -2   8    0.76    0.18
 -11   2  -8    1.06    0.22
  11  -2   8    0.95    0.21
 -12   2  -8    0.94    0.23
  12  -2   8    0.85    0.22
   7   1  -8    0.24    0.09
  -7  -1   8    0.35    0.19
   6   1  -8    1.37    0.14
  -6  -1   8    1.47    0.24
   5   1  -8    1.50    0.13
   5   1  -8    1.45    0.13
  -5  -1   8    1.55    0.23
   4   1  -8   11.73    0.39
   4   1  -8   10.31    0.38
  -4  -1   8   11.78    0.55
   3   1  -8    3.34    0.16
   3   1  -8    3.67    0.16
  -3  -1   8    3.72    0.29
   2   1  -8   15.82    0.50
   2   1  -8   15.48    0.50
  -2  -1   8   17.00    0.65
   1   1  -8   22.69    0.69
   1   1  -8   22.35    0.69
   1   1  -8   23.45    0.71
  -1  -1   8   23.55    0.82
   0   1  -8   21.18    0.65
   0   1  -8   20.42    0.63
   0   1  -8   21.00    0.63
   0  -1   8   21.12    0.75
  -1   1  -8   16.79    0.52
  -1   1  -8   16.47    0.54
  -1   1  -8   15.95    0.52
  -1   1  -8   17.06    0.54
   1  -1   8   17.07    0.61
  -2   1  -8    4.12    0.17
  -2   1  -8    3.68    0.20
  -2   1  -8    3.74    0.17
  -2   1  -8    3.97    0.16
   2  -1   8    3.75    0.22
   2  -1   8    3.86    0.16
  -3   1  -8    4.10    0.19
  -3   1  -8    4.23    0.22
  -3   1  -8    3.80    0.18
   3  -1   8    4.03    0.19
   3  -1   8    4.33    0.22
   3  -1   8    4.17    0.19
  -4   1  -8    4.88    0.22
  -4   1  -8    5.22    0.23
  -4   1  -8    4.94    0.25
   4  -1   8    5.24    0.23
   4  -1   8    5.20    0.24
   4  -1   8    4.63    0.23
  -5   1  -8    0.79    0.10
  -5   1  -8    0.65    0.09
  -5   1  -8    0.61    0.12
   5  -1   8    0.68    0.11
   5  -1   8    0.74    0.09
  -6   1  -8    6.54    0.30
  -6   1  -8    7.11    0.34
   6  -1   8    7.08    0.25
   6  -1   8    6.55    0.31
  -7   1  -8    2.13    0.21
  -7   1  -8    2.08    0.17
   7  -1   8    2.36    0.21
  -8   1  -8    4.65    0.26
  -8   1  -8    4.56    0.31
   8  -1   8    4.51    0.29
  -9   1  -8    2.12    0.25
   9  -1   8    2.37    0.24
 -10   1  -8    3.02    0.29
  10  -1   8    3.60    0.31
 -11   1  -8    0.03    0.16
  11  -1   8    0.29    0.16
 -12   1  -8    0.19    0.19
  12  -1   8    0.50    0.19
   7   0  -8    0.25    0.08
   6   0  -8    0.36    0.08
   6   0  -8    0.37    0.08
  -6   0   8    0.28    0.17
   5   0  -8    4.74    0.21
   5   0  -8    5.07    0.21
  -5   0   8    5.71    0.39
   4   0  -8    0.39    0.06
   4   0  -8    0.52    0.07
  -4   0   8    0.54    0.17
   3   0  -8    8.37    0.28
  -3   0   8    9.04    0.45
  -2   0   8    9.44    0.44
   1   0  -8   10.01    0.40
   1   0  -8   10.42    0.36
  -1   0   8   10.61    0.46
   0   0  -8    7.48    0.26
   0   0  -8    7.05    0.23
   0   0  -8    6.60    0.23
   0   0  -8    7.10    0.29
   0   0   8    7.11    0.35
  -1   0  -8   13.80    0.47
  -1   0  -8   14.26    0.45
  -1   0  -8   13.50    0.43
  -1   0  -8   13.29    0.43
   1   0   8   13.84    0.52
  -2   0  -8    5.79    0.23
  -2   0  -8    5.45    0.21
  -2   0  -8    5.40    0.21
  -2   0  -8    5.71    0.24
   2   0   8    5.67    0.27
  -3   0  -8    4.29    0.19
  -3   0  -8    4.32    0.22
  -3   0  -8    4.91    0.18
  -3   0  -8    4.49    0.19
   3   0   8    4.71    0.23
   3   0   8    4.74    0.19
   3   0   8    4.50    0.19
  -4   0  -8   15.70    0.55
  -4   0  -8   16.53    0.53
  -4   0  -8   15.19    0.53
   4   0   8   15.80    0.53
   4   0   8   17.47    0.54
   4   0   8   16.08    0.54
  -5   0  -8   12.92    0.49
  -5   0  -8   12.90    0.46
  -5   0  -8   13.15    0.46
   5   0   8   12.84    0.46
   5   0   8   13.50    0.44
  -6   0  -8    4.99    0.25
  -6   0  -8    5.44    0.25
  -6   0  -8    5.35    0.28
   6   0   8    5.33    0.27
  -7   0  -8   15.01    0.53
  -7   0  -8   14.98    0.57
   7   0   8   14.46    0.46
   7   0   8   14.78    0.55
  -8   0  -8    3.42    0.28
  -8   0  -8    3.25    0.22
   8   0   8    3.36    0.25
  -9   0  -8    9.75    0.47
   9   0   8    9.03    0.44
 -10   0  -8    0.12    0.15
  10   0   8    0.29    0.15
 -11   0  -8    0.84    0.20
  11   0   8    0.56    0.17
 -12   0  -8   -0.20    0.16
  12   0   8   -0.13    0.15
   7  -1  -8    0.80    0.11
   6  -1  -8    0.01    0.06
   6  -1  -8    0.09    0.06
   5  -1  -8    0.52    0.07
   5  -1  -8    0.64    0.07
   5  -1  -8    0.48    0.14
   4  -1  -8   10.30    0.47
   3  -1  -8    0.08    0.08
  -3   1   8   -0.10    0.10
   2  -1  -8    3.00    0.21
  -2   1   8    3.32    0.26
   1  -1  -8   20.04    0.70
  -1   1   8   20.93    0.75
   0  -1  -8   11.09    0.35
   0  -1  -8   10.78    0.41
   0   1   8   10.43    0.45
  -1  -1  -8   12.53    0.40
  -1  -1  -8   12.72    0.44
  -1  -1  -8   12.04    0.38
  -1  -1  -8   12.29    0.38
   1   1   8   12.60    0.48
  -2  -1  -8   12.06    0.40
  -2  -1  -8   12.58    0.40
  -2  -1  -8   12.98    0.43
  -2  -1  -8   13.21    0.44
   2   1   8   13.06    0.48
  -3  -1  -8    2.71    0.14
  -3  -1  -8    2.83    0.17
  -3  -1  -8    2.88    0.14
  -3  -1  -8    2.88    0.15
   3   1   8    2.32    0.12
   3   1   8    2.73    0.13
   3   1   8    3.06    0.18
  -4  -1  -8    8.16    0.33
  -4  -1  -8    8.15    0.31
  -4  -1  -8    8.67    0.31
   4   1   8    8.26    0.31
   4   1   8    8.87    0.31
  -5  -1  -8   11.83    0.43
  -5  -1  -8   12.02    0.46
  -5  -1  -8   12.27    0.43
   5   1   8   11.85    0.44
   5   1   8   12.56    0.40
   5   1   8   12.80    0.46
  -6  -1  -8    3.93    0.21
  -6  -1  -8    4.31    0.25
  -6  -1  -8    3.99    0.21
   6   1   8    3.65    0.22
   6   1   8    3.81    0.17
  -7  -1  -8    3.36    0.26
  -7  -1  -8    3.19    0.20
   7   1   8    3.37    0.16
   7   1   8    3.32    0.22
  -8  -1  -8    0.96    0.13
  -8  -1  -8    0.84    0.16
   8   1   8    0.77    0.15
  -9  -1  -8    1.41    0.21
  -9  -1  -8    1.46    0.17
   9   1   8    1.31    0.19
 -10  -1  -8    3.34    0.31
  10   1   8    2.75    0.28
 -11  -1  -8    0.56    0.19
  11   1   8    0.33    0.16
 -12  -1  -8    0.83    0.22
  12   1   8    0.80    0.21
   7  -2  -8    1.09    0.12
   6  -2  -8    2.81    0.16
   6  -2  -8    2.92    0.16
   5  -2  -8    3.63    0.15
   5  -2  -8    3.66    0.29
   4  -2  -8    3.36    0.26
   3  -2  -8    3.50    0.24
   2  -2  -8    2.38    0.19
   1  -2  -8    6.77    0.32
   0  -2  -8   14.39    0.52
  -1  -2  -8   19.78    0.67
  -1  -2  -8   19.73    0.60
  -2  -2  -8    3.45    0.15
  -2  -2  -8    3.76    0.18
  -2  -2  -8    3.36    0.14
  -2  -2  -8    3.59    0.20
  -3  -2  -8   25.98    0.81
  -3  -2  -8   26.26    0.80
  -3  -2  -8   25.29    0.77
  -3  -2  -8   24.59    0.77
   3   2   8   25.33    0.75
  -4  -2  -8    1.63    0.12
  -4  -2  -8    1.58    0.14
  -4  -2  -8    1.62    0.12
   4   2   8    1.59    0.12
   4   2   8    1.53    0.12
   4   2   8    1.57    0.12
  -5  -2  -8    1.35    0.12
  -5  -2  -8    1.48    0.13
  -5  -2  -8    1.57    0.16
   5   2   8    1.43    0.13
   5   2   8    1.37    0.13
   5   2   8    1.46    0.11
  -6  -2  -8    4.67    0.28
  -6  -2  -8    5.31    0.24
  -6  -2  -8    5.12    0.24
   6   2   8    4.95    0.22
   6   2   8    4.65    0.25
  -7  -2  -8    4.15    0.23
  -7  -2  -8    4.28    0.28
   7   2   8    4.07    0.25
   7   2   8    4.03    0.20
  -8  -2  -8    3.49    0.22
  -8  -2  -8    3.71    0.29
   8   2   8    3.23    0.25
  -9  -2  -8   -0.10    0.12
  -9  -2  -8    0.02    0.07
   9   2   8    0.06    0.12
 -10  -2  -8    2.08    0.25
  10   2   8    1.89    0.23
 -11  -2  -8    1.05    0.22
  11   2   8    0.90    0.20
 -12  -2  -8    1.33    0.24
  12   2   8    1.14    0.22
   7  -3  -8    0.77    0.10
   6  -3  -8    0.39    0.07
   6  -3  -8    0.44    0.07
   5  -3  -8    0.32    0.12
   4  -3  -8    2.71    0.24
   3  -3  -8    7.09    0.36
   2  -3  -8    4.88    0.28
   1  -3  -8    9.73    0.41
   0  -3  -8    7.19    0.33
  -1  -3  -8   32.39    1.02
  -1  -3  -8   30.88    0.94
  -2  -3  -8   84.09    2.41
  -2  -3  -8   79.64    2.32
  -2  -3  -8   83.50    2.35
  -2  -3  -8   78.31    2.32
  -3  -3  -8    4.37    0.19
  -3  -3  -8    4.54    0.22
  -3  -3  -8    4.15    0.19
  -3  -3  -8    4.33    0.23
   3   3   8    4.85    0.23
  -4  -3  -8   18.09    0.58
  -4  -3  -8   17.76    0.58
  -4  -3  -8   17.40    0.60
   4   3   8   17.78    0.60
   4   3   8   18.54    0.57
   4   3   8   17.53    0.57
  -5  -3  -8    3.19    0.22
  -5  -3  -8    2.94    0.18
  -5  -3  -8    3.22    0.18
   5   3   8    3.07    0.18
   5   3   8    3.17    0.18
  -6  -3  -8    2.36    0.17
  -6  -3  -8    2.57    0.22
   6   3   8    2.46    0.16
   6   3   8    2.49    0.19
  -7  -3  -8    2.34    0.22
  -7  -3  -8    2.34    0.18
   7   3   8    2.36    0.21
   7   3   8    2.25    0.16
  -8  -3  -8    2.40    0.24
  -8  -3  -8    2.77    0.20
   8   3   8    2.62    0.24
  -9  -3  -8    0.55    0.16
  -9  -3  -8    0.16    0.09
   9   3   8    0.12    0.12
 -10  -3  -8    1.83    0.25
  10   3   8    1.77    0.23
 -11  -3  -8    2.05    0.27
  11   3   8    1.45    0.24
 -12  -3  -8    0.19    0.19
  12   3   8    0.45    0.19
   7  -4  -8    0.08    0.07
   6  -4  -8    0.03    0.06
   6  -4  -8    0.00    0.05
   5  -4  -8    0.04    0.11
   4  -4  -8    3.64    0.29
   3  -4  -8    3.13    0.26
   2  -4  -8    4.26    0.28
   1  -4  -8    3.64    0.24
   0  -4  -8   13.63    0.53
  -1  -4  -8    0.88    0.09
  -1  -4  -8    0.77    0.07
  -1  -4  -8    0.85    0.07
  -1  -4  -8    0.90    0.13
  -2  -4  -8    7.05    0.26
  -2  -4  -8    7.39    0.33
  -2  -4  -8    7.32    0.29
  -2  -4  -8    6.57    0.25
  -3  -4  -8   15.61    0.51
  -3  -4  -8   15.26    0.51
  -3  -4  -8   16.18    0.54
   3   4   8   15.98    0.56
  -4  -4  -8   10.84    0.41
  -4  -4  -8   11.92    0.44
  -4  -4  -8   12.13    0.41
   4   4   8   11.67    0.44
   4   4   8   11.60    0.40
  -5  -4  -8    4.99    0.28
  -5  -4  -8    5.01    0.24
  -5  -4  -8    4.75    0.24
   5   4   8    4.72    0.24
   5   4   8    5.06    0.25
  -6  -4  -8    2.08    0.17
  -6  -4  -8    2.31    0.21
   6   4   8    2.32    0.18
   6   4   8    2.05    0.18
  -7  -4  -8    0.87    0.15
  -7  -4  -8    1.04    0.13
   7   4   8    0.73    0.13
  -8  -4  -8    3.43    0.23
  -8  -4  -8    2.94    0.27
   8   4   8    2.91    0.24
  -9  -4  -8    6.64    0.40
   9   4   8    6.51    0.37
 -10  -4  -8    0.14    0.16
  10   4   8   -0.07    0.13
 -11  -4  -8    0.84    0.22
  11   4   8    0.89    0.21
 -12  -4  -8    0.03    0.18
  12   4   8    0.29    0.18
   6  -5  -8    2.24    0.15
   6  -5  -8    2.57    0.15
   5  -5  -8    0.12    0.05
   5  -5  -8    0.10    0.05
   4  -5  -8    0.48    0.15
   3  -5  -8    1.55    0.20
   2  -5  -8    2.52    0.23
   1  -5  -8    5.85    0.33
   0  -5  -8    3.02    0.13
   0  -5  -8    3.01    0.13
   0  -5  -8    3.00    0.23
  -1  -5  -8    3.12    0.14
  -1  -5  -8    2.94    0.14
  -1  -5  -8    3.26    0.23
  -2  -5  -8    2.09    0.13
  -2  -5  -8    2.04    0.13
  -2  -5  -8    2.10    0.16
  -2  -5  -8    2.09    0.19
  -3  -5  -8   21.04    0.68
  -3  -5  -8   21.62    0.68
  -3  -5  -8   21.45    0.70
  -4  -5  -8   14.83    0.51
  -4  -5  -8   14.75    0.51
  -4  -5  -8   15.75    0.55
   4   5   8   14.19    0.49
  -5  -5  -8   19.28    0.66
  -5  -5  -8   15.76    0.71
  -5  -5  -8   18.91    0.63
   5   5   8   18.75    0.61
  -6  -5  -8    2.82    0.24
  -6  -5  -8    2.75    0.20
   6   5   8    2.60    0.21
  -7  -5  -8   10.35    0.42
  -7  -5  -8   10.02    0.46
   7   5   8    9.48    0.42
  -8  -5  -8    3.44    0.30
  -8  -5  -8    3.68    0.24
   8   5   8    3.14    0.27
  -9  -5  -8    0.14    0.15
   9   5   8   -0.03    0.12
 -10  -5  -8    0.46    0.19
  10   5   8    0.65    0.18
 -11  -5  -8   -0.10    0.17
  11   5   8    0.18    0.17
   6  -6  -8    0.77    0.10
   5  -6  -8    2.63    0.15
   5  -6  -8    2.78    0.15
   4  -6  -8    0.86    0.08
   4  -6  -8    0.60    0.07
   3  -6  -8    2.17    0.12
   3  -6  -8    2.27    0.26
   3  -6  -8    2.22    0.12
   2  -6  -8    2.86    0.26
   2  -6  -8    2.84    0.13
   2  -6  -8    2.77    0.13
   1  -6  -8    1.73    0.21
   1  -6  -8    1.98    0.11
   1  -6  -8    1.94    0.11
   0  -6  -8    3.30    0.15
   0  -6  -8    3.60    0.27
   0  -6  -8    3.24    0.15
  -1  -6  -8    5.62    0.23
  -1  -6  -8    5.82    0.23
  -1  -6  -8    6.52    0.34
  -2  -6  -8    2.64    0.19
  -2  -6  -8    2.43    0.15
  -2  -6  -8    2.27    0.15
  -2  -6  -8    2.78    0.23
  -3  -6  -8    2.04    0.14
  -3  -6  -8    1.72    0.14
  -3  -6  -8    1.93    0.17
   3   6   8    1.74    0.11
  -4  -6  -8    2.84    0.18
  -4  -6  -8    2.52    0.17
  -4  -6  -8    2.74    0.21
   4   6   8    2.66    0.17
  -5  -6  -8    6.05    0.33
  -5  -6  -8    5.70    0.28
   5   6   8    5.96    0.28
  -6  -6  -8    7.06    0.33
  -6  -6  -8    6.86    0.37
  -7  -6  -8    0.08    0.08
  -7  -6  -8    0.12    0.13
  -8  -6  -8    0.94    0.15
  -8  -6  -8    0.93    0.19
  -9  -6  -8    0.76    0.20
 -10  -6  -8    0.27    0.19
 -11  -6  -8   -0.10    0.17
  11   6   8    0.47    0.19
   5  -7  -8    0.70    0.10
   5  -7  -8    0.61    0.13
   4  -7  -8    1.15    0.11
   4  -7  -8    0.98    0.10
   3  -7  -8    2.81    0.30
   3  -7  -8    2.47    0.15
   3  -7  -8    2.56    0.15
   2  -7  -8    0.05    0.11
   2  -7  -8    0.09    0.05
   2  -7  -8    0.08    0.05
   1  -7  -8    3.99    0.19
   1  -7  -8    4.40    0.32
   1  -7  -8    3.95    0.19
   0  -7  -8    3.62    0.18
   0  -7  -8    3.74    0.18
   0  -7  -8    4.12    0.30
  -1  -7  -8    3.72    0.29
  -1  -7  -8    3.40    0.18
  -1  -7  -8    3.81    0.19
  -2  -7  -8    4.70    0.23
  -2  -7  -8    5.26    0.24
  -3  -7  -8    4.45    0.23
  -3  -7  -8    4.82    0.27
  -3  -7  -8    4.33    0.26
   3   7   8    4.34    0.19
  -4  -7  -8    7.55    0.36
  -4  -7  -8    7.85    0.33
  -5  -7  -8    6.58    0.36
  -5  -7  -8    6.83    0.32
  -6  -7  -8    4.67    0.31
  -6  -7  -8    4.51    0.27
  -7  -7  -8    2.91    0.23
  -7  -7  -8    3.14    0.28
  -8  -7  -8    2.30    0.27
  -8  -7  -8    2.16    0.24
  -9  -7  -8    3.08    0.32
 -10  -7  -8    0.66    0.21
   4  -8  -8    0.09    0.07
   3  -8  -8    0.37    0.08
   3  -8  -8    0.43    0.08
   2  -8  -8    3.66    0.42
   2  -8  -8    3.82    0.20
   2  -8  -8    4.01    0.20
   1  -8  -8    0.07    0.06
   1  -8  -8   -0.02    0.05
   1  -8  -8   -0.01    0.13
   0  -8  -8    4.31    0.22
   0  -8  -8    4.01    0.21
   0  -8  -8    4.65    0.34
   0  -8  -8    4.15    0.21
  -1  -8  -8    5.61    0.25
  -1  -8  -8    5.70    0.37
  -1  -8  -8    5.55    0.29
  -2  -8  -8    1.10    0.13
  -3  -8  -8    1.24    0.14
  -4  -8  -8    2.60    0.20
  -4  -8  -8    2.52    0.23
  -5  -8  -8    0.66    0.12
  -5  -8  -8    0.62    0.15
  -6  -8  -8    2.58    0.22
  -6  -8  -8    2.82    0.27
  -7  -8  -8    0.31    0.11
  -7  -8  -8    0.57    0.18
  -8  -8  -8    0.21    0.16
  -9  -8  -8    0.49    0.20
 -10  -8  -8    0.58    0.21
   3  -9  -8    0.77    0.11
   2  -9  -8    0.69    0.11
   1  -9  -8    2.49    0.18
   0  -9  -8    1.00    0.20
   0  -9  -8    1.04    0.12
  -1  -9  -8    1.44    0.14
  -2  -9  -8    2.26    0.19
  -3  -9  -8    0.26    0.09
  -4  -9  -8    0.24    0.10
  -5  -9  -8    4.46    0.33
  -5  -9  -8    4.77    0.28
  -6  -9  -8    1.87    0.24
  -6  -9  -8    2.23    0.22
  -7  -9  -8    3.12    0.32
  -7  -9  -8    3.93    0.47
  -8  -9  -8    2.15    0.28
  -9  -9  -8    1.12    0.24
   2 -10  -8    0.97    0.13
   1 -10  -8    0.08    0.08
   1 -10  -8    0.23    0.10
   0 -10  -8    0.73    0.12
  -1 -10  -8    1.86    0.18
  -2 -10  -8    2.16    0.20
  -3 -10  -8    2.49    0.22
  -4 -10  -8    1.29    0.17
  -5 -10  -8    0.01    0.09
  -6 -10  -8    3.38    0.27
  -6 -10  -8    3.73    0.34
  -7 -10  -8    1.69    0.26
   0 -11  -8    0.10    0.09
  -1 -11  -8    1.20    0.16
  -2 -11  -8    1.47    0.18
  -3 -11  -8    0.37    0.11
  -4 -11  -8    0.60    0.14
  -5 -11  -8    0.84    0.16
   0  10  -9    0.98    0.25
  -1  10  -9    2.26    0.29
  -1  10  -9    1.46    0.27
   1 -10   9    2.08    0.29
  -2  10  -9    0.83    0.21
  -2  10  -9    0.55    0.21
   2 -10   9    1.09    0.22
   2 -10   9    0.94    0.23
  -3  10  -9    2.93    0.33
  -3  10  -9    2.54    0.32
   3 -10   9    2.87    0.30
   3 -10   9    2.36    0.29
  -4  10  -9    1.67    0.28
  -4  10  -9    1.84    0.29
   4 -10   9    1.52    0.25
   4 -10   9    1.71    0.26
  -5  10  -9    0.52    0.23
   5 -10   9    0.37    0.17
   1   9  -9    1.36    0.25
  -1  -9   9    1.80    0.22
  -1  -9   9    1.39    0.25
   0   9  -9    1.86    0.28
   0   9  -9    2.19    0.26
   0  -9   9    1.81    0.26
   0  -9   9    1.97    0.23
  -1   9  -9    1.53    0.25
  -1   9  -9    1.06    0.22
   1  -9   9    1.21    0.22
   1  -9   9    1.46    0.21
  -2   9  -9    2.54    0.29
  -2   9  -9    2.32    0.29
   2  -9   9    2.09    0.25
   2  -9   9    2.34    0.29
  -3   9  -9    2.18    0.29
  -3   9  -9    1.75    0.25
   3  -9   9    2.00    0.26
   3  -9   9    1.63    0.23
  -4   9  -9    4.00    0.37
  -4   9  -9    4.63    0.39
   4  -9   9    4.58    0.36
   4  -9   9    4.27    0.35
  -5   9  -9    1.86    0.27
  -5   9  -9    1.28    0.27
   5  -9   9    2.23    0.28
   5  -9   9    1.43    0.22
  -6   9  -9    2.57    0.32
  -6   9  -9    2.95    0.32
   6  -9   9    3.18    0.32
   6  -9   9    2.70    0.29
  -7   9  -9    4.86    0.43
  -7   9  -9    4.83    0.44
   7  -9   9    5.08    0.41
   3   8  -9    0.19    0.12
   3   8  -9    0.05    0.17
   2   8  -9    0.70    0.15
   2   8  -9    0.91    0.21
  -2  -8   9    0.94    0.22
  -2  -8   9    1.22    0.17
   1   8  -9    1.19    0.17
   1   8  -9    1.32    0.24
  -1  -8   9    1.04    0.22
  -1  -8   9    1.17    0.17
   0   8  -9    0.66    0.13
   0   8  -9    0.65    0.17
   0   8  -9    0.49    0.19
   0  -8   9    0.81    0.16
   0  -8   9    0.58    0.18
  -1   8  -9    1.44    0.18
  -1   8  -9    1.73    0.24
  -1   8  -9    1.95    0.26
   1  -8   9    1.97    0.26
   1  -8   9    1.86    0.22
  -2   8  -9    3.31    0.31
  -2   8  -9    3.87    0.35
  -2   8  -9    3.19    0.25
   2  -8   9    3.72    0.33
   2  -8   9    3.43    0.28
  -3   8  -9    1.20    0.21
  -3   8  -9    1.43    0.24
   3  -8   9    1.15    0.20
   3  -8   9    1.19    0.19
  -4   8  -9    1.79    0.26
  -4   8  -9    1.57    0.23
   4  -8   9    1.41    0.21
   4  -8   9    1.69    0.23
  -5   8  -9    2.57    0.29
  -5   8  -9    2.81    0.30
   5  -8   9    2.76    0.28
   5  -8   9    2.69    0.27
  -6   8  -9    0.41    0.20
  -6   8  -9    0.37    0.18
   6  -8   9    0.12    0.13
   6  -8   9    0.45    0.17
  -7   8  -9    0.45    0.19
  -7   8  -9    0.56    0.22
   7  -8   9    0.54    0.18
   7  -8   9    0.48    0.15
  -8   8  -9    0.46    0.20
  -8   8  -9    0.45    0.22
   8  -8   9    0.58    0.20
  -9   8  -9    0.97    0.25
   3   7  -9    2.50    0.23
   3   7  -9    2.22    0.26
  -3  -7   9    2.36    0.30
   2   7  -9    0.69    0.13
   2   7  -9    0.72    0.19
  -2  -7   9    0.73    0.13
  -2  -7   9    0.36    0.17
   1   7  -9    1.60    0.18
   1   7  -9    1.73    0.23
  -1  -7   9    1.69    0.24
  -1  -7   9    1.76    0.18
   0   7  -9    2.96    0.28
   0   7  -9    3.57    0.29
   0   7  -9    3.24    0.24
   0  -7   9    3.21    0.24
   0  -7   9    3.22    0.30
  -1   7  -9    0.32    0.17
  -1   7  -9    0.23    0.11
  -1   7  -9    0.42    0.15
   1  -7   9    0.34    0.12
   1  -7   9    0.35    0.15
  -2   7  -9    6.95    0.41
  -2   7  -9    6.67    0.39
  -2   7  -9    7.35    0.36
   2  -7   9    7.19    0.37
   2  -7   9    6.82    0.41
  -3   7  -9    7.22    0.36
  -3   7  -9    8.32    0.44
  -3   7  -9    7.38    0.42
   3  -7   9    6.98    0.38
   3  -7   9    7.55    0.42
  -4   7  -9    5.59    0.37
  -4   7  -9    6.02    0.39
  -4   7  -9    5.66    0.32
   4  -7   9    6.04    0.36
   4  -7   9    6.00    0.36
  -5   7  -9    4.99    0.38
  -5   7  -9    5.37    0.37
   5  -7   9    4.65    0.32
   5  -7   9    4.59    0.34
  -6   7  -9    5.05    0.40
  -6   7  -9    5.56    0.38
   6  -7   9    5.11    0.36
   6  -7   9    5.16    0.33
  -7   7  -9    1.38    0.25
  -7   7  -9    1.25    0.22
   7  -7   9    0.82    0.19
   7  -7   9    0.95    0.16
  -8   7  -9    1.74    0.27
  -8   7  -9    1.62    0.26
   8  -7   9    1.88    0.26
  -9   7  -9    1.42    0.27
  -9   7  -9    1.56    0.27
   9  -7   9    1.37    0.25
 -10   7  -9    1.65    0.28
   4   6  -9    1.15    0.19
   4   6  -9    1.31    0.17
  -4  -6   9    1.69    0.28
   3   6  -9    1.43    0.20
   3   6  -9    1.52    0.17
  -3  -6   9    1.13    0.22
   2   6  -9    1.19    0.15
   2   6  -9    1.32    0.20
  -2  -6   9    1.16    0.15
  -2  -6   9    1.35    0.22
   1   6  -9    3.05    0.22
   1   6  -9    3.53    0.28
  -1  -6   9    3.41    0.21
  -1  -6   9    2.88    0.30
   0   6  -9    4.58    0.27
   0   6  -9    4.73    0.32
   0   6  -9    5.00    0.31
   0  -6   9    4.29    0.34
   0  -6   9    4.70    0.26
  -1   6  -9   12.03    0.48
  -1   6  -9   11.85    0.52
  -1   6  -9   12.44    0.52
   1  -6   9   12.35    0.48
   1  -6   9   11.89    0.55
  -2   6  -9    1.66    0.22
  -2   6  -9    1.64    0.18
  -2   6  -9    1.61    0.20
   2  -6   9    1.10    0.19
   2  -6   9    1.48    0.18
  -3   6  -9    5.19    0.34
  -3   6  -9    5.42    0.30
  -3   6  -9    5.51    0.36
   3  -6   9    5.55    0.31
   3  -6   9    5.42    0.34
  -4   6  -9   10.59    0.44
  -4   6  -9   10.81    0.50
  -4   6  -9   10.20    0.48
   4  -6   9   10.12    0.48
   4  -6   9   10.55    0.46
  -5   6  -9    9.04    0.41
  -5   6  -9    8.81    0.46
  -5   6  -9    9.69    0.48
   5  -6   9    9.51    0.44
   5  -6   9    9.05    0.44
  -6   6  -9    2.13    0.26
  -6   6  -9    2.44    0.28
   6  -6   9    2.13    0.24
   6  -6   9    2.37    0.22
  -7   6  -9    2.57    0.29
  -7   6  -9    2.03    0.25
   7  -6   9    2.33    0.27
   7  -6   9    2.39    0.22
  -8   6  -9    0.65    0.21
  -8   6  -9    0.56    0.18
   8  -6   9    0.54    0.17
  -9   6  -9    1.41    0.24
  -9   6  -9    1.45    0.26
   9  -6   9    1.14    0.22
 -10   6  -9    1.03    0.23
 -10   6  -9    1.10    0.26
  10  -6   9    1.36    0.24
   5   5  -9    1.16    0.15
  -5  -5   9    1.97    0.30
   4   5  -9    1.11    0.15
  -4  -5   9    1.19    0.24
   3   5  -9    3.09    0.22
   3   5  -9    3.20    0.27
  -3  -5   9    4.11    0.37
   2   5  -9    1.51    0.16
   2   5  -9    1.47    0.19
  -2  -5   9    1.74    0.25
   1   5  -9    4.35    0.25
   1   5  -9    4.82    0.30
  -1  -5   9    4.48    0.21
  -1  -5   9    4.69    0.35
   0   5  -9    4.92    0.26
   0   5  -9    5.25    0.32
   0   5  -9    5.03    0.30
   0  -5   9    4.95    0.34
   0  -5   9    5.19    0.25
  -1   5  -9   -0.03    0.10
  -1   5  -9   -0.19    0.12
  -1   5  -9    0.00    0.07
   1  -5   9   -0.03    0.11
   1  -5   9    0.03    0.08
  -2   5  -9    2.38    0.20
  -2   5  -9    2.08    0.21
  -2   5  -9    2.50    0.24
   2  -5   9    2.38    0.24
   2  -5   9    2.45    0.20
  -3   5  -9    0.82    0.16
  -3   5  -9    1.01    0.18
  -3   5  -9    1.02    0.14
   3  -5   9    0.66    0.15
   3  -5   9    0.88    0.15
  -4   5  -9    0.50    0.14
  -4   5  -9    0.28    0.15
  -4   5  -9    0.43    0.11
   4  -5   9    0.50    0.13
   4  -5   9    0.38    0.12
  -5   5  -9    2.30    0.20
  -5   5  -9    3.04    0.28
  -5   5  -9    2.44    0.24
   5  -5   9    2.97    0.23
   5  -5   9    2.73    0.24
  -6   5  -9    2.86    0.26
  -6   5  -9    3.45    0.31
  -6   5  -9    3.35    0.23
   6  -5   9    3.23    0.27
   6  -5   9    3.03    0.23
  -7   5  -9    2.32    0.26
  -7   5  -9    2.15    0.26
   7  -5   9    2.50    0.20
   7  -5   9    2.38    0.24
  -8   5  -9    4.76    0.37
  -8   5  -9    4.62    0.37
   8  -5   9    4.25    0.33
  -9   5  -9    0.72    0.20
  -9   5  -9    0.84    0.22
   9  -5   9    1.05    0.20
 -10   5  -9    0.36    0.20
 -10   5  -9    0.37    0.19
  10  -5   9    0.30    0.18
 -11   5  -9    0.61    0.22
 -11   5  -9    0.90    0.24
  11  -5   9    0.80    0.22
   5   4  -9    0.59    0.12
  -5  -4   9    0.73    0.21
   4   4  -9    1.83    0.17
  -4  -4   9    2.13    0.27
   3   4  -9    8.94    0.38
  -3  -4   9   10.44    0.54
   2   4  -9    4.81    0.25
  -2  -4   9    5.20    0.37
   1   4  -9    3.46    0.21
  -1  -4   9    3.71    0.30
   0   4  -9    3.27    0.26
   0   4  -9    3.10    0.23
   0   4  -9    3.34    0.20
   0  -4   9    3.58    0.28
   0  -4   9    3.31    0.16
  -1   4  -9    9.79    0.42
  -1   4  -9    9.43    0.38
  -1   4  -9    9.90    0.41
   1  -4   9    9.78    0.46
   1  -4   9    9.65    0.36
  -2   4  -9    5.81    0.31
  -2   4  -9    5.57    0.27
  -2   4  -9    5.61    0.29
   2  -4   9    5.27    0.32
   2  -4   9    5.22    0.26
  -3   4  -9    7.33    0.32
  -3   4  -9    7.48    0.36
  -3   4  -9    6.91    0.36
   3  -4   9    7.55    0.37
   3  -4   9    7.41    0.33
  -4   4  -9    3.29    0.27
  -4   4  -9    3.33    0.21
  -4   4  -9    3.33    0.25
   4  -4   9    3.13    0.24
   4  -4   9    3.88    0.24
  -5   4  -9    0.85    0.16
  -5   4  -9    1.03    0.13
  -5   4  -9    0.96    0.18
   5  -4   9    1.05    0.14
   5  -4   9    1.12    0.16
  -6   4  -9   11.74    0.52
  -6   4  -9   12.55    0.53
  -6   4  -9   12.44    0.48
   6  -4   9   12.02    0.47
   6  -4   9   12.28    0.50
  -7   4  -9   11.20    0.46
  -7   4  -9   11.04    0.51
  -7   4  -9   11.64    0.52
   7  -4   9   10.52    0.48
   7  -4   9   10.46    0.42
  -8   4  -9    0.94    0.20
  -8   4  -9    1.16    0.21
   8  -4   9    1.14    0.19
  -9   4  -9    2.26    0.27
  -9   4  -9    1.75    0.25
   9  -4   9    1.91    0.24
 -10   4  -9    1.57    0.26
 -10   4  -9    1.53    0.24
  10  -4   9    1.50    0.23
 -11   4  -9    0.07    0.19
 -11   4  -9    0.12    0.18
  11  -4   9   -0.15    0.15
   6   3  -9    0.68    0.12
  -6  -3   9    0.69    0.22
   5   3  -9    0.96    0.13
  -5  -3   9    1.08    0.22
   4   3  -9    1.62    0.15
  -4  -3   9    1.88    0.27
   3   3  -9    6.61    0.30
  -3  -3   9    8.23    0.46
   2   3  -9    8.70    0.34
  -2  -3   9    9.61    0.48
   1   3  -9    4.58    0.23
   1   3  -9    5.42    0.24
  -1  -3   9    6.12    0.36
   0   3  -9   17.72    0.59
   0   3  -9   16.20    0.56
   0   3  -9   15.99    0.56
   0  -3   9   17.80    0.68
  -1   3  -9    9.34    0.35
  -1   3  -9    9.44    0.38
  -1   3  -9    9.23    0.39
  -1   3  -9    9.25    0.35
   1  -3   9    9.48    0.44
   1  -3   9    9.53    0.32
  -2   3  -9    5.43    0.20
  -2   3  -9    5.61    0.25
  -2   3  -9    5.64    0.30
  -2   3  -9    5.68    0.25
  -2   3  -9    5.58    0.28
   2  -3   9    5.70    0.25
   2  -3   9    6.12    0.32
  -3   3  -9    6.37    0.28
  -3   3  -9    6.50    0.31
  -3   3  -9    5.95    0.32
  -3   3  -9    6.01    0.28
   3  -3   9    6.41    0.33
   3  -3   9    6.25    0.28
  -4   3  -9   10.29    0.43
  -4   3  -9    9.73    0.42
  -4   3  -9    9.55    0.38
   4  -3   9    9.80    0.41
   4  -3   9    9.61    0.39
  -5   3  -9    6.03    0.34
  -5   3  -9    6.10    0.29
  -5   3  -9    6.04    0.32
   5  -3   9    5.59    0.30
   5  -3   9    5.51    0.28
  -6   3  -9    1.33    0.15
  -6   3  -9    1.32    0.17
   6  -3   9    1.29    0.17
   6  -3   9    1.21    0.13
  -7   3  -9    0.34    0.14
  -7   3  -9   -0.04    0.08
   7  -3   9    0.20    0.12
   7  -3   9    0.08    0.07
  -8   3  -9    8.59    0.44
  -8   3  -9    6.97    0.42
   8  -3   9    7.59    0.40
  -9   3  -9    1.81    0.24
   9  -3   9    1.60    0.22
 -10   3  -9    0.48    0.18
  10  -3   9    0.35    0.16
 -11   3  -9    0.74    0.22
  11  -3   9    1.00    0.22
 -12   3  -9    0.37    0.21
 -12   3  -9    0.60    0.24
   6   2  -9    1.04    0.13
  -6  -2   9    0.95    0.23
   5   2  -9    0.65    0.11
  -5  -2   9    0.84    0.21
   4   2  -9    0.39    0.08
   4   2  -9    0.31    0.09
  -4  -2   9    0.44    0.17
   3   2  -9    0.13    0.06
   3   2  -9    0.06    0.06
  -3  -2   9    0.08    0.13
   2   2  -9    4.56    0.21
   2   2  -9    5.00    0.21
  -2  -2   9    4.87    0.34
   1   2  -9    5.43    0.23
   1   2  -9    5.41    0.23
  -1  -2   9    5.83    0.34
   0   2  -9    7.51    0.34
   0   2  -9    7.21    0.28
   0   2  -9    7.10    0.28
   0  -2   9    7.85    0.39
  -1   2  -9    6.07    0.25
  -1   2  -9    6.29    0.28
  -1   2  -9    6.17    0.25
  -1   2  -9    6.03    0.25
   1  -2   9    6.48    0.34
  -2   2  -9    9.08    0.35
  -2   2  -9    9.30    0.35
  -2   2  -9   10.19    0.39
  -2   2  -9    9.69    0.32
  -2   2  -9    9.06    0.37
   2  -2   9    9.13    0.32
   2  -2   9    9.45    0.41
  -3   2  -9   14.30    0.50
  -3   2  -9   15.25    0.53
  -3   2  -9   14.72    0.50
   3  -2   9   14.82    0.55
   3  -2   9   14.48    0.49
  -4   2  -9   12.77    0.47
  -4   2  -9   13.01    0.50
  -4   2  -9   13.54    0.47
   4  -2   9   13.51    0.47
   4  -2   9   13.38    0.50
  -5   2  -9    4.04    0.25
  -5   2  -9    3.47    0.21
   5  -2   9    3.71    0.23
   5  -2   9    3.43    0.21
  -6   2  -9    4.41    0.28
  -6   2  -9    4.23    0.24
   6  -2   9    4.62    0.22
   6  -2   9    4.66    0.27
  -7   2  -9    5.61    0.29
  -7   2  -9    5.34    0.33
   7  -2   9    5.14    0.30
  -8   2  -9    1.82    0.18
  -8   2  -9    1.67    0.21
   8  -2   9    1.53    0.20
  -9   2  -9    3.05    0.29
   9  -2   9    2.64    0.26
 -10   2  -9    0.80    0.20
  10  -2   9    0.79    0.18
 -11   2  -9    0.08    0.16
  11  -2   9    0.40    0.18
 -12   2  -9    1.72    0.28
  12  -2   9    2.19    0.29
   6   1  -9    0.60    0.10
  -6  -1   9    0.84    0.22
   5   1  -9    1.24    0.12
   5   1  -9    0.97    0.11
  -5  -1   9    1.22    0.24
   4   1  -9    0.11    0.06
   4   1  -9    0.11    0.06
  -4  -1   9   -0.01    0.14
   3   1  -9    2.61    0.15
   3   1  -9    2.69    0.15
  -3  -1   9    2.88    0.28
   2   1  -9    0.90    0.08
   2   1  -9    0.68    0.08
  -2  -1   9    0.85    0.17
   1   1  -9    2.47    0.19
   1   1  -9    2.59    0.13
   1   1  -9    2.32    0.13
   1   1  -9    2.61    0.13
  -1  -1   9    2.72    0.24
   0   1  -9   14.53    0.47
   0   1  -9   14.93    0.52
   0   1  -9   14.39    0.47
   0  -1   9   16.20    0.61
  -1   1  -9   14.55    0.48
  -1   1  -9   15.04    0.49
  -1   1  -9   15.28    0.51
  -1   1  -9   15.12    0.51
   1  -1   9   15.56    0.59
  -2   1  -9    8.07    0.31
  -2   1  -9    8.54    0.33
  -2   1  -9    9.12    0.31
  -2   1  -9    8.52    0.31
   2  -1   9    8.05    0.37
  -3   1  -9    7.13    0.29
  -3   1  -9    7.81    0.32
  -3   1  -9    7.91    0.30
   3  -1   9    8.18    0.35
   3  -1   9    7.67    0.28
  -4   1  -9    3.35    0.19
  -4   1  -9    3.65    0.19
  -4   1  -9    3.62    0.22
   4  -1   9    3.59    0.21
   4  -1   9    3.52    0.20
  -5   1  -9    0.92    0.14
  -5   1  -9    0.87    0.11
  -5   1  -9    0.91    0.11
   5  -1   9    0.93    0.11
   5  -1   9    0.78    0.12
  -6   1  -9    1.06    0.16
  -6   1  -9    0.95    0.13
   6  -1   9    0.90    0.13
   6  -1   9    1.11    0.11
  -7   1  -9    1.32    0.18
  -7   1  -9    1.45    0.16
   7  -1   9    1.44    0.17
  -8   1  -9    0.24    0.13
  -8   1  -9    0.29    0.09
   8  -1   9    0.15    0.12
  -9   1  -9    1.29    0.21
   9  -1   9    1.40    0.20
 -10   1  -9    1.11    0.21
  10  -1   9    1.23    0.20
 -11   1  -9    1.17    0.22
  11  -1   9    1.21    0.22
 -12   1  -9   -0.16    0.17
  12  -1   9    0.25    0.18
   6   0  -9    1.33    0.13
   5   0  -9    3.16    0.17
   5   0  -9    2.64    0.16
  -5   0   9    3.04    0.33
   4   0  -9    6.42    0.25
   4   0  -9    6.79    0.25
  -4   0   9    7.52    0.45
   3   0  -9    2.84    0.14
   3   0  -9    3.31    0.25
   3   0  -9    3.39    0.14
  -3   0   9    3.44    0.30
   2   0  -9   11.82    0.38
   2   0  -9   12.26    0.49
  -2   0   9   12.34    0.55
   1   0  -9    7.63    0.26
   1   0  -9    7.79    0.35
  -1   0   9    8.37    0.41
   0   0  -9    3.74    0.15
   0   0  -9    3.89    0.21
   0   0  -9    3.65    0.15
   0   0   9    4.07    0.27
  -1   0  -9   24.55    0.72
  -1   0  -9   22.08    0.69
  -1   0  -9   23.50    0.74
  -1   0  -9   22.39    0.70
   1   0   9   22.93    0.81
  -2   0  -9   14.95    0.50
  -2   0  -9   16.00    0.51
  -2   0  -9   14.50    0.48
  -2   0  -9   14.54    0.48
   2   0   9   15.31    0.57
  -3   0  -9    5.23    0.22
  -3   0  -9    5.44    0.22
  -3   0  -9    5.75    0.21
  -3   0  -9    5.26    0.25
   3   0   9    5.21    0.20
   3   0   9    5.01    0.27
  -4   0  -9   22.35    0.72
  -4   0  -9   22.66    0.72
  -4   0  -9   22.76    0.75
   4   0   9   22.75    0.71
   4   0   9   23.46    0.75
  -5   0  -9   14.85    0.51
  -5   0  -9   14.77    0.51
  -5   0  -9   14.81    0.54
   5   0   9   14.06    0.51
   5   0   9   15.16    0.51
  -6   0  -9    2.52    0.22
  -6   0  -9    2.90    0.19
   6   0   9    2.88    0.20
  -7   0  -9    6.88    0.35
  -7   0  -9    6.17    0.30
   7   0   9    5.88    0.31
  -8   0  -9    6.19    0.36
  -8   0  -9    6.16    0.31
   8   0   9    6.37    0.34
  -9   0  -9    7.86    0.44
  -9   0  -9    8.80    0.45
   9   0   9    7.85    0.41
 -10   0  -9    3.27    0.32
  10   0   9    2.81    0.28
 -11   0  -9    1.36    0.24
  11   0   9    1.13    0.21
 -12   0  -9    0.93    0.23
  12   0   9    0.64    0.20
   6  -1  -9   -0.10    0.06
   6  -1  -9   -0.07    0.06
   5  -1  -9    0.56    0.15
   5  -1  -9    0.54    0.08
   5  -1  -9    0.47    0.07
   4  -1  -9    0.62    0.14
   3  -1  -9    3.26    0.25
  -3   1   9    4.16    0.34
   2  -1  -9    1.43    0.17
  -2   1   9    1.67    0.22
   1  -1  -9    2.33    0.19
  -1   1   9    2.34    0.24
   0  -1  -9    4.66    0.25
   0   1   9    4.98    0.30
  -1  -1  -9    5.24    0.19
  -1  -1  -9    5.61    0.20
  -1  -1  -9    5.57    0.26
  -1  -1  -9    5.33    0.24
   1   1   9    5.89    0.31
  -2  -1  -9    4.73    0.19
  -2  -1  -9    4.65    0.19
  -2  -1  -9    5.01    0.22
  -2  -1  -9    5.11    0.23
   2   1   9    5.19    0.28
  -3  -1  -9   22.90    0.70
  -3  -1  -9   20.42    0.68
  -3  -1  -9   22.28    0.70
  -3  -1  -9   21.11    0.68
   3   1   9   22.55    0.74
  -4  -1  -9    1.87    0.14
  -4  -1  -9    2.09    0.17
  -4  -1  -9    1.97    0.14
   4   1   9    1.94    0.13
  -5  -1  -9   23.24    0.73
  -5  -1  -9   22.68    0.75
  -5  -1  -9   21.98    0.72
   5   1   9   21.63    0.72
  -6  -1  -9    6.68    0.33
  -6  -1  -9    6.25    0.28
   6   1   9    5.61    0.28
  -7  -1  -9    0.17    0.12
  -7  -1  -9    0.26    0.09
   7   1   9    0.18    0.10
  -8  -1  -9    0.04    0.07
  -8  -1  -9    0.03    0.12
   8   1   9   -0.01    0.10
  -9  -1  -9    0.01    0.08
  -9  -1  -9    0.17    0.14
   9   1   9    0.13    0.12
 -10  -1  -9    0.54    0.18
  10   1   9    0.81    0.18
 -11  -1  -9    0.11    0.16
  11   1   9    0.02    0.14
 -12  -1  -9   -0.22    0.16
  12   1   9   -0.07    0.16
   6  -2  -9    0.72    0.09
   6  -2  -9    0.54    0.08
   4  -2  -9    1.51    0.19
   3  -2  -9    1.07    0.16
   2  -2  -9    1.36    0.17
   1  -2  -9    3.94    0.25
   0  -2  -9    3.28    0.21
  -1  -2  -9    7.41    0.33
  -2  -2  -9    8.92    0.31
  -2  -2  -9    9.82    0.34
  -2  -2  -9    8.55    0.30
  -2  -2  -9    9.44    0.37
  -3  -2  -9    0.82    0.09
  -3  -2  -9    0.99    0.09
  -3  -2  -9    0.89    0.11
  -3  -2  -9    0.82    0.11
  -4  -2  -9   29.31    0.89
  -4  -2  -9   27.92    0.87
  -4  -2  -9   26.69    0.86
   4   2   9   28.01    0.84
  -5  -2  -9    6.04    0.27
  -5  -2  -9    6.17    0.30
  -5  -2  -9    6.32    0.27
   5   2   9    5.80    0.26
   5   2   9    6.32    0.25
  -6  -2  -9    9.28    0.41
  -6  -2  -9    9.97    0.38
   6   2   9    9.26    0.38
  -7  -2  -9    8.15    0.39
  -7  -2  -9    8.16    0.35
   7   2   9    7.81    0.36
  -8  -2  -9    2.44    0.25
  -8  -2  -9    2.23    0.19
   8   2   9    2.42    0.23
  -9  -2  -9   -0.09    0.12
  -9  -2  -9   -0.02    0.07
   9   2   9    0.05    0.12
 -10  -2  -9    2.51    0.29
  10   2   9    2.62    0.27
 -11  -2  -9    0.41    0.19
  11   2   9    0.47    0.17
 -12  -2  -9    1.08    0.24
  12   2   9    1.14    0.22
   6  -3  -9    0.93    0.09
   6  -3  -9    0.67    0.09
   4  -3  -9    0.24    0.11
   3  -3  -9    1.54    0.19
   2  -3  -9    3.13    0.24
   1  -3  -9    1.54    0.18
   0  -3  -9    1.51    0.17
  -1  -3  -9    3.50    0.14
  -1  -3  -9    3.91    0.23
  -2  -3  -9   23.21    0.73
  -2  -3  -9   24.34    0.77
  -2  -3  -9   26.26    0.82
  -2  -3  -9   23.10    0.73
  -3  -3  -9   13.16    0.44
  -3  -3  -9   14.56    0.50
  -3  -3  -9   12.64    0.44
  -3  -3  -9   13.40    0.47
  -4  -3  -9    2.09    0.18
  -4  -3  -9    1.99    0.14
  -4  -3  -9    2.12    0.14
   4   3   9    1.75    0.12
   4   3   9    2.22    0.16
  -5  -3  -9   10.74    0.42
  -5  -3  -9   10.29    0.39
  -5  -3  -9   10.33    0.39
   5   3   9   10.21    0.38
   5   3   9   10.36    0.39
  -6  -3  -9   16.10    0.57
  -6  -3  -9   17.14    0.61
   6   3   9   16.04    0.57
  -7  -3  -9    6.10    0.30
  -7  -3  -9    5.72    0.33
   7   3   9    5.92    0.30
  -8  -3  -9    7.40    0.40
  -8  -3  -9    6.63    0.32
   8   3   9    5.99    0.34
  -9  -3  -9    2.05    0.20
  -9  -3  -9    1.91    0.23
   9   3   9    1.78    0.21
 -10  -3  -9   -0.29    0.13
  10   3   9    0.06    0.13
 -11  -3  -9    2.98    0.33
  11   3   9    2.63    0.28
 -12  -3  -9    0.18    0.20
  12   3   9    0.07    0.15
   6  -4  -9    0.41    0.08
   4  -4  -9    3.13    0.28
   3  -4  -9    1.97    0.22
   2  -4  -9    6.84    0.37
   1  -4  -9    2.37    0.21
   0  -4  -9    6.28    0.33
  -1  -4  -9    1.71    0.18
  -1  -4  -9    1.37    0.09
  -1  -4  -9    1.52    0.09
  -2  -4  -9    4.53    0.19
  -2  -4  -9    4.85    0.27
  -2  -4  -9    4.34    0.19
  -3  -4  -9    3.05    0.16
  -3  -4  -9    3.28    0.17
  -3  -4  -9    3.45    0.20
  -4  -4  -9    0.69    0.12
  -4  -4  -9    0.64    0.09
  -4  -4  -9    0.78    0.10
   4   4   9    0.74    0.08
  -5  -4  -9    1.86    0.16
  -5  -4  -9    1.95    0.15
  -5  -4  -9    2.08    0.19
   5   4   9    1.74    0.19
   5   4   9    1.85    0.15
  -6  -4  -9    1.26    0.14
  -6  -4  -9    1.44    0.17
   6   4   9    1.37    0.15
  -7  -4  -9    3.83    0.24
  -7  -4  -9    3.80    0.28
   7   4   9    3.83    0.25
  -8  -4  -9    2.01    0.24
  -8  -4  -9    2.14    0.20
   8   4   9    1.65    0.20
  -9  -4  -9    3.16    0.25
  -9  -4  -9    2.95    0.29
   9   4   9    3.43    0.29
 -10  -4  -9    4.67    0.39
  10   4   9    3.65    0.33
 -11  -4  -9    0.09    0.17
  11   4   9    0.11    0.15
   3  -5  -9    0.78    0.16
   2  -5  -9    1.09    0.17
   1  -5  -9    3.99    0.29
   0  -5  -9    1.84    0.20
   0  -5  -9    1.64    0.09
   0  -5  -9    1.72    0.10
  -1  -5  -9    0.65    0.07
  -1  -5  -9    0.58    0.13
  -1  -5  -9    0.51    0.07
  -2  -5  -9    0.33    0.10
  -2  -5  -9    0.36    0.07
  -2  -5  -9    0.34    0.06
  -3  -5  -9    6.02    0.31
  -3  -5  -9    5.63    0.24
  -3  -5  -9    6.02    0.25
  -4  -5  -9    2.73    0.17
  -4  -5  -9    3.08    0.21
  -4  -5  -9    2.85    0.17
   4   5   9    2.68    0.14
  -5  -5  -9    2.80    0.23
  -5  -5  -9    2.87    0.19
   5   5   9    2.87    0.18
  -6  -5  -9    1.05    0.13
  -6  -5  -9    1.26    0.18
   6   5   9    1.13    0.14
  -7  -5  -9    2.83    0.26
  -7  -5  -9    2.68    0.22
   7   5   9    3.02    0.23
  -8  -5  -9    5.36    0.30
  -8  -5  -9    5.67    0.37
   8   5   9    5.67    0.33
  -9  -5  -9    2.21    0.27
   9   5   9    1.60    0.21
 -10  -5  -9   -0.04    0.16
  10   5   9    0.01    0.14
 -11  -5  -9    1.07    0.25
  11   5   9    0.72    0.20
   5  -6  -9    1.80    0.13
   4  -6  -9    0.86    0.08
   3  -6  -9    1.02    0.29
   2  -6  -9    1.20    0.19
   1  -6  -9    4.81    0.19
   1  -6  -9    5.88    0.35
   1  -6  -9    5.20    0.20
   0  -6  -9    2.43    0.13
   0  -6  -9    2.78    0.26
   0  -6  -9    2.63    0.13
  -1  -6  -9    4.68    0.31
  -1  -6  -9    4.40    0.20
  -1  -6  -9    4.28    0.19
  -2  -6  -9    7.88    0.30
  -2  -6  -9    8.26    0.41
  -2  -6  -9    7.21    0.29
  -3  -6  -9    3.89    0.21
  -3  -6  -9    4.17    0.21
  -4  -6  -9    4.51    0.23
  -4  -6  -9    4.57    0.27
   4   6   9    4.02    0.18
  -5  -6  -9    2.54    0.23
  -5  -6  -9    2.62    0.19
   5   6   9    2.18    0.16
  -6  -6  -9    7.24    0.37
  -6  -6  -9    6.89    0.33
   6   6   9    6.31    0.31
  -7  -6  -9    2.40    0.21
  -7  -6  -9    2.26    0.24
   7   6   9    2.07    0.20
  -8  -6  -9    1.29    0.17
  -8  -6  -9    1.01    0.20
   8   6   9    1.17    0.18
  -9  -6  -9    1.35    0.23
   9   6   9    1.23    0.19
 -10  -6  -9    0.46    0.20
  10   6   9    0.62    0.18
 -11  -6  -9    0.46    0.21
  11   6   9    0.70    0.19
   4  -7  -9    1.75    0.13
   4  -7  -9    1.86    0.13
   3  -7  -9    1.11    0.10
   3  -7  -9    1.23    0.10
   2  -7  -9    0.71    0.08
   2  -7  -9    0.64    0.17
   2  -7  -9    0.76    0.08
   1  -7  -9    0.07    0.05
   1  -7  -9    0.04    0.11
   1  -7  -9    0.11    0.06
   0  -7  -9    3.65    0.18
   0  -7  -9    4.22    0.32
   0  -7  -9    3.56    0.18
   0  -7  -9    3.62    0.18
  -1  -7  -9    1.46    0.13
  -1  -7  -9    1.28    0.12
  -1  -7  -9    1.69    0.21
  -2  -7  -9    0.31    0.08
  -2  -7  -9    0.26    0.13
  -2  -7  -9    0.45    0.09
  -3  -7  -9    4.04    0.22
  -4  -7  -9    1.53    0.15
   4   7   9    1.34    0.11
  -5  -7  -9    1.30    0.18
  -5  -7  -9    1.29    0.15
   5   7   9    1.13    0.13
  -6  -7  -9    2.05    0.22
  -6  -7  -9    1.83    0.18
   6   7   9    1.53    0.17
  -7  -7  -9    0.98    0.19
  -7  -7  -9    0.90    0.14
   7   7   9    1.07    0.16
  -8  -7  -9    1.15    0.17
  -8  -7  -9    1.23    0.22
   8   7   9    1.14    0.19
  -9  -7  -9    2.67    0.31
   9   7   9    2.49    0.27
 -10  -7  -9    2.12    0.30
  10   7   9    1.76    0.25
   3  -8  -9    0.59    0.09
   2  -8  -9    1.20    0.12
   2  -8  -9    1.12    0.12
   1  -8  -9    0.82    0.10
   1  -8  -9    1.09    0.11
   0  -8  -9    0.69    0.17
   0  -8  -9    0.34    0.08
   0  -8  -9    0.35    0.08
  -1  -8  -9    1.99    0.24
  -1  -8  -9    1.94    0.16
  -2  -8  -9    0.94    0.12
  -3  -8  -9    0.55    0.11
  -4  -8  -9    2.25    0.19
   4   8   9    2.13    0.14
  -5  -8  -9    0.74    0.13
   5   8   9    0.64    0.11
  -6  -8  -9   -0.24    0.12
  -6  -8  -9    0.21    0.10
   6   8   9   -0.01    0.10
  -7  -8  -9    0.22    0.15
  -7  -8  -9    0.23    0.11
  -8  -8  -9    0.35    0.17
  -9  -8  -9   -0.11    0.16
   2  -9  -9    2.05    0.17
   1  -9  -9    2.69    0.18
   1  -9  -9    2.66    0.19
   0  -9  -9    3.26    0.20
  -1  -9  -9    2.00    0.17
  -2  -9  -9    1.25    0.15
  -3  -9  -9    0.53    0.11
  -4  -9  -9    1.17    0.16
  -5  -9  -9    0.38    0.12
  -6  -9  -9    3.75    0.27
  -7  -9  -9    0.12    0.09
  -7  -9  -9    0.19    0.16
  -8  -9  -9    0.20    0.18
   0 -10  -9    0.85    0.12
  -1 -10  -9    1.96    0.18
  -2 -10  -9    1.02    0.15
  -3 -10  -9    1.31    0.16
  -4 -10  -9    1.50    0.18
  -5 -10  -9    1.20    0.17
  -6 -10  -9    0.31    0.12
  -1   9 -10    0.28    0.20
   1  -9  10    0.47    0.18
  -2   9 -10    0.85    0.21
  -2   9 -10    0.66    0.22
   2  -9  10    0.93    0.21
   2  -9  10    0.95    0.19
  -3   9 -10    1.16    0.25
  -3   9 -10    1.18    0.23
   3  -9  10    1.49    0.23
   3  -9  10    1.52    0.24
  -4   9 -10    3.91    0.37
  -4   9 -10    4.61    0.41
   4  -9  10    3.83    0.35
   4  -9  10    3.44    0.32
  -5   9 -10    1.68    0.28
  -5   9 -10    1.28    0.25
   5  -9  10    2.01    0.26
   5  -9  10    1.49    0.23
  -6   9 -10    1.75    0.29
   1   8 -10    0.73    0.20
   1   8 -10    0.81    0.16
  -1  -8  10    1.09    0.22
   0   8 -10    0.95    0.16
   0   8 -10    1.00    0.22
   0  -8  10    1.36    0.24
   0  -8  10    1.14    0.18
  -1   8 -10    0.51    0.19
  -1   8 -10    0.77    0.29
  -1   8 -10    0.33    0.12
   1  -8  10    0.79    0.16
   1  -8  10    0.86    0.20
  -2   8 -10    1.12    0.20
  -2   8 -10    1.41    0.24
  -2   8 -10    1.30    0.22
   2  -8  10    1.63    0.21
   2  -8  10    1.45    0.23
  -3   8 -10    0.52    0.17
  -3   8 -10    0.42    0.19
   3  -8  10    0.47    0.17
   3  -8  10    0.57    0.16
  -4   8 -10    0.72    0.22
  -4   8 -10    0.47    0.17
   4  -8  10    0.83    0.18
   4  -8  10    0.53    0.17
  -5   8 -10    2.92    0.31
  -5   8 -10    2.61    0.31
   5  -8  10    3.02    0.30
   5  -8  10    3.10    0.30
  -6   8 -10    0.92    0.23
  -6   8 -10    1.06    0.23
   6  -8  10    1.06    0.19
   6  -8  10    1.43    0.23
  -7   8 -10    0.86    0.24
  -7   8 -10    0.87    0.23
   7  -8  10    0.94    0.22
  -8   8 -10    0.30    0.23
   2   7 -10    2.87    0.24
   2   7 -10    1.94    0.25
  -2  -7  10    3.49    0.37
   1   7 -10    2.10    0.25
   1   7 -10    2.26    0.21
  -1  -7  10    2.50    0.30
   0   7 -10    2.09    0.25
   0   7 -10    1.54    0.18
   0  -7  10    2.03    0.19
   0  -7  10    1.70    0.25
  -1   7 -10    3.54    0.32
  -1   7 -10    2.92    0.25
  -1   7 -10    3.40    0.44
   1  -7  10    4.03    0.27
   1  -7  10    3.66    0.33
  -2   7 -10    0.89    0.15
  -2   7 -10    1.02    0.19
  -2   7 -10    1.10    0.22
   2  -7  10    0.91    0.19
   2  -7  10    1.09    0.17
  -3   7 -10    2.91    0.29
  -3   7 -10    3.05    0.24
  -3   7 -10    3.62    0.32
   3  -7  10    3.31    0.28
   3  -7  10    3.20    0.30
  -4   7 -10    2.21    0.21
  -4   7 -10    2.82    0.29
  -4   7 -10    2.17    0.27
   4  -7  10    2.55    0.27
   4  -7  10    2.56    0.26
  -5   7 -10    1.82    0.26
  -5   7 -10    2.20    0.26
   5  -7  10    2.08    0.24
   5  -7  10    1.52    0.21
  -6   7 -10    4.47    0.40
  -6   7 -10    4.42    0.38
   6  -7  10    3.95    0.33
  -7   7 -10    1.47    0.26
  -7   7 -10    1.19    0.23
   7  -7  10    1.40    0.23
  -8   7 -10    1.57    0.28
  -8   7 -10    1.89    0.28
   8  -7  10    2.20    0.27
  -9   7 -10    1.97    0.30
  -9   7 -10    2.56    0.32
   3   6 -10    1.42    0.21
   3   6 -10    1.51    0.18
  -3  -6  10    1.81    0.29
   2   6 -10    0.49    0.12
   2   6 -10    0.55    0.17
  -2  -6  10    0.79    0.22
   1   6 -10    2.00    0.23
   1   6 -10    1.88    0.18
  -1  -6  10    2.39    0.29
   0   6 -10    6.38    0.38
   0   6 -10    5.89    0.32
   0  -6  10    6.59    0.29
   0  -6  10    6.62    0.42
  -1   6 -10    3.21    0.24
  -1   6 -10    3.50    0.31
   1  -6  10    3.44    0.23
   1  -6  10    2.99    0.31
  -2   6 -10    8.44    0.39
  -2   6 -10    8.54    0.43
  -2   6 -10    8.66    0.45
   2  -6  10    8.68    0.46
   2  -6  10    8.94    0.39
  -3   6 -10    1.66    0.18
  -3   6 -10    1.08    0.19
  -3   6 -10    1.57    0.23
   3  -6  10    1.27    0.18
   3  -6  10    1.58    0.21
  -4   6 -10    2.78    0.23
  -4   6 -10    2.96    0.28
  -4   6 -10    2.82    0.28
   4  -6  10    3.12    0.27
   4  -6  10    2.87    0.26
  -5   6 -10    5.91    0.37
  -5   6 -10    6.34    0.41
  -5   6 -10    5.86    0.32
   5  -6  10    5.34    0.34
   5  -6  10    6.10    0.36
  -6   6 -10    0.91    0.20
  -6   6 -10    1.57    0.25
   6  -6  10    1.15    0.19
   6  -6  10    1.06    0.17
  -7   6 -10    0.87    0.23
  -7   6 -10    0.88    0.20
   7  -6  10    0.75    0.18
  -8   6 -10    0.95    0.23
  -8   6 -10    0.61    0.20
   8  -6  10    0.67    0.18
  -9   6 -10    1.10    0.26
  -9   6 -10    0.60    0.21
   9  -6  10    0.60    0.19
 -10   6 -10    0.49    0.23
   4   5 -10    0.49    0.13
  -4  -5  10    0.53    0.21
   3   5 -10    1.17    0.15
  -3  -5  10    1.41    0.25
   2   5 -10    1.44    0.16
   2   5 -10    1.69    0.21
  -2  -5  10    2.22    0.29
   1   5 -10    4.92    0.27
   1   5 -10    4.97    0.32
  -1  -5  10    5.14    0.38
   0   5 -10    9.43    0.44
   0   5 -10    8.85    0.39
   0  -5  10    9.84    0.50
   0  -5  10    9.58    0.36
  -1   5 -10   12.55    0.50
  -1   5 -10   14.18    0.56
   1  -5  10   13.27    0.47
   1  -5  10   13.82    0.61
  -2   5 -10    3.48    0.31
  -2   5 -10    3.34    0.23
  -2   5 -10    3.53    0.27
   2  -5  10    3.46    0.23
   2  -5  10    3.51    0.29
  -3   5 -10    6.97    0.39
  -3   5 -10    5.78    0.31
  -3   5 -10    6.27    0.35
   3  -5  10    6.82    0.38
   3  -5  10    6.22    0.32
  -4   5 -10    1.23    0.21
  -4   5 -10    1.30    0.16
  -4   5 -10    1.09    0.18
   4  -5  10    1.19    0.17
   4  -5  10    0.95    0.16
  -5   5 -10    2.05    0.23
  -5   5 -10    1.85    0.25
  -5   5 -10    2.04    0.20
   5  -5  10    1.85    0.21
   5  -5  10    1.79    0.20
  -6   5 -10    1.44    0.17
  -6   5 -10    1.80    0.24
  -6   5 -10    1.33    0.20
   6  -5  10    1.38    0.20
   6  -5  10    1.45    0.17
  -7   5 -10    2.06    0.27
  -7   5 -10    1.95    0.25
   7  -5  10    1.84    0.23
  -8   5 -10    0.60    0.21
  -8   5 -10    0.46    0.18
   8  -5  10    0.64    0.17
  -9   5 -10    3.38    0.34
  -9   5 -10    2.39    0.29
   9  -5  10    2.65    0.29
 -10   5 -10    0.83    0.22
 -10   5 -10    0.71    0.23
  10  -5  10    0.61    0.20
  -4  -4  10    0.54    0.20
   3   4 -10    0.70    0.12
  -3  -4  10    0.77    0.21
   2   4 -10    1.81    0.17
  -2  -4  10    2.57    0.31
   1   4 -10    1.07    0.13
  -1  -4  10    0.96    0.20
   0   4 -10    0.31    0.09
   0   4 -10    0.41    0.15
   0  -4  10    0.22    0.14
  -1   4 -10    3.16    0.25
  -1   4 -10    2.71    0.20
   1  -4  10    2.66    0.15
   1  -4  10    2.77    0.27
  -2   4 -10    9.64    0.43
  -2   4 -10    9.41    0.41
  -2   4 -10    8.74    0.38
   2  -4  10    9.03    0.35
   2  -4  10    9.51    0.45
  -3   4 -10    9.35    0.38
  -3   4 -10    9.40    0.44
  -3   4 -10    9.07    0.41
   3  -4  10    8.96    0.44
   3  -4  10    8.94    0.37
  -4   4 -10    1.54    0.16
  -4   4 -10    1.03    0.17
  -4   4 -10    1.59    0.21
   4  -4  10    1.46    0.18
   4  -4  10    1.19    0.15
  -5   4 -10    0.82    0.18
  -5   4 -10    0.87    0.13
  -5   4 -10    0.96    0.17
   5  -4  10    0.97    0.15
   5  -4  10    0.70    0.13
  -6   4 -10    6.28    0.32
  -6   4 -10    6.24    0.38
  -6   4 -10    6.47    0.39
   6  -4  10    6.13    0.31
   6  -4  10    6.15    0.35
  -7   4 -10    3.46    0.25
  -7   4 -10    3.86    0.35
  -7   4 -10    3.83    0.32
   7  -4  10    3.73    0.29
  -8   4 -10    5.42    0.38
  -8   4 -10    5.78    0.41
   8  -4  10    5.24    0.36
  -9   4 -10    0.11    0.19
  -9   4 -10    0.11    0.16
   9  -4  10   -0.14    0.13
 -10   4 -10    1.26    0.26
 -10   4 -10    1.16    0.24
  10  -4  10    1.58    0.24
 -11   4 -10    0.11    0.19
 -11   4 -10    0.15    0.20
  11  -4  10   -0.04    0.17
   5   3 -10    0.63    0.11
   4   3 -10    0.82    0.12
  -4  -3  10    1.26    0.24
   3   3 -10    3.84    0.22
  -3  -3  10    5.46    0.40
   2   3 -10    2.88    0.19
  -2  -3  10    3.50    0.33
   1   3 -10    1.48    0.16
   1   3 -10    1.94    0.16
  -1  -3  10    2.13    0.25
   0   3 -10    2.13    0.15
   0   3 -10    2.09    0.16
   0  -3  10    2.12    0.24
  -1   3 -10    5.76    0.26
  -1   3 -10    5.43    0.26
   1  -3  10    6.70    0.37
  -2   3 -10   10.03    0.41
  -2   3 -10    9.46    0.38
  -2   3 -10   10.78    0.44
   2  -3  10   10.01    0.46
   2  -3  10    9.84    0.35
  -3   3 -10   10.44    0.45
  -3   3 -10   10.21    0.41
  -3   3 -10   10.59    0.44
   3  -3  10   10.77    0.46
   3  -3  10   10.52    0.39
  -4   3 -10   14.40    0.52
  -4   3 -10   14.18    0.56
  -4   3 -10   14.18    0.55
   4  -3  10   14.23    0.52
   4  -3  10   14.10    0.55
  -5   3 -10    6.11    0.36
  -5   3 -10    5.70    0.33
  -5   3 -10    6.26    0.30
   5  -3  10    6.13    0.31
   5  -3  10    6.41    0.31
  -6   3 -10    6.86    0.33
  -6   3 -10    6.56    0.36
  -6   3 -10    6.94    0.39
   6  -3  10    6.33    0.34
   6  -3  10    6.26    0.31
  -7   3 -10    1.56    0.17
  -7   3 -10    1.54    0.21
   7  -3  10    1.78    0.20
  -8   3 -10    0.75    0.18
  -8   3 -10    0.70    0.20
   8  -3  10    0.79    0.17
  -9   3 -10    4.38    0.38
   9  -3  10    4.36    0.34
 -10   3 -10    0.70    0.21
  10  -3  10    0.38    0.17
 -11   3 -10    0.46    0.22
 -11   3 -10    0.98    0.23
  11  -3  10    0.75    0.20
   5   2 -10    0.76    0.11
  -5  -2  10    1.16    0.24
   4   2 -10    1.29    0.13
  -4  -2  10    1.40    0.26
   3   2 -10    0.30    0.08
   3   2 -10    0.51    0.09
  -3  -2  10    0.23    0.16
   2   2 -10    3.18    0.17
   2   2 -10    3.03    0.17
  -2  -2  10    3.32    0.32
   1   2 -10    3.26    0.17
   1   2 -10    2.70    0.17
  -1  -2  10    3.22    0.29
   0   2 -10    4.69    0.24
   0   2 -10    5.25    0.23
   0   2 -10    4.90    0.22
   0  -2  10    5.20    0.34
  -1   2 -10   -0.06    0.05
  -1   2 -10    0.01    0.06
  -1   2 -10    0.01    0.06
   1  -2  10    0.01    0.09
  -2   2 -10    3.46    0.19
  -2   2 -10    3.50    0.19
  -2   2 -10    3.76    0.22
   2  -2  10    3.39    0.26
  -3   2 -10    5.81    0.27
  -3   2 -10    6.06    0.27
  -3   2 -10    6.29    0.30
  -3   2 -10    5.99    0.32
   3  -2  10    6.24    0.32
   3  -2  10    6.15    0.25
  -4   2 -10   15.97    0.56
  -4   2 -10   16.10    0.59
   4  -2  10   16.24    0.55
   4  -2  10   16.12    0.59
  -5   2 -10    6.97    0.34
  -5   2 -10    6.71    0.31
   5  -2  10    6.26    0.30
   5  -2  10    6.23    0.30
  -6   2 -10    2.51    0.20
  -6   2 -10    2.96    0.25
   6  -2  10    2.56    0.18
   6  -2  10    2.57    0.22
  -7   2 -10    2.70    0.21
  -7   2 -10    2.72    0.25
   7  -2  10    2.70    0.24
  -8   2 -10    2.10    0.24
  -8   2 -10    1.95    0.19
   8  -2  10    2.05    0.22
  -9   2 -10    1.56    0.23
   9  -2  10    1.47    0.21
 -10   2 -10    0.68    0.19
  10  -2  10    0.32    0.16
 -11   2 -10    0.47    0.20
  11  -2  10    0.61    0.19
   5   1 -10    0.26    0.08
  -5  -1  10    0.59    0.21
   4   1 -10    0.72    0.10
   4   1 -10    0.82    0.10
  -4  -1  10    0.65    0.20
   3   1 -10   -0.01    0.05
   3   1 -10   -0.07    0.09
   3   1 -10    0.02    0.06
  -3  -1  10   -0.11    0.13
   2   1 -10    1.47    0.11
   2   1 -10    1.47    0.11
   2   1 -10    1.35    0.11
   2   1 -10    1.44    0.17
  -2  -1  10    1.59    0.23
   1   1 -10    4.73    0.20
   1   1 -10    4.98    0.27
   1   1 -10    4.93    0.20
  -1  -1  10    5.42    0.35
   0   1 -10    1.99    0.16
   0   1 -10    2.14    0.13
   0   1 -10    2.18    0.13
   0  -1  10    2.22    0.23
  -1   1 -10    9.61    0.36
  -1   1 -10    9.12    0.34
  -1   1 -10    9.50    0.34
   1  -1  10    9.65    0.45
  -2   1 -10    2.44    0.15
  -2   1 -10    2.49    0.15
  -2   1 -10    2.26    0.15
   2  -1  10    2.50    0.22
  -3   1 -10   10.96    0.41
  -3   1 -10   11.38    0.41
  -3   1 -10   11.62    0.44
   3  -1  10   11.99    0.48
  -4   1 -10    4.63    0.24
  -4   1 -10    5.30    0.24
  -4   1 -10    5.04    0.27
   4  -1  10    4.76    0.23
   4  -1  10    5.30    0.27
  -5   1 -10    5.03    0.29
  -5   1 -10    4.91    0.25
   5  -1  10    4.83    0.25
   5  -1  10    5.29    0.26
  -6   1 -10    3.62    0.23
  -6   1 -10    3.49    0.26
   6  -1  10    3.40    0.20
   6  -1  10    3.53    0.23
  -7   1 -10    5.80    0.30
  -7   1 -10    5.26    0.33
   7  -1  10    5.14    0.30
  -8   1 -10   -0.04    0.12
  -8   1 -10    0.14    0.09
   8  -1  10    0.15    0.12
  -9   1 -10    0.23    0.15
   9  -1  10   -0.03    0.12
 -10   1 -10    0.00    0.16
  10  -1  10    0.12    0.14
 -11   1 -10    0.41    0.19
  11  -1  10    0.17    0.16
 -12   1 -10    0.16    0.18
   5   0 -10    0.85    0.10
   5   0 -10    0.62    0.09
   4   0 -10    1.86    0.22
   4   0 -10    1.46    0.12
   4   0 -10    1.77    0.13
  -4   0  10    2.09    0.29
   3   0 -10    2.40    0.24
   3   0 -10    2.15    0.13
   3   0 -10    2.37    0.13
  -3   0  10    2.99    0.31
   2   0 -10    0.61    0.07
   2   0 -10    0.70    0.13
  -2   0  10    0.61    0.17
   1   0 -10    5.19    0.27
   1   0 -10    4.61    0.18
   1   0 -10    4.46    0.18
  -1   0  10    5.21    0.34
   0   0 -10    5.20    0.20
   0   0 -10    5.47    0.21
   0   0 -10    5.68    0.27
   0   0  10    5.61    0.34
  -1   0 -10    4.10    0.22
  -1   0 -10    3.77    0.17
  -1   0 -10    3.79    0.17
   1   0  10    4.27    0.28
  -2   0 -10    3.40    0.17
  -2   0 -10    3.78    0.19
  -2   0 -10    3.56    0.17
   2   0  10    3.43    0.25
  -3   0 -10    2.33    0.15
  -3   0 -10    2.28    0.15
  -3   0 -10    2.73    0.15
  -3   0 -10    2.41    0.18
   3   0  10    2.19    0.20
  -4   0 -10    3.98    0.21
  -4   0 -10    4.50    0.25
  -4   0 -10    4.17    0.21
   4   0  10    3.92    0.19
   4   0  10    4.44    0.25
  -5   0 -10    8.72    0.38
  -5   0 -10    8.69    0.35
   5   0  10    9.13    0.36
   5   0  10    8.44    0.34
  -6   0 -10    5.17    0.27
  -6   0 -10    5.64    0.31
   6   0  10    5.28    0.28
  -7   0 -10    4.87    0.27
  -7   0 -10    4.65    0.30
   7   0  10    4.76    0.28
  -8   0 -10    7.92    0.42
  -8   0 -10    8.77    0.39
   8   0  10    8.41    0.40
  -9   0 -10    4.94    0.32
  -9   0 -10    4.16    0.34
   9   0  10    4.05    0.31
 -10   0 -10    2.48    0.28
  10   0  10    2.64    0.27
 -11   0 -10    0.42    0.20
  11   0  10    0.29    0.17
 -12   0 -10   -0.07    0.19
  12   0  10    0.04    0.16
   5  -1 -10    0.70    0.09
   5  -1 -10    0.88    0.09
   4  -1 -10    0.74    0.15
   3  -1 -10    2.12    0.22
   2  -1 -10    0.55    0.12
  -2   1  10    0.53    0.16
   1  -1 -10    1.71    0.18
  -1   1  10    1.64    0.22
   0  -1 -10    1.75    0.17
   0  -1 -10    1.28    0.08
   0   1  10    1.66    0.21
  -1  -1 -10    2.04    0.11
  -1  -1 -10    2.05    0.17
  -1  -1 -10    1.92    0.11
   1   1  10    2.24    0.22
  -2  -1 -10    2.66    0.14
  -2  -1 -10    2.74    0.18
  -2  -1 -10    2.60    0.14
   2   1  10    2.46    0.22
  -3  -1 -10    1.11    0.10
  -3  -1 -10    1.34    0.13
  -3  -1 -10    1.16    0.11
  -3  -1 -10    1.05    0.13
   3   1  10    0.84    0.14
  -4  -1 -10    8.63    0.34
  -4  -1 -10    9.11    0.37
  -4  -1 -10    8.95    0.34
   4   1  10    8.89    0.30
  -5  -1 -10    6.13    0.29
  -5  -1 -10    6.36    0.28
  -5  -1 -10    6.44    0.31
   5   1  10    6.29    0.27
  -6  -1 -10    7.04    0.32
  -6  -1 -10    7.41    0.35
   6   1  10    6.88    0.31
  -7  -1 -10    9.39    0.39
  -7  -1 -10    9.45    0.43
   7   1  10    8.81    0.39
  -8  -1 -10    2.13    0.20
  -8  -1 -10    2.24    0.24
   8   1  10    2.17    0.22
  -9  -1 -10    3.98    0.34
  -9  -1 -10    4.31    0.27
   9   1  10    4.61    0.32
 -10  -1 -10    1.50    0.23
  10   1  10    1.52    0.22
 -11  -1 -10    0.14    0.18
  11   1  10    0.07    0.15
 -12  -1 -10    0.27    0.19
  12   1  10    0.17    0.17
   5  -2 -10    0.65    0.08
   4  -2 -10    2.64    0.25
   3  -2 -10    1.36    0.18
   2  -2 -10    0.31    0.11
   1  -2 -10    2.29    0.21
   0  -2 -10    3.86    0.25
  -1  -2 -10    3.34    0.14
  -1  -2 -10    3.61    0.23
  -1  -2 -10    3.13    0.14
  -2  -2 -10    2.17    0.17
  -2  -2 -10    1.79    0.11
  -2  -2 -10    1.79    0.11
  -3  -2 -10    0.45    0.07
  -3  -2 -10    0.47    0.07
  -3  -2 -10    0.70    0.11
  -4  -2 -10    0.44    0.08
  -4  -2 -10    0.59    0.11
  -4  -2 -10    0.54    0.08
  -5  -2 -10    3.92    0.21
  -5  -2 -10    3.79    0.21
  -5  -2 -10    3.44    0.24
   5   2  10    3.52    0.19
  -6  -2 -10    1.43    0.15
  -6  -2 -10    1.60    0.18
   6   2  10    1.62    0.16
  -7  -2 -10    0.51    0.14
  -7  -2 -10    0.49    0.11
   7   2  10    0.49    0.12
  -8  -2 -10    3.09    0.22
  -8  -2 -10    2.73    0.26
   8   2  10    2.71    0.24
  -9  -2 -10   -0.08    0.14
  -9  -2 -10   -0.14    0.07
   9   2  10   -0.12    0.10
 -10  -2 -10    1.07    0.23
  10   2  10    1.37    0.21
 -11  -2 -10    1.58    0.26
  11   2  10    1.33    0.22
 -12  -2 -10    0.15    0.20
   3  -3 -10    1.83    0.21
   2  -3 -10    1.45    0.19
   1  -3 -10    0.02    0.08
   0  -3 -10    3.73    0.25
  -1  -3 -10    1.02    0.14
  -1  -3 -10    1.02    0.08
  -2  -3 -10    6.29    0.24
  -2  -3 -10    6.79    0.32
  -2  -3 -10    5.89    0.23
  -3  -3 -10    4.28    0.20
  -3  -3 -10    4.41    0.25
  -3  -3 -10    4.35    0.20
  -4  -3 -10    1.51    0.13
  -4  -3 -10    1.80    0.17
  -4  -3 -10    1.49    0.13
  -5  -3 -10    0.68    0.13
  -5  -3 -10    0.38    0.09
   5   3  10    0.27    0.07
  -6  -3 -10    2.48    0.18
  -6  -3 -10    1.66    0.19
   6   3  10    2.14    0.18
  -7  -3 -10    2.06    0.22
  -7  -3 -10    2.22    0.19
   7   3  10    2.21    0.20
  -8  -3 -10    3.34    0.29
  -8  -3 -10    3.30    0.24
   8   3  10    2.75    0.25
  -9  -3 -10    0.76    0.18
  -9  -3 -10    0.51    0.12
   9   3  10    0.46    0.15
 -10  -3 -10    0.38    0.18
  10   3  10    0.46    0.17
 -11  -3 -10    0.30    0.19
  11   3  10    0.24    0.16
   3  -4 -10    4.54    0.33
   2  -4 -10    4.11    0.29
   1  -4 -10    2.65    0.24
   0  -4 -10    1.80    0.20
  -1  -4 -10    6.33    0.23
  -1  -4 -10    6.39    0.34
  -1  -4 -10    6.26    0.23
  -2  -4 -10   12.16    0.41
  -2  -4 -10   12.51    0.41
  -2  -4 -10   13.03    0.51
  -3  -4 -10    8.45    0.38
  -3  -4 -10    7.61    0.30
  -3  -4 -10    8.06    0.30
  -4  -4 -10    3.59    0.19
  -4  -4 -10    3.46    0.19
  -5  -4 -10    3.68    0.21
  -5  -4 -10    3.61    0.25
   5   4  10    3.88    0.18
  -6  -4 -10    1.55    0.19
  -6  -4 -10    1.40    0.15
   6   4  10    1.47    0.15
  -7  -4 -10    2.69    0.21
  -7  -4 -10    2.51    0.24
   7   4  10    2.59    0.21
  -8  -4 -10    1.40    0.22
  -8  -4 -10    1.51    0.17
   8   4  10    1.38    0.18
  -9  -4 -10    2.99    0.30
  -9  -4 -10    3.10    0.24
   9   4  10    3.06    0.28
 -10  -4 -10    1.12    0.23
  10   4  10    1.04    0.20
 -11  -4 -10    2.49    0.31
  11   4  10    2.55    0.28
   2  -5 -10    2.16    0.25
   1  -5 -10    1.12    0.18
   0  -5 -10    1.89    0.10
   0  -5 -10    1.78    0.21
  -1  -5 -10    0.03    0.04
  -1  -5 -10    0.04    0.09
  -1  -5 -10   -0.02    0.04
  -2  -5 -10    0.22    0.06
  -2  -5 -10    0.18    0.06
  -2  -5 -10    0.21    0.10
  -3  -5 -10    0.56    0.09
  -3  -5 -10    0.65    0.09
  -4  -5 -10    1.45    0.14
  -4  -5 -10    1.39    0.13
  -5  -5 -10    1.35    0.14
   5   5  10    1.30    0.12
  -6  -5 -10    0.44    0.13
  -6  -5 -10    0.30    0.10
   6   5  10    0.25    0.09
  -7  -5 -10   -0.08    0.11
  -7  -5 -10   -0.07    0.08
   7   5  10   -0.03    0.09
  -8  -5 -10    1.52    0.22
  -8  -5 -10    1.59    0.18
   8   5  10    1.43    0.18
  -9  -5 -10    2.27    0.28
  -9  -5 -10    2.14    0.26
   9   5  10    2.12    0.23
 -10  -5 -10    0.36    0.19
  10   5  10    0.12    0.14
 -11  -5 -10    0.12    0.19
  11   5  10    0.23    0.16
   1  -6 -10    3.93    0.31
   0  -6 -10    1.97    0.12
   0  -6 -10    2.03    0.12
   0  -6 -10    2.73    0.26
  -1  -6 -10    1.85    0.13
  -1  -6 -10    1.84    0.13
  -1  -6 -10    2.02    0.23
  -2  -6 -10    0.77    0.16
  -2  -6 -10    0.50    0.09
  -2  -6 -10    0.47    0.08
  -3  -6 -10    3.37    0.19
  -3  -6 -10    3.14    0.19
  -4  -6 -10    1.17    0.13
  -5  -6 -10    2.92    0.20
   5   6  10    2.73    0.15
  -6  -6 -10    1.25    0.15
  -6  -6 -10    1.44    0.19
   6   6  10    1.16    0.14
  -7  -6 -10    1.56    0.21
  -7  -6 -10    1.64    0.18
   7   6  10    1.41    0.16
  -8  -6 -10    0.26    0.15
  -8  -6 -10    0.21    0.10
   8   6  10    0.11    0.11
  -9  -6 -10   -0.08    0.15
   9   6  10    0.06    0.12
 -10  -6 -10   -0.13    0.16
  10   6  10    0.07    0.14
   3  -7 -10    0.74    0.08
   3  -7 -10    0.78    0.09
   2  -7 -10    2.20    0.13
   2  -7 -10    2.24    0.14
   1  -7 -10    1.18    0.10
   1  -7 -10    1.15    0.10
   0  -7 -10    3.54    0.18
   0  -7 -10    4.01    0.32
   0  -7 -10    3.41    0.18
  -1  -7 -10    4.15    0.21
  -1  -7 -10    4.93    0.34
  -1  -7 -10    4.59    0.22
  -2  -7 -10    3.44    0.25
  -2  -7 -10    4.01    0.31
  -2  -7 -10    3.74    0.20
  -3  -7 -10    1.06    0.13
  -4  -7 -10    1.97    0.18
  -5  -7 -10    1.16    0.15
  -6  -7 -10    3.07    0.23
   6   7  10    2.57    0.19
  -7  -7 -10    0.54    0.16
  -7  -7 -10    0.33    0.11
   7   7  10    0.46    0.12
  -8  -7 -10    0.34    0.17
  -8  -7 -10    0.23    0.11
   8   7  10    0.21    0.13
  -9  -7 -10    0.48    0.19
   9   7  10    0.34    0.15
   2  -8 -10    0.23    0.07
   1  -8 -10    1.12    0.12
   1  -8 -10    1.01    0.17
   1  -8 -10    1.14    0.11
   0  -8 -10    0.96    0.11
  -1  -8 -10    2.51    0.28
  -1  -8 -10    2.08    0.16
  -2  -8 -10    2.62    0.18
  -3  -8 -10    2.10    0.18
  -4  -8 -10    2.23    0.19
  -5  -8 -10    1.46    0.17
  -6  -8 -10    1.52    0.19
   6   8  10    1.50    0.15
  -7  -8 -10    0.66    0.15
   7   8  10    0.43    0.13
  -8  -8 -10    0.70    0.20
   8   8  10    0.51    0.15
   0  -9 -10    1.27    0.13
  -1  -9 -10    1.68    0.16
  -2  -9 -10    0.92    0.13
  -3  -9 -10    0.49    0.11
  -4  -9 -10    0.24    0.10
  -5  -9 -10    0.11    0.10
  -6  -9 -10    0.65    0.14
  -7  -9 -10    0.49    0.14
   7   9  10    0.50    0.13
  -3 -10 -10    0.73    0.14
  -4 -10 -10    0.69    0.14
  -1   8 -11    0.75    0.14
  -1   8 -11    0.89    0.22
  -2   8 -11    1.86    0.27
   2  -8  11    1.45    0.25
   2  -8  11    1.76    0.21
  -3   8 -11    1.67    0.27
  -3   8 -11    1.46    0.27
   3  -8  11    1.69    0.25
   3  -8  11    2.05    0.23
  -4   8 -11    1.54    0.25
  -4   8 -11    1.53    0.27
   4  -8  11    1.34    0.22
   4  -8  11    1.94    0.24
  -5   8 -11    1.02    0.25
  -5   8 -11    1.29    0.25
   5  -8  11    1.21    0.22
   5  -8  11    0.99    0.20
  -6   8 -11    1.15    0.25
   6  -8  11    1.34    0.21
   0   7 -11    0.82    0.21
   0   7 -11    0.86    0.15
   0  -7  11    1.45    0.25
  -1   7 -11    1.60    0.20
  -1   7 -11    1.33    0.22
   1  -7  11    2.00    0.28
   1  -7  11    1.56    0.18
  -2   7 -11    4.49    0.37
  -2   7 -11    3.75    0.28
   2  -7  11    3.96    0.35
   2  -7  11    4.13    0.28
  -3   7 -11    1.97    0.21
  -3   7 -11    2.82    0.31
  -3   7 -11    2.21    0.27
   3  -7  11    2.48    0.29
   3  -7  11    2.40    0.24
  -4   7 -11    2.07    0.26
  -4   7 -11    1.20    0.25
  -4   7 -11    2.33    0.28
   4  -7  11    2.54    0.25
   4  -7  11    2.37    0.26
  -5   7 -11    3.20    0.32
  -5   7 -11    3.12    0.32
   5  -7  11    3.12    0.29
   5  -7  11    3.22    0.30
  -6   7 -11    0.83    0.21
  -6   7 -11    0.68    0.23
   6  -7  11    0.75    0.17
   6  -7  11    0.51    0.17
  -7   7 -11    0.50    0.20
  -7   7 -11    0.39    0.22
   7  -7  11    0.40    0.17
  -8   7 -11    0.57    0.23
   2   6 -11    0.21    0.10
   2   6 -11   -0.06    0.15
   1   6 -11    0.31    0.11
   1   6 -11    0.27    0.17
  -1  -6  11    0.40    0.18
   0   6 -11    1.73    0.19
   0   6 -11    1.63    0.22
   0  -6  11    2.17    0.29
  -1   6 -11    1.29    0.21
  -1   6 -11    1.02    0.15
   1  -6  11    1.14    0.22
  -2   6 -11    2.47    0.22
  -2   6 -11    2.64    0.27
   2  -6  11    2.38    0.28
   2  -6  11    2.74    0.21
  -3   6 -11    6.55    0.42
  -3   6 -11    5.60    0.44
  -3   6 -11    6.13    0.34
   3  -6  11    6.74    0.40
   3  -6  11    6.84    0.34
  -4   6 -11    5.23    0.32
  -4   6 -11    5.71    0.37
  -4   6 -11    5.59    0.41
   4  -6  11    5.44    0.36
   4  -6  11    5.59    0.34
  -5   6 -11    5.74    0.41
  -5   6 -11    5.71    0.39
   5  -6  11    5.55    0.35
   5  -6  11    5.35    0.35
  -6   6 -11    5.26    0.40
  -6   6 -11    5.05    0.41
   6  -6  11    4.47    0.34
   6  -6  11    4.72    0.32
  -7   6 -11    1.27    0.25
  -7   6 -11    1.15    0.23
   7  -6  11    1.58    0.22
  -8   6 -11    0.61    0.20
  -8   6 -11    0.60    0.24
   8  -6  11    0.43    0.18
  -9   6 -11    1.32    0.28
   2   5 -11    0.53    0.16
   2   5 -11    0.98    0.14
  -2  -5  11    1.20    0.25
   1   5 -11    0.26    0.15
   1   5 -11    0.41    0.11
  -1  -5  11    0.63    0.19
   0   5 -11    2.86    0.26
   0   5 -11    2.55    0.21
   0  -5  11    2.76    0.31
  -1   5 -11    7.03    0.35
  -1   5 -11    7.51    0.41
   1  -5  11    8.49    0.47
  -2   5 -11    0.94    0.15
  -2   5 -11    1.30    0.21
   2  -5  11    1.11    0.19
   2  -5  11    0.98    0.12
  -3   5 -11    2.60    0.22
  -3   5 -11    2.27    0.36
  -3   5 -11    2.98    0.28
   3  -5  11    2.62    0.27
   3  -5  11    2.12    0.20
  -4   5 -11    3.18    0.29
  -4   5 -11    2.99    0.24
  -4   5 -11    3.64    0.33
   4  -5  11    3.19    0.28
   4  -5  11    3.43    0.25
  -5   5 -11    7.00    0.43
  -5   5 -11    6.32    0.34
  -5   5 -11    5.86    0.38
   5  -5  11    6.40    0.35
   5  -5  11    6.55    0.36
  -6   5 -11    2.06    0.26
  -6   5 -11    2.62    0.30
   6  -5  11    2.47    0.25
   6  -5  11    2.40    0.23
  -7   5 -11    1.48    0.24
  -7   5 -11    1.85    0.26
   7  -5  11    1.86    0.24
  -8   5 -11    1.23    0.25
  -8   5 -11    1.14    0.22
   8  -5  11    1.12    0.21
  -9   5 -11    0.49    0.23
  -9   5 -11    0.68    0.20
   9  -5  11    0.33    0.17
 -10   5 -11    0.77    0.25
   3   4 -11    1.24    0.15
  -3  -4  11    1.54    0.27
   2   4 -11    0.70    0.12
  -2  -4  11    0.75    0.21
   1   4 -11    2.15    0.19
  -1  -4  11    2.41    0.30
   0   4 -11    0.68    0.12
   0  -4  11    0.92    0.19
  -1   4 -11    0.36    0.15
  -1   4 -11    0.28    0.10
   1  -4  11    0.32    0.15
  -2   4 -11    1.57    0.16
  -2   4 -11    1.69    0.21
   2  -4  11    1.53    0.21
   2  -4  11    1.49    0.14
  -3   4 -11    1.38    0.16
  -3   4 -11    1.64    0.22
   3  -4  11    1.24    0.14
   3  -4  11    1.40    0.20
  -4   4 -11    0.04    0.11
  -4   4 -11    0.03    0.15
  -4   4 -11    0.24    0.10
   4  -4  11    0.14    0.10
   4  -4  11    0.19    0.12
  -5   4 -11    0.23    0.11
  -5   4 -11    0.09    0.13
  -5   4 -11    0.05    0.16
   5  -4  11    0.33    0.12
   5  -4  11    0.33    0.12
  -6   4 -11    4.19    0.33
  -6   4 -11    4.14    0.35
  -6   4 -11    3.64    0.26
   6  -4  11    3.94    0.26
   6  -4  11    3.52    0.28
  -7   4 -11    3.09    0.31
  -7   4 -11    2.96    0.24
  -7   4 -11    2.51    0.27
   7  -4  11    2.58    0.25
  -8   4 -11    3.24    0.32
  -8   4 -11    3.39    0.33
   8  -4  11    3.82    0.31
  -9   4 -11    0.78    0.21
  -9   4 -11    0.91    0.23
   9  -4  11    0.75    0.19
 -10   4 -11    0.01    0.20
 -10   4 -11    0.04    0.17
  10  -4  11    0.12    0.16
   3   3 -11    1.82    0.17
  -3  -3  11    2.68    0.33
   2   3 -11    4.54    0.24
  -2  -3  11    5.69    0.42
   1   3 -11    0.42    0.09
  -1  -3  11    0.66    0.19
   0   3 -11    2.09    0.17
   0  -3  11    2.21    0.26
  -1   3 -11    3.38    0.21
   1  -3  11    4.01    0.31
  -2   3 -11    7.05    0.37
  -2   3 -11    6.13    0.30
   2  -3  11    6.97    0.39
  -3   3 -11    4.31    0.25
  -3   3 -11    4.63    0.32
   3  -3  11    4.53    0.21
   3  -3  11    4.91    0.31
  -4   3 -11    9.29    0.44
  -4   3 -11    9.19    0.39
  -4   3 -11    9.21    0.42
   4  -3  11    9.52    0.43
   4  -3  11    8.83    0.37
  -5   3 -11    1.83    0.21
  -5   3 -11    1.88    0.18
  -5   3 -11    2.12    0.24
   5  -3  11    1.51    0.17
   5  -3  11    1.84    0.19
  -6   3 -11    8.59    0.44
  -6   3 -11    8.53    0.39
  -6   3 -11    9.07    0.46
   6  -3  11    8.67    0.38
   6  -3  11    8.80    0.40
  -7   3 -11    6.74    0.35
  -7   3 -11    7.73    0.45
  -7   3 -11    7.10    0.41
   7  -3  11    7.18    0.38
  -8   3 -11    1.59    0.24
   8  -3  11    1.98    0.23
  -9   3 -11    1.83    0.25
   9  -3  11    1.28    0.21
 -10   3 -11    0.98    0.24
  10  -3  11    0.74    0.19
 -11   3 -11    0.03    0.23
   4   2 -11    0.35    0.09
   3   2 -11    0.21    0.08
  -3  -2  11    0.32    0.18
   2   2 -11    2.04    0.15
  -2  -2  11    2.72    0.31
   1   2 -11    0.86    0.10
   1   2 -11    0.85    0.11
  -1  -2  11    1.06    0.20
   0   2 -11    1.12    0.12
   0   2 -11    1.38    0.13
   0  -2  11    1.18    0.20
  -1   2 -11    2.16    0.15
  -1   2 -11    2.01    0.15
   1  -2  11    2.08    0.24
  -2   2 -11    0.26    0.08
   2  -2  11    0.19    0.11
  -3   2 -11    1.44    0.19
  -3   2 -11    1.41    0.14
   3  -2  11    1.74    0.20
  -4   2 -11    2.62    0.19
  -4   2 -11    2.41    0.22
  -4   2 -11    2.94    0.27
   4  -2  11    2.55    0.17
   4  -2  11    2.58    0.22
  -5   2 -11    8.30    0.39
  -5   2 -11    7.73    0.35
   5  -2  11    7.33    0.33
   5  -2  11    8.00    0.36
  -6   2 -11    0.41    0.11
  -6   2 -11    0.59    0.15
   6  -2  11    0.19    0.11
   6  -2  11    0.37    0.10
  -7   2 -11    1.32    0.17
  -7   2 -11    1.24    0.19
   7  -2  11    1.32    0.18
  -8   2 -11    3.54    0.32
  -8   2 -11    3.26    0.25
   8  -2  11    2.82    0.26
  -9   2 -11    4.00    0.36
   9  -2  11    3.16    0.29
 -10   2 -11    0.52    0.20
  10  -2  11    0.71    0.18
 -11   2 -11    0.36    0.20
  11  -2  11    0.16    0.16
   4   1 -11    0.81    0.11
  -4  -1  11    0.78    0.23
   3   1 -11    0.06    0.06
   3   1 -11   -0.03    0.05
   3   1 -11    0.08    0.06
  -3  -1  11    0.03    0.15
   2   1 -11    0.54    0.08
   2   1 -11    0.65    0.09
  -2  -1  11    0.52    0.19
   1   1 -11    2.32    0.14
   1   1 -11    2.15    0.14
  -1  -1  11    2.60    0.29
   0   1 -11    0.55    0.08
   0   1 -11    0.77    0.09
   0  -1  11    1.04    0.18
  -1   1 -11    1.57    0.12
  -1   1 -11    1.65    0.13
   1  -1  11    1.57    0.20
  -2   1 -11    2.18    0.15
  -2   1 -11    2.22    0.15
   2  -1  11    2.74    0.25
  -3   1 -11    2.97    0.18
  -3   1 -11    3.05    0.18
   3  -1  11    2.89    0.24
  -4   1 -11    3.18    0.20
  -4   1 -11    3.38    0.32
   4  -1  11    3.44    0.17
   4  -1  11    3.66    0.25
  -5   1 -11    1.14    0.14
  -5   1 -11    1.29    0.17
   5  -1  11    1.18    0.13
   5  -1  11    1.35    0.15
  -6   1 -11    2.82    0.21
  -6   1 -11    2.75    0.25
   6  -1  11    3.16    0.22
  -7   1 -11    3.14    0.28
  -7   1 -11    2.95    0.23
   7  -1  11    2.91    0.24
  -8   1 -11    2.38    0.25
  -8   1 -11    2.49    0.22
   8  -1  11    2.03    0.22
  -9   1 -11    0.86    0.21
   9  -1  11    0.87    0.18
 -10   1 -11    1.54    0.25
  10  -1  11    1.44    0.22
 -11   1 -11    0.61    0.21
  11  -1  11    0.47    0.18
   4   0 -11    0.64    0.09
   4   0 -11    0.88    0.10
  -4   0  11    0.62    0.22
   3   0 -11    4.55    0.31
   3   0 -11    4.21    0.19
  -3   0  11    5.24    0.41
   2   0 -11    0.61    0.13
   2   0 -11    0.52    0.07
   2   0 -11    0.60    0.07
  -2   0  11    0.60    0.19
   1   0 -11    3.17    0.23
   1   0 -11    2.96    0.15
   1   0 -11    3.03    0.14
  -1   0  11    3.04    0.31
   0   0 -11    2.39    0.22
   0   0 -11    2.53    0.13
   0   0 -11    2.56    0.14
   0   0  11    2.87    0.28
  -1   0 -11    5.39    0.22
  -1   0 -11    5.25    0.22
   1   0  11    6.09    0.36
  -2   0 -11    3.06    0.17
  -2   0 -11    3.26    0.17
   2   0  11    3.79    0.28
  -3   0 -11    0.78    0.10
  -3   0 -11    1.01    0.11
   3   0  11    0.92    0.15
  -4   0 -11    0.51    0.09
   4   0  11    0.69    0.13
  -5   0 -11    0.30    0.09
  -5   0 -11    0.26    0.12
   5   0  11    0.38    0.08
   5   0  11    0.36    0.10
  -6   0 -11    0.06    0.08
  -6   0 -11    0.08    0.11
   6   0  11    0.18    0.09
  -7   0 -11    0.77    0.16
  -7   0 -11    0.82    0.13
   7   0  11    0.78    0.14
  -8   0 -11    0.22    0.14
  -8   0 -11    0.09    0.09
   8   0  11    0.16    0.11
  -9   0 -11    1.97    0.23
  -9   0 -11    1.75    0.24
   9   0  11    1.74    0.21
 -10   0 -11    1.08    0.22
  10   0  11    1.56    0.22
 -11   0 -11    1.64    0.27
  11   0  11    1.54    0.25
   4  -1 -11    2.51    0.14
   3  -1 -11    0.58    0.15
   2  -1 -11    5.61    0.33
   1  -1 -11    2.95    0.24
   0  -1 -11    0.95    0.14
   0  -1 -11    0.85    0.07
   0  -1 -11    0.93    0.08
   0   1  11    0.77    0.17
  -1  -1 -11    2.04    0.12
  -1  -1 -11    2.21    0.18
  -1  -1 -11    2.16    0.12
   1   1  11    2.51    0.26
  -2  -1 -11    4.27    0.19
  -2  -1 -11    4.48    0.20
   2   1  11    4.94    0.31
  -3  -1 -11    1.42    0.12
  -3  -1 -11    1.34    0.12
  -4  -1 -11    4.16    0.21
  -4  -1 -11    4.02    0.21
  -5  -1 -11    5.25    0.30
  -5  -1 -11    5.52    0.26
   5   1  11    5.72    0.23
  -6  -1 -11    2.03    0.18
  -6  -1 -11    1.79    0.20
   6   1  11    1.97    0.17
  -7  -1 -11    1.66    0.21
  -7  -1 -11    1.31    0.16
   7   1  11    1.44    0.16
  -8  -1 -11    2.73    0.27
  -8  -1 -11    2.71    0.22
   8   1  11    2.81    0.24
  -9  -1 -11    1.65    0.19
  -9  -1 -11    1.73    0.24
   9   1  11    1.51    0.20
 -10  -1 -11    2.90    0.31
  10   1  11    2.80    0.28
 -11  -1 -11    0.18    0.18
  11   1  11    0.09    0.16
   3  -2 -11    1.73    0.22
   2  -2 -11    0.21    0.12
   1  -2 -11    2.15    0.21
   0  -2 -11    3.01    0.23
  -1  -2 -11    0.85    0.08
  -1  -2 -11    0.73    0.07
  -1  -2 -11    0.89    0.14
  -2  -2 -11    2.33    0.14
  -2  -2 -11    2.79    0.20
  -2  -2 -11    2.39    0.14
  -3  -2 -11    4.38    0.20
  -3  -2 -11    4.49    0.21
  -3  -2 -11    4.56    0.36
  -4  -2 -11    0.41    0.08
  -4  -2 -11    0.42    0.09
  -5  -2 -11    5.35    0.26
  -6  -2 -11    4.06    0.24
  -6  -2 -11    4.10    0.28
   6   2  11    3.96    0.22
  -7  -2 -11    0.35    0.14
  -7  -2 -11    0.28    0.10
   7   2  11    0.42    0.11
  -8  -2 -11    0.36    0.15
  -8  -2 -11    0.17    0.09
   8   2  11    0.14    0.11
  -9  -2 -11   -0.08    0.08
  -9  -2 -11    0.00    0.13
   9   2  11   -0.01    0.11
 -10  -2 -11   -0.11    0.15
  10   2  11    0.53    0.16
 -11  -2 -11    0.65    0.21
  11   2  11    0.36    0.16
   2  -3 -11    1.23    0.19
   1  -3 -11    2.42    0.24
   0  -3 -11    1.76    0.20
  -1  -3 -11    2.34    0.12
  -1  -3 -11    2.72    0.22
  -1  -3 -11    2.40    0.12
  -2  -3 -11    2.20    0.13
  -2  -3 -11    2.48    0.21
  -2  -3 -11    2.20    0.13
  -3  -3 -11    0.17    0.06
  -3  -3 -11    0.25    0.07
  -3  -3 -11    0.07    0.09
  -4  -3 -11    4.99    0.24
  -4  -3 -11    5.12    0.24
  -5  -3 -11   -0.02    0.07
  -6  -3 -11    2.79    0.27
  -6  -3 -11    2.49    0.19
   6   3  11    2.56    0.17
  -7  -3 -11    2.33    0.23
  -7  -3 -11    2.84    0.21
   7   3  11    2.56    0.20
  -8  -3 -11    1.39    0.21
  -8  -3 -11    1.49    0.17
   8   3  11    1.53    0.18
  -9  -3 -11    0.18    0.10
  -9  -3 -11    0.23    0.15
   9   3  11    0.15    0.13
 -10  -3 -11    0.18    0.17
  10   3  11   -0.03    0.13
 -11  -3 -11    0.65    0.22
  11   3  11    0.95    0.20
   2  -4 -11    2.61    0.27
   1  -4 -11    1.98    0.22
   0  -4 -11    2.56    0.24
  -1  -4 -11    0.99    0.16
  -1  -4 -11    0.93    0.08
  -1  -4 -11    1.05    0.09
  -2  -4 -11    7.67    0.29
  -2  -4 -11    8.35    0.39
  -2  -4 -11    7.70    0.29
  -3  -4 -11    8.21    0.31
  -3  -4 -11    7.90    0.31
  -4  -4 -11   -0.01    0.07
  -4  -4 -11    0.03    0.07
  -5  -4 -11    1.43    0.15
  -6  -4 -11    1.06    0.14
   6   4  11    0.95    0.11
  -7  -4 -11    1.24    0.16
  -7  -4 -11    0.88    0.17
   7   4  11    1.24    0.15
  -8  -4 -11    1.40    0.17
  -8  -4 -11    1.30    0.20
   8   4  11    1.15    0.17
  -9  -4 -11    0.68    0.14
  -9  -4 -11    0.31    0.17
   9   4  11    0.75    0.16
 -10  -4 -11    0.11    0.16
  10   4  11   -0.02    0.13
   1  -5 -11    2.41    0.25
   0  -5 -11    3.20    0.28
  -1  -5 -11    3.61    0.17
  -1  -5 -11    3.86    0.29
  -1  -5 -11    3.69    0.17
  -2  -5 -11    0.72    0.15
  -2  -5 -11    0.51    0.08
  -2  -5 -11    0.66    0.09
  -3  -5 -11    3.49    0.19
  -3  -5 -11    3.74    0.20
  -4  -5 -11    1.80    0.16
  -5  -5 -11    1.56    0.16
  -6  -5 -11    0.27    0.10
   6   5  11    0.30    0.08
  -7  -5 -11    1.11    0.15
   7   5  11    1.06    0.14
  -8  -5 -11    0.20    0.10
  -8  -5 -11    0.06    0.13
   8   5  11    0.25    0.12
  -9  -5 -11    1.39    0.23
  -9  -5 -11    1.38    0.19
   9   5  11    1.21    0.19
 -10  -5 -11    1.61    0.26
  10   5  11    1.28    0.21
   0  -6 -11    2.31    0.26
   0  -6 -11    2.02    0.13
   0  -6 -11    2.02    0.13
  -1  -6 -11    1.42    0.12
  -1  -6 -11    1.48    0.21
  -1  -6 -11    1.33    0.12
  -2  -6 -11    0.52    0.15
  -2  -6 -11    0.49    0.09
  -2  -6 -11    0.50    0.09
  -3  -6 -11    2.33    0.17
  -4  -6 -11    5.28    0.27
  -5  -6 -11    1.86    0.17
  -6  -6 -11    2.22    0.20
  -7  -6 -11    0.70    0.14
   7   6  11    0.60    0.12
  -8  -6 -11    2.52    0.24
   8   6  11    2.78    0.24
  -9  -6 -11    0.57    0.19
   9   6  11    0.45    0.15
   1  -7 -11    0.82    0.09
   1  -7 -11    0.91    0.09
   0  -7 -11    0.42    0.08
   0  -7 -11    0.46    0.08
  -1  -7 -11    1.88    0.15
  -1  -7 -11    2.09    0.15
  -1  -7 -11    2.10    0.25
  -2  -7 -11    2.41    0.17
  -2  -7 -11    2.77    0.29
  -3  -7 -11    0.99    0.12
  -4  -7 -11    1.86    0.17
  -5  -7 -11    0.60    0.12
  -6  -7 -11    1.63    0.18
  -7  -7 -11    0.96    0.16
   7   7  11    0.82    0.13
  -8  -7 -11    0.09    0.11
   8   7  11    0.21    0.11
  -1  -8 -11    0.51    0.10
  -2  -8 -11    0.50    0.11
  -3  -8 -11    1.64    0.16
  -4  -8 -11    1.74    0.18
  -5  -8 -11    1.57    0.18
  -6  -8 -11    1.20    0.17
  -7  -8 -11    0.64    0.14
  -3  -9 -11    0.32    0.10
  -4  -9 -11    1.19    0.16
  -2   7 -12    0.92    0.16
  -2   7 -12    0.70    0.20
  -3   7 -12    0.24    0.11
  -3   7 -12    0.60    0.22
   3  -7  12    0.48    0.18
  -4   7 -12    0.12    0.20
   4  -7  12    0.14    0.15
  -5   7 -12    1.04    0.25
   5  -7  12    1.21    0.21
  -6   7 -12    1.38    0.28
  -1   6 -12    1.51    0.18
  -1   6 -12    1.64    0.23
   1  -6  12    1.36    0.25
  -2   6 -12    0.06    0.17
  -2   6 -12    0.13    0.10
   2  -6  12    0.40    0.17
  -3   6 -12    3.12    0.31
  -3   6 -12    2.99    0.25
   3  -6  12    3.38    0.24
   3  -6  12    2.81    0.30
  -4   6 -12    1.49    0.19
  -4   6 -12    1.53    0.26
   4  -6  12    1.43    0.22
   4  -6  12    1.51    0.19
  -5   6 -12    1.21    0.25
  -5   6 -12    1.33    0.18
   5  -6  12    1.48    0.22
   5  -6  12    1.31    0.19
  -6   6 -12    3.18    0.33
  -6   6 -12    2.18    0.28
   6  -6  12    2.59    0.26
  -7   6 -12    2.29    0.29
  -7   6 -12    1.54    0.28
   7  -6  12    1.99    0.25
  -8   6 -12    1.03    0.27
   1   5 -12    0.50    0.11
   0   5 -12    1.33    0.16
   0   5 -12    1.28    0.20
   0  -5  12    1.91    0.28
  -1   5 -12    2.30    0.25
  -1   5 -12    2.59    0.22
   1  -5  12    2.98    0.32
  -2   5 -12    5.73    0.39
  -2   5 -12    4.47    0.29
   2  -5  12    5.34    0.39
  -3   5 -12    0.46    0.12
  -3   5 -12    0.45    0.18
   3  -5  12    0.71    0.18
  -4   5 -12    1.76    0.25
  -4   5 -12    1.43    0.18
   4  -5  12    1.89    0.24
   4  -5  12    1.72    0.18
  -5   5 -12    3.69    0.33
  -5   5 -12    3.03    0.26
   5  -5  12    3.10    0.28
   5  -5  12    3.32    0.26
  -6   5 -12    1.63    0.20
  -6   5 -12    1.19    0.23
  -6   5 -12    1.51    0.26
   6  -5  12    1.72    0.21
  -7   5 -12    0.78    0.20
  -7   5 -12    0.76    0.24
   7  -5  12    0.87    0.19
  -8   5 -12    0.88    0.22
  -8   5 -12    0.85    0.24
   8  -5  12    0.88    0.20
  -9   5 -12    0.76    0.25
   1   4 -12    0.74    0.12
  -1  -4  12    0.92    0.23
   0   4 -12    1.20    0.15
   0  -4  12    1.62    0.26
  -1   4 -12    1.70    0.17
   1  -4  12    2.36    0.29
  -2   4 -12    0.41    0.16
  -2   4 -12    0.25    0.10
   2  -4  12    0.45    0.16
  -3   4 -12    2.84    0.27
  -3   4 -12    2.16    0.21
   3  -4  12    2.41    0.27
  -4   4 -12    0.23    0.11
  -4   4 -12    0.05    0.17
   4  -4  12    0.11    0.12
   4  -4  12    0.10    0.09
  -5   4 -12   -0.16    0.08
  -5   4 -12   -0.08    0.16
   5  -4  12   -0.16    0.09
   5  -4  12   -0.14    0.10
  -6   4 -12    2.08    0.27
  -6   4 -12    1.45    0.18
  -6   4 -12    1.45    0.22
   6  -4  12    1.73    0.20
  -7   4 -12    0.93    0.16
  -7   4 -12    0.96    0.24
  -7   4 -12    0.93    0.21
   7  -4  12    0.94    0.17
  -8   4 -12    1.26    0.24
  -8   4 -12    0.85    0.23
   8  -4  12    0.82    0.19
  -9   4 -12    2.22    0.28
  -9   4 -12    2.09    0.30
   9  -4  12    2.00    0.25
   2   3 -12    1.33    0.14
  -2  -3  12    1.55    0.27
   1   3 -12    0.51    0.10
  -1  -3  12    0.72    0.20
   0   3 -12    0.27    0.09
   0  -3  12    0.06    0.14
  -1   3 -12    0.05    0.08
   1  -3  12    0.16    0.14
  -2   3 -12    2.89    0.25
  -2   3 -12    2.47    0.20
   2  -3  12    2.86    0.28
  -3   3 -12    2.24    0.20
  -3   3 -12    2.88    0.26
   3  -3  12    2.50    0.26
  -4   3 -12    2.12    0.19
  -4   3 -12    2.22    0.24
   4  -3  12    2.11    0.17
   4  -3  12    2.22    0.23
  -5   3 -12    0.20    0.16
  -5   3 -12    0.13    0.10
   5  -3  12    0.18    0.10
   5  -3  12    0.25    0.11
  -6   3 -12    1.01    0.22
  -6   3 -12    0.93    0.18
  -6   3 -12    0.90    0.14
   6  -3  12    0.90    0.15
  -7   3 -12    3.31    0.32
  -7   3 -12    3.10    0.30
  -7   3 -12    3.71    0.26
   7  -3  12    3.72    0.28
  -8   3 -12    2.51    0.28
  -8   3 -12    2.62    0.31
   8  -3  12    3.06    0.27
  -9   3 -12    0.08    0.20
  -9   3 -12    0.22    0.17
   9  -3  12    0.15    0.15
 -10   3 -12    1.02    0.27
   2   2 -12    3.32    0.20
  -2  -2  12    4.81    0.41
   1   2 -12    1.96    0.16
  -1  -2  12    2.56    0.31
   0   2 -12    1.91    0.16
   0  -2  12    2.70    0.30
  -1   2 -12    2.92    0.19
   1  -2  12    3.26    0.31
  -2   2 -12    2.01    0.17
   2  -2  12    2.06    0.25
  -3   2 -12    1.88    0.17
   3  -2  12    2.27    0.24
  -4   2 -12    4.72    0.32
  -4   2 -12    4.01    0.24
   4  -2  12    4.29    0.29
  -5   2 -12    3.18    0.23
   5  -2  12    3.07    0.19
   5  -2  12    3.49    0.25
  -6   2 -12    1.15    0.16
  -6   2 -12    0.97    0.19
   6  -2  12    0.83    0.14
  -7   2 -12    0.08    0.09
  -7   2 -12    0.11    0.14
   7  -2  12    0.17    0.11
  -8   2 -12    0.09    0.10
  -8   2 -12   -0.01    0.14
   8  -2  12   -0.13    0.11
  -9   2 -12    2.26    0.28
   9  -2  12    2.22    0.25
 -10   2 -12    0.47    0.20
  10  -2  12    0.26    0.16
   2   1 -12    0.23    0.07
  -2  -1  12    0.18    0.17
   1   1 -12    3.19    0.18
   1   1 -12    3.01    0.17
  -1  -1  12    3.99    0.36
   0   1 -12    2.41    0.16
   0   1 -12    2.36    0.16
   0  -1  12    2.91    0.31
  -1   1 -12    0.64    0.10
  -1   1 -12    0.67    0.10
   1  -1  12    0.69    0.18
  -2   1 -12    0.58    0.10
   2  -1  12    0.64    0.16
  -3   1 -12    2.26    0.17
   3  -1  12    2.30    0.24
  -4   1 -12    3.36    0.22
   4  -1  12    3.69    0.27
  -5   1 -12    3.25    0.22
   5  -1  12    3.09    0.17
   5  -1  12    3.33    0.24
  -6   1 -12    0.56    0.12
   6  -1  12    0.56    0.11
  -7   1 -12    1.08    0.19
  -7   1 -12    1.36    0.17
   7  -1  12    1.24    0.17
  -8   1 -12    0.76    0.18
   8  -1  12    0.72    0.16
  -9   1 -12    0.17    0.16
   9  -1  12    0.10    0.14
 -10   1 -12    0.17    0.17
  10  -1  12    0.42    0.16
   2   0 -12    0.71    0.08
   2   0 -12    0.66    0.08
  -2   0  12    0.83    0.21
   1   0 -12    0.40    0.07
   1   0 -12    0.67    0.08
  -1   0  12    1.11    0.22
   0   0 -12    2.07    0.14
   0   0 -12    2.28    0.14
   0   0  12    2.47    0.29
  -1   0 -12    5.75    0.25
  -1   0 -12    6.04    0.25
   1   0  12    7.22    0.41
  -2   0 -12    2.00    0.14
  -2   0 -12    1.90    0.14
   2   0  12    2.12    0.24
  -3   0 -12    1.92    0.15
   3   0  12    2.08    0.23
  -4   0 -12    2.16    0.17
   4   0  12    2.37    0.23
  -5   0 -12    0.92    0.13
  -6   0 -12    0.97    0.14
   6   0  12    1.13    0.13
  -7   0 -12    1.56    0.17
  -7   0 -12    1.83    0.22
   7   0  12    1.89    0.18
  -8   0 -12    0.22    0.15
  -8   0 -12    0.37    0.12
   8   0  12    0.26    0.12
  -9   0 -12   -0.12    0.14
  -9   0 -12    0.12    0.15
   9   0  12    0.02    0.12
 -10   0 -12    0.18    0.18
  10   0  12    0.24    0.14
   0  -1 -12    2.48    0.14
   0  -1 -12    2.61    0.14
  -1  -1 -12    1.86    0.13
  -1  -1 -12    1.93    0.12
  -2  -1 -12    3.92    0.19
  -2  -1 -12    4.28    0.20
  -3  -1 -12    1.22    0.12
  -3  -1 -12    1.26    0.12
  -4  -1 -12    0.73    0.11
  -5  -1 -12    6.39    0.30
  -6  -1 -12    1.32    0.16
   6   1  12    1.73    0.14
  -7  -1 -12    1.13    0.15
   7   1  12    1.26    0.15
  -8  -1 -12    3.41    0.26
  -8  -1 -12    3.58    0.32
   8   1  12    3.95    0.27
  -9  -1 -12    3.03    0.25
  -9  -1 -12    2.29    0.26
   9   1  12    2.64    0.25
 -10  -1 -12    2.28    0.28
  10   1  12    1.81    0.23
   0  -2 -12    1.07    0.09
  -1  -2 -12    1.75    0.12
  -1  -2 -12    2.11    0.12
  -2  -2 -12    1.69    0.13
  -2  -2 -12    1.67    0.13
  -3  -2 -12    1.16    0.12
  -3  -2 -12    1.15    0.11
  -4  -2 -12    3.31    0.20
  -5  -2 -12    0.20    0.08
  -6  -2 -12    4.35    0.25
  -7  -2 -12    0.68    0.13
   7   2  12    0.68    0.12
  -8  -2 -12    0.11    0.10
  -8  -2 -12    0.01    0.14
   8   2  12    0.14    0.11
  -9  -2 -12    0.02    0.09
  -9  -2 -12    0.19    0.15
   9   2  12    0.29    0.13
 -10  -2 -12    0.35    0.18
  10   2  12    0.29    0.15
  -1  -3 -12    2.61    0.14
  -1  -3 -12    2.76    0.14
  -2  -3 -12    3.78    0.18
  -2  -3 -12    3.67    0.18
  -3  -3 -12    1.89    0.14
  -3  -3 -12    1.75    0.14
  -4  -3 -12    0.72    0.11
  -5  -3 -12    4.10    0.23
  -6  -3 -12    0.70    0.12
  -7  -3 -12    0.85    0.14
   7   3  12    0.88    0.12
  -8  -3 -12    1.25    0.17
   8   3  12    1.49    0.17
  -9  -3 -12    0.07    0.10
  -9  -3 -12    0.15    0.15
   9   3  12    0.23    0.12
 -10  -3 -12   -0.04    0.16
  10   3  12   -0.06    0.12
   1  -4 -12    0.01    0.13
  -1  -4 -12    0.65    0.08
  -1  -4 -12    0.70    0.08
  -2  -4 -12    3.61    0.18
  -2  -4 -12    3.70    0.18
  -3  -4 -12    6.80    0.29
  -3  -4 -12    7.01    0.29
  -4  -4 -12    3.31    0.20
  -5  -4 -12    1.60    0.16
  -6  -4 -12    2.56    0.20
  -7  -4 -12    2.75    0.23
   7   4  12    2.64    0.20
  -8  -4 -12    1.08    0.16
   8   4  12    1.19    0.16
  -9  -4 -12    2.12    0.22
   9   4  12    2.02    0.22
   0  -5 -12    0.30    0.13
  -1  -5 -12    1.37    0.11
  -1  -5 -12    1.21    0.30
  -1  -5 -12    1.47    0.12
  -2  -5 -12    0.91    0.10
  -2  -5 -12    0.81    0.10
  -3  -5 -12    3.03    0.19
  -4  -5 -12    0.99    0.12
  -5  -5 -12    1.52    0.16
  -6  -5 -12    1.04    0.15
  -7  -5 -12    0.80    0.14
  -8  -5 -12    0.74    0.15
   8   5  12    0.60    0.13
  -9  -5 -12    0.85    0.16
   9   5  12    0.98    0.17
   0  -6 -12    0.63    0.08
  -1  -6 -12    0.37    0.08
  -1  -6 -12    0.34    0.07
  -1  -6 -12    0.44    0.16
  -2  -6 -12   -0.03    0.06
  -3  -6 -12   -0.03    0.07
  -4  -6 -12    1.57    0.16
  -5  -6 -12    0.74    0.12
  -6  -6 -12    1.41    0.17
  -7  -6 -12    0.04    0.10
  -8  -6 -12    0.64    0.15
  -2  -7 -12    2.00    0.16
  -3  -7 -12    2.01    0.17
  -4  -7 -12    0.76    0.13
  -5  -7 -12    1.42    0.17
  -6  -7 -12    2.01    0.20
  -7  -7 -12    1.75    0.21
  -2   5 -13    0.26    0.19
  -2   5 -13    0.40    0.12
  -3   5 -13    2.36    0.27
  -3   5 -13    1.54    0.19
   3  -5  13    2.08    0.26
  -4   5 -13    0.86    0.23
  -4   5 -13    0.67    0.15
   4  -5  13    0.79    0.18
  -5   5 -13    1.28    0.18
  -5   5 -13    2.47    0.29
   5  -5  13    1.70    0.28
  -6   5 -13    2.38    0.37
  -6   5 -13    1.76    0.28
  -7   5 -13    0.40    0.23
  -1   4 -13    3.48    0.24
   1  -4  13    3.94    0.37
  -2   4 -13    1.61    0.17
  -2   4 -13    2.05    0.24
   2  -4  13    1.94    0.27
  -3   4 -13    0.53    0.19
  -3   4 -13    0.50    0.13
   3  -4  13    0.66    0.18
  -4   4 -13    0.86    0.21
  -4   4 -13    1.03    0.16
   4  -4  13    1.17    0.20
  -5   4 -13    0.57    0.14
  -5   4 -13    0.48    0.20
   5  -4  13    0.43    0.18
  -6   4 -13    0.86    0.16
  -6   4 -13    0.86    0.22
   6  -4  13    1.02    0.16
  -7   4 -13    0.35    0.21
   7  -4  13    0.57    0.16
  -8   4 -13    0.59    0.24
   0   3 -13    0.41    0.10
  -1   3 -13    0.39    0.10
   1  -3  13    0.48    0.18
  -2   3 -13    1.30    0.15
   2  -3  13    1.33    0.22
  -3   3 -13    1.58    0.18
  -3   3 -13    1.88    0.23
   3  -3  13    2.12    0.26
  -4   3 -13    1.24    0.21
  -4   3 -13    1.11    0.15
   4  -3  13    0.93    0.18
  -5   3 -13   -0.17    0.08
  -5   3 -13   -0.03    0.16
  -6   3 -13    0.86    0.21
  -6   3 -13    0.98    0.16
   6  -3  13    0.85    0.14
  -7   3 -13    1.65    0.20
  -7   3 -13    1.88    0.28
   7  -3  13    2.14    0.22
  -8   3 -13    1.32    0.34
  -8   3 -13    1.48    0.26
   8  -3  13    1.45    0.20
  -9   3 -13    0.80    0.24
   0   2 -13    0.75    0.11
   0  -2  13    1.04    0.22
  -1   2 -13    1.51    0.15
   1  -2  13    2.13    0.28
  -2   2 -13    4.41    0.25
   2  -2  13    5.03    0.36
  -3   2 -13    2.65    0.21
   3  -2  13    3.30    0.29
  -4   2 -13    4.60    0.33
  -4   2 -13    4.42    0.26
   4  -2  13    4.25    0.31
  -5   2 -13    3.53    0.32
  -5   2 -13    3.48    0.24
  -6   2 -13    2.14    0.21
  -6   2 -13    2.45    0.27
   6  -2  13    2.07    0.23
  -7   2 -13    2.26    0.23
   7  -2  13    2.75    0.23
  -8   2 -13    0.67    0.14
   8  -2  13    0.78    0.16
  -9   2 -13    1.15    0.23
   1   1 -13    0.87    0.11
   0   1 -13    0.88    0.11
   0  -1  13    0.82    0.21
  -1   1 -13    1.37    0.14
   1  -1  13    1.54    0.24
  -2   1 -13    0.00    0.07
   2  -1  13    0.06    0.13
  -3   1 -13    1.71    0.16
   3  -1  13    1.94    0.23
  -4   1 -13    1.18    0.14
   4  -1  13    1.53    0.20
  -5   1 -13    3.93    0.25
  -6   1 -13    0.47    0.12
  -7   1 -13    0.38    0.12
   7  -1  13    0.34    0.11
  -8   1 -13    0.74    0.15
   8  -1  13    0.64    0.15
  -9   1 -13    1.43    0.27
   9  -1  13    1.07    0.19
   1   0 -13    0.91    0.10
   1   0 -13    1.05    0.10
   0   0 -13    0.71    0.10
   0   0 -13    0.58    0.10
   0   0  13    0.68    0.21
  -1   0 -13    1.19    0.12
   1   0  13    1.08    0.21
  -2   0 -13    2.96    0.19
   2   0  13    3.65    0.32
  -3   0 -13    1.62    0.15
   3   0  13    1.69    0.22
  -4   0 -13    2.43    0.19
  -5   0 -13    0.93    0.14
  -6   0 -13    0.72    0.13
  -7   0 -13    1.00    0.15
   7   0  13    0.91    0.13
  -8   0 -13    1.27    0.18
   8   0  13    1.04    0.16
   9   0  13    0.04    0.12
   1  -1 -13    0.61    0.08
   0  -1 -13    1.52    0.12
   0  -1 -13    1.46    0.12
  -1  -1 -13    1.27    0.11
  -1  -1 -13    1.44    0.12
  -2  -1 -13    2.19    0.15
  -3  -1 -13    1.74    0.15
  -4  -1 -13    1.38    0.14
  -5  -1 -13    1.08    0.14
  -6  -1 -13    1.91    0.19
  -7  -1 -13    0.34    0.11
  -8  -1 -13    0.36    0.12
   8   1  13    0.47    0.13
  -9  -1 -13    1.34    0.19
   9   1  13    1.60    0.20
   0  -2 -13    0.68    0.08
   0  -2 -13    0.76    0.08
  -1  -2 -13    0.46    0.08
  -1  -2 -13    0.38    0.07
  -2  -2 -13    1.06    0.11
  -2  -2 -13    0.99    0.11
  -3  -2 -13    1.66    0.15
  -4  -2 -13    2.22    0.17
  -5  -2 -13    4.35    0.25
  -6  -2 -13    2.99    0.22
  -7  -2 -13    2.80    0.23
  -8  -2 -13    2.05    0.21
   8   2  13    2.59    0.21
  -9  -2 -13    0.84    0.16
   9   2  13    0.48    0.14
  -1  -3 -13    0.33    0.07
  -1  -3 -13    0.46    0.07
  -2  -3 -13    0.59    0.09
  -2  -3 -13    0.50    0.08
  -3  -3 -13    0.59    0.10
  -4  -3 -13    0.21    0.08
  -5  -3 -13    0.65    0.12
  -6  -3 -13    2.05    0.19
  -7  -3 -13    0.37    0.12
  -8  -3 -13    0.23    0.11
  -1  -4 -13    1.42    0.12
  -1  -4 -13    1.61    0.12
  -2  -4 -13    0.48    0.08
  -2  -4 -13    0.41    0.08
  -3  -4 -13    1.26    0.13
  -4  -4 -13    0.79    0.11
  -5  -4 -13    0.15    0.09
  -6  -4 -13    0.32    0.11
  -7  -4 -13    1.40    0.17
  -8  -4 -13    0.93    0.16
  -1  -5 -13    1.17    0.10
  -2  -5 -13    2.49    0.16
  -3  -5 -13    3.88    0.22
  -4  -5 -13    1.47    0.15
  -5  -5 -13    0.85    0.13
  -6  -5 -13    0.77    0.13
  -7  -5 -13    0.58    0.13
  -4  -6 -13    0.40    0.10
  -5  -6 -13    0.73    0.13
  -4   3 -14    0.66    0.20
  -5   3 -14   -0.09    0.17
  -6   3 -14    0.53    0.21
  -3   2 -14    2.07    0.19
   3  -2  14    2.14    0.27
  -4   2 -14    2.35    0.21
  -4   2 -14    1.60    0.23
   4  -2  14    2.30    0.28
  -5   2 -14    2.10    0.20
  -5   2 -14    2.02    0.26
  -6   2 -14    0.23    0.11
  -6   2 -14    0.01    0.17
  -7   2 -14    2.17    0.28
  -3   1 -14    0.37    0.10
   3  -1  14    0.38    0.15
  -4   1 -14    1.51    0.17
   4  -1  14    1.12    0.27
  -5   1 -14    3.07    0.23
  -5   1 -14    2.45    0.26
  -6   1 -14    1.52    0.18
  -7   1 -14    0.00    0.10
  -2   0 -14    0.43    0.10
  -3   0 -14    0.56    0.11
  -4   0 -14    0.94    0.13
  -5   0 -14    1.44    0.16
  -6   0 -14    1.07    0.15
  -7   0 -14    1.44    0.18
  -3  -1 -14    0.32    0.09
  -4  -1 -14    0.19    0.09
  -5  -1 -14    0.07    0.09
  -6  -1 -14    0.23    0.10
  -7  -1 -14    0.57    0.13
  -3  -2 -14    0.89    0.12
  -4  -2 -14    0.13    0.08
  -5  -2 -14    1.45    0.16
  -6  -2 -14    0.80    0.14
  -4  -3 -14    1.59    0.16
  -5  -3 -14    0.15    0.09
  -6  -3 -14    1.65    0.18
   0   0   0    0.00    0.00
;
_shelx_hkl_checksum              82456
_shelx_res_file
;
TITL sz56cgt
CELL  0.71073   9.2710   9.5710  10.1560   87.833   68.383   88.803
ZERR     1.00   0.0050   0.0050   0.0050    0.005    0.005    0.005
LATT   1
SFAC  C    H    N    CD
UNIT  32   20   18   1
MERG   2
OMIT -2 65.0
SIZE 0.42 0.34 0.16
TEMP 23.0
FMAP   2
PLAN   25
L.S.   20
ACTA
BOND $H
CONF
HTAB
OMIT 1 0 0
OMIT -1 0 0
OMIT 0 1 0
WGHT    0.029200    0.170100
FVAR       0.17942
CD1   4    0.500000    0.500000    0.500000    10.50000    0.04851    0.02405 =
         0.03407    0.00277   -0.01430    0.00161
N1    3    0.402267    0.282560    0.589269    11.00000    0.03647    0.02972 =
         0.04519    0.00677   -0.01605   -0.00068
N2    3    0.257563    0.224405    0.644606    11.00000    0.03685    0.03368 =
         0.04893    0.00712   -0.01686   -0.00094
C3    1    0.274618    0.100465    0.699085    11.00000    0.03634    0.03036 =
         0.03354    0.00046   -0.01465   -0.00113
N4    3    0.427887    0.077160    0.677499    11.00000    0.03673    0.02444 =
         0.03398    0.00238   -0.01557    0.00016
C5    1    0.504069    0.194345    0.609279    11.00000    0.03787    0.02426 =
         0.03141    0.00167   -0.01410   -0.00047
N31   3    0.183413   -0.131233    0.784253    11.00000    0.04654    0.03108 =
         0.04264    0.00001   -0.01860   -0.00596
C32   1    0.145784    0.003709    0.771155    11.00000    0.04062    0.03326 =
         0.03089    0.00018   -0.01606   -0.00513
C33   1   -0.005448    0.054020    0.819913    11.00000    0.04347    0.04121 =
         0.04072   -0.00057   -0.01553   -0.00087
AFIX  43
H33   2   -0.026601    0.148261    0.809160    11.00000   -1.20000
AFIX   0
C34   1   -0.124449   -0.040142    0.885231    11.00000    0.03929    0.05950 =
         0.04692   -0.00214   -0.01276   -0.00594
AFIX  43
H34   2   -0.227348   -0.010173    0.918945    11.00000   -1.20000
AFIX   0
C35   1   -0.087592   -0.179148    0.899371    11.00000    0.05088    0.05172 =
         0.04912    0.00322   -0.01578   -0.01967
AFIX  43
H35   2   -0.165242   -0.244366    0.942301    11.00000   -1.20000
AFIX   0
C36   1    0.066059   -0.219335    0.848794    11.00000    0.05629    0.03503 =
         0.04937    0.00223   -0.02159   -0.01166
AFIX  43
H36   2    0.089763   -0.312847    0.860036    11.00000   -1.20000
AFIX   0
N41   3    0.497083   -0.039427    0.722591    11.00000    0.04708    0.02689 =
         0.05526    0.01058   -0.02437   -0.00059
AFIX   3
H41A  2    0.433794   -0.106803    0.729236    11.00000   -1.20000
H41B  2    0.494266   -0.017056    0.808912    11.00000   -1.20000
AFIX   0
N51   3    0.705113    0.356589    0.499997    11.00000    0.03897    0.02832 =
         0.03457    0.00005   -0.01153   -0.00273
C52   1    0.670677    0.227820    0.561420    11.00000    0.03628    0.02877 =
         0.02894   -0.00099   -0.01155   -0.00050
C53   1    0.784059    0.138409    0.575216    11.00000    0.04228    0.03742 =
         0.04688    0.00565   -0.01746    0.00279
AFIX  43
H53   2    0.758427    0.050557    0.619224    11.00000   -1.20000
AFIX   0
C54   1    0.937014    0.183223    0.521683    11.00000    0.03861    0.05389 =
         0.05235    0.00009   -0.01934    0.00594
AFIX  43
H54   2    1.015215    0.125670    0.530560    11.00000   -1.20000
AFIX   0
C55   1    0.972495    0.312932    0.455520    11.00000    0.03586    0.05607 =
         0.04701   -0.00382   -0.01288   -0.00751
AFIX  43
H55   2    1.074700    0.343281    0.417226    11.00000   -1.20000
AFIX   0
C56   1    0.853480    0.396964    0.447153    11.00000    0.04459    0.03780 =
         0.04312    0.00025   -0.01160   -0.00841
AFIX  43
H56   2    0.877100    0.485011    0.403156    11.00000   -1.20000
AFIX   0
C11   1    0.631722    0.360767    0.010383    11.00000    0.04886    0.03750 =
         0.03337   -0.00100   -0.01175   -0.00223
C12   1    0.580920    0.404300    0.149784    11.00000    0.05373    0.03640 =
         0.03906    0.00028   -0.01883    0.00113
N13   3    0.539865    0.438717    0.264151    11.00000    0.08594    0.06041 =
         0.04091   -0.00840   -0.02343   -0.00051
C14   1    0.551113    0.256872   -0.027630    11.00000    0.05244    0.05102 =
         0.03500   -0.00184   -0.01219   -0.00490
N15   3    0.488238    0.170899   -0.059785    11.00000    0.08186    0.08731 =
         0.06244   -0.01541   -0.01980   -0.03151
C16   1    0.765747    0.418403   -0.092310    11.00000    0.07434    0.05110 =
         0.05206   -0.00439   -0.00366   -0.01789
N17   3    0.875543    0.463741   -0.176179    11.00000    0.11770    0.10472 =
         0.09435   -0.00827    0.02748   -0.05626
HKLF 4
REM  sz56cgt
REM R1 =  0.0262 for    4682 Fo > 4sig(Fo)  and  0.0306 for all    5040 data
REM    232 parameters refined using      0 restraints
END
WGHT      0.0292      0.1702
REM Instructions for potential hydrogen bonds
HTAB N41 N31
EQIV $1 x, y, z+1
HTAB N41 N15_$1
HTAB C53 N41
EQIV $2 -x+2, -y+1, -z
HTAB C56 N17_$2
REM Highest difference peak  0.353,  deepest hole -0.273,  1-sigma level  0.053
Q1    1   0.6979  0.2846  0.5256  11.00000  0.05    0.35
Q2    1   0.4754  0.5744  0.4742  11.00000  0.05    0.33
Q3    1   0.4450  0.5408  0.4632  11.00000  0.05    0.33
Q4    1   0.2073  0.0543  0.7454  11.00000  0.05    0.32
Q5    1   0.1596 -0.0646  0.7669  11.00000  0.05    0.30
Q6    1   0.2630  0.1546  0.6742  11.00000  0.05    0.30
Q7    1   0.7258  0.1932  0.5947  11.00000  0.05    0.29
Q8    1   0.7735  0.3810  0.4910  11.00000  0.05    0.28
Q9    1   0.6074  0.3010 -0.0017  11.00000  0.05    0.28
Q10   1   0.4776  0.1341  0.6470  11.00000  0.05    0.27
Q11   1   0.5954  0.1997  0.5848  11.00000  0.05    0.27
Q12   1  -0.0952 -0.1010  0.9088  11.00000  0.05    0.27
Q13   1   0.4623  0.2388  0.5990  11.00000  0.05    0.27
Q14   1   0.9433  0.2468  0.4859  11.00000  0.05    0.26
Q15   1   0.0812  0.0069  0.7613  11.00000  0.05    0.25
Q16   1   0.4613  0.0327  0.6924  11.00000  0.05    0.25
Q17   1   0.8588  0.1562  0.5361  11.00000  0.05    0.25
Q18   1   0.8002  0.5219 -0.1717  11.00000  0.05    0.24
Q19   1   0.5057  0.2588 -0.0701  11.00000  0.05    0.24
Q20   1   0.7286  0.4694 -0.1022  11.00000  0.05    0.24
Q21   1   0.3417  0.0828  0.6965  11.00000  0.05    0.24
Q22   1   0.0817  0.0508  0.8222  11.00000  0.05    0.23
Q23   1   0.6140  0.3798  0.0732  11.00000  0.05    0.23
Q24   1  -0.0171 -0.1928  0.8491  11.00000  0.05    0.23
Q25   1   0.5564  0.5636  0.4985  11.00000  0.05    0.23
;
_shelx_res_checksum              61439
_shelxl_version_number           2.014
loop_
_space_group_symop_operation_xyz
'x, y, z'
'-x, -y, -z'
loop_
_atom_site_type_symbol
_atom_site_label
_atom_site_fract_x
_atom_site_fract_y
_atom_site_fract_z
_atom_site_U_iso_or_equiv
_atom_site_adp_type
_atom_site_calc_flag
_atom_site_occupancy
Cd Cd1 0.5000 0.5000 0.5000 0.03593(5) Uani d 1
N N1 0.40227(14) 0.28256(12) 0.58927(13) 0.0370(3) Uani d 1
N N2 0.25756(15) 0.22441(13) 0.64461(14) 0.0397(3) Uani d 1
C C3 0.27462(16) 0.10046(14) 0.69908(14) 0.0329(3) Uani d 1
N N4 0.42789(13) 0.07716(11) 0.67750(12) 0.0311(2) Uani d 1
C C5 0.50407(16) 0.19435(13) 0.60928(13) 0.0309(3) Uani d 1
N N31 0.18341(16) -0.13123(13) 0.78425(14) 0.0394(3) Uani d 1
C C32 0.14578(17) 0.00371(14) 0.77116(14) 0.0341(3) Uani d 1
C C33 -0.00545(19) 0.05402(17) 0.81991(16) 0.0418(3) Uani d 1
H H33 -0.0266 0.1483 0.8092 0.050 Uiso calc 1
C C34 -0.1244(2) -0.0401(2) 0.88523(18) 0.0494(4) Uani d 1
H H34 -0.2273 -0.0102 0.9189 0.059 Uiso calc 1
C C35 -0.0876(2) -0.17915(19) 0.89937(19) 0.0512(4) Uani d 1
H H35 -0.1652 -0.2444 0.9423 0.061 Uiso calc 1
C C36 0.0661(2) -0.21934(17) 0.84879(18) 0.0462(4) Uani d 1
H H36 0.0898 -0.3128 0.8600 0.055 Uiso calc 1
N N41 0.49708(15) -0.03943(12) 0.72259(15) 0.0418(3) Uani d 1
H H41A 0.4338 -0.1068 0.7292 0.050 Uiso d 1
H H41B 0.4943 -0.0171 0.8089 0.050 Uiso d 1
N N51 0.70511(14) 0.35659(12) 0.50000(12) 0.0345(2) Uani d 1
C C52 0.67068(16) 0.22782(13) 0.56142(13) 0.0315(3) Uani d 1
C C53 0.78406(18) 0.13841(16) 0.57522(17) 0.0421(3) Uani d 1
H H53 0.7584 0.0506 0.6192 0.051 Uiso calc 1
C C54 0.93701(19) 0.18322(19) 0.52168(18) 0.0477(4) Uani d 1
H H54 1.0152 0.1257 0.5306 0.057 Uiso calc 1
C C55 0.97249(19) 0.31293(19) 0.45552(18) 0.0468(4) Uani d 1
H H55 1.0747 0.3433 0.4172 0.056 Uiso calc 1
C C56 0.85348(19) 0.39696(17) 0.44715(17) 0.0430(3) Uani d 1
H H56 0.8771 0.4850 0.4032 0.052 Uiso calc 1
C C11 0.63172(19) 0.36077(16) 0.01038(15) 0.0408(3) Uani d 1
C C12 0.5809(2) 0.40430(16) 0.14978(16) 0.0426(3) Uani d 1
N N13 0.5399(2) 0.43872(18) 0.26415(16) 0.0622(4) Uani d 1
C C14 0.5511(2) 0.25687(18) -0.02763(17) 0.0472(4) Uani d 1
N N15 0.4882(2) 0.1709(2) -0.0598(2) 0.0783(6) Uani d 1
C C16 0.7657(3) 0.4184(2) -0.0923(2) 0.0644(5) Uani d 1
N N17 0.8755(3) 0.4637(3) -0.1762(3) 0.1235(11) Uani d 1
loop_
_atom_site_aniso_label
_atom_site_aniso_U_11
_atom_site_aniso_U_22
_atom_site_aniso_U_33
_atom_site_aniso_U_12
_atom_site_aniso_U_13
_atom_site_aniso_U_23
Cd1 0.04851(10) 0.02405(7) 0.03407(8) 0.00161(5) -0.01430(6) 0.00277(5)
N1 0.0365(6) 0.0297(6) 0.0452(7) -0.0007(4) -0.0160(5) 0.0068(5)
N2 0.0369(6) 0.0337(6) 0.0489(7) -0.0009(5) -0.0169(5) 0.0071(5)
C3 0.0363(7) 0.0304(6) 0.0335(6) -0.0011(5) -0.0146(5) 0.0005(5)
N4 0.0367(6) 0.0244(5) 0.0340(5) 0.0002(4) -0.0156(5) 0.0024(4)
C5 0.0379(7) 0.0243(5) 0.0314(6) -0.0005(5) -0.0141(5) 0.0017(4)
N31 0.0465(7) 0.0311(6) 0.0426(6) -0.0060(5) -0.0186(6) 0.0000(5)
C32 0.0406(7) 0.0333(6) 0.0309(6) -0.0051(5) -0.0161(5) 0.0002(5)
C33 0.0435(8) 0.0412(8) 0.0407(7) -0.0009(6) -0.0155(6) -0.0006(6)
C34 0.0393(8) 0.0595(10) 0.0469(9) -0.0059(7) -0.0128(7) -0.0021(7)
C35 0.0509(10) 0.0517(9) 0.0491(9) -0.0197(8) -0.0158(8) 0.0032(7)
C36 0.0563(10) 0.0350(7) 0.0494(9) -0.0117(7) -0.0216(8) 0.0022(6)
N41 0.0471(7) 0.0269(6) 0.0553(8) -0.0006(5) -0.0244(6) 0.0106(5)
N51 0.0390(6) 0.0283(5) 0.0346(6) -0.0027(4) -0.0115(5) 0.0000(4)
C52 0.0363(7) 0.0288(6) 0.0289(6) -0.0005(5) -0.0115(5) -0.0010(4)
C53 0.0423(8) 0.0374(7) 0.0469(8) 0.0028(6) -0.0175(7) 0.0057(6)
C54 0.0386(8) 0.0539(9) 0.0523(9) 0.0059(7) -0.0193(7) 0.0001(7)
C55 0.0359(8) 0.0561(10) 0.0470(8) -0.0075(7) -0.0129(7) -0.0038(7)
C56 0.0446(8) 0.0378(7) 0.0431(8) -0.0084(6) -0.0116(7) 0.0002(6)
C11 0.0489(8) 0.0375(7) 0.0334(7) -0.0022(6) -0.0118(6) -0.0010(5)
C12 0.0537(9) 0.0364(7) 0.0391(8) 0.0011(6) -0.0188(7) 0.0003(6)
N13 0.0859(12) 0.0604(10) 0.0409(8) -0.0005(9) -0.0234(8) -0.0084(7)
C14 0.0524(9) 0.0510(9) 0.0350(7) -0.0049(7) -0.0122(7) -0.0018(6)
N15 0.0819(13) 0.0873(14) 0.0624(11) -0.0315(11) -0.0198(10) -0.0154(10)
C16 0.0743(13) 0.0511(10) 0.0521(10) -0.0179(9) -0.0037(9) -0.0044(8)
N17 0.118(2) 0.1047(19) 0.0944(17) -0.0563(16) 0.0275(15) -0.0083(14)
loop_
_atom_type_symbol
_atom_type_description
_atom_type_scat_dispersion_real
_atom_type_scat_dispersion_imag
_atom_type_scat_source
C C 0.0033 0.0016 'International Tables Vol C Tables 4.2.6.8 and 6.1.1.4'
H H 0.0000 0.0000 'International Tables Vol C Tables 4.2.6.8 and 6.1.1.4'
N N 0.0061 0.0033 'International Tables Vol C Tables 4.2.6.8 and 6.1.1.4'
Cd Cd -0.8075 1.2024 'International Tables Vol C Tables 4.2.6.8 and 6.1.1.4'
loop_
_geom_angle_atom_site_label_1
_geom_angle_atom_site_label_2
_geom_angle_atom_site_label_3
_geom_angle_site_symmetry_1
_geom_angle_site_symmetry_3
_geom_angle
N1 Cd1 N1 2_666 . 180.00(6)
N1 Cd1 N51 2_666 . 108.14(5)
N1 Cd1 N51 . . 71.86(5)
N1 Cd1 N51 2_666 2_666 71.86(5)
N1 Cd1 N51 . 2_666 108.14(5)
N51 Cd1 N51 . 2_666 180.0
N1 Cd1 N13 2_666 2_666 92.09(6)
N1 Cd1 N13 . 2_666 87.91(6)
N51 Cd1 N13 . 2_666 89.17(5)
N51 Cd1 N13 2_666 2_666 90.83(5)
N1 Cd1 N13 2_666 . 87.91(6)
N1 Cd1 N13 . . 92.09(6)
N51 Cd1 N13 . . 90.83(5)
N51 Cd1 N13 2_666 . 89.17(5)
N13 Cd1 N13 2_666 . 180.0
C5 N1 N2 . . 109.27(12)
C5 N1 Cd1 . . 114.58(10)
N2 N1 Cd1 . . 135.56(9)
C3 N2 N1 . . 106.46(12)
N2 C3 N4 . . 109.83(12)
N2 C3 C32 . . 123.99(13)
N4 C3 C32 . . 126.18(12)
C5 N4 C3 . . 105.95(11)
C5 N4 N41 . . 125.21(12)
C3 N4 N41 . . 128.75(12)
N1 C5 N4 . . 108.48(12)
N1 C5 C52 . . 122.00(12)
N4 C5 C52 . . 129.52(12)
C36 N31 C32 . . 116.86(14)
N31 C32 C33 . . 123.55(14)
N31 C32 C3 . . 116.92(13)
C33 C32 C3 . . 119.52(13)
C32 C33 C34 . . 118.16(15)
C32 C33 H33 . . 120.9
C34 C33 H33 . . 120.9
C35 C34 C33 . . 118.94(17)
C35 C34 H34 . . 120.5
C33 C34 H34 . . 120.5
C36 C35 C34 . . 118.82(15)
C36 C35 H35 . . 120.6
C34 C35 H35 . . 120.6
N31 C36 C35 . . 123.65(16)
N31 C36 H36 . . 118.2
C35 C36 H36 . . 118.2
N4 N41 H41A . . 103.3
N4 N41 H41B . . 104.4
H41A N41 H41B . . 110.8
C56 N51 C52 . . 118.96(13)
C56 N51 Cd1 . . 123.45(10)
C52 N51 Cd1 . . 117.55(10)
N51 C52 C53 . . 121.74(13)
N51 C52 C5 . . 113.38(11)
C53 C52 C5 . . 124.88(13)
C52 C53 C54 . . 118.35(15)
C52 C53 H53 . . 120.8
C54 C53 H53 . . 120.8
C55 C54 C53 . . 119.83(15)
C55 C54 H54 . . 120.1
C53 C54 H54 . . 120.1
C54 C55 C56 . . 118.62(15)
C54 C55 H55 . . 120.7
C56 C55 H55 . . 120.7
N51 C56 C55 . . 122.45(15)
N51 C56 H56 . . 118.8
C55 C56 H56 . . 118.8
C12 C11 C16 . . 120.23(16)
C12 C11 C14 . . 120.31(15)
C16 C11 C14 . . 119.45(15)
N13 C12 C11 . . 179.34(19)
C12 N13 Cd1 . . 169.75(17)
N15 C14 C11 . . 178.6(2)
N17 C16 C11 . . 179.2(3)
loop_
_geom_bond_atom_site_label_1
_geom_bond_atom_site_label_2
_geom_bond_site_symmetry_2
_geom_bond_distance
Cd1 N1 2_666 2.3032(15)
Cd1 N1 . 2.3032(15)
Cd1 N51 . 2.3219(15)
Cd1 N51 2_666 2.3219(15)
Cd1 N13 2_666 2.3797(19)
Cd1 N13 . 2.3797(19)
N1 C5 . 1.3191(18)
N1 N2 . 1.3702(19)
N2 C3 . 1.3211(18)
C3 N4 . 1.3703(19)
C3 C32 . 1.473(2)
N4 C5 . 1.3604(17)
N4 N41 . 1.4193(16)
C5 C52 . 1.477(2)
N31 C36 . 1.340(2)
N31 C32 . 1.3453(19)
C32 C33 . 1.386(2)
C33 C34 . 1.388(2)
C33 H33 . 0.9300
C34 C35 . 1.382(3)
C34 H34 . 0.9300
C35 C36 . 1.376(3)
C35 H35 . 0.9300
C36 H36 . 0.9300
N41 H41A . 0.8649
N41 H41B . 0.9012
N51 C56 . 1.339(2)
N51 C52 . 1.3496(18)
C52 C53 . 1.385(2)
C53 C54 . 1.389(2)
C53 H53 . 0.9300
C54 C55 . 1.376(3)
C54 H54 . 0.9300
C55 C56 . 1.378(2)
C55 H55 . 0.9300
C56 H56 . 0.9300
C11 C12 . 1.395(2)
C11 C16 . 1.402(2)
C11 C14 . 1.403(2)
C12 N13 . 1.140(2)
C14 N15 . 1.142(2)
C16 N17 . 1.141(3)
loop_
_geom_hbond_atom_site_label_D
_geom_hbond_atom_site_label_H
_geom_hbond_atom_site_label_A
_geom_hbond_site_symmetry_A
_geom_hbond_distance_DH
_geom_hbond_distance_HA
_geom_hbond_distance_DA
_geom_hbond_angle_DHA
_geom_hbond_publ_flag
N41 H41A N31 . 0.86 2.19 2.889(3) 137 no
N41 H41B N15 1_556 0.90 2.27 3.023(3) 141 no
C56 H56 N17 2_765 0.93 2.62 3.230(4) 123 no
loop_
_geom_torsion_atom_site_label_1
_geom_torsion_atom_site_label_2
_geom_torsion_atom_site_label_3
_geom_torsion_atom_site_label_4
_geom_torsion
C5 N1 N2 C3 0.54(16)
Cd1 N1 N2 C3 -169.83(11)
N1 N2 C3 N4 -1.04(16)
N1 N2 C3 C32 179.22(13)
N2 C3 N4 C5 1.15(15)
C32 C3 N4 C5 -179.12(13)
N2 C3 N4 N41 177.58(13)
C32 C3 N4 N41 -2.7(2)
N2 N1 C5 N4 0.17(16)
Cd1 N1 C5 N4 172.77(8)
N2 N1 C5 C52 -179.76(12)
Cd1 N1 C5 C52 -7.16(17)
C3 N4 C5 N1 -0.79(15)
N41 N4 C5 N1 -177.38(12)
C3 N4 C5 C52 179.14(13)
N41 N4 C5 C52 2.5(2)
C36 N31 C32 C33 -0.2(2)
C36 N31 C32 C3 -179.47(13)
N2 C3 C32 N31 161.22(14)
N4 C3 C32 N31 -18.5(2)
N2 C3 C32 C33 -18.0(2)
N4 C3 C32 C33 162.26(14)
N31 C32 C33 C34 -0.3(2)
C3 C32 C33 C34 178.93(14)
C32 C33 C34 C35 0.2(2)
C33 C34 C35 C36 0.3(3)
C32 N31 C36 C35 0.9(2)
C34 C35 C36 N31 -0.9(3)
C56 N51 C52 C53 2.1(2)
Cd1 N51 C52 C53 -175.53(11)
C56 N51 C52 C5 -177.38(13)
Cd1 N51 C52 C5 4.96(15)
N1 C5 C52 N51 1.57(19)
N4 C5 C52 N51 -178.35(13)
N1 C5 C52 C53 -177.92(14)
N4 C5 C52 C53 2.2(2)
N51 C52 C53 C54 -1.1(2)
C5 C52 C53 C54 178.35(14)
C52 C53 C54 C55 -0.8(3)
C53 C54 C55 C56 1.5(3)
C52 N51 C56 C55 -1.3(2)
Cd1 N51 C56 C55 176.20(12)
C54 C55 C56 N51 -0.5(3)

_cod_database_fobs_code 2020847
