#------------------------------------------------------------------------------
#$Date: 2016-08-27 04:13:54 +0300 (Sat, 27 Aug 2016) $
#$Revision: 186037 $
#$URL: file:///home/coder/svn-repositories/cod/cif/2/02/05/2020577.cif $
#------------------------------------------------------------------------------
#
# This file is available in the Crystallography Open Database (COD),
# http://www.crystallography.net/. The original data for this entry
# were provided by IUCr Journals, http://journals.iucr.org/.
#
# The file may be used within the scientific community so long as
# proper attribution is given to the journal article from which the
# data were obtained.
#
data_2020577
loop_
_publ_author_name
'H\"utzler, Wilhelm Maximilian'
'Egert, Ernst'
'Bolte, Michael'
_publ_section_title
;
 One barbiturate and two solvated thiobarbiturates containing the triply
 hydrogen-bonded <i>ADA</i>/<i>DAD</i> synthon, plus one ansolvate and
 three solvates of their coformer 2,4-diaminopyrimidine
;
_journal_issue                   9
_journal_name_full               'Acta Crystallographica Section C'
_journal_page_first
;
;
_journal_paper_doi               10.1107/S205322961601336X
_journal_volume                  72
_journal_year                    2016
_chemical_formula_iupac          'C4 H6 N4, C4 H9 N O'
_chemical_formula_moiety         'C4 H6 N4, C4 H9 N O'
_chemical_formula_sum            'C8 H15 N5 O'
_chemical_formula_weight         197.25
_chemical_name_systematic
;
Pyrimidine-2,4-diamine--<i>N</i>,<i>N</i>-dimethylacetamide (1/1)
;
_space_group_crystal_system      triclinic
_space_group_IT_number           2
_space_group_name_Hall           '-P 1'
_space_group_name_H-M_alt        'P -1'
_symmetry_space_group_name_Hall  '-P 1'
_symmetry_space_group_name_H-M   'P -1'
_atom_sites_solution_hydrogens   mixed
_audit_creation_method           SHELXL-2014/7
_cell_angle_alpha                81.779(2)
_cell_angle_beta                 78.053(2)
_cell_angle_gamma                62.518(2)
_cell_formula_units_Z            2
_cell_length_a                   8.0055(10)
_cell_length_b                   8.0256(10)
_cell_length_c                   9.3143(11)
_cell_measurement_reflns_used    2889
_cell_measurement_temperature    180(2)
_cell_measurement_theta_max      23
_cell_measurement_theta_min      3
_cell_volume                     518.63(11)
_computing_cell_refinement
;
SMART (Siemens, 1995)
;
_computing_data_collection
;
SMART (Siemens, 1995)
;
_computing_data_reduction
;
SAINT (Siemens, 1995)
;
_computing_molecular_graphics
;
Mercury (Version 3.8, Macrae <i>et al.</i>,  2008) and XP in
SHELXTL-Plus (Sheldrick,
2008)
;
_computing_publication_material
;
publCIF (Westrip, 2010)
;
_computing_structure_refinement
;
SHELXL (Sheldrick, 2015)
;
_computing_structure_solution
;
SHELXS97 (Sheldrick, 2008)
;
_diffrn_ambient_temperature      180(2)
_diffrn_measured_fraction_theta_full 0.986
_diffrn_measured_fraction_theta_max 0.867
_diffrn_measurement_device_type  'Siemens CCD three-circle'
_diffrn_measurement_method       \w
_diffrn_radiation_type           MoK\a
_diffrn_radiation_wavelength     0.71073
_diffrn_reflns_av_R_equivalents  0.1108
_diffrn_reflns_limit_h_max       10
_diffrn_reflns_limit_h_min       -10
_diffrn_reflns_limit_k_max       10
_diffrn_reflns_limit_k_min       -10
_diffrn_reflns_limit_l_max       12
_diffrn_reflns_limit_l_min       -11
_diffrn_reflns_number            5287
_diffrn_reflns_theta_full        25.000
_diffrn_reflns_theta_max         28.179
_diffrn_reflns_theta_min         2.238
_exptl_absorpt_coefficient_mu    0.089
_exptl_absorpt_correction_T_max  1.000
_exptl_absorpt_correction_T_min  0.648
_exptl_absorpt_correction_type   multi-scan
_exptl_absorpt_process_details
;
(SADABS; Sheldrick, 1996)
;
_exptl_crystal_colour            colourless
_exptl_crystal_density_diffrn    1.263
_exptl_crystal_description       block
_exptl_crystal_F_000             212
_exptl_crystal_size_max          0.500
_exptl_crystal_size_mid          0.400
_exptl_crystal_size_min          0.400
_refine_diff_density_max         0.395
_refine_diff_density_min         -0.440
_refine_ls_extinction_method     none
_refine_ls_goodness_of_fit_ref   1.122
_refine_ls_hydrogen_treatment    mixed
_refine_ls_matrix_type           full
_refine_ls_number_parameters     161
_refine_ls_number_reflns         2204
_refine_ls_number_restraints     132
_refine_ls_restrained_S_all      1.174
_refine_ls_R_factor_all          0.1665
_refine_ls_R_factor_gt           0.1125
_refine_ls_shift/su_max          0.004
_refine_ls_shift/su_mean         0.000
_refine_ls_structure_factor_coef Fsqd
_refine_ls_weighting_details
'w=1/[\s^2^(Fo^2^)+(0.1438P)^2^] where P=(Fo^2^+2Fc^2^)/3'
_refine_ls_weighting_scheme      calc
_refine_ls_wR_factor_gt          0.2535
_refine_ls_wR_factor_ref         0.2856
_reflns_number_gt                1346
_reflns_number_total             2204
_reflns_threshold_expression     'I > 2\s(I)'
_cod_data_source_file            sk3636sup1.cif
_cod_data_source_block           III
_cod_database_code               2020577
_shelx_space_group_comment
;
The symmetry employed for this shelxl refinement is uniquely defined
by the following loop, which should always be used as a source of
symmetry information in preference to the above space-group names.
They are only intended as comments.
;
_shelx_estimated_absorpt_t_min   0.957
_shelx_estimated_absorpt_t_max   0.965
_shelx_hkl_file
;
   1   0   0  188.32   15.97   3
  -1   0   0  195.85   20.90   1
  -1   0   0  240.28   22.19   2
   1   0   0  206.45   19.84   4
   2   0   0   98.13    8.84   3
  -2   0   0   91.86   10.46   1
   2   0   0  133.92   13.45   4
  -2   0   0  106.47   10.51   2
  -3   0   0   44.33    5.95   1
   3   0   0   53.48    5.58   3
  -3   0   0   68.05    7.44   2
   3   0   0   56.91    6.72   4
  -4   0   0  266.69   25.73   2
   4   0   0  238.71   21.09   3
   4   0   0  226.15   23.06   4
  -5   0   0    3.16    2.77   2
   5   0   0    3.11    3.12   4
   5   0   0    1.85    2.31   3
  -5   0   0    2.26    2.49   1
  -6   0   0    8.39    2.98   1
  -6   0   0   20.87    4.86   2
   6   0   0   11.38    4.39   4
  -7   0   0    4.77    4.01   2
   7   0   0   11.09    5.23   4
   8   0   0   17.66    6.82   4
  -8   0   0    4.37    4.72   2
  -9   0   0    4.65    5.75   2
   7  -1   0    2.53    5.28   4
  -7   1   0    5.86    4.04   2
  -6   1   0   -0.46    2.81   1
   6  -1   0    3.37    4.07   4
  -6   1   0    0.00    2.41   2
  -5   1   0   31.36    5.19   2
   5  -1   0   27.20    5.77   4
  -4   1   0   60.93    8.27   1
   4  -1   0   96.57   11.40   4
   4  -1   0   89.26    8.62   3
  -3   1   0  178.23   20.34   1
   3  -1   0  281.67   24.20   3
   3  -1   0  263.91   26.51   4
  -3   1   0  201.05   19.49   2
  -2   1   0 2493.16  262.69   1
   2  -1   0 2567.55  214.20   3
  -2   1   0 3338.30  303.90   2
   2  -1   0 2143.95  203.06   4
  -1   1   0  335.19   30.93   2
   1  -1   0  417.21   35.00   3
   0  -1   0  331.73   27.93   3
   0   1   0  343.16   31.42   2
   0   1   0  264.78   28.23   1
  -1  -1   0  104.93    9.93   2
   2   1   0 2879.56  240.51   3
   2   1   0 2994.42  282.49   4
  -2  -1   0 2292.45  241.53   1
  -2  -1   0 2364.83  215.41   2
  -3  -1   0    6.98    2.31   2
   3   1   0    7.64    2.31   3
   3   1   0    8.25    2.27   4
   4   1   0   58.68    6.48   3
   4   1   0   48.82    6.18   4
  -4  -1   0   45.58    5.89   1
  -4  -1   0   40.58    5.42   2
  -5  -1   0   13.12    3.44   2
  -5  -1   0   10.24    2.63   1
   5   1   0   17.21    3.90   4
   5   1   0   11.41    3.21   3
   6   1   0   -0.03    2.73   3
   6   1   0    1.96    3.79   4
   7   1   0   35.34    7.03   4
  -7  -1   0   32.93    6.42   2
   8   1   0   66.10   10.81   4
  -8  -1   0   64.17    9.65   2
   9   1   0   13.62    6.50   4
  -9  -1   0   17.14    6.83   2
  -7   2   0   29.03    6.49   1
   7  -2   0   49.67    9.89   4
   6  -2   0   -0.17    4.17   4
  -6   2   0    0.71    3.46   2
  -6   2   0    4.62    3.63   1
   5  -2   0   55.98    9.02   4
  -5   2   0   42.86    6.22   2
  -5   2   0   36.95    6.51   1
  -4   2   0   20.34    3.93   2
  -4   2   0   11.21    3.20   1
   4  -2   0   16.05    4.39   4
  -3   2   0  299.76   28.57   2
   3  -2   0  351.31   35.26   4
   3  -2   0  296.45   25.37   3
  -2   2   0    4.40    1.82   2
  -2   2   0    0.97    1.51   1
   2  -2   0    1.12    1.92   4
   2  -2   0    5.79    1.54   3
  -1   2   0  332.64   30.88   2
   0  -2   0  326.38   31.77   4
   0  -2   0  345.62   29.37   3
   0   2   0  239.69   26.10   1
   0   2   0  326.06   30.18   2
   1   2   0  196.62   21.18   1
   2   2   0   21.04    3.12   3
  -2  -2   0   26.86    3.45   2
  -2  -2   0   23.90    3.16   5
  -2  -2   0   20.12    3.00   1
   3   2   0  312.19   27.28   3
   3   2   0  379.29   36.62   4
  -3  -2   0  302.85   31.95   1
  -3  -2   0  299.60   28.35   2
   4   2   0    1.97    1.95   4
   4   2   0    2.67    2.12   3
  -4  -2   0    0.85    0.82   1
  -5  -2   0  272.04   26.66   2
   6   2   0   47.42    6.67   3
   6   2   0   56.01    7.71   4
  -6  -2   0   63.84    8.28   2
   7   2   0    1.09    3.15   4
   7   2   0    3.44    4.24   3
  -7  -2   0    0.74    3.59   2
  -8  -2   0   82.58   11.20   2
   9   2   0   83.14   12.56   4
  -9  -2   0   86.74   12.23   2
  -7   3   0   17.62    6.27   1
  -6   3   0   19.88    5.30   1
   6  -3   0   36.27    8.98   4
   5  -3   0   -0.91    4.62   4
  -4   3   0    8.00    3.57   1
  -4   3   0    8.79    3.14   2
   4  -3   0    8.66    4.53   4
  -3   3   0   29.12    4.46   2
   3  -3   0   37.38    6.82   4
  -2   3   0    8.93    2.26   2
  -2   3   0    7.25    2.39   1
   2  -3   0    8.51    3.64   4
   2  -3   0   11.04    2.14   3
  -1   3   0    7.59    2.30   1
   1  -3   0    9.09    3.35   4
  -1   3   0   11.78    2.38   2
   1  -3   0   13.04    2.31   3
   0  -3   0   35.17    4.02   3
   0  -3   0   23.55    4.11   4
   0   3   0   33.65    4.03   2
  -1  -3   0  100.80    9.53   3
   1   3   0   81.85    9.60   1
   2   3   0   85.41    8.52   3
  -2  -3   0  120.22   11.86   2
   2   3   0  136.65   13.95   4
  -3  -3   0   49.51    5.56   1
   3   3   0   66.92    7.40   4
  -3  -3   0   70.94    7.76   2
   4   3   0  130.03   12.89   3
  -4  -3   0  109.49   11.63   2
   4   3   0  120.12   12.74   4
   5   3   0    7.26    2.80   4
  -5  -3   0    6.47    3.06   2
   5   3   0    8.38    3.25   3
   6   3   0   29.83    5.23   4
   6   3   0   23.46    5.10   3
  -6  -3   0   36.00    6.25   2
   7   3   0   77.73   10.26   4
  -7  -3   0   90.37   11.21   2
   7   3   0   78.95    9.92   3
   8   3   0   12.42    5.48   4
  -8  -3   0   20.32    5.76   2
   8   3   0   12.28    5.29   3
  -9  -3   0    4.31    4.68   2
   6  -4   0    9.15    6.93   4
  -6   4   0    0.87    4.68   1
  -5   4   0   34.92    6.94   1
   5  -4   0   56.40   10.49   4
   4  -4   0    3.65    4.35   4
  -4   4   0    4.59    3.51   1
  -3   4   0   10.19    3.84   1
   3  -4   0   10.01    4.61   4
   2  -4   0  105.10   12.87   4
  -2   4   0  117.28   12.12   2
   1  -4   0    4.53    2.11   3
  -1   4   0    3.43    2.06   1
   0   4   0  198.27   19.11   2
   0  -4   0  231.42   23.97   4
   0   4   0  200.10   22.84   1
   0  -4   0  234.91   20.83   3
   1   4   0 1526.16  161.61   1
   1   4   0 2100.63  199.30   4
   1   4   0 2323.90  212.08   2
   2   4   0    9.02    2.03   1
  -2  -4   0    9.07    2.50   3
  -2  -4   0    9.15    1.94   2
   2   4   0   12.29    3.11   4
   3   4   0  170.33   18.60   1
   3   4   0  140.61   14.74   4
   4   4   0   46.02    6.22   3
  -4  -4   0   54.71    6.87   2
  -4  -4   0   42.60    4.83   1
   5   4   0    3.95    2.65   4
   5   4   0   -0.50    2.88   3
  -5  -4   0    4.41    2.79   2
  -6  -4   0   27.34    5.33   2
   6   4   0   27.17    5.18   4
   6   4   0   25.27    5.59   3
   7   4   0    8.20    4.62   3
   7   4   0   10.72    4.28   4
  -7  -4   0   21.74    5.44   2
   8   4   0    0.83    4.27   3
   8   4   0    4.17    3.83   4
  -9  -4   0    9.16    5.45   2
   5  -5   0   10.01    7.04   4
  -5   5   0    1.74    4.75   1
  -4   5   0    0.07    3.53   1
   3  -5   0    9.86    5.94   4
  -3   5   0   14.83    4.39   1
   2  -5   0   -0.15    3.55   4
   1  -5   0  848.40   83.06   4
  -1   5   0  834.66   90.36   1
   0   5   0   70.12    7.86   2
   0   5   0  110.21   13.85   1
   1   5   0   26.28    4.09   2
   1   5   0   14.06    3.63   4
   1   5   0   23.30    4.32   1
  -1  -5   0   21.27    3.66   3
   2   5   0   -0.43    2.11   4
  -2  -5   0    0.76    2.22   3
  -2  -5   0    1.31    1.49   2
   2   5   0    1.34    1.77   1
   3   5   0  752.04   72.58   4
  -3  -5   0  741.88   68.80   2
   3   5   0  630.30   67.36   1
  -3  -5   0  747.42   64.11   3
   4   5   0    1.37    2.24   4
  -4  -5   0    0.08    2.05   2
   4   5   0    2.47    3.35   3
   5   5   0    3.01    2.91   3
   5   5   0    3.73    2.92   4
  -5  -5   0    2.31    3.03   2
  -6  -5   0    5.30    3.10   2
   6   5   0    6.06    4.12   3
   6   5   0    6.09    2.88   4
  -7  -5   0    5.47    4.50   2
   7   5   0    6.88    4.59   3
   7   5   0    3.66    3.42   4
   8   5   0   -0.32    3.69   4
   8   5   0   13.27    5.60   3
  -8  -5   0    9.76    4.61   2
   9   5   0    8.26    5.41   4
  -9  -5   0   12.19    6.34   2
  -9  -5   0    4.26    4.29   3
  -4   6   0   12.19    5.88   1
  -3   6   0    7.11    4.85   1
  -1   6   0    1.29    3.07   1
   1  -6   0    3.85    4.03   4
   0   6   0   12.89    3.99   1
   0  -6   0    3.91    4.86   4
  -1  -6   0  178.80   16.96   3
  -1  -6   0  206.03   22.45   4
   2   6   0   11.10    3.31   1
  -2  -6   0   15.26    2.89   2
   2   6   0   10.72    3.69   4
  -2  -6   0   11.24    3.49   3
   3   6   0    1.14    2.50   4
   3   6   0   -0.12    2.25   1
  -3  -6   0    0.90    2.78   3
  -4  -6   0   58.17    7.53   2
  -4  -6   0   42.33    6.53   3
   4   6   0   53.98    7.68   4
  -5  -6   0    5.00    3.23   2
   5   6   0   -0.17    2.90   4
   6   6   0    1.77    3.29   4
   6   6   0    4.68    4.56   3
  -6  -6   0    9.14    4.20   2
  -7  -6   0    1.76    3.53   3
  -7  -6   0    9.81    4.40   2
   7   6   0    3.58    3.40   4
   7   6   0    6.52    5.25   3
   8   6   0   22.47    7.10   3
  -8  -6   0   30.84    7.54   2
  -8  -6   0   27.46    6.27   3
   8   6   0   22.24    5.24   4
   9   6   0    4.94    4.83   4
  -9  -6   0    1.64    4.87   3
  -9  -6   0   11.16    6.19   2
 -10  -6   0   10.44    6.44   3
  -2   7   0    8.73    4.98   1
   2  -7   0    5.52    5.87   4
  -1   7   0    6.44    4.15   1
   0  -7   0  183.90   21.38   4
   0   7   0  134.55   17.32   1
   1   7   0   45.96    7.51   1
  -1  -7   0   53.32    8.93   4
   2   7   0   95.09   11.96   4
   2   7   0  111.09   14.17   1
  -2  -7   0  110.50   11.74   3
   3   7   0    5.49    3.87   4
  -3  -7   0    2.82    3.21   3
  -4  -7   0    8.13    4.04   2
  -4  -7   0   -0.10    3.29   3
  -5  -7   0    8.64    3.87   3
  -5  -7   0   15.24    4.95   2
   5   7   0   12.77    4.79   4
  -6  -7   0    8.21    4.89   3
   6   7   0   15.10    4.86   4
  -6  -7   0   17.68    5.04   2
   7   7   0   34.04    7.20   4
  -7  -7   0   49.81    7.84   2
  -7  -7   0   48.91    8.04   3
  -8  -7   0   54.94    9.00   3
  -8  -7   0   70.59   11.09   2
  -9  -7   0   17.01    6.62   2
  -9  -7   0    7.57    5.86   3
   9   7   0    6.17    4.90   4
  -1   8   0    0.67    4.22   1
   1  -8   0    5.09    7.04   4
   0  -8   0   31.66    8.52   4
   0   8   0   36.06    7.34   1
   1   8   0   37.15    6.91   1
  -1  -8   0   37.92    8.85   4
  -2  -8   0    4.28    4.40   4
  -2  -8   0    2.32    3.53   3
  -3  -8   0   38.73    6.33   3
   3   8   0   35.92    7.34   4
  -4  -8   0   22.19    5.22   3
   4   8   0   23.95    6.13   4
  -6  -8   0    1.75    3.78   3
  -6  -8   0    0.48    4.34   2
   7   8   0   27.37    6.57   4
  -7  -8   0   30.12    6.61   3
  -7  -8   0   38.03    7.08   2
  -8  -8   0   60.86   10.25   2
  -8  -8   0   37.81    7.60   3
   8   8   0   27.65    7.09   4
   9   8   0   10.96    6.83   4
  -9  -8   0    6.72    6.66   2
   0  -9   0   10.00    6.73   4
   1   9   0    2.27    4.95   1
  -1  -9   0   20.32    7.56   4
  -2  -9   0    2.14    5.11   4
  -3  -9   0   11.31    5.62   4
  -3  -9   0    6.10    4.35   3
  -4  -9   0    3.00    3.37   3
   4   9   0    5.41    4.88   4
   5   9   0   69.73   10.74   4
  -5  -9   0   60.34    9.14   3
  -6  -9   0   29.94    6.95   3
   6   9   0   23.69    6.71   4
   7   9   0    3.21    5.12   4
  -7  -9   0    1.33    4.54   3
   8   9   0   15.83    7.11   4
  -3 -10   0    2.28    6.25   4
  -4 -10   0    7.81    5.82   4
   5  10   0   16.95    6.86   4
  -5 -10   0    7.48    4.84   3
   6  10   0    3.92    6.08   4
  -5 -10   1    1.63    5.19   3
  -4 -10   1    2.34    4.94   3
  -7  -9   1    2.29    5.20   3
   7   9  -1    5.38    5.91   4
  -6  -9   1    2.96    4.20   3
  -5  -9   1   12.38    5.17   3
   5   9  -1    3.78    4.85   4
   4   9  -1    0.01    4.66   4
   3   9  -1    2.32    5.14   4
  -3  -9   1    9.64    5.32   4
  -2  -9   1   13.96    6.75   4
   1   9  -1   21.83    6.48   1
  -1  -9   1   14.53    8.40   4
   0   9  -1    9.39    5.88   1
   8   8  -1    5.29    5.23   4
  -8  -8   1   12.46    5.91   2
  -8  -8   1    9.55    5.46   3
  -7  -8   1   44.53    8.68   2
  -7  -8   1   20.95    6.43   3
   7   8  -1   27.50    6.58   4
   6   8  -1   14.00    5.67   4
  -6  -8   1   16.60    5.49   3
   5   8  -1   25.17    6.04   4
  -5  -8   1   24.74    5.94   3
  -4  -8   1   14.55    4.57   3
   4   8  -1   24.66    6.18   4
  -3  -8   1   11.08    4.51   3
   3   8  -1   14.09    5.36   4
  -2  -8   1    6.55    3.93   3
  -2  -8   1    6.61    4.91   4
   1   8  -1    4.84    4.14   1
  -1  -8   1    6.52    5.58   4
   0   8  -1    0.14    4.19   1
   0  -8   1   -0.03    5.07   4
   1  -8   1   20.60    7.43   4
  -1   8  -1   15.37    6.09   1
   9   7  -1    1.26    4.98   4
  -9  -7   1    3.34    5.23   3
  -9  -7   1   18.28    7.00   2
  -8  -7   1   92.51   12.54   3
  -8  -7   1  102.14   13.42   2
   8   7  -1   75.77   10.74   4
  -7  -7   1   17.84    6.66   2
   7   7  -1    5.37    4.84   4
  -7  -7   1   13.46    5.79   3
   6   7  -1  102.31   13.00   4
  -6  -7   1   90.29   11.29   2
  -6  -7   1   97.61   11.97   3
  -5  -7   1   38.09    6.56   3
  -5  -7   1   49.59    7.31   2
   5   7  -1   49.26    7.91   4
   4   7  -1   60.51    8.69   4
  -4  -7   1   75.10    9.66   3
   3   7  -1   89.63   11.66   4
  -3  -7   1   75.50    9.26   3
   2   7  -1    0.20    3.75   4
  -1  -7   1   31.01    5.36   3
   1   7  -1   28.66    5.57   1
  -1  -7   1   24.39    6.50   4
   0  -7   1    2.04    4.96   4
   0   7  -1    0.57    2.92   1
  -1   7  -1   10.07    4.25   1
   1  -7   1    9.97    6.09   4
  -2   7  -1    5.49    4.52   1
   2  -7   1    5.73    6.38   4
   3  -7   1    1.50    5.45   4
  -9  -6   1    8.79    5.52   3
   9   6  -1    6.14    4.90   4
  -9  -6   1   10.86    6.03   2
  -8  -6   1    7.61    4.53   3
  -8  -6   1    1.28    5.04   2
   8   6  -1    4.74    3.85   4
  -7  -6   1    6.43    4.30   3
   7   6  -1    2.03    3.37   4
  -7  -6   1    0.15    4.11   2
  -6  -6   1  229.33   23.70   2
  -6  -6   1  238.74   23.23   3
   6   6  -1  253.47   26.56   4
   5   6  -1   -0.46    2.93   4
  -5  -6   1    2.64    2.86   2
  -5  -6   1    0.78    3.24   3
  -4  -6   1    4.58    3.18   2
   4   6  -1    3.56    3.34   4
  -3  -6   1   17.75    4.40   3
   3   6  -1   14.20    4.38   4
   3   6  -1   11.20    3.00   1
  -3  -6   1   21.82    3.85   2
  -2  -6   1   60.78    7.61   3
   2   6  -1   51.26    7.39   1
   2   6  -1   41.56    6.91   4
   1   6  -1    6.95    4.15   4
  -1  -6   1   14.26    4.70   4
   1   6  -1    9.55    3.13   1
  -1  -6   1   14.47    3.84   3
   0   6  -1  164.22   20.10   1
   0  -6   1  108.61   13.87   4
   0  -6   1  160.70   15.66   3
   1  -6   1   92.04   13.15   4
  -1   6  -1   83.03   11.85   1
  -2   6  -1    3.91    3.70   1
   2  -6   1    2.69    5.01   4
   3  -6   1    7.53    5.43   4
  -3   6  -1   13.11    5.39   1
   4  -6   1   46.47   11.11   4
  -4   6  -1   28.63    7.07   1
  -9  -5   1    1.55    6.60   2
  -9  -5   1   12.57    5.66   3
   8   5  -1   11.19    5.04   4
  -8  -5   1    6.32    4.36   2
  -8  -5   1   10.30    4.95   3
  -7  -5   1    2.72    3.69   3
  -7  -5   1    5.74    4.13   2
   7   5  -1    4.40    3.78   4
  -6  -5   1   39.69    6.70   3
  -6  -5   1   50.39    7.97   2
   6   5  -1   38.78    6.05   4
   5   5  -1   12.76    3.76   4
  -5  -5   1   10.60    3.83   3
  -5  -5   1    8.03    3.07   2
   4   5  -1   34.99    5.69   4
  -4  -5   1   41.30    6.08   3
  -4  -5   1   52.43    6.92   2
   3   5  -1    2.99    1.81   1
  -3  -5   1    0.43    2.31   3
   3   5  -1    4.97    2.85   4
   2   5  -1   61.57    7.95   4
  -2  -5   1   90.32    9.36   2
   2   5  -1   68.95    8.81   1
  -2  -5   1   82.18    8.98   3
   1   5  -1  114.31   13.93   1
  -1  -5   1  176.27   16.87   2
   0  -5   1   13.57    4.95   4
   0   5  -1   15.76    3.69   1
   0  -5   1   19.64    4.05   3
  -1   5  -1  223.38   26.17   1
   2  -5   1  841.73   82.98   4
  -2   5  -1  905.47   98.24   1
   3  -5   1  191.48   22.38   4
   4  -5   1    8.79    6.97   4
  -4   5  -1    2.97    4.33   1
   5  -5   1    3.30    6.71   4
  -5   5  -1    1.42    4.65   1
  -9  -4   1   10.65    5.77   2
   9   4  -1    2.13    5.03   4
   8   4  -1    7.14    4.81   4
  -8  -4   1   14.13    5.34   3
  -8  -4   1   10.91    6.40   2
   7   4  -1    4.25    3.96   4
   6   4  -1    1.63    2.95   4
  -6  -4   1    5.55    3.60   2
  -6  -4   1    1.98    3.05   3
  -5  -4   1    9.82    3.95   2
  -5  -4   1    5.75    3.36   3
   5   4  -1    8.54    3.14   4
   4   4  -1    0.09    1.79   4
  -4  -4   1    1.76    2.05   2
  -3  -4   1    3.96    2.28   2
   3   4  -1    4.03    1.39   1
  -3  -4   1    6.43    2.56   3
   3   4  -1    5.16    2.49   4
  -2  -4   1  118.13   11.67   3
  -2  -4   1  124.41   12.35   2
   2   4  -1  124.76   13.42   4
   1   4  -1 1133.55  108.43   4
  -1  -4   1 1004.87   85.23   3
  -1  -4   1 1102.18  100.76   2
   0  -4   1  298.98   30.40   4
   0   4  -1  364.04   40.10   1
   0  -4   1  399.73   34.80   3
   0   4  -1  403.55   37.41   2
   1  -4   1    8.90    3.81   4
   1  -4   1   13.55    3.08   3
  -1   4  -1    8.90    1.97   2
  -1   4  -1    5.34    2.76   1
   2  -4   1   77.88   10.63   4
  -2   4  -1   53.55    8.16   1
  -3   4  -1   50.79    8.43   1
   3  -4   1   80.31   12.11   4
   4  -4   1  106.35   14.78   4
  -4   4  -1   77.97   11.36   1
  -5   4  -1    8.22    4.15   1
   5  -4   1   10.10    6.12   4
   6  -4   1    6.11    6.74   4
   9   3  -1   -1.18    5.29   4
  -9  -3   1    9.73    5.92   2
   8   3  -1    4.52    4.23   4
  -8  -3   1   12.48    4.89   2
   7   3  -1    5.48    4.20   3
   7   3  -1    6.17    3.85   4
  -7  -3   1   11.07    4.34   3
  -7  -3   1    6.05    4.16   2
   6   3  -1    3.84    3.04   4
   6   3  -1   -0.47    3.15   3
   5   3  -1  191.18   19.84   4
   4   3  -1   82.26    9.39   4
   4   3  -1   75.43    8.61   3
  -4  -3   1   94.64   10.45   2
  -4  -3   1   90.13    9.32   3
  -3  -3   1  189.30   18.45   2
  -3  -3   1  202.30   18.48   3
   3   3  -1  181.96   18.40   4
  -2  -3   1  114.22   11.11   3
   2   3  -1  133.52   13.87   4
   2   3  -1  114.27   12.71   1
  -2  -3   1  128.25   12.59   2
  -1  -3   1  398.67   36.76   2
  -1  -3   1  357.63   31.05   3
   1   3  -1  327.53   35.43   1
   1   3  -1  364.86   35.59   4
   0   3  -1    3.89    2.29   4
   0   3  -1    4.29    1.42   2
   0  -3   1    3.49    1.86   3
   0   3  -1    4.06    2.56   1
   1  -3   1  511.12   43.72   3
  -1   3  -1  475.10   51.61   1
  -1   3  -1  368.15   34.08   2
  -2   3  -1  123.54   12.17   2
   2  -3   1   92.75   11.30   4
  -2   3  -1   94.26   12.11   1
  -3   3  -1    0.10    1.73   2
   3  -3   1   -0.33    2.61   4
  -3   3  -1    1.64    2.70   1
   4  -3   1    3.98    4.37   4
  -4   3  -1    4.84    2.98   1
   5  -3   1    8.21    4.96   4
  -6   3  -1    1.52    4.01   1
   6  -3   1    3.63    5.97   4
   7  -3   1    8.88    7.33   4
  -7   3  -1    0.19    3.96   1
   9   2  -1   43.69    9.19   4
  -9  -2   1   38.51    8.95   2
   8   2  -1   17.15    5.86   4
  -8  -2   1   24.43    6.43   2
  -7  -2   1   80.07   10.59   2
   7   2  -1   81.31   10.95   4
   6   2  -1   11.52    4.03   3
   6   2  -1   23.85    5.18   4
  -6  -2   1   22.55    5.13   2
  -5  -2   1  250.15   24.82   2
   5   2  -1  164.87   15.91   3
   5   2  -1  168.89   17.84   4
   4   2  -1   49.06    5.50   1
  -4  -2   1   62.56    7.51   2
   4   2  -1   47.00    5.97   5
  -3  -2   1  119.18   12.16   2
  -3  -2   1  114.69   10.85   3
   3   2  -1   88.01    8.95   3
  -2  -2   1  474.18   40.56   3
  -1  -2   1    0.67    0.92   2
   1   2  -1    0.76    1.41   4
  -1  -2   1    0.62    1.27   3
   0   2  -1  451.68   43.49   4
   0  -2   1  536.73   45.58   3
   0   2  -1  541.58   49.44   2
   0   2  -1  714.06   75.84   1
   1  -2   1    0.61    1.15   3
  -1   2  -1    0.54    0.81   2
  -1   2  -1    0.30    1.73   1
   1  -2   1    0.06    1.85   4
   2  -2   1    2.13    2.41   4
   2  -2   1    0.38    1.41   3
  -2   2  -1    1.96    2.44   1
  -3   2  -1    2.68    1.85   2
  -3   2  -1    0.87    2.76   1
   3  -2   1    4.34    2.69   4
   3  -2   1    2.93    1.68   3
  -4   2  -1    0.29    2.57   1
   4  -2   1    7.08    3.78   4
  -4   2  -1    4.42    2.45   2
  -5   2  -1    5.68    3.43   1
   5  -2   1   14.60    5.62   4
  -5   2  -1    7.28    3.13   2
   6  -2   1   11.04    5.44   4
  -6   2  -1    0.12    3.08   1
   7  -2   1   14.60    6.65   4
  -7   2  -1    8.18    5.06   1
  -9  -1   1   -0.45    4.19   2
   8   1  -1   46.36    8.62   4
  -8  -1   1   46.08    8.61   2
   7   1  -1  117.78   14.46   4
  -7  -1   1  125.56   14.96   2
  -6  -1   1    3.41    3.23   2
   6   1  -1    0.39    3.49   4
  -5  -1   1   52.23    7.05   2
   5   1  -1   55.08    6.80   3
   5   1  -1   73.68    9.35   4
   4   1  -1   52.62    6.76   4
   4   1  -1   41.59    5.26   3
  -4  -1   1   59.26    7.26   2
   3   1  -1  236.44   23.38   4
  -3  -1   1  205.64   22.09   1
   3   1  -1  199.93   17.85   3
  -3  -1   1  292.89   27.86   2
  -2  -1   1  250.31   23.64   2
   2   1  -1  279.36   29.58   1
  -2  -1   1  362.45   30.98   3
   2   1  -1  242.03   23.56   4
   2   1  -1  259.63   30.73   5
   1   1  -1   17.83    2.23   1
  -1  -1   1   22.98    2.78   2
   1   1  -1   18.33    2.49   4
  -1  -1   1   21.77    2.77   3
   0   1  -1 1982.31  187.15   4
   0  -1   1 1300.24  108.91   3
   0   1  -1 1374.04  144.65   1
   1  -1   1    1.89    1.31   4
  -1   1  -1    3.17    0.91   2
  -1   1  -1    1.21    1.51   1
  -2   1  -1    4.37    2.03   1
   2  -1   1    8.63    1.95   3
   2  -1   1    7.87    2.40   4
  -2   1  -1    7.14    1.58   2
   3  -1   1  234.13   20.49   3
  -3   1  -1  261.52   24.77   2
   3  -1   1  264.25   26.54   4
   4  -1   1  405.18   40.29   4
  -4   1  -1  410.11   38.66   2
  -4   1  -1  294.75   32.98   1
   4  -1   1  391.62   33.86   3
  -5   1  -1   29.45    5.14   2
   5  -1   1   30.24    5.93   4
  -5   1  -1   21.28    5.17   1
  -6   1  -1    3.90    3.44   2
  -6   1  -1    7.11    3.46   1
   6  -1   1    4.03    4.15   4
  -7   1  -1    3.74    3.32   1
  -7   1  -1    3.70    3.19   2
   7  -1   1    5.34    5.52   4
   8  -1   1    9.34    5.80   4
   8   0  -1   48.49   10.18   4
  -8   0   1   40.55    7.70   2
   7   0  -1   44.86    8.66   4
  -7   0   1   38.33    6.93   2
   6   0  -1    4.72    4.03   4
  -6   0   1    5.34    4.03   2
  -5   0   1   25.62    5.00   2
   5   0  -1   25.43    5.03   4
   4   0  -1    0.18    2.22   4
  -4   0   1    0.75    1.41   1
  -4   0   1    1.42    2.45   2
   3   0  -1    8.71    2.05   3
  -3   0   1   13.80    3.06   2
   3   0  -1   10.60    2.94   4
  -2   0   1   41.02    4.06   3
  -2   0   1   25.32    3.51   2
  -2   0   1   28.06    3.62   1
   2   0  -1   26.71    3.62   4
   1   0  -1   14.63    2.01   4
  -1   0   1   11.23    1.65   1
  -1   0   1    7.81    1.49   2
  -1   0   1   11.41    1.50   3
   0   0   1  123.84   10.83   3
   0   0  -1  137.08   13.08   4
  -1   0  -1  623.26   56.90   2
  -1   0  -1  630.46   67.17   1
   1   0   1  567.17   47.68   3
  -2   0  -1 2883.03  262.37   2
   2   0   1 3156.42  297.96   4
   2   0   1 3317.46  276.95   3
  -2   0  -1 3157.67  332.01   1
  -3   0  -1  149.87   16.93   1
   3   0   1  156.27   16.01   4
  -3   0  -1  175.88   17.03   2
   4   0   1   13.17    2.94   3
  -5   0  -1  148.04   15.33   2
   5   0   1  126.16   14.17   4
   5   0   1  149.25   14.39   3
  -5   0  -1  117.04   14.44   1
   6   0   1   52.85    8.36   4
  -6   0  -1   35.65    5.72   2
  -6   0  -1   33.35    6.13   1
  -7   0  -1    8.28    4.24   2
   7   0   1    6.35    4.33   4
  -8   0  -1    1.32    4.43   2
   8   0   1    0.11    4.84   4
   8  -1  -1    3.13    4.93   4
  -8   1   1    0.03    5.08   2
   7  -1  -1    1.26    4.35   4
  -7   1   1   12.54    5.37   2
  -6   1   1    6.14    3.72   2
  -6   1   1    7.08    3.34   1
   6  -1  -1    4.49    4.45   4
   5  -1  -1    4.07    3.76   4
  -5   1   1    6.34    2.90   1
  -5   1   1    4.35    2.80   2
   4  -1  -1  104.77   12.19   4
  -4   1   1  105.88   11.48   2
  -4   1   1   83.64   10.66   1
   3  -1  -1  202.43   17.39   3
  -3   1   1  199.13   22.35   1
   3  -1  -1  234.41   23.81   4
  -3   1   1  189.04   18.64   2
   2  -1  -1  201.64   20.26   4
  -2   1   1  140.29   15.86   1
  -2   1   1  155.53   13.16   3
  -1   1   1   15.93    2.53   1
  -1   1   1   13.77    2.42   2
   1  -1  -1   14.61    2.48   4
   0   1   1 5001.21  525.82   1
   0   1   1 3434.56  312.97   2
  -1  -1  -1 1259.05  132.59   1
   1   1   1 1039.81   95.07   2
   1   1   1  956.43   90.36   4
   1   1   1  974.04   81.70   3
   2   1   1  263.51   25.31   4
  -2  -1  -1  265.94   28.37   1
  -2  -1  -1  291.90   27.23   2
   2   1   1  300.44   25.79   3
   3   1   1    8.40    1.98   4
  -3  -1  -1    6.48    1.98   2
   3   1   1    7.82    2.21   3
  -3  -1  -1    5.30    1.70   1
   4   1   1   13.67    3.27   3
  -4  -1  -1    9.20    2.71   2
   4   1   1   21.80    3.83   4
  -4  -1  -1   12.00    2.82   1
  -5  -1  -1    1.51    2.06   2
   5   1   1    0.46    2.49   4
   5   1   1    4.76    2.74   3
  -6  -1  -1    3.08    3.14   2
   6   1   1   -0.29    2.80   4
   6   1   1    7.19    3.07   3
  -7  -1  -1   12.73    4.34   2
   7   1   1   15.18    5.00   4
   8   1   1    0.02    4.55   4
  -9  -1  -1   23.85    6.70   2
   9   1   1   19.76    7.72   4
   7  -2  -1    5.56    6.36   4
  -6   2   1   15.26    4.77   2
   6  -2  -1    3.67    4.82   4
  -5   2   1    6.22    3.33   1
  -5   2   1    7.82    3.58   2
   5  -2  -1   10.35    4.81   4
  -4   2   1    1.82    2.93   1
  -4   2   1    2.40    2.82   2
   4  -2  -1    1.10    3.55   4
  -3   2   1  129.99   15.55   1
  -2   2   1  614.65   66.10   1
   2  -2  -1  411.52   40.46   4
  -2   2   1  527.57   49.14   2
  -1   2   1  560.43   51.84   2
  -1   2   1  487.56   52.43   1
   1  -2  -1  554.99   46.43   3
   0   2   1   13.60    2.34   1
   0  -2  -1    8.61    2.11   4
   0   2   1   14.86    1.91   3
   0   2   1    9.67    2.08   2
   1   2   1    6.38    1.51   4
   1   2   1    7.33    1.41   1
   1   2   1    9.55    2.03   2
   2   2   1 2684.29  224.49   3
  -2  -2  -1 3167.22  288.39   2
  -2  -2  -1 3884.71  407.95   1
  -3  -2  -1  135.51   13.51   2
  -3  -2  -1  114.69   12.58   1
   3   2   1  148.31   14.77   4
   3   2   1  108.24   10.42   3
   4   2   1  108.00   11.36   4
  -4  -2  -1  119.04   12.37   2
   4   2   1  142.18   13.51   3
  -5  -2  -1   83.80   10.06   1
   5   2   1   95.46   10.06   3
  -5  -2  -1   76.63    8.87   2
  -6  -2  -1    1.66    2.93   2
   6   2   1    4.34    2.70   4
   6   2   1    7.29    3.92   3
   7   2   1   12.32    4.33   3
   7   2   1   15.00    4.52   4
  -7  -2  -1   15.68    4.79   2
  -8  -2  -1    3.06    4.25   2
   8   2   1    7.39    4.46   4
   9   2   1   36.08    7.88   4
  -9  -2  -1   34.84    7.21   2
   6  -3  -1    6.45    5.52   4
  -6   3   1    2.79    4.23   1
  -5   3   1    8.69    3.99   1
   5  -3  -1   15.87    6.12   4
  -5   3   1   17.41    4.67   2
  -4   3   1    2.09    2.92   2
  -4   3   1    0.47    2.74   1
  -3   3   1   11.36    3.16   2
   3  -3  -1    8.16    4.24   4
  -3   3   1   12.30    3.46   1
  -2   3   1    6.42    2.36   2
   2  -3  -1    3.21    2.48   4
  -2   3   1    2.81    1.89   1
  -1   3   1   61.71    8.18   1
   1  -3  -1   68.23    6.26   3
  -1   3   1   62.33    6.99   2
   0   3   1  161.32   15.79   2
   0  -3  -1  173.75   15.19   3
   0  -3  -1  141.14   14.92   4
   0   3   1  155.90   17.76   1
   1   3   1   28.96    4.02   1
   1   3   1   29.75    3.70   3
   1   3   1   37.64    4.72   2
  -2  -3  -1  208.49   19.90   2
  -2  -3  -1  172.31   18.91   1
  -2  -3  -1  166.35   20.51   5
  -3  -3  -1    0.77    1.58   2
   3   3   1    2.28    2.10   3
  -3  -3  -1    1.85    0.92   1
   3   3   1    2.16    1.43   4
   4   3   1   28.34    4.14   4
  -4  -3  -1   17.67    3.40   2
   4   3   1   36.75    5.55   3
  -4  -3  -1   22.12    3.16   1
  -5  -3  -1   42.73    5.99   2
   5   3   1   49.50    6.58   3
  -5  -3  -1   41.75    5.23   1
   5   3   1   59.95    7.23   4
  -6  -3  -1   23.46    4.55   2
   6   3   1   22.40    4.40   4
   6   3   1   15.71    4.06   3
  -7  -3  -1   31.58    6.40   2
   7   3   1   17.53    4.31   4
   7   3   1   22.59    5.57   3
   8   3   1    6.03    3.81   4
   8   3   1    6.80    4.65   3
   9   3   1   27.80    6.68   4
  -9  -3  -1   51.18    9.01   2
  10   3   1   20.88    7.97   4
  -6   4   1    6.38    5.27   1
  -5   4   1   19.25    5.56   1
   5  -4  -1   31.22    8.40   4
   4  -4  -1   11.88    5.42   4
  -4   4   1    6.09    3.58   1
   3  -4  -1    5.91    4.70   4
  -3   4   1    3.95    2.75   2
  -3   4   1    3.37    3.05   1
   2  -4  -1    3.10    2.90   4
  -2   4   1    3.62    2.55   2
  -2   4   1    6.38    2.98   1
   1  -4  -1   20.36    2.90   3
  -1   4   1   16.28    3.72   1
   1  -4  -1   20.32    4.66   4
  -1   4   1   16.23    3.19   2
   0   4   1  284.80   31.77   1
   0   4   1  266.07   25.51   2
   0  -4  -1  353.78   30.46   3
   0  -4  -1  268.28   27.35   4
  -1  -4  -1  181.03   18.77   4
   1   4   1  193.21   18.98   2
  -1  -4  -1  188.09   16.82   3
   1   4   1  181.08   16.36   3
   1   4   1  149.69   17.27   1
   1   4   1  163.96   16.97   4
   2   4   1    3.65    2.09   4
   2   4   1    6.97    2.64   2
   2   4   1    3.21    1.69   1
   2   4   1    1.70    2.03   3
  -3  -4  -1  313.10   29.81   2
  -3  -4  -1  314.95   33.93   1
   3   4   1  333.11   32.60   4
  -3  -4  -1  268.92   32.66   5
  -4  -4  -1   30.89    4.02   1
   4   4   1   26.88    4.53   3
  -4  -4  -1   34.90    4.97   2
   4   4   1   33.72    4.64   4
  -5  -4  -1   24.48    4.79   2
   5   4   1   20.61    3.75   4
   5   4   1   18.09    4.22   3
   6   4   1   11.54    3.56   4
  -6  -4  -1   20.36    4.67   2
   6   4   1   11.92    4.21   3
  -7  -4  -1  107.72   12.89   2
   7   4   1  114.77   13.08   3
   8   4   1    2.14    4.43   3
   8   4   1    7.48    4.02   4
  -8  -4  -1   -0.13    3.77   2
   9   4   1    7.42    4.82   4
   9   4   1    6.26    5.56   3
  10   4   1   13.78    6.26   4
  -5   5   1   13.28    5.90   1
   4  -5  -1    5.83    6.00   4
   3  -5  -1   53.04    9.84   4
  -3   5   1   33.47    6.64   1
   2  -5  -1   83.17   11.44   4
  -2   5   1   52.68    8.39   1
  -1   5   1   31.15    4.93   2
   1  -5  -1   24.83    5.89   4
  -1   5   1   23.18    4.86   1
   0  -5  -1   13.50    2.88   3
   0   5   1    7.39    2.81   2
   0   5   1    8.07    2.90   1
   0  -5  -1   12.14    4.02   4
   1   5   1    0.56    1.91   1
  -1  -5  -1    2.03    2.18   3
  -1  -5  -1    1.22    2.54   4
   2   5   1  256.76   28.60   1
   2   5   1  255.95   23.12   3
  -2  -5  -1  270.19   24.08   3
   2   5   1  336.64   32.31   2
   2   5   1  267.42   26.96   4
  -3  -5  -1  202.86   20.01   2
   3   5   1  219.97   20.32   3
   3   5   1  207.17   21.21   4
  -4  -5  -1   54.00    7.78   5
  -4  -5  -1   67.23    8.06   2
   4   5   1   58.69    7.37   4
  -4  -5  -1   56.68    7.10   1
   5   5   1    1.22    2.06   4
  -5  -5  -1    1.19    2.10   2
   5   5   1    5.17    3.61   3
  -6  -5  -1    1.67    3.23   2
   6   5   1    3.81    3.58   3
   6   5   1    1.54    2.37   4
   7   5   1    1.21    3.24   4
   8   5   1    5.92    5.06   3
   9   5   1   13.11    5.57   4
   9   5   1    1.85    5.56   3
  -9  -5  -1   11.24    5.53   2
  10   5   1    9.39    6.28   4
  -4   6   1   19.13    6.73   1
   4  -6  -1   17.92    7.96   4
   3  -6  -1    4.76    6.67   4
  -3   6   1    3.04    4.74   1
  -2   6   1    1.92    3.57   1
   2  -6  -1   12.11    5.57   4
  -1   6   1  224.32   26.85   1
   0   6   1 1664.63  177.71   1
  -1  -6  -1  137.87   13.29   3
   1   6   1  135.45   14.39   2
  -1  -6  -1   91.81   11.79   4
   1   6   1  118.81   14.93   1
   2   6   1   25.75    4.85   2
   2   6   1   23.71    4.82   4
  -2  -6  -1   18.93    3.54   3
   2   6   1   23.89    4.46   1
  -3  -6  -1  116.78   11.84   3
  -3  -6  -1  103.26   11.10   2
   3   6   1  113.68   13.65   1
   3   6   1  130.79   14.57   4
   3   6   1   86.24    9.47   3
   4   6   1   82.07    9.98   4
  -4  -6  -1   52.54    8.25   5
  -4  -6  -1   74.54    8.86   2
  -4  -6  -1   72.92    9.31   1
   5   6   1   -0.23    2.95   4
   5   6   1   -0.65    3.18   3
   6   6   1   10.24    4.74   3
   6   6   1    6.23    3.92   4
  -6  -6  -1   10.44    4.32   2
  -7  -6  -1    3.03    4.23   2
   7   6   1    3.08    3.29   4
   7   6   1   -0.43    4.15   3
  -8  -6  -1    9.38    4.43   2
   8   6   1   10.09    4.00   4
   8   6   1    8.66    5.55   3
   9   6   1    6.65    4.81   4
   9   6   1    0.07    5.36   3
  10   6   1   17.05    6.80   4
  10   6   1   25.27    9.65   3
   3  -7  -1   17.00    8.76   4
  -2   7   1   72.72   11.34   1
   2  -7  -1   64.83   11.17   4
   1  -7  -1   33.48    8.47   4
  -1   7   1   23.75    6.02   1
   0  -7  -1   86.88   12.59   4
   0   7   1   60.43    9.60   1
  -1  -7  -1  159.85   18.95   4
   1   7   1  152.74   18.97   1
  -2  -7  -1  146.89   17.18   4
   2   7   1  128.35   16.05   1
  -2  -7  -1  147.09   14.60   3
  -3  -7  -1   11.18    3.63   3
   3   7   1   14.20    3.88   1
   3   7   1   17.64    4.74   4
  -3  -7  -1   12.54    3.16   2
  -4  -7  -1   11.13    3.84   3
  -4  -7  -1   10.69    3.46   2
   4   7   1   15.08    4.47   4
  -5  -7  -1    3.55    3.34   3
   5   7   1    6.62    4.35   3
   5   7   1    5.62    3.89   4
  -5  -7  -1   -0.62    2.51   2
  -6  -7  -1    4.26    3.32   2
   6   7   1    3.52    4.61   3
   6   7   1    3.72    3.24   4
  -7  -7  -1    5.54    4.76   2
   7   7   1    2.83    4.52   3
   7   7   1   11.89    5.50   4
   8   7   1   54.21    8.39   4
  -8  -7  -1   51.18    8.44   2
   8   7   1   41.71    8.58   3
   9   7   1    4.29    4.95   4
   1  -8  -1    3.59    5.18   4
  -1   8   1    0.19    5.20   1
   0  -8  -1   10.15    5.86   4
   0   8   1    8.95    5.02   1
   1   8   1   10.74    4.87   1
  -1  -8  -1   10.92    5.43   4
  -2  -8  -1    6.18    4.75   4
   2   8   1    6.78    3.91   1
   3   8   1   14.43    5.00   4
  -3  -8  -1    6.69    3.73   3
  -3  -8  -1   12.24    4.76   4
   4   8   1    6.24    4.60   4
  -4  -8  -1    4.62    3.71   3
   5   8   1   29.64    6.21   4
  -5  -8  -1   39.30    6.37   2
  -5  -8  -1   36.46    6.58   3
   6   8   1   27.20    6.13   4
  -6  -8  -1   24.30    5.58   3
  -6  -8  -1   35.03    6.27   2
   7   8   1   18.07    5.90   4
  -7  -8  -1   19.81    5.90   3
  -7  -8  -1   22.75    6.20   2
  -8  -8  -1   58.91    9.46   3
   8   8   1   53.83    9.15   4
  -8  -8  -1   68.24   10.67   2
  -9  -8  -1   24.91    7.67   2
   0  -9  -1    5.98    7.35   4
  -2  -9  -1   -0.79    5.72   4
   2   9   1    2.90    4.77   1
  -3  -9  -1   13.12    5.87   4
   4   9   1    0.04    4.39   4
   5   9   1    4.72    5.39   4
   6   9   1   16.89    5.64   4
  -6  -9  -1   26.78    6.44   3
  -7  -9  -1   25.38    6.79   2
  -7  -9  -1   12.46    5.60   3
  -8  -9  -1   13.11    6.54   2
  -2 -10  -1   10.63    7.15   4
  -3 -10  -1   31.21    8.62   4
  -4 -10  -1   12.22    6.94   4
  -5 -10  -1    5.99    4.95   3
  -6 -10  -1    6.71    5.14   3
  -4 -10   2   13.84    6.36   3
  -6  -9   2   -0.04    4.22   3
   6   9  -2   15.71    6.32   4
   5   9  -2    4.92    5.36   4
  -4  -9   2    6.50    4.89   3
   4   9  -2    4.98    5.49   4
   3   9  -2   17.15    6.45   4
  -3  -9   2   22.30    5.99   3
  -2  -9   2    8.47    6.81   4
  -1  -9   2   21.42    9.12   4
   7   8  -2    5.63    4.74   4
   6   8  -2    1.77    4.61   4
  -6  -8   2   -0.59    3.21   3
  -5  -8   2    3.80    3.89   3
   5   8  -2   11.85    5.31   4
   4   8  -2   40.73    7.92   4
  -4  -8   2   47.40    8.01   3
   3   8  -2   59.65    9.86   4
  -3  -8   2   75.81   10.31   3
   2   8  -2    1.16    4.40   4
  -2  -8   2    8.92    4.83   4
  -2  -8   2    5.44    4.24   3
   0  -8   2    2.69    5.98   4
   1  -8   2    6.85    6.20   4
   8   7  -2    0.33    4.05   4
  -8  -7   2   12.89    5.57   2
  -7  -7   2   19.04    6.32   2
   7   7  -2   13.53    6.00   4
  -7  -7   2   13.39    6.05   3
   6   7  -2  135.33   16.32   4
  -6  -7   2  112.56   13.34   2
  -6  -7   2  136.68   15.62   3
   5   7  -2   38.95    7.50   4
  -5  -7   2   29.57    6.06   3
  -4  -7   2    2.85    3.40   3
   4   7  -2    3.18    3.92   4
  -3  -7   2   10.25    4.34   3
   3   7  -2    7.45    4.24   4
   2   7  -2   27.86    5.38   1
   2   7  -2   28.24    6.26   4
  -2  -7   2   46.02    7.05   3
   1   7  -2   32.43    6.08   1
  -1  -7   2   33.45    7.24   4
  -1  -7   2   40.39    6.81   3
   0  -7   2    6.51    5.14   4
   0   7  -2    3.08    3.50   1
  -1   7  -2   46.11    8.14   1
   1  -7   2   44.51    9.21   4
   2  -7   2   14.27    6.93   4
  -2   7  -2   22.93    6.46   1
  -9  -6   2    5.56    5.97   2
  -9  -6   2    3.75    5.65   3
   9   6  -2    7.39    5.02   4
   8   6  -2    3.60    5.13   4
  -8  -6   2    5.49    4.85   3
  -7  -6   2    6.64    4.69   2
   7   6  -2   15.90    5.13   4
  -7  -6   2   13.95    4.91   3
  -6  -6   2   35.48    6.95   3
   6   6  -2   33.24    6.52   4
  -6  -6   2   24.15    5.34   2
   5   6  -2  139.61   15.93   4
  -5  -6   2  173.51   18.27   2
  -5  -6   2  142.26   15.32   3
  -4  -6   2   73.68    8.92   2
  -4  -6   2   68.10    8.83   3
   4   6  -2   69.39    9.36   4
  -3  -6   2   22.16    4.82   3
   3   6  -2    7.27    3.65   4
  -2  -6   2   -0.32    2.91   3
   1   6  -2    1.63    2.24   1
   1   6  -2   -0.26    3.18   4
  -1  -6   2    2.66    2.77   3
   0  -6   2   99.94   11.22   3
   0  -6   2  123.83   15.40   4
   1  -6   2   14.53    5.32   4
  -1   6  -2   20.21    5.05   1
   2  -6   2   62.39   10.72   4
  -2   6  -2   67.70   10.67   1
  -3   6  -2    5.48    4.32   1
   3  -6   2    0.31    4.78   4
  -9  -5   2   29.13    8.05   2
   9   5  -2   15.20    6.61   4
  -8  -5   2    8.51    4.96   3
  -8  -5   2    8.41    5.48   2
   8   5  -2    5.89    4.66   4
  -7  -5   2    2.00    3.91   3
   7   5  -2    6.61    4.15   4
  -7  -5   2    7.37    4.06   2
  -6  -5   2   52.50    7.98   3
  -6  -5   2   81.56   10.54   2
   5   5  -2    9.82    3.80   4
  -5  -5   2   13.94    3.96   2
  -5  -5   2    6.05    3.62   3
   4   5  -2    3.73    2.99   4
  -4  -5   2    3.45    3.23   3
  -3  -5   2    7.24    3.02   3
   3   5  -2    7.87    3.50   4
   3   5  -2    6.15    2.44   1
  -3  -5   2   10.03    2.85   2
   2   5  -2   47.94    7.03   4
  -2  -5   2   57.35    7.27   3
   2   5  -2   49.56    7.30   1
  -2  -5   2   70.60    7.61   2
  -1  -5   2    2.73    2.43   3
   1   5  -2    1.05    2.84   4
   1   5  -2   -0.17    2.36   1
   0   5  -2    1.82    2.83   1
   0  -5   2   -0.75    2.82   4
   0  -5   2    1.64    2.61   3
  -1   5  -2   78.58   11.20   1
   1  -5   2   86.67    9.58   3
   1  -5   2   69.36   10.59   4
  -2   5  -2    5.81    3.83   1
   2  -5   2   10.94    5.07   4
  -3   5  -2   16.39    4.73   1
   3  -5   2   16.21    6.05   4
   4  -5   2  225.89   26.60   4
   5  -5   2    3.07    5.77   4
  -5   5  -2   14.44    5.84   1
  -9  -4   2    7.73    6.32   2
   9   4  -2    5.87    5.74   4
  -8  -4   2   26.42    6.74   2
   8   4  -2   24.81    6.34   4
  -7  -4   2    1.01    3.62   3
   7   4  -2    4.25    3.66   4
   6   4  -2    3.52    3.40   4
  -6  -4   2    4.25    3.56   3
  -6  -4   2    9.32    3.90   2
  -5  -4   2    0.91    2.82   2
  -5  -4   2    1.18    2.83   3
  -4  -4   2    2.36    2.43   2
  -4  -4   2    0.83    2.55   3
  -3  -4   2    2.28    2.31   3
  -3  -4   2    3.58    2.22   2
   3   4  -2    2.62    2.31   4
   2   4  -2    1.55    2.29   4
   2   4  -2   -0.47    2.39   1
  -2  -4   2    4.25    2.45   3
  -2  -4   2    2.81    1.66   2
  -1  -4   2  829.34   70.91   3
  -1  -4   2  704.34   64.54   2
   1   4  -2  643.65   69.06   1
   1   4  -2  730.41   70.63   4
   0   4  -2    6.19    2.87   4
   0   4  -2   13.99    4.06   1
   0  -4   2   11.11    2.88   3
   1  -4   2   -0.33    2.70   4
   1  -4   2    1.88    2.36   3
  -1   4  -2    0.50    2.98   1
  -2   4  -2    8.87    4.59   1
   2  -4   2    7.22    4.38   4
   2  -4   2   18.12    4.04   3
  -3   4  -2  291.57   33.82   1
   4  -4   2   19.08    6.55   4
  -4   4  -2   16.95    5.36   1
  -5   4  -2   12.26    5.38   1
   5  -4   2    8.18    5.65   4
  -6   4  -2    5.27    4.68   1
   9   3  -2    9.40    5.99   4
  -8  -3   2   14.29    5.69   2
   8   3  -2   11.58    5.03   4
  -7  -3   2    4.33    4.16   2
  -7  -3   2    6.72    3.92   3
   6   3  -2    1.70    2.84   4
  -6  -3   2    5.52    3.51   3
  -6  -3   2    3.08    3.29   2
   5   3  -2   57.01    7.77   4
  -5  -3   2   74.94    9.25   2
  -4  -3   2   22.62    4.11   3
   4   3  -2   32.25    5.08   4
  -4  -3   2   23.06    4.22   2
  -3  -3   2    1.29    2.12   3
   3   3  -2    0.28    1.37   4
  -3  -3   2    1.41    2.03   2
  -2  -3   2   45.99    5.70   3
   2   3  -2   56.15    6.84   1
  -2  -3   2   41.67    4.98   2
   2   3  -2   39.02    5.26   4
   1   3  -2  266.29   26.50   4
  -1  -3   2  384.78   33.67   3
   1   3  -2  351.68   38.01   1
  -1  -3   2  367.07   33.88   2
   0   3  -2   11.95    3.18   4
   0  -3   2    9.91    1.07   2
   0  -3   2   14.45    3.01   3
   0   3  -2   10.46    3.11   1
  -1   3  -2 1005.46   91.53   2
   1  -3   2 1056.52  101.62   4
  -2   3  -2   69.45    7.03   2
   2  -3   2   57.00    8.17   4
   2  -3   2   83.23    8.84   3
   3  -3   2    2.77    3.93   4
   3  -3   2    8.89    3.15   3
  -3   3  -2    3.96    3.78   1
   4  -3   2  135.10   16.44   4
  -4   3  -2  125.11   16.31   1
   5  -3   2    2.82    4.43   4
  -5   3  -2    3.48    4.06   1
  -6   3  -2    6.59    5.49   1
  -7   3  -2   12.70    5.90   1
   7  -3   2   29.94    9.64   4
   8   2  -2   10.01    5.37   4
  -8  -2   2    9.55    5.70   2
   7   2  -2   22.86    5.91   4
  -7  -2   2   34.23    7.19   2
  -6  -2   2    6.44    3.29   3
  -6  -2   2   11.17    4.44   2
   6   2  -2    4.43    3.10   4
  -5  -2   2   79.27    8.83   3
  -5  -2   2   87.88   10.47   2
   5   2  -2   93.38   11.01   4
  -4  -2   2   55.18    6.49   3
   4   2  -2   66.81    8.09   4
  -4  -2   2   64.25    7.90   2
   3   2  -2  169.61   17.38   4
   3   2  -2  143.62   15.41   1
  -3  -2   2  165.39   15.39   3
  -3  -2   2  177.41   17.59   2
  -2  -2   2  249.09   22.15   3
   2   2  -2  317.95   35.03   1
  -2  -2   2  343.96   32.21   2
   2   2  -2  304.99   29.81   4
  -1  -2   2  498.77   42.77   3
  -1  -2   2  391.06   36.08   2
   1   2  -2  379.03   40.47   1
   1   2  -2  367.16   35.56   4
   0  -2   2  326.40   28.44   3
   0   2  -2  365.66   39.37   1
   0   2  -2  306.77   29.98   4
   1  -2   2  181.98   18.78   4
  -1   2  -2  258.74   23.63   2
  -2   2  -2    3.84    2.55   1
   3  -2   2    2.10    2.89   4
  -3   2  -2    3.45    1.66   2
   3  -2   2    3.40    2.23   3
  -3   2  -2    1.94    2.77   1
   4  -2   2    4.87    3.64   4
   4  -2   2    1.32    2.56   3
  -4   2  -2    1.03    3.58   1
  -5   2  -2    9.97    4.54   1
   5  -2   2    8.10    4.22   4
   6  -2   2   -0.41    4.72   4
  -6   2  -2   -0.74    3.37   1
   7  -2   2    5.75    5.73   4
  -7   2  -2    7.26    4.86   1
  -8  -1   2   88.34   12.22   2
   8   1  -2   83.82   12.21   4
   7   1  -2  112.68   14.45   4
  -7  -1   2  127.01   15.22   2
  -6  -1   2  138.97   15.69   2
   6   1  -2  158.22   17.80   4
  -5  -1   2    9.95    3.80   2
  -5  -1   2    5.05    2.59   3
   5   1  -2    7.56    3.28   4
  -4  -1   2  184.82   18.73   2
   4   1  -2  127.81   14.43   1
  -4  -1   2  161.76   14.94   3
   4   1  -2  163.84   17.14   4
   4   1  -2  118.95   15.16   5
  -3  -1   2  990.47   91.36   2
   3   1  -2 1053.81  100.45   4
   3   1  -2  909.52   96.04   1
   3   1  -2  925.06  109.16   5
  -3  -1   2 1338.55  112.59   3
  -2  -1   2    1.42    1.39   3
   2   1  -2    0.94    0.94   1
   2   1  -2    2.79    1.61   4
  -2  -1   2    0.53    1.66   2
  -1  -1   2  202.60   17.87   3
   1   1  -2  268.02   25.97   4
   1   1  -2  262.20   27.97   1
   0   1  -2    5.41    1.70   4
   0  -1   2    5.47    2.05   3
   1  -1   2   64.18    6.47   3
   2  -1   2   66.44    6.80   3
  -2   1  -2   48.19    6.45   1
   3  -1   2   19.84    4.22   4
  -3   1  -2   26.01    3.42   2
  -3   1  -2   25.44    4.60   1
   3  -1   2   19.40    3.14   3
   4  -1   2   29.75    4.36   3
   4  -1   2   36.27    5.86   4
  -4   1  -2   38.74    6.74   1
  -4   1  -2   38.72    4.96   2
  -5   1  -2  120.01   12.63   2
   5  -1   2  129.12   15.14   4
   5  -1   2   98.83   10.31   3
  -5   1  -2  123.31   15.73   1
  -6   1  -2    1.62    2.78   2
   6  -1   2    0.83    3.98   4
   7  -1   2   18.61    6.45   4
  -7   1  -2    9.31    4.74   1
   8  -1   2    2.37    6.58   4
   8   0  -2    6.60    6.48   4
  -8   0   2    4.55    5.56   2
   7   0  -2   69.70   11.12   4
  -7   0   2   52.28    8.73   2
  -6   0   2  283.56   28.75   2
   6   0  -2  283.96   30.11   4
  -5   0   2   57.08    7.69   2
   5   0  -2   43.84    7.08   4
  -5   0   2   48.47    6.59   1
  -4   0   2    1.82    1.72   3
   4   0  -2    0.20    2.20   4
  -4   0   2    2.64    1.67   1
  -4   0   2    0.39    1.74   2
   3   0  -2    2.05    1.95   4
  -3   0   2    2.51    1.99   2
  -3   0   2    1.36    1.41   3
  -3   0   2    1.69    1.25   1
  -2   0   2   97.19    8.87   3
   2   0  -2   76.10    8.89   1
   2   0  -2   67.09    8.99   5
  -1   0   2   78.10    8.09   2
   1   0  -2   91.34   10.21   1
  -1   0   2   72.31    6.75   3
   0   0   2 1667.82  139.47   3
   0   0   2 1309.46  119.45   2
   0   0  -2 1114.63  117.44   1
   0   0  -2 1462.24  137.99   4
   1   0   2   31.96    3.68   3
  -2   0  -2  172.83   16.33   2
   2   0   2  139.15   13.92   4
  -2   0  -2  207.76   22.72   1
   2   0   2  171.06   15.22   3
   3   0   2  151.67   15.48   4
  -3   0  -2  193.55   18.54   2
   3   0   2  147.54   13.61   3
  -3   0  -2  160.70   18.15   1
   4   0   2  520.29   50.59   4
   4   0   2  362.33   31.73   3
   5   0   2   19.14    4.07   3
  -5   0  -2   30.70    5.76   1
   5   0   2   18.48    4.32   4
  -5   0  -2   22.01    3.95   2
  -6   0  -2   14.67    3.93   2
   6   0   2   10.22    3.92   3
  -6   0  -2    8.37    4.31   1
   6   0   2   12.38    4.46   4
  -7   0  -2   10.85    3.78   2
   7   0   2   12.80    5.53   4
  -7   0  -2    6.11    4.13   1
  -8   0  -2    7.37    4.68   2
   9   0   2   15.10    7.30   4
  -8   1   2    6.52    5.80   2
  -7   1   2    4.21    4.55   2
   7  -1  -2    7.12    4.49   4
  -6   1   2    3.66    3.39   1
  -6   1   2    4.02    3.88   2
   6  -1  -2    2.32    3.64   4
  -5   1   2    0.99    2.78   2
  -5   1   2    3.40    4.89   1
  -4   1   2   46.44    6.50   2
  -4   1   2   34.88    5.30   1
   4  -1  -2   52.36    7.63   4
  -3   1   2   13.50    2.73   1
  -3   1   2   13.66    1.78   3
   3  -1  -2   22.68    4.27   4
  -3   1   2   17.80    3.71   2
  -2   1   2  194.70   16.55   3
  -2   1   2  257.57   24.77   2
  -2   1   2  201.28   22.28   1
   2  -1  -2  262.73   25.99   4
  -1   1   2   34.93    4.44   2
  -1   1   2   27.84    3.76   1
   0   1   2   98.29    8.69   3
   0  -1  -2  129.81   12.62   4
   0  -1  -2  118.55   13.18   1
   0  -1  -2  130.84   16.21   5
   1   1   2  288.94   27.08   2
  -1  -1  -2  365.61   38.95   1
   1   1   2  312.01   26.66   3
   2   1   2 9997.13  941.67   4
   2   1   2 8761.56  730.84   3
   3   1   2   10.10    2.15   4
   3   1   2    9.57    2.51   3
  -3  -1  -2   11.94    2.53   1
  -3  -1  -2    6.78    2.08   2
  -4  -1  -2    3.34    2.20   2
   4   1   2    5.92    2.35   4
   4   1   2    5.19    2.28   3
  -4  -1  -2    3.89    2.35   1
   5   1   2   14.60    3.62   3
  -5  -1  -2   12.72    2.83   2
   5   1   2   13.72    3.54   4
  -5  -1  -2   16.84    3.85   1
   6   1   2  125.17   14.10   4
   6   1   2  138.66   14.43   3
  -6  -1  -2  120.36   14.78   1
  -7  -1  -2   -0.71    3.31   2
   8   1   2   -0.41    4.71   4
   9   1   2    9.05    6.87   4
  -7   2   2    6.49    4.93   2
   7  -2  -2    0.02    4.74   4
   6  -2  -2    0.91    4.81   4
  -6   2   2    1.88    3.85   1
  -6   2   2    1.32    3.85   2
   5  -2  -2    8.61    4.84   4
  -5   2   2    6.09    3.89   2
  -4   2   2    7.91    3.45   2
  -4   2   2    4.47    2.70   1
   4  -2  -2    8.31    3.86   4
  -3   2   2   65.58    8.71   1
  -3   2   2   67.78    8.14   2
   3  -2  -2   85.17   10.37   4
  -2   2   2  265.65   25.79   2
   2  -2  -2  310.17   30.91   4
  -2   2   2  247.20   27.57   1
  -1   2   2  995.61  105.78   1
  -1   2   2  793.81   66.31   3
   0   2   2 4257.11  387.57   2
   0   2   2 5105.66  425.55   3
   0   2   2 4721.96  496.41   1
   0  -2  -2 3462.67  326.83   4
  -1  -2  -2  283.28   30.58   1
   1   2   2  249.02   23.75   2
   2   2   2  915.65   86.58   4
   2   2   2  770.81   65.19   3
  -3  -2  -2   45.20    5.60   1
   3   2   2   49.40    5.37   4
   3   2   2   43.68    5.33   3
  -4  -2  -2 1343.50  141.86   1
   4   2   2 1344.16  127.52   4
  -4  -2  -2 1374.10  126.19   2
   4   2   2 1285.49  108.62   3
  -5  -2  -2   31.06    4.84   2
   5   2   2   30.91    5.12   3
   5   2   2   24.11    3.98   4
  -5  -2  -2   26.23    4.31   1
  -6  -2  -2   10.51    3.46   1
   6   2   2   16.76    4.77   3
  -6  -2  -2    6.85    3.11   2
   6   2   2   11.26    3.60   4
   7   2   2    8.42    3.74   3
   7   2   2    3.36    3.39   4
  -7  -2  -2    6.07    3.52   2
   8   2   2    7.97    4.11   4
  -8  -2  -2    3.18    4.10   2
   9   2   2   14.91    5.92   4
  -9  -2  -2    8.48    5.32   2
  -6   3   2    9.82    4.79   2
   6  -3  -2    4.35    5.87   4
  -6   3   2    5.93    4.69   1
  -5   3   2   64.98    9.01   2
   5  -3  -2   70.06   11.23   4
  -5   3   2   47.44    7.95   1
  -4   3   2    0.27    2.72   2
   4  -3  -2    3.23    4.07   4
  -4   3   2    0.28    2.76   1
   3  -3  -2  103.73   12.68   4
  -3   3   2   74.37   10.13   1
  -3   3   2  100.79   11.42   2
  -2   3   2   86.53   11.17   1
  -2   3   2   81.81    9.30   2
   2  -3  -2  106.78   12.43   4
   1  -3  -2  379.92   31.95   3
  -1   3   2  411.27   44.97   1
  -1   3   2  314.37   30.05   2
   1  -3  -2  324.99   32.35   4
   0  -3  -2   64.64    7.64   4
   0   3   2   53.28    6.43   2
   0   3   2   63.41    9.08   1
   0   3   2   47.43    4.69   3
  -1  -3  -2  466.04   50.16   1
   1   3   2  382.68   41.36   1
   1   3   2  427.36   40.15   2
  -1  -3  -2  321.96   31.37   4
   1   3   2  386.67   33.06   3
  -2  -3  -2   51.17    7.32   5
   2   3   2   43.23    5.60   2
  -2  -3  -2   43.75    5.68   1
   2   3   2   34.51    4.38   3
  -3  -3  -2   18.31    2.92   1
   3   3   2    9.50    2.95   3
  -3  -3  -2   12.96    2.55   2
   3   3   2   15.96    2.52   4
  -4  -3  -2    1.93    1.91   2
  -4  -3  -2    1.07    1.41   1
  -5  -3  -2  160.34   16.53   2
  -5  -3  -2  148.14   16.53   1
   5   3   2  121.71   12.52   3
   5   3   2  167.90   17.17   4
  -6  -3  -2    1.95    2.87   2
   6   3   2    2.69    2.89   3
   6   3   2    3.30    2.39   4
  -7  -3  -2   49.02    7.52   2
   7   3   2   54.04    7.40   4
   7   3   2   62.49    8.86   3
   8   3   2   13.06    5.19   3
   8   3   2   25.98    5.72   4
  -8  -3  -2   19.58    5.60   2
  -9  -3  -2   11.52    5.45   2
   9   3   2    6.86    5.08   4
  10   3   2   41.29    8.79   4
  -6   4   2   -0.17    5.08   1
   5  -4  -2   76.88   12.84   4
  -5   4   2   52.85    8.97   1
  -4   4   2   44.61    7.07   2
  -4   4   2   53.73    8.71   1
   4  -4  -2   58.18   10.17   4
   3  -4  -2    8.58    4.50   4
  -3   4   2    8.07    3.26   2
  -3   4   2    5.85    3.59   1
   2  -4  -2   32.23    6.28   4
  -2   4   2   25.03    4.77   1
  -2   4   2   31.72    5.18   2
  -1   4   2   32.36    4.95   2
  -1   4   2   31.35    5.71   1
   1  -4  -2   38.59    6.26   4
   0   4   2   47.83    6.80   1
   0   4   2   45.23    6.09   2
   0  -4  -2   40.17    5.85   4
   1   4   2   12.03    2.43   3
   1   4   2   22.98    3.94   1
   1   4   2   14.49    3.24   2
  -1  -4  -2   15.60    3.47   4
  -2  -4  -2   53.28    8.11   5
   2   4   2   52.16    5.84   3
   2   4   2   56.35    6.66   4
   2   4   2   59.39    7.21   2
  -2  -4  -2   68.07    8.66   1
  -3  -4  -2    9.43    3.06   5
  -3  -4  -2    5.95    1.98   2
   3   4   2   13.14    3.33   3
   3   4   2    9.07    2.48   4
  -3  -4  -2    7.10    2.25   1
   4   4   2    2.53    1.64   4
  -4  -4  -2    3.52    2.15   2
  -4  -4  -2    4.34    1.97   1
   4   4   2    0.65    2.49   3
   5   4   2    6.82    3.26   3
  -5  -4  -2    8.52    2.29   1
  -5  -4  -2    4.48    2.45   2
   5   4   2    4.39    2.30   4
   6   4   2   24.46    4.45   4
   6   4   2   29.73    6.06   3
  -6  -4  -2   38.81    6.26   2
  -7  -4  -2    5.96    3.61   2
   7   4   2    4.98    4.07   3
   7   4   2   12.79    3.92   4
  -8  -4  -2    8.74    4.55   2
   8   4   2    6.11    4.65   3
   8   4   2    8.80    3.73   4
   9   4   2   34.34    8.20   3
  -9  -4  -2   30.47    7.02   2
   9   4   2   35.78    7.05   4
  -5   5   2    1.24    4.91   1
  -3   5   2   77.10   11.43   1
   3  -5  -2   93.09   13.24   4
  -2   5   2    6.22    3.62   1
   2  -5  -2    5.76    4.45   4
  -2   5   2    7.21    3.02   2
   1  -5  -2   11.04    4.27   4
  -1   5   2   18.74    4.46   1
  -1   5   2   17.90    4.15   2
   0   5   2   63.38    7.94   2
   0  -5  -2   91.23   11.26   4
   0   5   2   91.14   11.92   1
  -1  -5  -2    7.28    3.53   4
   1   5   2    9.60    3.02   1
   1   5   2    9.64    2.98   2
   1   5   2    7.25    2.48   3
   2   5   2   20.43    3.90   4
   2   5   2   24.92    4.18   1
   2   5   2   31.28    5.26   2
   2   5   2   27.11    4.18   3
  -3  -5  -2  421.17   39.88   2
   3   5   2  355.17   34.94   4
   3   5   2  344.14   30.51   3
  -4  -5  -2   26.27    4.36   1
   4   5   2   32.55    4.91   4
  -4  -5  -2   31.37    4.86   2
   4   5   2   21.24    4.19   3
  -5  -5  -2   45.96    6.60   2
   5   5   2   45.92    6.06   4
   6   5   2   14.62    4.43   3
   6   5   2   12.88    3.28   4
  -6  -5  -2   18.92    4.46   2
  -7  -5  -2   12.23    4.48   2
   7   5   2    2.75    3.14   4
   8   5   2   13.75    4.72   4
  -8  -5  -2   15.06    4.74   2
   8   5   2   11.15    5.21   3
   9   5   2   -1.09    5.34   3
   9   5   2   11.76    5.35   4
  -9  -5  -2    0.45    5.59   2
  10   5   2    3.99    6.54   3
  -4   6   2    1.49    5.41   1
  -3   6   2    4.63    4.57   1
   3  -6  -2   -0.56    4.95   4
  -2   6   2    6.07    4.41   1
   2  -6  -2    9.66    5.61   4
   1  -6  -2    4.25    4.18   4
  -1   6   2    9.72    4.09   1
   0   6   2   66.31    8.90   2
   0   6   2   49.91    7.91   1
   0  -6  -2   44.19    7.83   4
   1   6   2  556.14   61.09   1
   1   6   2  566.00   53.57   2
  -1  -6  -2  574.55   49.44   3
  -1  -6  -2  588.58   58.33   4
  -2  -6  -2  128.79   14.71   4
   2   6   2  117.78   11.83   3
   2   6   2  109.56   13.69   1
   2   6   2  139.27   15.11   2
  -3  -6  -2   28.46    5.81   1
   3   6   2   31.75    5.20   3
   3   6   2   26.72    4.99   4
  -3  -6  -2   24.34    5.70   5
  -3  -6  -2   26.01    4.17   2
   4   6   2   23.30    4.81   3
   4   6   2   20.35    4.36   4
  -4  -6  -2   15.53    3.41   2
  -4  -6  -2   18.35    3.92   1
  -4  -6  -2   28.08    5.89   5
  -5  -6  -2  309.91   30.54   2
   5   6   2  292.86   29.54   4
   5   6   2  221.72   21.30   3
   6   6   2    5.19    3.84   3
   6   6   2    0.93    3.39   4
  -6  -6  -2    6.35    3.66   2
   7   6   2    6.44    4.24   3
  -7  -6  -2    0.50    3.49   2
   8   6   2    6.26    3.74   4
  -8  -6  -2    7.94    4.94   2
   8   6   2    4.23    4.97   3
   9   6   2   11.21    6.28   3
  -9  -6  -2    7.89    4.81   2
  10   6   2    8.66    7.47   3
   3  -7  -2    0.65    6.83   4
   2  -7  -2   26.15    8.54   4
  -2   7   2   26.22    6.76   1
   1  -7  -2    2.92    4.36   4
  -1   7   2    1.45    4.24   1
   0   7   2  277.32   32.63   1
   0  -7  -2  253.12   27.97   4
   1   7   2   18.96    5.10   1
  -1  -7  -2   17.34    5.86   4
   2   7   2   57.81    8.58   1
   2   7   2   76.75   10.22   2
  -2  -7  -2   63.93    7.61   3
  -2  -7  -2   71.19   10.26   4
  -3  -7  -2  108.25   14.41   1
  -3  -7  -2  113.69   17.00   5
  -3  -7  -2  124.63   12.77   3
   3   7   2   92.11   11.32   4
   3   7   2  108.17   13.72   1
  -3  -7  -2  112.77   12.24   2
   4   7   2   12.65    4.10   3
  -4  -7  -2   10.04    3.13   2
  -4  -7  -2   10.53    3.85   1
   4   7   2    9.72    4.20   4
  -4  -7  -2   11.65    5.37   5
  -5  -7  -2    2.56    3.18   2
   5   7   2    7.91    3.98   4
  -6  -7  -2   26.39    5.30   2
   6   7   2   22.94    5.42   4
   6   7   2   16.69    5.20   3
  -7  -7  -2    3.27    4.97   2
   7   7   2    4.73    3.86   4
   8   7   2    6.84    5.56   3
  -8  -7  -2    5.26    5.29   2
   9   7   2   -1.09    5.57   3
  -9  -7  -2    0.74    4.45   2
   1  -8  -2   -0.12    5.13   4
  -1   8   2    5.01    5.62   1
   0   8   2    2.56    4.65   1
   0  -8  -2    6.80    6.98   4
   1   8   2    0.01    3.89   1
   2   8   2  148.55   18.69   1
  -2  -8  -2  206.07   23.46   4
  -3  -8  -2   29.71    7.90   5
  -3  -8  -2   45.81    7.93   4
  -3  -8  -2   38.49    5.98   3
   3   8   2   31.48    5.91   1
  -3  -8  -2   29.81    5.12   2
  -4  -8  -2   65.95    8.49   3
  -4  -8  -2   50.12    6.96   2
   4   8   2   48.10    7.82   4
  -5  -8  -2    3.70    3.46   3
   5   8   2    5.19    4.47   3
  -5  -8  -2    4.43    3.51   2
   5   8   2   13.91    5.10   4
  -6  -8  -2    6.51    3.91   2
   6   8   2    8.97    4.55   3
   7   8   2    3.88    4.48   3
  -7  -8  -2    2.57    3.91   2
   8   8   2   16.01    6.56   3
  -8  -8  -2    8.96    6.03   2
  -9  -8  -2   22.09    7.69   2
   0  -9  -2   23.05    7.62   4
  -1  -9  -2   12.55    6.36   4
  -2  -9  -2   15.27    6.53   4
   2   9   2    6.22    5.11   1
  -3  -9  -2    3.59    5.40   4
  -3  -9  -2   17.61    8.64   5
  -4  -9  -2    3.16    3.78   3
  -4  -9  -2    8.73    5.46   4
  -5  -9  -2   26.54    6.01   3
  -6  -9  -2   16.56    5.14   3
  -6  -9  -2   15.22    5.12   2
  -7  -9  -2    3.68    4.75   3
  -7  -9  -2    2.84    4.35   2
  -8  -9  -2    5.50    5.79   2
  -5 -10  -2    1.11    4.19   3
  -6 -10  -2    3.32    4.93   3
  -5  -9   3   12.36    5.94   3
   4   9  -3    7.62    6.05   4
  -4  -9   3    3.54    4.94   3
   3   9  -3    3.51    5.71   4
  -3  -9   3    9.52    6.20   3
  -2  -9   3   10.68    8.37   4
  -2  -9   3    4.05    5.00   3
   7   8  -3    0.92    4.54   4
  -6  -8   3   -0.33    4.38   3
   6   8  -3    2.54    5.18   4
  -5  -8   3    2.18    4.71   3
   5   8  -3   12.37    5.77   4
  -4  -8   3    0.53    4.09   3
   4   8  -3    4.13    4.42   4
  -3  -8   3   26.46    6.02   3
   3   8  -3   18.98    6.21   4
   2   8  -3    1.30    4.42   4
  -2  -8   3    4.98    4.11   3
  -1  -8   3    7.69    5.64   4
  -1  -8   3    0.44    4.44   3
  -1   8  -3    6.93    5.30   1
   8   7  -3   -0.05    3.95   4
  -8  -7   3    9.81    5.96   3
  -8  -7   3    6.25    5.91   2
  -7  -7   3    5.53    5.14   3
   7   7  -3   13.54    6.27   4
   6   7  -3   -0.84    4.06   4
  -6  -7   3    0.39    3.81   3
   5   7  -3   63.57    9.90   4
  -5  -7   3   55.28    8.80   3
  -4  -7   3    4.26    4.21   3
   4   7  -3   11.70    5.11   4
   3   7  -3   14.50    5.10   4
  -3  -7   3   12.74    4.93   3
  -2  -7   3   19.69    5.69   3
   2   7  -3   16.71    5.51   4
   1   7  -3   44.55    8.27   4
  -1  -7   3   47.73    8.69   4
  -1  -7   3   56.47    8.50   3
   1   7  -3   33.44    6.42   1
   0   7  -3   11.24    4.34   1
   0  -7   3    7.89    5.57   4
   0  -7   3    6.50    4.50   3
  -1   7  -3   11.63    4.79   1
   1  -7   3    5.76    5.73   4
  -2   7  -3    6.56    5.27   1
   2  -7   3    8.16    6.19   4
  -8  -6   3    6.07    5.06   3
  -8  -6   3    6.77    5.39   2
   8   6  -3    2.22    4.64   4
   7   6  -3    5.41    4.17   4
  -7  -6   3    2.23    4.35   3
  -6  -6   3  236.10   24.50   2
   6   6  -3  135.07   15.95   4
  -6  -6   3  161.38   17.63   3
   5   6  -3    5.69    4.00   4
  -5  -6   3    2.75    3.23   2
  -5  -6   3    4.74    4.06   3
  -4  -6   3   87.22   10.85   3
   4   6  -3   75.49   10.27   4
  -3  -6   3  105.74   12.26   3
   3   6  -3   84.25   11.00   4
   2   6  -3  117.50   14.75   1
  -2  -6   3  126.29   13.68   3
   2   6  -3  135.83   15.75   4
  -1  -6   3  149.60   15.50   3
   1   6  -3   97.10   12.23   4
   1   6  -3  118.11   15.21   1
   0  -6   3    0.84    3.54   3
   0   6  -3    0.67    3.55   1
   0  -6   3    2.86    3.95   4
  -1   6  -3   25.89    6.45   1
   1  -6   3   30.09    7.79   4
   2  -6   3    3.71    4.83   4
  -3   6  -3    9.07    4.96   1
   8   5  -3   69.29   10.82   4
  -8  -5   3   85.28   12.17   2
  -8  -5   3   70.72   10.55   3
  -7  -5   3    6.15    4.43   2
   7   5  -3    2.98    3.52   4
  -7  -5   3    3.25    4.12   3
  -6  -5   3    2.70    3.77   2
  -6  -5   3    7.88    4.22   3
   6   5  -3    7.68    4.25   4
   5   5  -3    5.28    3.07   4
  -5  -5   3    8.70    3.65   2
  -5  -5   3    3.26    3.50   3
  -4  -5   3  800.86   69.59   3
  -4  -5   3  695.36   65.02   2
  -3  -5   3    9.32    3.73   3
  -3  -5   3    6.69    2.57   2
   3   5  -3    2.05    3.26   4
   2   5  -3   10.70    3.76   4
  -2  -5   3    8.60    3.59   3
   2   5  -3    9.09    3.56   1
   1   5  -3   14.77    4.46   1
  -1  -5   3   14.66    4.18   3
   1   5  -3   11.30    4.10   4
   0   5  -3   46.18    7.71   1
   0  -5   3   71.15    9.76   4
   0  -5   3   74.01    9.01   3
   0   5  -3   45.43    7.41   4
   1  -5   3   13.19    4.27   3
   1  -5   3    4.14    4.34   4
  -1   5  -3   13.95    5.24   1
  -2   5  -3   69.80   10.95   1
   2  -5   3   69.48   11.01   4
   3  -5   3   25.39    7.50   4
  -3   5  -3   17.78    6.17   1
  -4   5  -3   11.77    5.23   1
   4  -5   3   11.17    5.85   4
  -5   5  -3    9.43    6.17   1
   5  -5   3   17.65    8.33   4
  -8  -4   3   -0.73    4.64   2
   8   4  -3    5.98    4.81   4
  -7  -4   3    5.40    4.65   2
  -7  -4   3    0.69    3.76   3
   7   4  -3    2.93    4.65   4
   6   4  -3   55.82    8.26   4
  -6  -4   3   50.83    7.76   3
  -6  -4   3   62.06    8.89   2
  -5  -4   3    0.15    2.82   2
  -4  -4   3   57.93    7.64   3
  -4  -4   3   68.99    8.50   2
   4   4  -3   64.19    8.32   4
   3   4  -3   18.97    4.05   4
   3   4  -3   26.95    4.23   1
  -3  -4   3   23.74    4.67   3
  -3  -4   3   23.54    4.10   2
   2   4  -3  111.62   12.59   4
  -2  -4   3  121.23   12.13   2
   2   4  -3  109.84   12.94   1
  -2  -4   3  117.49   12.21   3
  -1  -4   3    5.20    2.60   3
   1   4  -3    0.99    2.24   4
   1   4  -3    2.88    2.24   1
   0   4  -3   55.62    8.08   1
   0  -4   3   61.07    7.53   3
   0   4  -3   38.57    5.97   4
   1  -4   3   66.78    9.40   4
  -1   4  -3   80.62   11.00   1
   1  -4   3   73.33    8.62   3
   2  -4   3    5.36    3.11   3
  -2   4  -3    2.68    3.99   1
   2  -4   3   -0.72    3.34   4
   5  -4   3   50.81   10.29   4
  -5   4  -3   69.37   12.09   1
   6  -4   3   -0.90    5.74   4
  -6   4  -3    1.66    4.96   1
  -8  -3   3    8.67    5.79   2
   7   3  -3    7.06    4.09   4
  -7  -3   3    7.96    5.09   2
  -6  -3   3   37.17    6.11   3
   6   3  -3   38.63    6.97   4
  -6  -3   3   44.16    7.45   2
  -5  -3   3   10.13    3.73   3
  -5  -3   3   21.46    4.97   2
   5   3  -3   18.83    4.49   4
   4   3  -3    3.49    2.68   4
  -4  -3   3    2.92    2.77   2
  -4  -3   3    7.47    3.05   3
   3   3  -3   47.01    5.74   1
  -3  -3   3   63.19    7.51   2
  -3  -3   3   57.68    7.01   3
   3   3  -3   57.53    7.31   4
  -2  -3   3    3.10    2.36   3
  -2  -3   3    1.12    1.75   2
   2   3  -3    2.39    1.71   1
   1   3  -3   12.52    3.25   4
  -1  -3   3   11.86    1.98   2
   1   3  -3   14.18    3.02   1
  -1  -3   3   11.88    3.04   3
   0   3  -3   50.11    6.84   4
   0  -3   3   62.93    7.43   3
   0   3  -3   56.09    7.45   1
   1  -3   3  719.89   70.03   4
   2  -3   3  230.85   21.31   3
  -2   3  -3  236.17   27.03   1
   3  -3   3    4.86    3.45   3
  -3   3  -3    7.92    3.82   1
   3  -3   3   11.28    4.71   4
  -4   3  -3  135.58   17.68   1
   5  -3   3   60.06   10.09   4
  -5   3  -3   73.54   11.94   1
  -6   3  -3   52.76   10.20   1
   6  -3   3   45.83    9.22   4
  -7   3  -3   -1.07    5.45   1
   7  -3   3    0.49    6.65   4
  -8  -2   3    3.83    4.46   2
  -7  -2   3    1.32    4.44   2
  -6  -2   3    8.02    4.26   2
  -5  -2   3    8.50    3.31   3
  -5  -2   3    6.64    3.88   2
   5   2  -3    5.50    3.15   4
   4   2  -3    0.34    1.94   4
  -4  -2   3    0.71    2.20   3
  -4  -2   3    2.17    2.90   2
   3   2  -3  375.27   36.83   4
  -3  -2   3  390.76   37.11   2
  -3  -2   3  489.33   42.52   3
   2   2  -3  106.75   11.35   4
  -2  -2   3  100.43   10.47   2
   1   2  -3  325.01   34.96   1
  -1  -2   3  296.29   27.69   2
  -1  -2   3  242.51   21.78   3
   0  -2   3  145.95   13.64   2
   0   2  -3  176.09   17.96   4
   0   2  -3  218.68   24.11   1
   0  -2   3  197.89   18.13   3
   1  -2   3   56.70    7.25   4
   1  -2   3   54.46    6.34   3
  -1   2  -3   75.65    9.59   1
   2  -2   3    8.06    3.09   4
  -2   2  -3    9.23    3.19   1
  -2   2  -3   11.98    1.77   2
   2  -2   3    6.90    2.68   3
  -3   2  -3  198.91   23.07   1
   3  -2   3  182.09   19.67   4
   3  -2   3  182.07   17.16   3
  -4   2  -3    7.44    4.28   1
   4  -2   3    4.97    3.91   4
   4  -2   3   10.29    3.33   3
   5  -2   3    1.59    3.45   4
  -5   2  -3    5.77    4.92   1
  -6   2  -3    7.64    5.52   1
  -7   2  -3    6.56    5.35   1
   7  -2   3   11.65    6.82   4
  -8   2  -3   16.09    7.20   1
   8   1  -3    6.77    6.32   4
  -7  -1   3   81.45   11.32   2
   7   1  -3   86.42   12.51   4
   6   1  -3   77.70   10.60   4
  -6  -1   3   90.28   11.42   2
  -5  -1   3   85.30   10.35   2
   5   1  -3  123.83   14.15   4
  -4  -1   3   39.11    5.74   2
   4   1  -3   53.01    7.81   5
   4   1  -3   50.21    6.54   1
  -4  -1   3   53.51    6.34   3
  -3  -1   3 1054.68   89.20   3
   3   1  -3  777.78   82.40   1
   3   1  -3  997.14   95.29   4
  -2  -1   3   58.34    6.38   3
   2   1  -3   39.71    4.95   1
  -2  -1   3   41.00    5.33   2
   2   1  -3   36.99    4.79   4
  -1  -1   3  183.80   16.61   3
   1   1  -3  152.48   16.78   1
  -1  -1   3  204.13   19.51   2
   1   1  -3  157.71   15.77   4
   0  -1   3  407.17   35.13   3
   0  -1   3  408.81   37.75   2
  -1   1  -3    0.84    1.46   1
  -1   1  -3    0.35    1.37   4
   2  -1   3  136.06   14.36   4
   2  -1   3  183.73   16.85   3
  -2   1  -3  161.79   18.50   1
  -3   1  -3    5.77    1.78   2
   3  -1   3    3.84    2.10   4
   3  -1   3    6.63    2.83   3
  -3   1  -3    8.23    3.06   1
  -4   1  -3   14.32    2.84   2
  -4   1  -3    9.41    3.63   1
   4  -1   3   10.61    3.30   3
   4  -1   3    8.13    3.62   4
  -5   1  -3    7.58    2.78   2
  -5   1  -3    8.22    4.08   1
   5  -1   3    3.78    2.74   3
   5  -1   3    5.18    3.37   4
   6  -1   3    9.01    4.84   4
  -6   1  -3    9.68    5.53   1
  -7   1  -3    1.66    5.18   1
   8  -1   3   18.33    7.71   4
   7   0  -3    4.93    4.94   4
  -7   0   3   -0.09    4.30   2
  -6   0   3   19.01    5.49   2
   6   0  -3   21.31    6.20   4
   5   0  -3  552.35   54.72   4
  -5   0   3  559.02   53.43   2
   4   0  -3    6.84    2.96   1
  -4   0   3    9.37    3.67   2
   4   0  -3    8.20    3.41   5
   4   0  -3   11.31    4.01   4
   3   0  -3   87.40    9.96   4
  -3   0   3   94.95   10.49   2
  -3   0   3   86.29    8.38   3
   3   0  -3   67.79    9.72   5
   3   0  -3   94.59   11.26   1
   2   0  -3  240.05   23.74   4
  -2   0   3  163.87   16.49   2
   2   0  -3  218.12   26.77   5
  -2   0   3  183.48   16.28   3
   2   0  -3  177.46   19.85   1
  -1   0   3  497.77   46.35   2
   1   0  -3  496.37   52.86   1
  -1   0   3  513.91   43.71   3
   0   0   3  200.65   17.72   3
   0   0  -3  198.12   21.58   1
   0   0   3  217.22   20.63   2
   0   0  -3  197.63   19.15   4
   1   0   3   13.82    2.69   3
   1   0   3   13.72    2.48   2
  -1   0  -3   17.37    3.06   1
  -2   0  -3  203.39   19.17   2
   2   0   3  210.01   18.81   3
   3   0   3    3.21    2.23   3
  -3   0  -3    1.00    1.99   1
  -3   0  -3    1.36    1.31   2
   3   0   3    0.37    1.36   4
   4   0   3   -0.36    2.20   3
  -4   0  -3    2.01    1.96   2
   4   0   3    4.25    2.41   4
  -4   0  -3    0.09    2.13   1
   5   0   3   44.58    6.21   3
  -5   0  -3   31.92    5.90   1
  -5   0  -3   55.26    6.86   2
   5   0   3   47.10    6.91   4
   6   0   3  103.73   11.54   3
  -6   0  -3   86.72   12.10   1
  -6   0  -3  105.08   11.79   2
   6   0   3  114.47   13.62   4
  -7   0  -3   15.55    6.08   1
   7   0   3   12.09    5.61   4
  -7   0  -3    4.08    3.40   2
   8   0   3   15.17    6.41   4
   9   0   3    0.90    6.17   4
  -7   1   3    6.83    5.24   2
   7  -1  -3    6.02    7.16   4
   6  -1  -3   89.32   12.74   4
  -6   1   3  106.13   13.44   2
   5  -1  -3   91.96   11.97   4
  -5   1   3   68.07    9.00   1
  -5   1   3   69.01    9.65   2
  -4   1   3   14.26    3.11   1
  -4   1   3   20.31    4.74   2
   4  -1  -3   28.50    5.61   4
   3  -1  -3   26.45    4.49   4
  -3   1   3   34.51    5.36   2
  -3   1   3   26.07    4.06   1
   2  -1  -3    0.50    1.70   4
  -2   1   3    1.25    1.18   3
   2  -1  -3    0.71    2.11   5
   1  -1  -3   93.21   12.46   5
  -1   1   3   98.27    8.91   3
   1  -1  -3   86.16   10.31   1
  -1   1   3  121.80   12.54   2
   0   1   3  198.85   17.33   3
   0   1   3  137.78   13.70   2
   0  -1  -3  122.66   15.53   5
  -1  -1  -3    5.02    1.58   1
   1   1   3    2.17    1.29   3
   1   1   3    9.05    2.22   2
   2   1   3  434.09   41.20   4
  -2  -1  -3  570.94   60.85   1
   2   1   3  534.34   49.59   2
   2   1   3  624.94   53.19   3
  -3  -1  -3  170.67   16.63   2
   3   1   3  185.94   16.99   3
  -3  -1  -3  190.61   21.19   1
   3   1   3  254.62   24.69   4
  -4  -1  -3  758.45   70.20   2
   4   1   3  711.41   68.12   4
   5   1   3   59.57    7.64   4
   5   1   3   83.85    9.25   3
  -5  -1  -3   90.95   10.09   2
  -5  -1  -3   73.63    9.73   1
   6   1   3   15.85    4.66   4
  -6  -1  -3   18.88    4.01   2
  -6  -1  -3   22.35    5.29   1
   6   1   3   20.76    4.98   3
  -7  -1  -3   42.18    7.33   1
   7   1   3   48.77    7.62   4
   7   1   3   61.38    9.05   3
  -7  -1  -3   36.83    5.98   2
   8   1   3   16.36    6.00   4
  -8  -1  -3    5.31    4.51   2
   7  -2  -3    6.03    5.37   4
  -7   2   3    4.26    5.07   2
  -6   2   3    6.73    4.66   2
   6  -2  -3    3.03    4.86   4
  -5   2   3    0.43    3.35   1
   5  -2  -3    3.99    4.82   4
  -5   2   3    0.09    3.53   2
  -4   2   3   27.28    5.47   2
   4  -2  -3   15.87    5.66   4
  -4   2   3   17.79    4.25   1
  -3   2   3    0.80    2.28   1
  -3   2   3    3.74    2.90   2
   3  -2  -3    3.46    2.90   4
  -2   2   3  138.01   16.12   1
   2  -2  -3  165.76   17.32   4
  -2   2   3  157.61   16.27   2
   1  -2  -3  153.49   20.19   5
   1  -2  -3  101.60   12.40   1
   0   2   3  405.98   38.26   2
   0  -2  -3  443.28   47.80   1
   0  -2  -3  465.99   44.62   4
   0  -2  -3  549.99   66.11   5
  -1  -2  -3   18.96    3.32   1
  -1  -2  -3   10.91    1.62   4
   1   2   3   12.66    2.97   2
  -2  -2  -3  514.94   54.99   1
   2   2   3  542.80   50.68   2
   2   2   3  425.11   36.53   3
   2   2   3  484.23   45.81   4
   3   2   3  646.85   61.37   4
  -3  -2  -3  574.45   53.44   2
   3   2   3  493.38   42.55   3
  -3  -2  -3  462.23   49.56   1
  -4  -2  -3  528.68   49.56   2
   4   2   3  580.02   50.06   3
  -4  -2  -3  508.46   54.57   1
   5   2   3   18.86    3.58   4
  -5  -2  -3   24.10    4.50   1
  -5  -2  -3   24.03    4.23   2
   5   2   3   22.30    4.37   3
  -6  -2  -3    4.57    3.10   2
   6   2   3    4.82    3.31   4
   6   2   3    1.84    3.11   3
  -6  -2  -3    0.43    2.37   1
   7   2   3    0.49    3.35   4
   7   2   3    0.10    4.54   3
  -7  -2  -3    2.24    3.26   2
   8   2   3    5.73    4.55   4
   8   2   3    2.83    4.21   3
  -8  -2  -3    9.44    4.35   2
   9   2   3   11.26    5.24   4
  -9  -2  -3    0.16    4.63   2
  -6   3   3    1.71    4.60   2
   6  -3  -3    6.88    6.82   4
  -5   3   3    8.98    4.66   1
  -5   3   3    5.75    4.23   2
   5  -3  -3   11.31    5.77   4
  -4   3   3    2.68    3.55   2
   4  -3  -3    6.11    4.30   4
  -4   3   3    4.22    3.83   1
   3  -3  -3   33.10    6.62   4
  -3   3   3   29.80    5.33   2
  -3   3   3   22.13    4.63   1
  -2   3   3    1.52    2.28   2
   2  -3  -3    2.19    3.11   4
  -1   3   3  182.59   15.62   3
  -1   3   3  237.57   26.80   1
   0  -3  -3  357.96   44.26   5
   0   3   3  337.85   28.84   3
   0  -3  -3  381.58   37.21   4
   0   3   3  332.16   31.91   2
   1   3   3  278.70   27.00   2
  -1  -3  -3  304.63   33.41   1
  -2  -3  -3   -0.09    1.64   1
   2   3   3    3.18    2.05   3
   2   3   3    1.07    1.20   4
  -2  -3  -3    5.23    2.64   5
   3   3   3   20.99    4.14   2
  -3  -3  -3   22.88    3.40   2
   3   3   3   20.20    2.89   4
   3   3   3   18.42    3.43   3
   4   3   3  795.82   68.06   3
  -4  -3  -3  590.88   63.13   1
  -5  -3  -3   42.00    5.88   2
  -5  -3  -3   53.31    7.02   1
   5   3   3   43.68    6.30   3
   5   3   3   55.00    6.52   4
  -6  -3  -3   45.17    6.76   2
  -6  -3  -3   46.73    6.96   1
   6   3   3   47.48    7.47   3
   7   3   3   16.57    4.26   4
   7   3   3   28.20    6.41   3
  -7  -3  -3   26.26    5.66   2
   8   3   3    3.40    3.85   4
   8   3   3    3.87    4.19   3
   9   3   3   17.85    7.47   3
  -9  -3  -3   10.33    5.28   2
 -10  -3  -3   14.11    6.94   2
  -6   4   3    1.07    6.02   1
  -5   4   3    3.84    4.36   2
   5  -4  -3   11.14    6.51   4
  -5   4   3    7.53    5.48   1
   4  -4  -3   36.55    8.29   4
  -4   4   3   27.27    6.07   1
  -4   4   3   23.70    5.37   2
  -3   4   3    4.71    3.68   1
  -3   4   3    9.02    4.02   2
   3  -4  -3    2.80    4.23   4
   2  -4  -3    1.77    3.63   4
  -2   4   3    6.07    3.48   1
  -2   4   3    0.05    2.39   2
  -1   4   3   12.21    3.62   1
  -1   4   3   10.91    3.29   2
   1  -4  -3   17.57    4.78   4
   0   4   3   32.07    5.16   1
   0  -4  -3   18.25    3.83   4
   0   4   3   30.14    3.53   3
   0   4   3   26.74    4.82   2
   1   4   3  106.41   11.61   2
  -1  -4  -3  164.50   17.09   4
   2   4   3  186.55   16.98   3
  -2  -4  -3  174.43   17.72   4
   3   4   3   26.15    4.34   3
   3   4   3   25.25    3.63   4
   3   4   3   19.52    4.32   2
   4   4   3    2.76    2.11   4
  -4  -4  -3    3.93    2.04   1
  -5  -4  -3   -0.19    1.69   1
  -5  -4  -3    0.41    2.14   2
  -6  -4  -3    7.66    3.44   2
   6   4   3    2.88    2.53   4
   7   4   3   25.45    5.63   3
  -7  -4  -3   24.05    5.18   2
   7   4   3   16.98    4.03   4
  -8  -4  -3    6.23    4.00   2
   8   4   3    6.09    5.28   3
   9   4   3    4.05    4.99   3
  -9  -4  -3    1.64    5.47   2
 -10  -4  -3   15.87    6.68   2
  -5   5   3    9.86    6.83   1
   5  -5  -3    1.73    6.39   4
  -4   5   3    2.47    4.62   1
   4  -5  -3    1.19    5.67   4
  -3   5   3   24.77    5.72   2
  -3   5   3   32.78    6.76   1
   3  -5  -3   36.60    8.03   4
  -2   5   3   10.77    4.22   1
   2  -5  -3   11.38    4.99   4
  -2   5   3    9.09    3.71   2
  -1   5   3    1.72    3.56   1
  -1   5   3    2.47    2.85   2
   0   5   3   -0.04    2.96   2
   0  -5  -3   -0.42    2.49   4
  -1  -5  -3   28.23    5.29   4
   1   5   3   15.33    3.42   1
   1   5   3   26.77    5.00   2
   1   5   3   18.86    3.30   3
  -2  -5  -3   72.29    8.84   4
   2   5   3   56.99    6.42   3
   2   5   3   89.25   10.45   2
  -2  -5  -3   85.86   11.15   1
   3   5   3    1.73    2.73   3
  -3  -5  -3    0.82    2.01   1
   3   5   3    5.45    2.60   4
   3   5   3    2.75    2.88   2
  -3  -5  -3    3.71    3.29   5
   4   5   3    4.59    3.03   3
   4   5   3    4.08    2.48   4
  -5  -5  -3   97.30   11.24   2
  -5  -5  -3   65.90    8.41   1
   5   5   3   96.75   10.79   3
   5   5   3   68.98    8.28   4
   6   5   3    0.83    3.34   3
   6   5   3    0.85    2.31   4
  -7  -5  -3    0.45    4.24   2
  -8  -5  -3   -0.88    3.81   2
   9   5   3   50.92    9.12   3
  -9  -5  -3   35.99    7.10   2
  10   5   3   13.13    7.16   3
   4  -6  -3    0.84    7.65   4
  -3   6   3   12.60    6.15   1
   3  -6  -3   17.03    6.59   4
  -2   6   3    9.73    5.16   1
   2  -6  -3   -0.20    4.11   4
   1  -6  -3   77.04   11.29   4
  -1   6   3   59.44    9.32   1
  -1   6   3   62.04    8.75   2
   0  -6  -3   16.08    4.68   4
   0   6   3   29.33    5.65   2
   0   6   3   30.54    6.34   1
   1   6   3    7.53    3.52   2
  -1  -6  -3    1.87    3.54   4
  -2  -6  -3    6.51    3.98   4
  -2  -6  -3    5.75    4.18   1
   2   6   3    5.93    2.80   3
  -2  -6  -3    6.66    4.79   5
   3   6   3    8.20    3.54   2
  -3  -6  -3    4.14    3.05   1
   3   6   3    4.96    2.95   3
   3   6   3    5.14    3.12   4
  -4  -6  -3   53.90    9.03   5
  -4  -6  -3   72.62    9.63   1
  -4  -6  -3   63.26    7.82   2
   4   6   3   70.17    8.65   4
   4   6   3   55.07    7.20   3
   5   6   3   14.93    4.15   3
   5   6   3   23.18    4.61   4
  -5  -6  -3   30.26    5.22   2
  -6  -6  -3   11.83    4.07   2
   6   6   3   10.58    4.10   3
  -7  -6  -3    2.03    3.51   2
   7   6   3    3.98    3.88   3
   8   6   3    8.88    5.03   3
  -8  -6  -3   10.79    5.07   2
   9   6   3    8.42    6.20   3
  -9  -6  -3    4.08    5.59   2
  10   6   3   11.25    7.46   3
   3  -7  -3   17.27    8.20   4
  -2   7   3    9.64    6.29   1
   2  -7  -3    1.90    5.22   4
  -1   7   3    3.39    5.26   1
   0   7   3    8.50    4.41   1
   0  -7  -3   11.01    4.75   4
   1   7   3  110.16   14.73   1
  -1  -7  -3  111.67   14.14   4
   1   7   3  110.19   13.04   2
   2   7   3  676.89   74.05   1
  -2  -7  -3  616.78   68.00   1
  -2  -7  -3  564.26   56.30   4
   2   7   3  467.07   45.29   2
  -3  -7  -3   20.56    6.52   5
  -3  -7  -3    9.22    4.33   1
  -3  -7  -3   12.91    4.26   4
   3   7   3   14.31    5.05   2
   3   7   3    6.89    3.26   3
  -4  -7  -3   19.58    6.14   5
  -4  -7  -3   13.30    4.26   1
   4   7   3    7.80    4.11   3
  -4  -7  -3   11.78    3.45   2
   5   7   3   38.86    6.62   3
  -5  -7  -3   40.63    6.47   2
  -6  -7  -3   34.41    6.27   2
   6   7   3   29.05    6.38   3
  -7  -7  -3   -0.37    3.79   2
   8   7   3    3.98    4.99   3
  -8  -7  -3    2.67    5.39   2
  -9  -7  -3    3.86    5.75   2
  -1   8   3   -0.91    5.01   1
   0  -8  -3   46.27    9.22   4
   0   8   3   64.66   10.56   1
   1   8   3   23.47    6.36   1
  -1  -8  -3   25.14    7.32   4
  -2  -8  -3   83.95   15.46   5
  -2  -8  -3  120.35   15.61   4
   2   8   3  112.32   15.11   1
  -2  -8  -3  134.32   18.58   1
  -3  -8  -3   96.90   13.83   1
   3   8   3   97.15   12.43   2
  -3  -8  -3   85.07   11.95   4
  -3  -8  -3   83.54   14.23   5
  -4  -8  -3   73.08    9.18   2
   4   8   3   58.12    8.27   3
  -4  -8  -3   64.63   11.89   5
  -5  -8  -3   10.44    4.19   2
   5   8   3   14.21    4.91   3
   6   8   3   -0.96    4.25   3
  -7  -8  -3    0.58    3.95   2
   7   8   3    3.21    4.57   3
   8   8   3    5.20    5.22   3
  -8  -8  -3    7.25    6.39   2
  -9  -8  -3    2.51    6.26   2
   0  -9  -3   34.70    9.35   4
   1   9   3   11.84    6.03   1
  -2  -9  -3    4.63    6.23   1
  -2  -9  -3    7.28    9.68   5
  -3  -9  -3    0.79    5.94   5
  -3  -9  -3   -0.21    4.83   1
  -5  -9  -3    2.96    3.75   2
  -5  -9  -3    8.70    4.22   3
   6   9   3    3.73    5.34   3
  -6  -9  -3    1.39    3.94   2
  -7  -9  -3    1.92    4.64   2
   7   9   3   11.85    5.70   3
  -8  -9  -3   20.19    6.47   2
  -7 -10  -3    3.81    5.25   2
  -3  -9   4    2.06    5.20   3
  -2  -9   4   14.54    6.52   3
  -6  -8   4    3.53    5.38   3
   6   8  -4   13.84    6.59   4
  -5  -8   4   -0.59    4.80   3
   5   8  -4   12.14    6.08   4
   4   8  -4    0.33    3.82   4
  -4  -8   4    7.26    5.28   3
   3   8  -4    8.83    5.85   4
  -3  -8   4   13.17    5.89   3
  -2  -8   4   21.01    6.13   3
   2   8  -4    7.49    5.78   4
  -1  -8   4   15.70    6.14   3
  -1  -8   4   26.40    8.77   4
   0  -8   4    8.75    8.37   4
   0   8  -4   -0.73    4.79   1
  -7  -7   4   -0.25    5.09   3
   7   7  -4    9.82    6.29   4
   6   7  -4    1.40    4.85   4
  -6  -7   4    3.19    4.80   3
   4   7  -4    7.86    4.81   4
  -4  -7   4    1.57    4.06   3
   3   7  -4    1.39    3.81   4
  -3  -7   4    1.14    4.42   3
   2   7  -4   29.38    7.13   4
  -2  -7   4   34.52    6.90   3
   1   7  -4   32.13    7.01   4
  -1  -7   4   42.15    7.45   3
   1   7  -4   33.45    7.25   1
   0  -7   4    4.58    5.66   4
   0   7  -4    2.12    4.24   1
   1  -7   4    8.09    6.35   4
  -1   7  -4    2.80    4.42   1
  -2   7  -4    2.68    4.49   1
   2  -7   4    6.83    6.22   4
  -8  -6   4    9.97    6.62   2
  -7  -6   4    1.15    4.88   3
   7   6  -4    5.64    3.91   4
   6   6  -4    5.02    4.73   4
  -5  -6   4   18.15    5.67   3
   5   6  -4   16.69    5.25   4
   4   6  -4  221.44   24.00   4
  -4  -6   4  233.33   23.24   3
  -3  -6   4   23.28    5.31   3
   3   6  -4   23.06    5.71   4
   2   6  -4    6.20    3.80   4
  -2  -6   4   10.44    4.16   3
  -1  -6   4   35.59    6.76   3
   1   6  -4   45.71    8.48   1
   1   6  -4   24.25    5.67   4
   0   6  -4   41.21    8.58   1
   0  -6   4   46.63    8.77   4
   0  -6   4   56.32    8.57   3
   1  -6   4   27.43    6.92   3
   1  -6   4   15.01    5.82   4
  -1   6  -4   19.08    6.61   1
  -2   6  -4    0.95    4.57   1
   3  -6   4   21.98    8.85   4
  -3   6  -4   14.10    6.24   1
   8   5  -4    1.60    4.72   4
  -8  -5   4    6.26    5.72   2
  -7  -5   4    8.69    5.26   3
  -7  -5   4   12.91    5.82   2
   7   5  -4    8.16    3.97   4
  -6  -5   4   13.91    5.47   3
  -6  -5   4   16.03    5.20   2
   6   5  -4   11.05    4.35   4
  -5  -5   4   26.99    6.37   3
   5   5  -4   22.43    4.91   4
  -5  -5   4   25.50    5.54   2
   4   5  -4    3.16    3.47   4
  -4  -5   4    1.38    3.51   3
   3   5  -4  245.58   25.77   4
  -3  -5   4  208.01   20.70   3
   2   5  -4  163.43   19.21   1
  -2  -5   4  137.24   14.48   3
  -1  -5   4   27.12    5.77   3
   1   5  -4   20.93    4.94   1
   1   5  -4   19.29    5.31   4
   0  -5   4    2.19    3.69   3
   0   5  -4   -0.54    3.47   1
   1  -5   4   -0.20    3.97   3
  -1   5  -4    2.65    3.04   1
   2  -5   4   67.36    9.29   3
  -2   5  -4   44.50    8.55   1
   2  -5   4   50.61    9.26   4
  -3   5  -4   -0.22    4.59   1
  -4   5  -4    5.43    6.14   1
   4  -5   4    7.41    5.93   4
  -8  -4   4    4.00    4.90   2
  -7  -4   4   40.92    7.75   3
   7   4  -4   52.71    8.96   4
  -7  -4   4   42.17    8.15   2
   6   4  -4   -0.84    3.62   4
  -6  -4   4   -0.96    3.87   2
  -5  -4   4    6.03    4.20   3
  -5  -4   4    5.39    3.93   2
   5   4  -4    6.70    3.08   4
   4   4  -4   98.14   11.74   4
  -4  -4   4   95.90   11.29   2
  -4  -4   4  101.74   11.69   3
  -3  -4   4    4.40    2.84   2
  -3  -4   4    0.35    2.67   3
   3   4  -4    3.88    3.37   4
  -2  -4   4    0.13    2.04   2
  -2  -4   4    1.77    2.59   3
  -1  -4   4   15.49    4.45   3
   1   4  -4    9.78    3.38   1
   1   4  -4   13.60    4.18   4
   0  -4   4   18.21    4.60   3
   0   4  -4   17.00    4.33   1
   0   4  -4   19.41    4.53   4
  -1   4  -4    0.15    2.65   1
   1  -4   4    7.65    3.87   3
   1  -4   4    5.57    3.99   4
   2  -4   4    2.20    3.56   4
   2  -4   4    3.55    3.51   3
   3  -4   4    8.81    4.97   4
   3  -4   4   18.75    5.22   3
  -3   4  -4   21.36    5.90   1
   4  -4   4   13.54    5.54   4
  -4   4  -4   30.16    7.33   1
  -5   4  -4   20.17    7.26   1
   5  -4   4   33.56    9.33   4
   6  -4   4   68.72   12.88   4
  -6   4  -4   77.44   13.55   1
   8   3  -4    0.59    5.04   4
  -8  -3   4    1.45    4.46   2
  -7  -3   4    4.43    4.34   2
   6   3  -4   49.81    7.96   4
  -6  -3   4   60.35    9.22   2
  -6  -3   4   56.88    8.27   3
  -5  -3   4    1.57    3.43   2
  -5  -3   4    8.42    3.65   3
   5   3  -4   -0.19    3.04   4
  -4  -3   4    0.91    2.85   2
   4   3  -4    1.68    2.94   4
   3   3  -4   19.27    3.96   4
  -3  -3   4   15.88    4.03   3
   3   3  -4   24.04    3.67   1
  -3  -3   4   18.87    3.73   2
   2   3  -4   31.28    5.14   4
  -2  -3   4   38.15    5.55   3
  -2  -3   4   31.35    4.45   2
   2   3  -4   46.60    6.23   1
   1   3  -4   12.36    3.43   4
  -1  -3   4    7.56    1.97   2
  -1  -3   4   11.53    3.71   3
   1   3  -4   11.34    3.11   1
   0   3  -4   12.88    3.41   4
   0  -3   4   14.63    3.87   3
   0   3  -4   10.91    2.96   1
   1  -3   4  269.75   24.76   3
  -1   3  -4  234.23   26.58   1
   1  -3   4  221.61   23.31   4
  -2   3  -4   15.19    4.21   1
   2  -3   4   22.86    5.08   3
   2  -3   4   15.05    4.82   4
   3  -3   4    1.96    3.41   3
   3  -3   4    3.98    3.73   4
   4  -3   4   -0.52    3.65   4
   4  -3   4    2.65    3.89   3
  -4   3  -4    1.99    3.67   1
  -5   3  -4  110.87   15.60   1
   5  -3   4   92.92   13.84   4
  -6   3  -4   39.77    9.56   1
   6  -3   4   42.75    9.48   4
   7  -3   4    4.66    7.45   4
  -7   3  -4    4.84    6.17   1
  -7  -2   4    1.35    4.76   2
   7   2  -4    3.39    4.55   4
   6   2  -4    7.73    4.21   4
  -6  -2   4   11.65    5.19   2
   5   2  -4    1.46    2.81   4
  -5  -2   4    2.39    3.28   2
  -5  -2   4    4.64    3.22   3
  -4  -2   4    2.63    2.80   2
  -4  -2   4    4.04    2.85   3
   4   2  -4    4.00    2.98   4
   3   2  -4   59.12    7.20   1
  -3  -2   4   51.35    6.55   3
  -3  -2   4   49.39    6.65   2
   3   2  -4   72.19    8.68   4
  -2  -2   4   10.63    2.91   3
   2   2  -4    7.35    2.49   4
  -2  -2   4    7.20    2.57   2
   2   2  -4    7.73    2.15   1
  -1  -2   4    4.79    2.01   2
   1   2  -4    4.11    2.28   4
  -1  -2   4    2.84    2.44   3
   1   2  -4    3.47    1.99   1
   0   2  -4   15.02    3.35   4
   0  -2   4   13.00    2.12   2
   0  -2   4   12.54    3.27   3
   0   2  -4   18.24    3.54   1
  -1   2  -4  105.24   11.59   4
  -1   2  -4  126.63   11.77   2
  -2   2  -4   26.19    4.93   1
   2  -2   4   20.64    4.77   4
   2  -2   4   23.26    4.63   3
   3  -2   4  170.21   18.63   4
   4  -2   4    5.77    3.68   4
   4  -2   4    6.53    3.33   3
  -4   2  -4    3.46    3.49   1
   5  -2   4   12.21    4.91   4
   6  -2   4   35.75    7.75   4
  -6   2  -4   37.79    8.88   1
  -7   2  -4    5.79    6.38   1
  -8   2  -4   -0.47    5.50   1
   8   1  -4    1.35    5.75   4
  -7  -1   4   20.97    6.46   2
   7   1  -4   18.43    6.10   4
  -6  -1   4    1.65    4.18   2
   6   1  -4    4.97    4.62   4
  -4  -1   4    0.29    2.99   2
   4   1  -4    3.00    2.12   1
  -4  -1   4   -0.29    2.26   3
  -3  -1   4   11.18    3.56   2
  -3  -1   4   12.90    3.02   3
   3   1  -4   11.70    3.02   4
   3   1  -4   11.97    3.20   1
   2   1  -4   49.72    6.30   4
  -2  -1   4   63.55    7.19   3
   2   1  -4   49.78    6.31   1
  -2  -1   4   68.46    8.14   2
   1   1  -4  356.08   34.62   4
  -1  -1   4  412.35   38.77   2
   0   1  -4  171.74   17.24   4
   0   1  -4  233.57   25.65   1
   0  -1   4  162.34   15.73   2
   0  -1   4  151.63   14.28   3
  -1   1  -4   89.28    9.61   4
   1  -1   4  116.98   11.58   3
   2  -1   4   57.47    7.11   4
  -2   1  -4   88.72   10.97   1
  -2   1  -4   67.40    6.82   2
   2  -1   4   83.38    9.14   3
  -3   1  -4  159.97   15.38   2
   3  -1   4  125.04   13.72   4
  -3   1  -4  135.20   16.16   1
   3  -1   4  179.98   17.11   3
  -4   1  -4   17.97    3.39   2
   4  -1   4   12.40    3.97   4
  -4   1  -4   11.24    3.71   1
   4  -1   4   11.29    3.55   3
  -5   1  -4    1.23    3.25   1
   5  -1   4   -0.64    3.11   4
   6  -1   4    3.14    4.06   4
  -6   1  -4    7.07    4.90   1
  -7   1  -4   20.12    7.64   1
  -8   1  -4    5.51    6.30   1
   7   0  -4    7.32    5.41   4
  -7   0   4    8.47    5.85   2
  -6   0   4  119.63   14.81   2
   6   0  -4  138.02   16.83   4
   5   0  -4   59.56    8.89   4
  -5   0   4   64.30    9.35   2
   4   0  -4  133.48   14.93   4
   4   0  -4  126.72   15.18   1
   4   0  -4  140.06   18.70   5
  -4   0   4  107.70   12.68   2
   3   0  -4   36.52    5.33   4
   3   0  -4   48.22    6.73   1
  -3   0   4   34.79    4.55   3
   3   0  -4   44.73    7.20   5
  -3   0   4   48.36    6.82   2
   2   0  -4  178.82   20.07   1
  -2   0   4  156.86   16.17   2
  -1   0   4  933.93   86.26   2
  -1   0   4  935.59   79.12   3
   1   0  -4  946.17  100.29   1
   0   0  -4    0.95    1.58   1
   0   0   4    2.49    1.89   3
   0   0   4    1.82    1.75   2
   0   0  -4    0.43    1.08   4
   1   0   4   74.50    7.83   3
  -1   0  -4   88.31    9.09   4
   1   0   4   93.50    9.67   2
   2   0   4    2.31    2.28   3
  -2   0  -4    1.19    2.04   1
   2   0   4    1.67    1.66   4
  -3   0  -4   15.77    2.64   2
   3   0   4   11.35    3.10   3
  -3   0  -4   15.18    3.48   1
   4   0   4    1.30    2.74   3
  -4   0  -4    0.40    2.63   1
   4   0   4    5.13    2.53   4
  -4   0  -4    2.64    1.70   2
   5   0   4    0.17    2.69   4
   5   0   4    2.08    2.67   3
  -6   0  -4   10.29    4.49   1
   6   0   4   11.57    4.45   4
  -6   0  -4   13.45    3.52   2
   6   0   4    8.25    4.28   3
   7   0   4   27.02    6.70   4
   8   0   4    8.06    5.74   4
  -7   1   4    0.61    4.95   2
   7  -1  -4   16.30    7.22   4
   6  -1  -4   11.23    6.06   4
  -6   1   4   11.16    5.12   2
   5  -1  -4  120.25   14.86   4
  -5   1   4  137.66   15.90   2
  -4   1   4  438.72   42.64   2
   4  -1  -4  557.51   60.80   1
   4  -1  -4  653.03   64.06   4
   3  -1  -4   83.55   12.63   5
   3  -1  -4  127.46   14.20   4
   3  -1  -4  107.01   13.29   1
  -3   1   4   94.65   11.10   2
  -2   1   4    0.31    1.92   2
   2  -1  -4   -0.10    2.80   1
  -2   1   4    0.65    1.45   3
   2  -1  -4   -0.09    2.01   4
   1  -1  -4   34.77    6.31   5
   1  -1  -4   24.06    3.52   4
   1  -1  -4   35.06    5.34   1
  -1   1   4   25.18    3.33   3
  -1   1   4   25.80    4.39   2
   0   1   4   23.81    3.44   3
   0  -1  -4   29.11    3.48   4
   0  -1  -4   23.09    3.75   1
   0   1   4   18.11    3.38   2
   1   1   4   14.69    2.87   3
  -1  -1  -4   18.98    3.32   1
  -1  -1  -4   15.90    2.08   4
   1   1   4   19.11    3.50   2
  -2  -1  -4  271.10   29.73   1
   2   1   4  407.16   35.30   3
   2   1   4  309.67   29.48   4
   2   1   4  365.97   34.60   2
  -3  -1  -4    4.00    1.63   2
  -3  -1  -4    4.06    2.04   1
   3   1   4    6.15    1.82   4
   3   1   4    5.42    2.83   3
  -4  -1  -4  205.54   23.26   1
   4   1   4  181.71   18.26   4
  -4  -1  -4  181.24   17.87   2
   5   1   4   37.35    5.92   3
   5   1   4   58.99    7.40   4
  -5  -1  -4   39.29    6.60   1
  -5  -1  -4   60.58    7.26   2
   6   1   4   54.66    7.75   3
   6   1   4   58.22    8.30   4
  -6  -1  -4   48.23    7.81   1
  -6  -1  -4   48.82    6.62   2
   7   1   4    6.37    4.30   3
  -7  -1  -4   -0.36    3.38   2
   7   1   4    1.27    3.22   4
   8   1   4    0.20    4.25   4
   6  -2  -4   33.74    8.28   4
  -6   2   4   30.43    7.05   2
   5  -2  -4    1.81    4.78   1
  -5   2   4    0.75    3.80   2
   5  -2  -4    6.78    7.61   5
   5  -2  -4    3.56    4.37   4
   4  -2  -4   -0.48    5.47   5
   4  -2  -4    0.83    3.77   1
   4  -2  -4    2.18    3.51   4
   3  -2  -4    1.33    3.83   5
  -3   2   4    1.87    3.18   2
   3  -2  -4    6.60    3.91   1
   3  -2  -4    1.63    3.19   4
  -2   2   4   49.22    6.80   2
   2  -2  -4   38.68    7.44   5
   2  -2  -4   61.02    7.82   4
   2  -2  -4   45.17    7.09   1
   1  -2  -4   38.88    5.22   4
  -1   2   4   29.92    3.36   3
   1  -2  -4   32.26    6.41   5
   1  -2  -4   30.73    5.28   1
  -1   2   4   26.28    4.74   2
   0  -2  -4   50.33    5.70   4
   0   2   4   56.33    5.77   3
   0   2   4   48.63    6.39   2
   0  -2  -4   60.43    9.11   5
   0  -2  -4   56.11    7.54   1
   1   2   4    5.65    2.46   2
   1   2   4   12.24    2.59   3
  -1  -2  -4   11.69    1.63   4
  -1  -2  -4   11.24    2.82   1
   2   2   4   11.03    2.79   3
  -2  -2  -4   12.93    2.92   1
   2   2   4   12.78    3.35   2
  -3  -2  -4  161.67   18.34   1
   3   2   4  137.86   14.31   2
   3   2   4  126.00   12.19   4
   4   2   4 1689.82  159.82   4
  -4  -2  -4 2309.11  211.21   2
  -4  -2  -4 1718.51  181.74   1
  -5  -2  -4    2.96    2.68   1
   5   2   4    4.08    1.89   4
  -5  -2  -4    5.50    2.42   2
   5   2   4   -0.58    2.74   3
  -6  -2  -4   -0.28    2.84   2
  -6  -2  -4    0.62    3.33   1
   6   2   4    1.82    3.22   3
   7   2   4    2.04    2.62   4
  -7  -2  -4    1.18    2.78   2
   7   2   4    2.08    3.95   3
  -7  -2  -4    3.91    3.60   1
   8   2   4   54.96    9.42   3
  -8  -2  -4   43.59    7.68   2
  -9  -2  -4    6.76    5.08   2
  -6   3   4    4.82    5.06   2
   6  -3  -4    5.96    6.57   4
  -5   3   4    8.86    4.76   2
   5  -3  -4    5.38    5.73   4
  -5   3   4    2.12    3.99   1
   4  -3  -4    0.09    4.28   4
  -4   3   4    1.70    3.30   2
  -4   3   4    8.24    4.08   1
  -3   3   4   33.11    5.94   2
  -3   3   4   24.39    4.76   1
   3  -3  -4   40.19    7.00   4
  -2   3   4   19.77    4.92   2
   2  -3  -4    9.94    4.43   1
   2  -3  -4   24.90    5.16   4
   2  -3  -4    9.36    6.05   5
   1  -3  -4   56.38    9.57   5
   1  -3  -4   75.42   10.30   1
   1  -3  -4   90.92   10.42   4
  -1   3   4   63.32    8.16   2
   0  -3  -4  243.23   24.14   4
   0  -3  -4  281.31   35.46   5
   0  -3  -4  245.54   27.71   1
   0   3   4  222.90   19.44   3
  -1  -3  -4  648.38   77.93   5
  -1  -3  -4  458.22   43.90   4
   1   3   4  465.05   39.81   3
  -1  -3  -4  629.66   67.73   1
  -2  -3  -4  481.48   45.74   4
   2   3   4  635.90   54.35   3
   3   3   4   48.50    5.97   3
   3   3   4   39.09    5.79   2
  -3  -3  -4   45.43    6.30   1
   4   3   4  371.03   32.92   3
  -4  -3  -4  480.25   45.44   2
  -4  -3  -4  545.13   58.63   1
   4   3   4  342.73   32.94   4
  -5  -3  -4   13.27    3.41   1
   5   3   4   10.06    3.73   3
   5   3   4   11.89    2.59   4
  -5  -3  -4    9.19    3.19   2
  -6  -3  -4  337.81   33.06   2
  -6  -3  -4  317.01   35.04   1
   6   3   4  284.54   26.60   3
   7   3   4   13.31    5.15   3
  -7  -3  -4   11.06    4.16   2
   8   3   4    1.06    4.97   3
   9   3   4    0.74    5.05   3
 -10  -3  -4   18.87    6.77   2
  -6   4   4    7.56    5.97   1
  -5   4   4    8.45    5.19   2
  -5   4   4    1.54    4.58   1
   5  -4  -4    8.01    6.81   4
  -4   4   4    3.29    4.21   1
   4  -4  -4    5.65    5.24   4
  -4   4   4   11.36    5.25   2
  -3   4   4   42.02    7.13   1
  -3   4   4   41.60    7.09   2
   3  -4  -4   55.84    9.12   4
   2  -4  -4   -0.31    4.14   4
  -2   4   4    2.49    3.25   2
  -1   4   4   71.62    9.70   1
   1  -4  -4   46.51    9.63   5
  -1   4   4   71.80    9.13   2
   1  -4  -4   60.43    9.97   1
   0  -4  -4   91.96   12.18   1
   0  -4  -4   84.82    9.86   4
   0   4   4   85.09   10.18   2
   0  -4  -4   85.46   13.21   5
   1   4   4   78.62    9.91   2
  -1  -4  -4   71.26    8.22   4
  -1  -4  -4  104.86   15.08   5
  -1  -4  -4   89.93   11.63   1
  -2  -4  -4  141.13   18.77   5
  -2  -4  -4  103.14   10.87   4
  -2  -4  -4  131.40   15.66   1
   2   4   4  127.66   12.17   3
   3   4   4  110.38   10.99   3
   3   4   4   86.21    8.97   4
  -3  -4  -4  121.82   14.42   1
   3   4   4  126.02   13.85   2
   4   4   4    2.10    2.60   3
  -5  -4  -4    3.25    2.84   1
  -6  -4  -4   21.77    4.57   1
   6   4   4   15.02    5.19   3
  -6  -4  -4   15.79    4.14   2
   7   4   4   13.26    5.58   3
  -7  -4  -4   14.38    4.41   2
  -8  -4  -4    6.47    4.56   2
   8   4   4    5.62    4.64   3
  -9  -4  -4   14.55    5.26   2
   9   4   4   25.14    7.35   3
  10   4   4    4.09    7.01   3
 -10  -4  -4    1.46    5.82   2
  -4   5   4    3.93    4.74   1
   4  -5  -4    7.53    6.36   4
  -4   5   4    8.18    5.02   2
  -3   5   4  114.98   15.43   1
  -3   5   4  110.71   13.38   2
   3  -5  -4  142.49   17.88   4
  -2   5   4   58.39    8.45   2
  -2   5   4   51.80    8.39   1
   2  -5  -4   60.88    9.71   4
   1  -5  -4   25.91    6.03   4
  -1   5   4   19.64    4.59   1
  -1   5   4   26.37    5.30   2
   0  -5  -4   25.28    6.77   1
   0   5   4   23.45    5.40   2
   0  -5  -4   24.97    7.46   5
   0  -5  -4   24.86    5.22   4
  -1  -5  -4   11.42    5.14   5
   1   5   4   13.26    2.95   3
  -1  -5  -4    7.15    2.85   4
  -1  -5  -4   13.82    4.59   1
   1   5   4    6.44    3.45   2
  -2  -5  -4   29.79    6.01   1
   2   5   4   18.42    3.26   3
  -2  -5  -4   23.36    4.55   4
   2   5   4   15.57    4.42   2
  -2  -5  -4   33.14    7.52   5
   3   5   4    3.95    2.57   3
   3   5   4    1.03    3.16   2
  -3  -5  -4    4.56    2.95   1
  -3  -5  -4    3.25    3.71   5
  -3  -5  -4    2.17    2.34   4
   4   5   4   11.68    3.70   3
  -4  -5  -4   16.10    3.58   1
  -4  -5  -4   12.50    3.12   2
  -5  -5  -4   12.83    3.57   2
  -5  -5  -4   14.07    3.48   1
   5   5   4   13.73    4.32   3
   6   5   4    1.58    3.25   3
  -6  -5  -4    5.01    3.20   2
   7   5   4    8.33    4.21   3
  -7  -5  -4   10.32    4.16   2
   8   5   4    9.20    5.58   3
  -8  -5  -4    8.27    4.75   2
  -9  -5  -4    0.16    5.07   2
   9   5   4    5.52    6.31   3
  10   5   4   23.94    7.90   3
  -2   6   4   -0.59    3.97   1
  -2   6   4    0.04    3.70   2
   2  -6  -4    7.48    5.35   4
  -1   6   4   56.35    8.57   2
  -1   6   4   69.60   10.44   1
   1  -6  -4   73.76   10.69   4
   0   6   4   16.16    5.12   2
   0   6   4    7.55    3.89   1
   0  -6  -4   14.44    7.07   5
   0  -6  -4    3.74    5.32   1
   0  -6  -4    4.80    4.17   4
  -1  -6  -4    2.71    4.48   5
  -1  -6  -4   18.76    5.68   1
  -1  -6  -4    5.11    3.31   4
   1   6   4   12.04    4.50   2
   2   6   4    0.99    2.23   3
  -2  -6  -4    5.11    3.93   1
  -2  -6  -4    0.40    3.15   4
   2   6   4    3.19    4.26   2
  -3  -6  -4    3.29    3.24   1
   3   6   4    3.47    2.52   3
  -3  -6  -4    2.84    3.99   5
   4   6   4    5.50    3.75   3
  -4  -6  -4    1.76    3.73   5
   4   6   4   11.03    4.60   2
  -4  -6  -4    4.50    3.84   1
   5   6   4   62.10    8.41   3
  -5  -6  -4   70.23    8.93   2
  -5  -6  -4   73.61    9.75   1
   6   6   4    5.85    4.21   3
  -6  -6  -4    7.90    3.75   2
   7   6   4    0.54    4.51   3
  -7  -6  -4    4.20    3.70   2
  -8  -6  -4   10.02    4.46   2
  -9  -6  -4   12.31    6.26   2
   9   6   4    6.00    5.29   3
  10   6   4   14.69    7.83   3
   3  -7  -4    6.13    8.28   4
  -2   7   4    5.48    5.96   1
   2  -7  -4    4.36    5.75   4
  -1   7   4    1.64    3.98   1
   0  -7  -4   16.88    6.21   4
   0  -7  -4   37.79   10.63   5
   0   7   4   21.10    5.51   2
   0  -7  -4   22.28    8.40   1
   1   7   4    3.93    4.19   2
  -1  -7  -4   -0.91    4.79   1
  -2  -7  -4   60.06   10.10   1
   2   7   4   56.91    8.72   2
  -2  -7  -4   44.78   10.11   5
  -3  -7  -4  150.84   21.80   5
   3   7   4  147.59   14.74   3
  -4  -7  -4   38.19    8.13   5
  -4  -7  -4   52.41    7.17   2
   4   7   4   56.97    7.57   3
   4   7   4   61.70    9.49   2
  -4  -7  -4   63.14    9.46   1
   5   7   4   18.76    4.66   3
  -5  -7  -4   20.73    4.62   2
   6   7   4   13.95    4.46   3
  -6  -7  -4   17.73    5.00   2
   7   7   4   77.79   10.55   3
  -7  -7  -4   99.45   12.57   2
   8   7   4    9.96    5.19   3
  -8  -7  -4   10.12    4.78   2
   9   7   4    2.86    4.99   3
  -9  -7  -4    5.06    5.77   2
   0  -8  -4   64.91   14.99   5
   0  -8  -4   37.88   10.91   1
  -1  -8  -4    1.88    6.93   5
  -1  -8  -4    9.97    6.58   1
  -2  -8  -4   74.22   12.09   1
   2   8   4   61.00    9.51   2
  -2  -8  -4   50.29   11.10   5
  -3  -8  -4   39.67   10.52   5
  -3  -8  -4   47.25    9.22   1
   3   8   4   45.17    8.25   2
  -4  -8  -4   80.08   13.96   5
  -4  -8  -4   76.06    9.71   2
   4   8   4   59.76    8.28   3
  -4  -8  -4   55.62    9.75   1
  -5  -8  -4   55.04    7.93   2
   5   8   4   72.52    9.61   3
   6   8   4    2.51    4.26   3
  -6  -8  -4    7.68    4.47   2
  -7  -8  -4    3.46    4.09   2
   7   8   4    5.92    5.09   3
   8   8   4    7.39    5.70   3
  -8  -8  -4    5.72    5.08   2
  -1  -9  -4    0.15    6.23   1
  -1  -9  -4   11.99    8.98   5
  -2  -9  -4    2.00    7.01   5
  -3  -9  -4    2.38    5.21   1
  -4  -9  -4   67.00    9.00   2
   5   9   4    8.24    4.59   3
  -5  -9  -4   11.58    4.78   2
   6   9   4   18.87    6.38   3
  -6  -9  -4   23.72    6.17   2
  -7  -9  -4    4.15    4.90   2
  -3 -10  -4    4.68    7.33   1
  -6 -10  -4    2.06    5.06   2
  -6 -10  -4    2.82    4.27   3
   6  10   4    0.18    5.53   3
  -7 -10  -4   18.72    7.03   2
   4   8  -5    0.68    4.90   4
  -4  -8   5    0.10    4.65   3
   3   8  -5   15.42    6.42   4
  -3  -8   5   12.60    6.22   3
  -2  -8   5    4.22    5.50   3
  -1  -8   5   17.68    8.30   4
  -1  -8   5    3.36    5.30   3
  -6  -7   5    8.63    5.84   3
   6   7  -5    7.98    5.28   4
  -5  -7   5    8.11    5.41   3
   5   7  -5    8.24    5.27   4
   4   7  -5    8.80    5.09   4
   3   7  -5    7.53    4.69   4
  -3  -7   5    6.40    4.85   3
   2   7  -5    4.81    4.90   4
  -2  -7   5   13.14    5.64   3
  -1  -7   5   15.13    5.76   3
   1   7  -5   14.87    5.95   4
   0  -7   5    7.36    6.31   4
   0   7  -5    5.84    5.31   1
   0  -7   5    8.26    5.04   3
  -1   7  -5    5.53    5.60   1
  -8  -6   5    9.65    6.00   2
   7   6  -5    5.59    4.86   4
  -7  -6   5    7.49    5.86   3
  -6  -6   5    1.07    4.46   3
   6   6  -5    9.20    5.82   4
  -5  -6   5   13.22    5.64   3
   5   6  -5   20.02    6.13   4
   4   6  -5    6.35    4.60   4
   3   6  -5   52.51    8.70   4
  -3  -6   5   57.36    8.75   3
   2   6  -5   -0.23    3.42   4
  -2  -6   5   -0.02    4.09   3
   1   6  -5    3.29    4.09   4
   1   6  -5   13.22    5.09   1
  -1  -6   5    7.95    5.32   3
   0  -6   5    5.68    4.94   4
   0  -6   5    6.73    4.23   3
  -1   6  -5   63.28   10.62   1
   1  -6   5   55.79   10.07   4
   1  -6   5   74.25   10.55   3
  -2   6  -5    2.15    6.33   1
   2  -6   5   -1.01    5.22   4
   3  -6   5    7.89    6.42   4
  -3   6  -5   12.04    6.67   1
  -8  -5   5    5.05    5.89   2
  -7  -5   5    5.99    4.77   2
  -7  -5   5    3.79    4.86   3
   7   5  -5   -0.68    4.38   4
  -6  -5   5    2.88    4.42   3
  -6  -5   5   -0.06    3.72   2
   5   5  -5    3.90    3.83   4
  -5  -5   5   10.90    4.65   3
  -5  -5   5    9.53    3.97   2
   4   5  -5  142.07   16.51   4
  -4  -5   5  158.58   17.07   3
   3   5  -5    3.61    3.92   4
  -3  -5   5   11.37    4.88   3
   2   5  -5   18.85    4.99   4
  -2  -5   5   31.28    6.61   3
   1   5  -5  119.12   15.06   1
  -1  -5   5  104.31   12.47   3
   1   5  -5  103.79   13.01   4
   0  -5   5  113.49   13.05   3
   0   5  -5  113.08   14.84   1
   0   5  -5   96.38   12.51   4
  -1   5  -5   65.96   10.72   1
   1  -5   5   69.24   10.79   4
   1  -5   5   62.31    8.98   3
  -2   5  -5    5.28    4.33   1
   2  -5   5    7.26    4.65   4
   3  -5   5   12.86    6.17   4
  -3   5  -5   20.67    7.09   1
  -8  -4   5   14.76    7.05   2
   7   4  -5    1.61    4.72   4
  -6  -4   5  100.45   12.74   2
  -6  -4   5   70.48    9.85   3
  -5  -4   5   10.08    4.49   3
  -5  -4   5   11.41    4.31   2
   5   4  -5    7.09    3.95   4
   4   4  -5    9.27    3.64   4
  -4  -4   5    7.19    3.48   2
  -4  -4   5    9.74    4.01   3
  -3  -4   5   -0.18    3.02   2
   3   4  -5    0.81    3.04   4
  -3  -4   5    1.22    3.37   3
   2   4  -5  809.69   86.63   1
  -2  -4   5 1105.43   95.05   3
   2   4  -5  757.25   73.63   4
  -1  -4   5    3.85    4.21   3
   0   4  -5   12.81    3.85   1
   0   4  -5    7.49    3.75   4
   0  -4   5    9.99    4.04   3
   1  -4   5   -0.12    3.07   4
   1  -4   5   -0.97    3.24   3
   2  -4   5   32.75    6.63   3
  -2   4  -5   33.40    6.77   1
   2  -4   5   26.21    6.81   4
   3  -4   5    7.72    4.53   3
  -3   4  -5    2.96    4.39   1
   3  -4   5    4.37    4.52   4
   4  -4   5    8.93    5.13   4
  -4   4  -5   14.86    5.65   1
  -5   4  -5    3.72    5.72   1
  -8  -3   5    4.15    6.52   2
   7   3  -5    5.49    4.97   4
  -7  -3   5    2.15    5.08   2
   6   3  -5    8.37    5.06   4
  -6  -3   5   10.40    5.21   2
  -5  -3   5   19.38    5.15   2
   5   3  -5   19.29    5.23   4
  -5  -3   5   23.94    5.13   3
  -4  -3   5  159.87   16.60   3
  -4  -3   5  150.37   16.33   2
  -3  -3   5    6.09    3.22   2
  -3  -3   5    7.10    3.35   3
   3   3  -5    5.63    3.08   4
   2   3  -5   19.83    3.78   1
   2   3  -5   16.22    3.88   4
  -2  -3   5   16.27    3.57   2
  -2  -3   5   19.63    4.87   3
  -1  -3   5    6.29    3.84   3
   1   3  -5    5.37    2.99   4
   1   3  -5   10.50    3.22   1
   0   3  -5   62.69    8.16   4
   0  -3   5   77.80    9.30   3
   0   3  -5   85.83   11.10   1
   1  -3   5    2.65    3.32   3
  -1   3  -5    0.02    2.65   4
   1  -3   5    1.59    2.72   4
   2  -3   5   29.43    6.03   3
  -2   3  -5   23.07    5.06   1
   2  -3   5   13.47    4.94   4
  -3   3  -5   12.15    4.44   1
   3  -3   5   10.34    4.58   3
   3  -3   5   10.50    4.37   4
   4  -3   5    2.27    3.83   4
   4  -3   5    6.96    4.69   3
  -4   3  -5    0.84    3.74   1
  -5   3  -5   69.92   11.51   1
   5  -3   5   91.10   13.24   4
   6  -3   5   66.26   11.70   4
  -6   3  -5  100.81   15.77   1
   7   2  -5    5.63    4.85   4
  -7  -2   5    9.24    6.05   2
   6   2  -5    3.75    4.51   4
  -5  -2   5   18.49    5.57   2
   5   2  -5   19.92    5.43   4
  -5  -2   5   15.94    4.62   3
  -4  -2   5   31.46    5.28   3
  -4  -2   5   39.54    6.68   2
   4   2  -5   37.13    6.22   4
   3   2  -5   59.16    7.82   4
   3   2  -5   52.65    6.88   1
  -3  -2   5   50.56    7.02   2
  -3  -2   5   56.15    7.54   3
  -2  -2   5    4.63    2.64   2
  -2  -2   5    6.23    3.18   3
   2   2  -5    8.34    3.00   4
   2   2  -5    7.05    2.34   1
  -1  -2   5   65.31    7.39   2
  -1  -2   5   75.07    8.87   3
   1   2  -5   65.02    7.98   4
   0  -2   5    0.28    2.06   3
   0   2  -5    0.44    1.99   1
  -1   2  -5   13.99    3.70   1
  -1   2  -5   12.22    3.35   4
   1  -2   5   12.53    3.79   3
   2  -2   5    9.95    3.42   4
  -2   2  -5   16.56    4.39   1
   2  -2   5   21.29    4.63   3
   4  -2   5   86.59   10.54   3
  -4   2  -5   72.87   10.83   1
  -5   2  -5    8.72    4.96   1
   5  -2   5    9.19    4.89   4
   5  -2   5    0.09    3.70   3
   6  -2   5   59.01   10.07   4
  -6   2  -5   62.54   10.54   1
  -7   2  -5   49.07   11.45   1
   7  -2   5   40.94    9.82   4
   7   1  -5    4.26    5.41   4
  -6  -1   5   18.68    6.22   2
   6   1  -5   11.84    5.59   4
   5   1  -5    1.59    3.45   4
  -5  -1   5    3.48    4.15   2
  -4  -1   5    4.73    3.07   3
  -4  -1   5    5.64    4.11   2
  -3  -1   5    3.91    2.71   3
   3   1  -5    1.75    1.96   1
  -3  -1   5    0.72    3.11   2
  -2  -1   5   -0.09    2.33   3
  -2  -1   5    0.47    2.25   2
   2   1  -5    0.80    2.11   4
  -1  -1   5   98.00   10.55   2
   1   1  -5  104.82   11.27   4
  -1  -1   5   87.82    9.35   3
   1   1  -5   81.21    9.96   1
   0  -1   5   98.52   10.32   2
   0  -1   5  132.23   13.08   3
   0   1  -5   88.88   10.94   1
   0   1  -5  111.93   11.94   4
  -1   1  -5  102.70   12.45   1
   1  -1   5   77.25    8.27   2
   1  -1   5  113.36   11.73   3
   2  -1   5   92.71   10.33   3
  -2   1  -5   93.79   11.69   1
  -2   1  -5   84.92    8.47   2
   3  -1   5    1.59    3.25   3
   3  -1   5    0.10    2.35   4
  -3   1  -5    2.71    2.96   1
  -4   1  -5   17.90    4.78   1
   4  -1   5   12.79    3.85   4
   4  -1   5   19.35    4.84   3
   5  -1   5   59.83    8.75   4
  -6   1  -5    4.01    4.19   1
   7  -1   5    9.84    6.00   4
  -7   1  -5   14.80    6.07   1
  -7   0   5   20.70    7.22   2
   7   0  -5   29.00    8.14   4
   6   0  -5    4.06    4.76   4
  -6   0   5   -1.08    4.09   2
  -4   0   5  124.69   14.46   2
   4   0  -5   82.20   10.88   1
   4   0  -5  105.55   14.94   5
   4   0  -5  102.40   12.25   4
   3   0  -5   72.07    8.96   4
  -3   0   5   94.97   11.38   2
   3   0  -5   98.41   12.11   1
  -3   0   5   74.33    8.07   3
  -2   0   5   39.72    5.98   2
   2   0  -5   41.28    5.57   4
   2   0  -5   46.02    6.45   1
  -2   0   5   40.06    5.36   3
   1   0  -5 1028.08  109.19   1
  -1   0   5 1110.51   94.00   3
   1   0  -5  921.24   87.86   4
   0   0  -5    9.57    2.71   1
   0   0   5    9.93    3.10   3
   0   0   5    4.76    2.43   2
   0   0  -5    8.73    2.05   4
  -1   0  -5   60.90    6.72   4
   1   0   5   68.01    7.69   3
  -1   0  -5   55.23    7.30   1
   1   0   5   52.90    6.43   2
   2   0   5   52.92    6.31   4
   2   0   5   59.76    6.83   2
   3   0   5    4.34    2.89   3
  -3   0  -5    0.83    1.37   2
   3   0   5    2.09    1.79   4
   4   0   5    7.08    2.85   4
   4   0   5    5.54    3.40   3
  -4   0  -5    9.68    2.49   2
  -4   0  -5    9.91    3.76   1
   5   0   5    3.77    3.39   3
  -5   0  -5    5.71    2.77   2
   5   0   5    2.31    2.80   4
  -5   0  -5   -0.10    3.04   1
  -6   0  -5    3.39    3.64   1
   6   0   5    6.49    4.00   4
   7   0   5    8.08    4.98   3
  -8   0  -5   10.48    5.67   1
   7  -1  -5   26.59    8.42   4
   5  -1  -5    5.18    3.94   4
   4  -1  -5    2.18    3.10   4
   3  -1  -5  681.18   66.20   4
   3  -1  -5  946.68  113.45   5
   3  -1  -5  800.09   86.03   1
  -3   1   5  631.08   60.03   2
  -2   1   5   32.06    5.40   2
   2  -1  -5   40.33    6.34   1
  -2   1   5   39.70    4.86   3
   2  -1  -5   41.72    5.70   4
   2  -1  -5   43.95    7.71   5
   1  -1  -5   13.84    2.69   4
  -1   1   5   13.20    2.89   3
  -1   1   5   16.82    4.24   2
   1  -1  -5   23.83    4.37   1
   0  -1  -5   96.73   11.67   1
   0   1   5   92.08    9.27   3
   0   1   5   77.81    9.08   2
   0  -1  -5   74.70    7.96   4
   1   1   5  450.98   39.11   3
  -1  -1  -5  360.19   34.42   4
   1   1   5  361.42   34.51   2
  -1  -1  -5  366.21   39.88   1
   2   1   5   24.12    3.93   3
  -2  -1  -5   21.96    4.19   1
   2   1   5   33.86    5.06   2
   2   1   5   18.69    2.35   4
   3   1   5    6.56    1.71   4
   3   1   5    6.77    2.73   2
   3   1   5   11.39    3.37   3
  -3  -1  -5   12.69    3.24   1
  -3  -1  -5    8.68    2.24   2
  -4  -1  -5   10.04    2.64   2
   4   1   5    8.07    2.48   4
   4   1   5    9.47    3.43   3
  -4  -1  -5    9.39    3.28   1
  -5  -1  -5    1.03    2.90   1
   5   1   5    1.03    2.53   3
   5   1   5    2.52    2.30   4
  -6  -1  -5    4.21    3.19   2
   6   1   5    5.56    3.81   3
  -6  -1  -5    7.02    3.81   1
  -7  -1  -5   10.88    4.54   1
   5  -2  -5   20.36    6.81   4
  -5   2   5   21.50    6.14   2
   4  -2  -5  127.63   16.70   1
   4  -2  -5  151.16   17.49   4
   4  -2  -5  108.32   17.06   5
  -4   2   5  149.01   16.99   2
   3  -2  -5   47.05    7.91   1
   3  -2  -5   55.89   10.69   5
  -3   2   5   42.46    6.98   2
   3  -2  -5   31.94    5.84   4
   2  -2  -5   71.17   11.48   5
  -2   2   5   46.54    6.99   2
   2  -2  -5   75.19   10.38   1
  -1   2   5   40.71    6.25   2
   1  -2  -5   46.01    7.09   1
   1  -2  -5   51.90    6.56   4
   1  -2  -5   41.34    7.60   5
   0  -2  -5    2.12    2.56   5
   0  -2  -5    1.36    1.39   4
   0  -2  -5    0.43    2.49   1
  -1  -2  -5   82.50    8.20   4
   1   2   5   70.80    8.73   2
   1   2   5   89.94    9.06   3
  -1  -2  -5   92.73   11.37   1
   2   2   5   91.25   10.39   2
  -2  -2  -5   86.74   10.72   1
   3   2   5   -0.06    2.20   3
   3   2   5    1.36    2.50   2
  -4  -2  -5  153.96   17.93   1
  -4  -2  -5  204.26   20.25   2
  -5  -2  -5   29.75    5.55   1
   5   2   5   24.06    4.92   3
  -5  -2  -5   27.72    4.76   2
  -6  -2  -5  147.45   15.72   2
   6   2   5  184.66   18.56   3
  -6  -2  -5  195.16   22.94   1
   7   2   5   21.72    5.80   3
  -7  -2  -5   18.94    5.35   1
  -7  -2  -5   25.68    5.39   2
   8   2   5   20.92    6.39   3
  -8  -2  -5   18.82    5.02   2
   5  -3  -5    1.29    5.74   1
   5  -3  -5    3.72    5.09   4
  -5   3   5    3.76    4.53   2
   5  -3  -5   12.80    8.67   5
   4  -3  -5    3.85    4.36   4
   4  -3  -5   -0.10    5.83   5
   4  -3  -5   13.58    5.94   1
  -4   3   5    7.29    4.52   2
   3  -3  -5    3.21    4.12   4
   3  -3  -5    4.28    5.68   5
   3  -3  -5    3.61    4.30   1
  -3   3   5    7.33    3.99   2
  -2   3   5   36.18    6.57   2
   2  -3  -5   45.14    8.10   1
   2  -3  -5   50.55    7.66   4
   2  -3  -5   33.96    8.11   5
   1  -3  -5   23.78    4.45   4
   1  -3  -5   31.87    6.49   1
   1  -3  -5   37.54    8.24   5
  -1   3   5   32.27    5.67   2
   0  -3  -5   94.63   10.29   4
   0   3   5  108.30   10.19   3
   0   3   5  100.65   11.58   2
   0  -3  -5  131.89   18.11   5
   0  -3  -5  118.46   14.67   1
  -1  -3  -5   41.72    7.38   5
   1   3   5   29.22    5.06   2
  -1  -3  -5   34.78    4.12   4
   1   3   5   33.51    4.31   3
   2   3   5  159.42   16.78   2
  -2  -3  -5  191.37   21.87   1
   2   3   5  204.54   18.68   3
   3   3   5   11.56    2.90   3
  -3  -3  -5   12.58    3.17   1
   3   3   5    9.46    3.48   2
   4   3   5   46.30    6.52   3
  -4  -3  -5   50.25    6.42   2
  -4  -3  -5   61.86    8.46   1
   5   3   5  156.61   15.86   3
  -5  -3  -5  142.72   16.96   1
  -5  -3  -5  143.07   15.19   2
  -6  -3  -5  305.32   30.20   2
   6   3   5  305.46   28.57   3
  -6  -3  -5  306.59   34.33   1
  -7  -3  -5   11.66    4.60   2
  -7  -3  -5   11.83    4.87   1
   7   3   5    9.39    4.50   3
  -8  -3  -5   13.49    5.11   2
   8   3   5    9.80    5.66   3
  -9  -3  -5    7.01    5.26   2
   9   3   5   10.48    7.42   3
 -10  -3  -5   22.83    7.23   2
   5  -4  -5    4.85    6.21   4
  -5   4   5    5.10    6.04   2
   5  -4  -5   15.66   10.01   5
   4  -4  -5   12.21    6.70   4
   4  -4  -5    9.40    6.73   1
  -4   4   5    3.13    4.61   2
   4  -4  -5   20.86    8.84   5
   3  -4  -5   11.91    6.97   5
   3  -4  -5    6.65    4.54   4
   3  -4  -5    1.23    4.72   1
  -3   4   5    5.94    4.30   2
   2  -4  -5    7.25    5.72   5
  -2   4   5    9.60    4.27   2
   2  -4  -5    4.37    3.57   4
   1  -4  -5   27.42    7.66   5
   1  -4  -5   40.89    7.72   1
  -1   4   5   33.98    6.35   2
   1  -4  -5   43.94    6.80   4
   0  -4  -5    3.74    4.71   5
   0  -4  -5   -0.47    2.40   4
   0  -4  -5    0.00    3.14   1
   0   4   5    2.26    3.21   2
   1   4   5  116.27   11.09   3
  -1  -4  -5  117.02   14.65   1
  -1  -4  -5   91.95   10.01   4
   1   4   5   80.65   10.21   2
  -1  -4  -5  126.46   17.67   5
  -2  -4  -5   32.29    6.55   5
  -2  -4  -5   23.20    4.81   1
   2   4   5   30.36    4.49   3
   2   4   5   38.61    6.27   2
  -3  -4  -5   39.67    6.17   1
   3   4   5   39.07    6.20   2
   3   4   5   33.13    4.93   3
   4   4   5    1.51    3.11   2
  -4  -4  -5    5.68    2.64   1
   4   4   5    2.13    2.70   3
  -5  -4  -5   22.76    4.73   1
  -5  -4  -5   20.55    4.21   2
   5   4   5   26.16    5.42   3
  -6  -4  -5  136.76   16.44   1
   6   4   5  134.80   14.47   3
  -6  -4  -5  169.01   18.10   2
  -7  -4  -5   15.11    4.68   2
   7   4   5   13.26    5.39   3
   8   4   5   15.49    6.71   3
  -8  -4  -5   17.82    5.31   2
  -9  -4  -5    5.83    5.25   2
   9   4   5    4.27    5.43   3
  10   4   5   24.93    8.63   3
   4  -5  -5   21.62    8.49   4
   4  -5  -5   26.17   10.93   5
  -4   5   5   10.34    5.43   2
   3  -5  -5    7.18    7.93   5
  -3   5   5    1.37    3.90   2
   3  -5  -5    4.37    4.93   4
   2  -5  -5   34.79    9.96   5
  -2   5   5   47.06    7.79   2
   2  -5  -5   45.42    9.92   1
   2  -5  -5   64.92   10.16   4
   1  -5  -5    4.23    5.23   5
  -1   5   5   -0.35    3.38   2
   0  -5  -5    0.98    3.74   1
   0  -5  -5    3.78    4.71   5
   0  -5  -5   -0.28    2.61   4
   0   5   5    0.23    3.56   2
  -1  -5  -5    7.88    5.41   5
  -1  -5  -5   11.40    4.72   1
   1   5   5   11.02    4.11   2
  -2  -5  -5   30.61    6.05   1
  -2  -5  -5   36.56    7.70   5
   2   5   5   27.22    4.54   3
   2   5   5   20.60    4.90   2
   3   5   5   79.68   10.67   2
   3   5   5   67.23    8.00   3
  -3  -5  -5   89.26   12.04   1
  -4  -5  -5   94.17   11.99   1
   4   5   5   84.62   10.95   2
   4   5   5   86.27    9.79   3
  -5  -5  -5   17.27    4.16   1
  -5  -5  -5   10.74    3.32   2
   5   5   5   13.48    4.72   3
  -6  -5  -5    8.26    3.78   2
  -6  -5  -5    5.90    3.11   1
   7   5   5   -0.65    4.22   3
   8   5   5    3.71    4.69   3
  -8  -5  -5    5.00    4.27   2
   9   5   5   22.16    6.78   3
  10   5   5   15.20    8.52   3
   3  -6  -5    0.12    5.71   4
   2  -6  -5    3.45    5.70   4
   2  -6  -5    5.62    7.52   5
  -1   6   5   14.53    5.47   2
   1  -6  -5   14.41    6.73   1
   1  -6  -5   11.10    7.59   5
   0   6   5   19.49    4.95   2
   0  -6  -5   12.84    7.27   5
   0  -6  -5   14.88    5.81   1
  -1  -6  -5    3.99    6.96   5
  -2  -6  -5   -0.20    4.25   5
  -2  -6  -5    2.22    3.69   1
   2   6   5   10.79    4.54   2
   3   6   5    7.86    4.45   2
   3   6   5   10.59    3.75   3
  -3  -6  -5    7.49    4.20   1
  -3  -6  -5   19.44    6.61   5
   4   6   5    2.56    2.82   3
  -5  -6  -5    6.27    2.83   2
  -5  -6  -5    5.12    3.29   1
   5   6   5    1.33    2.88   3
  -6  -6  -5    3.22    3.23   2
   7   6   5   27.97    5.96   3
  -7  -6  -5   24.56    6.09   2
   8   6   5    2.45    4.65   3
  -8  -6  -5    0.03    3.73   2
   9   6   5    2.03    6.16   3
  -9  -6  -5    4.44    5.00   2
  -1   7   5   29.81    6.60   2
   1  -7  -5   21.50    8.65   1
   1  -7  -5   11.62    9.07   5
   0   7   5    5.03    4.88   2
   0  -7  -5    5.07    6.90   5
  -1  -7  -5   34.77    8.16   1
  -1  -7  -5   24.12    8.92   5
   1   7   5   40.95    7.80   2
  -2  -7  -5    5.10    4.51   1
   2   7   5   22.13    6.17   2
  -3  -7  -5    8.53    5.06   1
   3   7   5   22.70    5.72   2
  -3  -7  -5    4.65    5.61   5
   4   7   5    8.22    3.77   3
   4   7   5   10.85    5.19   2
  -4  -7  -5   13.10    5.82   5
  -4  -7  -5   12.32    5.49   1
   5   7   5    4.81    4.03   3
  -5  -7  -5    4.74    3.39   1
  -5  -7  -5    5.19    3.44   2
  -6  -7  -5   14.76    4.61   2
   6   7   5    6.94    4.90   3
  -7  -7  -5    3.43    4.31   2
   7   7   5    2.58    4.82   3
   8   7   5    3.83    5.15   3
  -9  -7  -5   17.51    7.63   2
   9   7   5   12.81    6.63   3
   0  -8  -5   -0.39    5.96   1
   1   8   5   20.06    6.43   2
  -1  -8  -5    5.76    5.91   1
  -1  -8  -5   -0.68    7.09   5
   2   8   5    5.75    5.09   2
  -2  -8  -5   -0.51    4.78   1
  -2  -8  -5    8.92    7.61   5
  -3  -8  -5   26.46    7.08   1
   3   8   5   22.61    6.61   2
  -3  -8  -5   21.10    8.66   5
  -4  -8  -5  186.26   26.45   5
  -4  -8  -5  195.08   24.20   1
   4   8   5  196.08   22.25   2
   5   8   5    3.40    3.82   3
  -5  -8  -5    5.59    3.63   2
   6   8   5    2.73    4.54   3
  -6  -8  -5    2.98    3.94   2
   7   8   5    4.96    5.30   3
  -7  -8  -5    4.91    4.76   2
  -8  -8  -5    0.38    4.67   2
   8   8   5    3.33    5.24   3
  -2  -9  -5   20.63    8.09   1
  -2  -9  -5   31.13   12.17   5
   3   9   5   14.80    6.26   2
  -3  -9  -5   17.28    6.92   1
  -3  -9  -5   16.26    8.66   5
  -4  -9  -5  101.12   17.43   5
   4   9   5   75.27   12.08   2
  -4  -9  -5   80.63   10.64   2
  -4  -9  -5  105.10   15.68   1
  -5  -9  -5   35.87    6.65   2
   6   9   5   22.46    6.80   3
  -6  -9  -5   25.18    6.20   2
  -7  -9  -5    3.87    5.16   2
   7   9   5    7.61    5.78   3
  -5 -10  -5   -0.10    4.53   2
  -6 -10  -5   10.25    5.64   2
  -1  -8   6   13.29    6.80   3
  -5  -7   6   -0.72    4.55   3
   5   7  -6    5.90    6.41   4
   4   7  -6   12.22    5.95   4
  -3  -7   6   22.80    7.23   3
   3   7  -6    5.18    5.07   4
   2   7  -6    3.39    5.39   4
  -1  -7   6    7.77    5.24   3
   1   7  -6   -0.94    4.81   4
   0   7  -6    5.19    7.25   1
   0  -7   6    8.21    7.43   3
   0  -7   6   28.49    8.05   4
  -1   7  -6    1.91    6.95   1
   1  -7   6    8.27    8.04   4
   6   6  -6    6.13    5.58   4
  -6  -6   6    7.65    6.14   3
   5   6  -6   -0.24    4.46   4
  -5  -6   6    7.53    5.18   3
  -4  -6   6   10.92    5.22   3
   4   6  -6    6.44    5.24   4
   3   6  -6   13.01    5.41   4
  -3  -6   6    7.94    5.11   3
   2   6  -6   12.22    5.14   4
  -2  -6   6   18.19    6.57   3
  -1  -6   6    5.68    4.78   3
   0  -6   6   18.85    5.87   3
   0   6  -6    5.28    4.45   1
   0  -6   6   14.18    6.70   4
   1  -6   6    7.68    5.46   3
   1  -6   6    9.62    5.81   4
  -1   6  -6   13.22    5.22   1
  -7  -5   6   19.79    7.76   2
  -7  -5   6   22.11    7.40   3
  -6  -5   6   11.83    5.99   3
   6   5  -6   12.50    4.92   4
   5   5  -6    0.64    4.66   4
  -5  -5   6    5.75    4.38   3
  -4  -5   6   -0.84    3.69   3
  -3  -5   6   29.35    7.02   3
   3   5  -6   29.98    6.50   4
   2   5  -6  143.21   16.70   4
  -2  -5   6  143.80   16.06   3
  -1  -5   6    0.65    4.01   3
   1   5  -6    0.27    3.77   4
   1   5  -6    4.85    3.83   1
   0   5  -6   11.70    4.97   4
   0  -5   6   16.56    5.34   3
   0   5  -6   10.40    4.48   1
   1  -5   6   31.85    7.48   4
   1  -5   6   41.35    7.96   3
  -1   5  -6   26.04    6.68   1
  -2   5  -6   38.98    8.51   1
   2  -5   6   48.10    9.20   4
   2  -5   6   48.92    9.05   3
  -3   5  -6    6.61    5.34   1
   3  -5   6    5.75    6.04   4
   4  -5   6   -0.21    5.46   4
   7   4  -6    4.39    4.68   4
  -7  -4   6    8.81    6.03   2
  -6  -4   6    9.48    5.04   2
   6   4  -6   15.46    5.80   4
  -6  -4   6    6.43    4.91   3
  -5  -4   6    6.85    4.08   3
  -5  -4   6    9.33    4.90   2
   5   4  -6   11.44    4.60   4
   4   4  -6   13.38    4.66   4
  -4  -4   6   21.96    5.68   3
   3   4  -6   23.41    5.42   4
  -3  -4   6   26.14    6.32   3
   2   4  -6   32.11    6.40   4
  -2  -4   6   24.76    6.32   3
   1   4  -6  206.90   22.35   4
   1   4  -6  209.01   24.22   1
  -1  -4   6  251.30   24.49   3
   0   4  -6  140.97   17.50   1
   0   4  -6  127.29   15.09   4
   1  -4   6   10.21    4.99   3
   1  -4   6   12.86    4.79   4
  -1   4  -6    3.39    3.40   1
  -2   4  -6   11.35    4.74   1
   2  -4   6    8.39    4.98   4
   2  -4   6    2.71    4.84   3
   3  -4   6    6.41    5.45   4
  -3   4  -6    0.37    4.13   1
   4  -4   6   11.84    5.69   4
  -4   4  -6   17.46    6.88   1
  -5   4  -6   12.38    6.35   1
   7   3  -6    6.13    5.61   4
   6   3  -6    7.77    4.97   4
  -5  -3   6   47.49    8.35   2
  -5  -3   6   57.82    8.86   3
   5   3  -6   46.91    7.75   4
   4   3  -6   17.31    4.84   4
  -4  -3   6   17.24    5.26   3
  -4  -3   6   25.07    5.71   2
  -3  -3   6    8.77    3.63   2
   3   3  -6    5.15    3.34   4
  -3  -3   6    3.93    3.88   3
   2   3  -6   65.24    8.71   1
   2   3  -6   62.13    8.50   4
  -2  -3   6   52.19    6.93   2
  -2  -3   6   72.42    9.60   3
   1   3  -6    0.39    2.94   4
   0   3  -6   37.91    6.61   1
   0   3  -6   24.92    4.95   4
   0  -3   6   33.03    6.05   3
  -1   3  -6    2.36    3.01   1
  -1   3  -6    1.66    3.10   4
   2  -3   6    0.10    3.15   4
   2  -3   6    3.68    4.25   3
  -2   3  -6    3.11    3.55   1
  -3   3  -6   12.69    4.66   1
   3  -3   6    5.99    4.78   4
   3  -3   6   14.11    5.29   3
   4  -3   6    3.34    4.32   3
   4  -3   6    0.08    3.88   4
  -5   3  -6    5.15    5.07   1
  -6   3  -6   11.08    6.77   1
  -7  -2   6   -1.51    5.67   2
  -6  -2   6    6.08    5.22   2
   6   2  -6    2.28    4.72   4
   5   2  -6    8.24    4.57   4
  -5  -2   6    2.10    4.24   2
  -4  -2   6   62.03    9.05   2
   4   2  -6   49.53    7.63   4
  -4  -2   6   44.28    7.04   3
   3   2  -6    1.96    2.50   4
  -3  -2   6    3.27    3.30   2
  -2  -2   6    0.75    2.47   2
   2   2  -6   -0.30    2.08   1
   2   2  -6    1.73    2.19   4
  -2  -2   6    3.00    3.10   3
  -1  -2   6   23.81    4.29   2
   1   2  -6   23.53    4.35   4
  -1  -2   6   27.62    5.21   3
   1   2  -6   38.36    6.10   1
   0   2  -6   74.88    9.75   1
   0  -2   6   75.49    9.24   3
   0   2  -6   50.86    6.91   4
  -1   2  -6   12.30    3.57   4
   1  -2   6   20.48    5.15   3
  -1   2  -6   24.78    5.07   1
  -2   2  -6    8.08    3.55   1
   2  -2   6   11.13    4.37   3
   2  -2   6    8.71    3.76   4
   3  -2   6   56.76    8.44   3
   3  -2   6   36.19    7.01   4
  -3   2  -6   35.54    6.91   1
   4  -2   6    9.56    4.44   4
  -4   2  -6   10.92    4.30   1
   4  -2   6   14.12    5.26   3
  -5   2  -6   10.52    5.14   1
  -7   2  -6   25.75    8.16   1
   7   1  -6    4.82    5.83   4
   6   1  -6    1.43    4.60   4
  -6  -1   6    4.01    5.24   2
  -5  -1   6   10.47    4.81   2
  -4  -1   6    4.44    3.84   2
  -3  -1   6    2.01    3.23   2
   3   1  -6    5.58    3.33   4
   3   1  -6    3.15    2.36   1
  -3  -1   6    4.95    3.17   3
   2   1  -6   23.64    4.33   1
  -2  -1   6   30.65    5.66   2
   2   1  -6   26.06    4.65   4
  -2  -1   6   21.48    4.59   3
   1   1  -6   10.79    3.11   1
  -1  -1   6    8.68    3.33   3
   1   1  -6    5.31    2.40   4
  -1  -1   6    8.14    3.13   2
   0   1  -6    1.14    2.33   4
   0  -1   6   -0.58    2.52   3
   0   1  -6    0.12    2.22   1
   1  -1   6    0.21    2.76   3
   2  -1   6    4.55    3.66   3
   2  -1   6    2.24    2.01   2
  -2   1  -6    1.15    2.41   1
   2  -1   6    2.81    2.70   4
   3  -1   6   19.75    4.31   4
   3  -1   6   37.32    6.63   3
  -3   1  -6   31.48    6.16   1
   4  -1   6   14.47    4.46   3
   4  -1   6   16.44    4.41   4
  -4   1  -6   14.66    4.63   1
   5  -1   6   25.75    6.02   3
  -5   1  -6   26.35    6.38   1
   6  -1   6   -1.10    4.34   3
  -7   1  -6   -0.25    5.19   1
  -8   1  -6   10.61    7.72   1
  -6   0   6   10.82    5.69   2
  -5   0   6    6.99    4.93   2
  -4   0   6    0.93    3.68   2
   3   0  -6   55.11    7.68   4
   3   0  -6   55.22    7.91   1
  -3   0   6   47.07    7.63   2
  -2   0   6    6.21    2.87   3
   2   0  -6    8.52    3.24   4
   2   0  -6   11.74    3.18   1
  -2   0   6    9.55    3.51   2
   1   0  -6    2.75    2.20   1
  -1   0   6    0.10    2.65   2
  -1   0   6    4.08    2.92   3
   0   0   6   40.53    5.75   3
   0   0   6   29.18    4.76   2
   0   0  -6   30.57    4.50   4
   0   0  -6   43.20    6.43   1
  -1   0  -6  261.19   25.64   4
   1   0   6  304.43   27.59   3
   2   0   6   24.41    4.32   2
   2   0   6   37.62    5.93   3
   2   0   6   25.15    3.98   4
  -2   0  -6   39.64    6.17   1
   3   0   6    8.78    3.80   3
  -3   0  -6   13.07    3.73   1
  -3   0  -6   13.38    2.57   2
   4   0   6   11.20    4.00   3
  -4   0  -6   15.77    4.30   1
   5   0   6   81.11   10.51   3
  -5   0  -6   71.67   10.87   1
   6   0   6   11.23    4.76   3
  -6   0  -6   14.23    5.26   1
   7   0   6    9.07    5.31   3
  -7   0  -6    5.04    5.80   1
  -8   0  -6    2.28    6.21   1
  -6   1   6    1.13    5.17   2
  -5   1   6    5.11    4.46   2
   5  -1  -6    6.13    5.29   4
   4  -1  -6  113.55   13.88   4
   4  -1  -6  107.26   14.16   1
   4  -1  -6  123.87   18.00   5
  -4   1   6  103.42   13.32   2
   3  -1  -6    5.46    4.23   1
  -3   1   6    4.25    3.64   2
   3  -1  -6    2.64    3.31   4
   3  -1  -6    2.94    4.18   5
   2  -1  -6   33.38    5.38   4
   2  -1  -6   36.07    6.15   1
  -2   1   6   35.71    6.19   2
  -1   1   6   86.09    9.10   3
  -1   1   6   75.02    9.63   2
   1  -1  -6   94.80   10.35   4
   1  -1  -6   81.84   10.49   1
   0   1   6  117.91   11.76   3
   0  -1  -6  110.36   13.40   1
   0  -1  -6  106.23   11.08   4
   1   1   6  110.65   12.18   2
  -1  -1  -6  124.96   14.87   1
   1   1   6  141.86   13.86   3
  -1  -1  -6  111.99   11.33   4
  -2  -1  -6   10.36    3.24   1
   2   1   6    3.82    2.75   2
   2   1   6    5.40    3.04   3
   3   1   6   16.14    3.64   2
  -3  -1  -6   24.43    4.74   1
   3   1   6   22.30    4.34   3
   4   1   6    4.76    3.46   3
  -4  -1  -6    4.98    3.53   1
  -4  -1  -6    6.20    2.34   2
  -5  -1  -6   -0.14    2.46   2
  -5  -1  -6    1.43    3.15   1
  -6  -1  -6    4.64    4.52   1
   7   1   6    6.79    5.02   3
  -7  -1  -6    7.90    5.13   1
  -8  -1  -6    7.96    5.69   1
   8   1   6   17.61    6.77   3
   6  -2  -6   23.90    8.50   4
   5  -2  -6   10.99    5.51   4
  -5   2   6    7.73    4.79   2
   4  -2  -6   20.53    7.57   5
   4  -2  -6   19.02    5.66   4
   4  -2  -6   21.50    6.17   1
  -4   2   6   11.38    4.63   2
   3  -2  -6  136.35   17.40   1
   3  -2  -6  122.29   14.16   4
   3  -2  -6  144.77   20.77   5
  -3   2   6  110.70   13.58   2
   2  -2  -6  638.74   77.93   5
   2  -2  -6  647.29   70.47   1
  -2   2   6  532.07   51.33   2
  -1   2   6   36.08    4.59   3
  -1   2   6   27.72    5.59   2
   1  -2  -6   30.01    5.90   1
   1  -2  -6   41.50    7.73   5
   1  -2  -6   28.91    4.62   4
   0   2   6    0.48    2.62   2
   0  -2  -6    1.41    2.12   1
   0   2   6    3.33    2.25   3
  -1  -2  -6   42.24    6.51   1
   1   2   6   28.02    4.22   3
   1   2   6   43.12    6.50   2
   2   2   6    1.45    2.42   3
  -2  -2  -6    1.98    2.33   1
   2   2   6    1.47    2.83   2
  -3  -2  -6    1.82    2.79   1
   3   2   6    0.82    2.63   2
   3   2   6    1.41    2.35   3
   4   2   6   65.06    8.17   3
   5   2   6    0.14    2.85   3
  -5  -2  -6    1.52    3.23   1
  -6  -2  -6   50.74    7.07   2
  -6  -2  -6   49.02    8.23   1
   6   2   6   65.52    8.89   3
   7   2   6   21.63    6.52   3
  -7  -2  -6   22.50    5.12   2
  -7  -2  -6   12.72    5.11   1
   8   2   6    2.84    4.99   3
   9   2   6    5.07    6.74   3
  -5   3   6   22.45    6.98   2
   5  -3  -6   17.98    7.96   4
   4  -3  -6   44.60   11.28   5
  -4   3   6   40.73    8.18   2
   4  -3  -6   48.91    9.75   1
   4  -3  -6   63.32   10.95   4
  -3   3   6   -1.13    4.30   2
   3  -3  -6    7.11    4.53   4
   2  -3  -6    3.18    5.32   5
   2  -3  -6    7.31    4.42   1
   2  -3  -6   11.41    4.23   4
  -2   3   6    6.42    4.68   2
   1  -3  -6   29.94    5.19   4
   1  -3  -6   38.35    8.26   5
   1  -3  -6   35.93    6.93   1
  -1   3   6   30.10    6.07   2
   0  -3  -6   25.28    6.22   5
   0  -3  -6   17.83    4.61   1
   0   3   6   25.02    5.47   2
   0   3   6   27.09    3.95   3
   1   3   6    9.44    3.73   2
   1   3   6    4.87    2.51   3
  -1  -3  -6    6.93    2.89   1
   2   3   6    7.88    2.57   3
  -2  -3  -6   11.53    3.43   1
   2   3   6    8.46    3.89   2
   3   3   6    3.60    2.76   3
  -3  -3  -6    2.62    2.76   1
   4   3   6    2.34    2.68   3
   4   3   6    8.13    3.69   2
  -4  -3  -6    1.71    2.90   1
  -5  -3  -6   28.58    5.56   1
   5   3   6   40.41    7.04   3
  -5  -3  -6   40.59    6.01   2
  -6  -3  -6  278.75   31.83   1
  -6  -3  -6  305.48   30.35   2
   6   3   6  308.29   28.97   3
  -7  -3  -6    5.35    3.62   2
   7   3   6    7.74    5.08   3
  -7  -3  -6    9.98    4.44   1
  -8  -3  -6    3.21    4.26   2
   8   3   6    7.92    5.16   3
  -9  -3  -6    5.32    4.59   2
   9   3   6    7.15    6.85   3
   5  -4  -6   37.15    9.98   4
  -4   4   6    9.43    5.28   2
   4  -4  -6    5.86    5.63   4
   4  -4  -6   12.90    9.75   5
   3  -4  -6    9.29    7.47   5
   3  -4  -6    2.93    5.11   1
   3  -4  -6    5.64    4.75   4
   2  -4  -6    5.61    4.68   1
  -2   4   6    0.61    3.74   2
   2  -4  -6   11.03    6.66   5
   1  -4  -6   65.95   12.00   5
   1  -4  -6   58.13    9.55   1
  -1   4   6   40.73    7.25   2
   0  -4  -6   24.38    5.84   1
   0  -4  -6   26.36    7.35   5
   0   4   6   21.79    5.42   2
   1   4   6   25.14    4.19   3
  -1  -4  -6   19.20    4.97   1
  -1  -4  -6   22.70    6.11   5
  -2  -4  -6   65.36    9.33   1
   2   4   6   45.75    7.50   2
   2   4   6   55.28    6.60   3
   3   4   6  120.54   12.24   3
   3   4   6   93.51   11.60   2
  -3  -4  -6  134.44   16.51   1
   4   4   6  102.33   11.34   3
  -4  -4  -6  104.92   13.38   1
   4   4   6   70.21    9.56   2
  -5  -4  -6    4.28    3.39   1
  -5  -4  -6    6.38    2.83   2
   5   4   6    5.30    3.40   3
  -6  -4  -6  198.99   23.39   1
   6   4   6  205.79   20.52   3
  -6  -4  -6  142.45   15.88   2
  -7  -4  -6    5.48    3.82   2
   7   4   6    5.36    4.63   3
  -7  -4  -6   11.35    4.37   1
  -8  -4  -6   63.88    9.80   2
   8   4   6   89.37   12.68   3
  -9  -4  -6    7.35    5.74   2
   9   4   6    5.18    6.99   3
   3  -5  -6    8.29    6.77   1
  -3   5   6    9.57    5.45   2
   3  -5  -6   39.02   12.28   5
   2  -5  -6    3.45    5.20   1
  -2   5   6    8.48    4.82   2
  -1   5   6    7.73    4.71   2
   1  -5  -6    8.99    5.27   1
   1  -5  -6    5.40    6.23   5
   0  -5  -6    1.04    4.45   1
   0  -5  -6   -0.15    5.09   5
   0   5   6    2.45    4.22   2
  -1  -5  -6   19.76    6.75   5
  -1  -5  -6   12.62    4.71   1
   2   5   6   29.46    4.71   3
  -2  -5  -6   20.12    6.28   5
  -2  -5  -6   13.91    4.81   1
   2   5   6   27.44    6.03   2
  -3  -5  -6    5.78    3.16   1
   3   5   6   11.96    4.83   2
   3   5   6    5.34    3.08   3
  -4  -5  -6   93.06   12.36   1
   4   5   6   77.09   10.59   2
   4   5   6   77.79    9.15   3
  -5  -5  -6   11.71    4.28   1
  -5  -5  -6   19.67    4.26   2
   5   5   6   21.37    5.16   3
  -6  -5  -6    5.21    3.56   2
  -6  -5  -6    4.56    3.41   1
   6   5   6    5.51    4.89   3
   7   5   6    8.43    5.76   3
  -8  -5  -6   26.58    6.50   2
   8   5   6   27.11    8.05   3
  -9  -5  -6    3.66    5.10   2
   9   5   6    1.36    5.63   3
   2  -6  -6    0.23    6.11   1
  -2   6   6    5.69    5.24   2
   1  -6  -6  107.93   19.91   5
   1  -6  -6  118.63   17.65   1
  -1   6   6  108.27   13.88   2
   0   6   6   19.85    5.21   2
   0  -6  -6    7.65    7.27   5
   0  -6  -6   22.14    7.04   1
  -1  -6  -6   30.40    9.02   5
  -1  -6  -6   25.22    6.65   1
   1   6   6   20.37    5.71   2
  -2  -6  -6    7.91    5.68   5
  -2  -6  -6    4.89    4.22   1
   2   6   6    6.40    4.18   2
   3   6   6    1.17    4.07   2
  -3  -6  -6    0.26    4.19   1
   3   6   6    5.08    3.51   3
   4   6   6    1.85    4.21   2
  -4  -6  -6    1.53    3.14   1
   4   6   6    1.26    3.86   3
  -5  -6  -6   -0.14    3.30   2
   5   6   6    0.21    3.99   3
  -6  -6  -6    5.13    3.58   2
  -6  -6  -6    1.26    3.47   1
  -7  -6  -6   11.29    4.87   2
   7   6   6    7.71    5.27   3
  -8  -6  -6   -0.49    4.01   2
   8   6   6    6.38    4.87   3
  -9  -6  -6   14.21    5.80   2
   9   6   6   13.43    6.47   3
   1  -7  -6    4.02    6.95   1
   1  -7  -6   27.48   11.98   5
  -1   7   6   13.32    5.59   2
   0  -7  -6    0.42    5.60   1
   0   7   6   13.32    5.56   2
   1   7   6   33.24    7.70   2
  -1  -7  -6   43.38   11.20   5
  -1  -7  -6   49.98   10.11   1
  -2  -7  -6    4.09    5.21   1
  -2  -7  -6    1.09    5.95   5
   2   7   6    1.44    4.96   2
  -3  -7  -6    6.41    6.57   5
   3   7   6   22.67    6.11   2
  -3  -7  -6    2.64    4.70   1
   4   7   6    4.50    4.44   2
   4   7   6    1.80    3.62   3
  -5  -7  -6   -0.25    3.90   2
   5   7   6    8.21    4.00   3
  -5  -7  -6    6.71    3.70   1
   6   7   6    8.91    4.16   3
   7   7   6    6.73    4.54   3
  -7  -7  -6    0.81    4.09   2
   8   7   6    7.91    5.79   3
   0   8   6    0.60    5.73   2
  -1  -8  -6    9.26    8.85   5
   1   8   6   28.32    7.12   2
  -1  -8  -6   12.27    7.23   1
  -2  -8  -6   21.98    9.49   5
   2   8   6   19.17    6.39   2
  -2  -8  -6   19.14    7.27   1
  -3  -8  -6    5.57    5.54   1
  -3  -8  -6   -0.91    6.15   5
   4   8   6   55.00    9.72   2
  -4  -8  -6   37.14    8.94   1
  -4  -8  -6   25.86    8.45   5
  -5  -8  -6   35.30    6.61   2
  -5  -8  -6   41.43    8.26   1
   5   8   6   33.78    6.34   3
  -6  -8  -6   14.75    4.94   2
   6   8   6   17.13    5.56   3
  -7  -8  -6    4.95    4.96   2
   7   8   6   16.35    5.69   3
  -8  -8  -6   14.13    6.08   2
   8   8   6   15.84    6.13   3
  -3  -9  -6    3.58    6.52   1
  -4  -9  -6   17.07    7.35   1
  -4  -9  -6   14.10    8.46   5
   4   9   6   25.39    7.95   2
  -5  -9  -6   33.67    6.67   2
   6   9   6   44.82    8.20   3
  -6  -9  -6   49.66    8.31   2
   7   9   6   24.47    6.98   3
   3   7  -7    2.54    5.47   4
   2   7  -7   -0.39    5.85   4
   1   7  -7   10.64    6.40   4
  -1  -7   7   33.44    8.30   3
   1  -7   7    7.97    8.40   3
   5   6  -7   10.78    6.08   4
  -5  -6   7   17.57    7.15   3
  -4  -6   7    2.45    5.27   3
   3   6  -7    9.27    5.86   4
  -2  -6   7    7.79    5.73   3
   2   6  -7    9.95    5.39   4
  -1  -6   7    1.77    4.83   3
   1   6  -7    5.64    5.08   4
   0   6  -7    2.98    5.95   1
   0  -6   7    2.32    5.46   3
  -1   6  -7    1.46    4.58   1
   1  -6   7   17.25    7.18   3
   1  -6   7    0.19    5.25   4
  -2   6  -7   15.74    6.24   1
   2  -6   7   20.27    7.96   3
  -6  -5   7    4.94    5.44   3
   6   5  -7   -0.45    5.80   4
  -5  -5   7   11.78    6.25   3
   5   5  -7   13.61    6.02   4
  -4  -5   7    2.41    4.66   3
   4   5  -7    6.67    4.65   4
   3   5  -7   18.86    5.82   4
  -3  -5   7   19.19    6.83   3
   2   5  -7    1.70    4.27   4
  -2  -5   7    2.71    4.39   3
  -1  -5   7   34.73    7.46   3
   1   5  -7   32.77    7.17   4
   0   5  -7    2.70    4.30   4
   1  -5   7   14.33    5.84   3
   1  -5   7    2.05    4.71   4
  -1   5  -7   -0.68    4.23   1
   2  -5   7    6.45    6.43   4
  -2   5  -7   20.70    6.42   1
   2  -5   7   11.42    7.06   3
  -3   5  -7   22.62    7.02   1
   3  -5   7   50.55    9.75   3
   3  -5   7   37.30    9.34   4
  -7  -4   7   -0.23    6.09   2
   6   4  -7   -0.52    4.43   4
   5   4  -7    7.01    4.23   4
  -5  -4   7    5.73    4.90   3
   4   4  -7    6.75    5.06   4
  -4  -4   7    3.40    4.14   3
  -3  -4   7    2.46    4.43   3
   3   4  -7    2.03    3.77   4
  -2  -4   7  119.98   14.27   3
   2   4  -7  109.13   13.44   4
   1   4  -7   18.38    5.07   1
   1   4  -7   16.29    4.78   4
  -1  -4   7   10.12    4.96   3
   0  -4   7    0.73    4.41   3
   0   4  -7   -0.62    3.39   4
   0   4  -7    0.44    3.20   1
   1  -4   7   68.02   10.34   4
   1  -4   7   77.89   10.95   3
   2  -4   7   42.11    8.54   4
  -2   4  -7   47.69    9.16   1
   2  -4   7   65.10   10.08   3
   3  -4   7    5.10    5.44   4
   3  -4   7    2.66    5.44   3
  -3   4  -7   11.60    5.40   1
   4  -4   7    0.57    5.56   3
  -4   4  -7    3.27    5.39   1
  -6  -3   7    3.53    5.43   2
   6   3  -7   -0.04    4.85   4
  -5  -3   7   -1.05    3.87   3
  -5  -3   7    4.76    4.47   2
   5   3  -7    4.79    5.56   4
  -4  -3   7   59.64    8.85   2
   4   3  -7   51.53    8.16   4
  -4  -3   7   49.37    8.01   3
   3   3  -7   20.42    5.36   4
  -3  -3   7   16.95    5.45   3
   2   3  -7    4.83    3.48   4
  -2  -3   7   10.76    4.67   3
   1   3  -7    5.80    3.31   1
   1   3  -7    3.67    3.74   4
  -1  -3   7   -0.43    2.72   3
   0   3  -7  480.12   47.71   4
   0   3  -7  557.53   60.85   1
   0  -3   7  736.35   64.83   3
   1  -3   7   -0.02    4.05   3
   2  -3   7    9.90    5.63   3
  -2   3  -7    4.42    3.63   1
   2  -3   7    6.76    4.40   4
  -4   3  -7   19.24    6.77   1
   4  -3   7   16.15    6.23   3
  -5   3  -7   -1.14    4.93   1
   5  -3   7    5.24    5.55   3
  -6  -2   7    5.91    5.55   2
  -5  -2   7   -0.48    4.25   2
   5   2  -7    5.04    4.76   4
  -4  -2   7   18.46    5.18   3
  -4  -2   7   13.19    5.42   2
   4   2  -7   21.69    5.36   4
  -3  -2   7   40.88    6.82   3
  -3  -2   7   40.46    6.74   2
   3   2  -7   32.47    5.77   4
   2   2  -7  128.48   14.54   4
   2   2  -7  128.91   15.49   1
  -2  -2   7  121.77   13.56   2
  -1  -2   7   14.43    4.76   3
   1   2  -7    7.93    3.74   1
   1   2  -7   12.34    3.95   4
   0   2  -7    0.22    3.15   4
   0   2  -7    3.35    3.11   1
   0  -2   7    4.73    3.73   3
  -1   2  -7    1.57    2.77   1
  -1   2  -7    2.60    2.76   4
   2  -2   7   35.13    6.66   3
  -2   2  -7   39.61    7.35   1
   2  -2   7   27.73    5.76   4
   3  -2   7    0.08    4.28   3
   4  -2   7    1.21    4.50   3
  -4   2  -7    6.10    4.73   1
  -5   2  -7    7.31    5.33   1
   5  -2   7   12.15    5.33   3
  -6   2  -7   23.58    7.53   1
  -6  -1   7   11.94    6.83   2
  -5  -1   7    9.33    5.27   2
   5   1  -7    3.92    5.18   4
  -4  -1   7    3.90    4.30   2
   4   1  -7   -0.68    3.71   4
   3   1  -7   23.44    4.98   4
  -3  -1   7   21.23    5.61   2
  -3  -1   7   23.42    5.45   3
  -2  -1   7    5.69    3.66   2
   2   1  -7    7.18    3.06   4
  -2  -1   7   11.21    4.12   3
   2   1  -7    7.67    3.16   1
  -1  -1   7   26.68    5.40   3
  -1  -1   7   33.29    5.54   2
   1   1  -7   28.90    5.02   4
   0   1  -7    7.05    6.30   1
   0   1  -7    7.87    3.28   4
   0  -1   7    8.46    4.16   3
   0  -1   7    7.96    3.20   2
  -1   1  -7   21.22    4.23   4
  -1   1  -7   16.50    4.66   1
   1  -1   7   20.74    5.32   3
  -2   1  -7    2.01    2.96   1
  -3   1  -7    8.68    3.97   1
   3  -1   7    2.86    4.06   3
   4  -1   7    5.86    4.26   3
  -4   1  -7    4.79    4.53   1
   5  -1   7   82.25   11.13   3
  -5   1  -7   65.24   10.35   1
  -6   1  -7    5.72    4.77   1
   6  -1   7   15.71    6.08   3
   6   0  -7    9.31    6.21   4
  -6   0   7   14.66    6.80   2
  -5   0   7    4.66    5.19   2
  -4   0   7   27.98    6.92   2
   4   0  -7   18.80    5.21   4
   3   0  -7    2.63    2.86   1
  -3   0   7    1.34    3.31   2
   3   0  -7    0.55    3.29   4
   2   0  -7   17.34    4.24   4
   2   0  -7   11.17    3.40   1
  -2   0   7   10.11    4.22   2
  -2   0   7   10.62    3.78   3
   1   0  -7    2.63    2.34   4
  -1   0   7    6.88    3.63   3
   1   0  -7    3.30    2.63   1
  -1   0   7    3.55    3.16   2
   0   0  -7   -0.33    2.44   1
   0   0   7    0.70    2.77   3
   0   0   7    2.43    2.43   2
   1   0   7    0.90    2.91   3
  -1   0  -7    0.60    2.42   1
   1   0   7    7.67    3.03   2
  -2   0  -7   41.54    6.70   1
   2   0   7   44.24    6.90   3
   2   0   7   26.14    4.61   2
   3   0   7    1.12    3.65   3
  -3   0  -7    3.71    3.54   1
  -4   0  -7   19.02    4.89   1
   4   0   7   11.03    4.33   3
  -5   0  -7    0.79    3.89   1
   6   0   7    9.66    5.40   3
  -6   0  -7    9.00    5.03   1
   7   0   7   17.12    6.85   3
  -7   0  -7   20.22    6.40   1
  -8   0  -7   36.01    8.93   1
   6  -1  -7    6.83    7.06   4
  -5   1   7   21.80    6.53   2
   5  -1  -7   12.49    6.20   4
   4  -1  -7   -0.76    4.17   4
  -4   1   7   -0.45    3.79   2
  -3   1   7   84.18   11.29   2
   3  -1  -7   85.10   10.81   4
   3  -1  -7   64.36    9.46   1
   2  -1  -7   76.68   10.61   1
  -2   1   7   70.06   10.05   2
   2  -1  -7   85.21   10.23   4
  -1   1   7    8.78    3.34   3
  -1   1   7   15.75    4.52   2
   1  -1  -7   11.84    4.03   1
   0   1   7   21.62    4.60   2
   0  -1  -7   20.90    4.57   1
   0   1   7   26.19    5.07   3
   1   1   7  273.50   27.23   2
   2   1   7    0.54    2.65   3
   2   1   7    3.83    2.83   2
   3   1   7    9.59    3.67   2
   3   1   7    8.90    3.81   3
  -3  -1  -7    5.07    3.11   1
  -4  -1  -7   17.12    4.57   1
   4   1   7   17.83    5.29   3
  -4  -1  -7   16.50    3.31   2
   5   1   7    3.04    3.77   3
   6   1   7    5.94    4.10   3
  -6  -1  -7    4.52    4.30   1
  -7  -1  -7    2.06    4.37   1
   7   1   7    4.04    4.71   3
  -8  -1  -7    9.99    6.40   1
  -5   2   7   28.31    7.69   2
   5  -2  -7   25.27    7.98   4
  -4   2   7    8.28    5.01   2
   4  -2  -7   18.70    6.43   4
  -3   2   7   10.27    5.72   2
   3  -2  -7    9.35    5.64   5
   3  -2  -7   16.27    6.31   1
  -2   2   7   14.30    4.96   2
   2  -2  -7   23.35    6.37   1
  -1   2   7  655.34   62.50   2
   1  -2  -7  522.81   57.47   1
   0  -2  -7   49.81    7.73   1
   0   2   7   54.66    8.06   2
   1   2   7    1.44    2.86   2
  -1  -2  -7   -0.43    2.37   1
   2   2   7   11.57    3.80   3
  -2  -2  -7   16.83    4.17   1
   2   2   7   12.78    4.15   2
  -3  -2  -7  121.25   15.18   1
   3   2   7  164.33   16.37   3
   3   2   7  130.95   14.67   2
  -4  -2  -7    1.59    2.68   1
   4   2   7    5.06    3.70   2
   4   2   7    3.52    3.40   3
  -5  -2  -7    6.75    3.80   1
  -5  -2  -7    4.43    2.86   2
   5   2   7    3.27    3.31   3
  -6  -2  -7    4.29    3.37   2
   6   2   7    7.24    3.94   3
  -6  -2  -7    1.51    3.42   1
   7   2   7    5.99    5.14   3
  -7  -2  -7    4.62    4.45   1
  -8  -2  -7    4.76    4.82   1
   8   2   7   14.26    6.44   3
   9   2   7    9.24    7.16   3
   4  -3  -7   31.61   10.12   5
   4  -3  -7   13.52    6.70   1
  -4   3   7   22.77    6.76   2
  -3   3   7   25.74    6.59   2
   3  -3  -7   26.80    7.28   1
   3  -3  -7   18.98    7.89   5
   2  -3  -7  100.42   14.23   1
   2  -3  -7   91.57   15.40   5
  -2   3   7   73.22   10.65   2
   1  -3  -7    6.51    5.01   1
   0  -3  -7   70.83   10.29   1
   0   3   7   64.57    9.47   2
   1   3   7   33.41    5.01   3
  -1  -3  -7   35.53    6.29   1
   1   3   7   30.83    6.13   2
  -2  -3  -7   -0.35    2.64   1
   3   3   7   11.73    3.73   3
  -3  -3  -7   11.17    3.62   1
   3   3   7    6.64    4.06   2
  -4  -3  -7   19.52    5.16   1
   4   3   7   17.78    4.89   2
   4   3   7   36.05    6.06   3
   5   3   7    3.17    3.50   3
  -5  -3  -7    4.08    3.48   1
  -5  -3  -7    1.22    2.69   2
  -6  -3  -7   45.68    7.90   1
   6   3   7   48.76    8.00   3
  -6  -3  -7   58.37    8.18   2
  -7  -3  -7   10.99    4.41   2
   8   3   7   40.31    8.63   3
  -8  -3  -7   29.65    6.45   2
   9   3   7    3.78    6.56   3
   4  -4  -7   41.61   10.79   1
   4  -4  -7   31.94   12.45   5
   3  -4  -7    8.20    6.46   1
  -2   4   7    5.46    4.81   2
   2  -4  -7   10.96    6.95   5
   2  -4  -7    7.85    5.26   1
   1  -4  -7   20.29    7.11   5
   1  -4  -7   11.62    5.26   1
  -1   4   7   14.19    5.18   2
   0   4   7   39.44    7.51   2
   0  -4  -7   23.45    6.36   1
   0  -4  -7   36.80    8.83   5
   1   4   7   29.02    6.48   2
  -1  -4  -7   37.36    7.99   1
   2   4   7   42.12    7.44   2
   2   4   7   48.85    6.44   3
  -2  -4  -7   57.17    8.85   1
  -3  -4  -7   10.52    4.16   1
   3   4   7    1.57    2.97   3
   3   4   7    9.01    4.46   2
   4   4   7   23.37    4.96   3
  -4  -4  -7   27.33    5.72   1
   4   4   7   30.94    6.44   2
   5   4   7    6.07    3.84   3
  -5  -4  -7    3.34    3.92   1
  -5  -4  -7    3.40    3.15   2
  -6  -4  -7   -0.12    2.79   2
   6   4   7    4.66    3.92   3
  -6  -4  -7    4.07    3.73   1
  -7  -4  -7   23.79    5.84   2
  -7  -4  -7   29.11    6.95   1
   7   4   7   19.34    6.14   3
   8   4   7  112.73   14.14   3
  -8  -4  -7  104.98   13.29   2
   9   4   7   11.75    7.64   3
  -9  -4  -7    8.31    6.04   2
   3  -5  -7    1.37    6.62   1
   2  -5  -7   22.24    7.67   1
   2  -5  -7   14.14    9.16   5
  -2   5   7   14.22    5.76   2
  -1   5   7    4.91    4.69   2
   0  -5  -7   -0.29    4.13   1
   0  -5  -7    2.52    5.58   5
  -1  -5  -7   14.02    5.55   1
   1   5   7   10.92    5.10   2
  -1  -5  -7   12.77    6.33   5
   2   5   7    2.86    4.39   2
  -2  -5  -7    2.56    3.68   1
  -3  -5  -7   38.58    7.13   1
   3   5   7   42.41    7.73   2
   3   5   7   33.32    5.56   3
  -4  -5  -7    0.44    3.28   1
   4   5   7   -0.74    3.88   2
  -5  -5  -7    2.39    3.67   1
   5   5   7    2.24    3.65   3
  -5  -5  -7   12.30    4.56   2
  -6  -5  -7    8.26    3.85   2
   6   5   7    7.50    4.45   3
  -6  -5  -7    1.04    3.25   1
  -7  -5  -7   17.57    5.70   2
   7   5   7   16.03    5.80   3
  -8  -5  -7   22.79    6.03   2
   8   5   7   21.48    8.09   3
   9   5   7    1.68    6.76   3
  -9  -5  -7   14.97    7.49   2
  -1   6   7    7.87    5.84   2
   1  -6  -7    7.57    6.35   1
   0  -6  -7   41.83   11.20   5
   0   6   7   46.10    8.07   2
   0  -6  -7   45.91   10.28   1
   1   6   7   12.62    5.26   2
  -1  -6  -7   23.34    8.65   5
  -1  -6  -7    9.71    6.02   1
  -2  -6  -7    8.54    6.16   1
  -2  -6  -7    3.40    5.39   5
   3   6   7   11.68    4.37   3
  -3  -6  -7    7.93    4.11   1
   3   6   7   15.28    5.83   2
  -4  -6  -7    6.27    3.76   1
   4   6   7    8.84    4.09   3
   4   6   7   15.79    6.00   2
  -5  -6  -7   26.35    5.71   2
   5   6   7   19.04    6.11   2
   5   6   7   30.34    6.26   3
  -5  -6  -7   22.94    5.66   1
   6   6   7   30.21    6.84   3
  -6  -6  -7   21.53    5.16   2
  -6  -6  -7   23.91    6.21   1
   7   6   7    4.68    5.84   3
  -7  -6  -7   14.23    5.17   2
  -8  -6  -7    6.37    4.82   2
   8   6   7    7.84    6.45   3
   0  -7  -7    1.83    7.78   5
   0  -7  -7    7.78    7.41   1
   0   7   7   18.12    6.52   2
   1   7   7   20.96    6.91   2
  -1  -7  -7    3.97    6.34   1
  -2  -7  -7   13.48    6.94   1
  -2  -7  -7    2.79    6.61   5
   2   7   7    3.09    5.41   2
  -3  -7  -7   -0.25    5.88   1
   3   7   7    0.74    5.46   2
   4   7   7    7.58    3.79   3
  -4  -7  -7    1.78    4.57   1
   5   7   7    4.32    5.69   2
  -5  -7  -7   11.50    5.23   2
  -5  -7  -7    8.50    5.04   1
   5   7   7    9.66    4.31   3
  -6  -7  -7    2.86    3.77   2
   6   7   7    4.41    4.19   3
  -7  -7  -7    0.16    4.33   2
   8   7   7    6.87    4.88   3
  -8  -7  -7    3.02    5.09   2
   1   8   7   24.87    7.30   2
  -2  -8  -7    6.53    7.93   5
   2   8   7    6.22    6.34   2
  -2  -8  -7    0.47    6.14   1
  -3  -8  -7   24.45    8.22   1
   3   8   7   17.63    6.91   2
  -3  -8  -7   16.79    8.49   5
   4   8   7    7.40    5.68   2
  -4  -8  -7    2.00    5.11   1
  -5  -8  -7   12.25    5.83   2
  -5  -8  -7    2.95    4.38   1
   5   8   7    8.26    6.39   2
   6   8   7    9.77    5.43   3
  -6  -8  -7    6.91    4.65   2
  -7  -8  -7    6.29    4.99   2
   7   8   7    7.63    5.73   3
  -4  -9  -7    7.04    8.51   1
   4   6  -8    6.95    6.20   4
  -2  -6   8    6.60    5.77   3
   2   6  -8   10.66    6.34   4
  -1  -6   8    2.88    7.21   3
   1   6  -8   13.69    6.47   4
   0  -6   8    5.85    5.82   4
   0  -6   8    3.21    5.87   3
   1  -6   8   11.34    7.06   4
  -1   6  -8    9.49    7.67   1
  -5  -5   8   19.99    7.75   3
   5   5  -8   18.57    7.13   4
   4   5  -8   -0.65    4.92   4
   3   5  -8    0.01    4.91   4
   2   5  -8   15.11    6.13   4
  -2  -5   8   12.06    5.87   3
   1   5  -8    5.21    5.39   4
   0  -5   8    9.33    6.36   3
   0   5  -8   13.82    5.81   4
   1  -5   8   18.22    7.24   4
   2  -5   8   26.84    8.64   3
   3  -5   8    4.58    7.07   3
   5   4  -8   23.44    7.70   4
  -5  -4   8   17.11    6.90   3
   4   4  -8   12.80    5.89   4
  -4  -4   8    2.47    5.10   3
   3   4  -8   10.23    5.20   4
  -3  -4   8   11.56    5.65   3
   2   4  -8    5.24    4.73   4
  -2  -4   8   10.65    5.27   3
   1   4  -8    5.06    4.21   4
  -1  -4   8   10.29    5.74   3
   0  -4   8   79.35   11.34   3
   0   4  -8   61.33    9.82   1
   0   4  -8   57.65    9.20   4
   1  -4   8    0.55    4.99   3
   2  -4   8   23.53    7.34   3
   3  -4   8   15.50    7.20   3
  -3   4  -8   11.94    5.85   1
   4  -4   8   28.54    9.02   3
   6   3  -8   19.14    7.37   4
  -6  -3   8    7.07    6.35   2
  -5  -3   8    3.28    5.13   2
   5   3  -8    1.22    4.61   4
   4   3  -8    4.78    4.78   4
  -4  -3   8    1.28    4.27   3
   3   3  -8   15.09    5.27   4
  -3  -3   8   18.32    5.76   3
   2   3  -8    9.82    4.74   4
  -2  -3   8   11.16    5.31   3
   1   3  -8    9.25    3.96   1
   1   3  -8   19.08    5.31   4
  -1  -3   8   17.86    5.91   3
   0  -3   8   54.72    9.08   3
   0   3  -8   70.01    9.80   4
   0   3  -8   65.82   10.02   1
   2  -3   8   74.79   10.94   3
  -2   3  -8   62.74   10.19   1
   3  -3   8    2.72    5.45   3
  -3   3  -8   -0.22    4.53   1
  -4   3  -8   18.11    6.60   1
   4  -3   8   10.18    7.56   3
   5  -3   8    0.92    5.71   3
  -6  -2   8    2.40    6.17   2
   6   2  -8    2.84    6.01   4
   5   2  -8   10.65    5.04   4
  -5  -2   8    7.68    5.40   2
  -4  -2   8    0.66    4.54   2
   4   2  -8   13.62    5.58   4
  -3  -2   8   32.74    6.90   3
  -3  -2   8   37.80    6.97   2
   3   2  -8   28.99    5.79   4
   2   2  -8   40.35    6.75   4
  -2  -2   8   42.35    7.54   3
  -1  -2   8    3.55    4.36   3
   1   2  -8   10.40    4.50   4
   0  -2   8   25.90    6.61   3
   0   2  -8   23.90    5.26   1
   1  -2   8   19.70    6.01   3
  -1   2  -8   12.13    4.23   1
   2  -2   8   58.16    9.68   3
  -2   2  -8   48.04    8.42   1
  -3   2  -8    3.47    4.46   1
   5  -2   8   12.91    6.09   3
  -5   2  -8    5.60    5.19   1
   6   1  -8   22.86    8.12   4
   5   1  -8    3.65    5.57   4
  -5  -1   8    6.75    5.65   2
   4   1  -8    1.60    4.50   4
   3   1  -8   10.87    3.88   4
  -3  -1   8    9.77    4.80   2
  -2  -1   8   24.27    5.51   3
  -2  -1   8   26.59    5.81   2
   2   1  -8   26.57    5.58   1
   1   1  -8    1.09    2.80   1
   0  -1   8    5.84    4.64   3
   1  -1   8   12.96    4.60   3
  -1   1  -8   15.42    4.91   1
  -2   1  -8   43.80    7.59   1
   2  -1   8   59.87    9.20   3
  -3   1  -8   14.34    4.79   1
   3  -1   8   17.58    6.24   3
   4  -1   8   13.01    5.54   3
  -4   1  -8    1.47    4.66   1
   5  -1   8    3.48    4.71   3
  -5   1  -8    9.18    5.17   1
  -6   1  -8    4.25    4.88   1
   6  -1   8    6.81    5.92   3
   7  -1   8   12.39    6.90   3
   6   0  -8   17.50    8.58   4
  -5   0   8   -0.10    4.70   2
   5   0  -8   12.49    6.55   4
  -4   0   8    1.68    4.29   2
  -3   0   8   10.34    5.19   2
   2   0  -8   -0.38    2.85   1
  -2   0   8   -0.06    3.40   2
  -2   0   8   -0.33    3.23   3
  -1   0   8    9.30    3.80   3
  -1   0   8    2.27    3.28   2
   1   0  -8    3.79    3.33   1
   0   0  -8   26.12    5.50   1
   0   0   8   25.89    5.44   2
   0   0   8   26.75    5.95   3
  -1   0  -8   -0.48    2.75   1
   1   0   8    2.80    3.99   3
   2   0   8    0.37    3.89   3
  -3   0  -8    6.69    4.07   1
   4   0   8    5.34    4.25   3
  -4   0  -8   -0.08    2.90   1
   5   0   8    9.97    5.63   3
  -5   0  -8   13.22    5.32   1
  -6   0  -8    6.94    4.97   1
   6   0   8    7.69    5.46   3
  -4   1   8   10.16    6.19   2
  -3   1   8    8.98    5.62   2
   3  -1  -8    4.71    4.00   1
   2  -1  -8   -0.34    3.12   1
  -2   1   8    3.37    4.29   2
  -1   1   8   19.76    4.69   3
  -1   1   8   17.54    5.25   2
   1  -1  -8   22.16    5.16   1
   0   1   8   10.37    3.96   3
   0   1   8    4.50    3.61   2
   0  -1  -8    2.49    3.09   1
   1   1   8    7.95    3.81   2
   1   1   8    8.79    4.05   3
  -1  -1  -8    5.27    3.68   1
   2   1   8    6.13    3.91   3
  -2  -1  -8    7.70    3.54   1
   2   1   8    4.26    3.31   2
   3   1   8   96.26   11.44   3
   3   1   8  103.53   12.25   2
  -3  -1  -8  106.16   13.86   1
  -4  -1  -8    5.14    3.95   1
   4   1   8    3.37    4.30   3
  -5  -1  -8    2.50    3.86   1
   5   1   8    4.81    4.33   3
  -6  -1  -8    2.79    4.11   1
   6   1   8    8.48    4.92   3
   7   1   8   18.74    6.47   3
  -7  -1  -8   13.50    6.25   1
   8   1   8    0.37    6.25   3
  -8  -1  -8    0.54    5.44   1
  -4   2   8    0.33    6.02   2
  -3   2   8    2.64    4.69   2
   3  -2  -8    4.66    4.24   1
  -2   2   8   41.66    8.01   2
   2  -2  -8   48.54    8.67   1
   1  -2  -8   17.86    5.13   1
  -1   2   8   10.81    4.70   2
   0  -2  -8   -0.67    2.88   1
   0   2   8    0.15    3.36   2
   0   2   8    7.44    3.23   3
  -1  -2  -8   52.51    8.34   1
   1   2   8   61.96    7.95   3
   2   2   8   34.49    6.63   2
  -2  -2  -8   30.27    6.10   1
   2   2   8   35.45    5.96   3
  -4  -2  -8    3.38    3.48   1
   4   2   8    0.72    3.39   3
  -5  -2  -8    6.57    3.26   2
  -5  -2  -8    6.56    4.49   1
   5   2   8    6.59    4.15   3
  -6  -2  -8    6.13    4.51   1
  -7  -2  -8    6.42    5.03   1
  -8  -2  -8   15.72    6.69   1
   3  -3  -8   25.13    8.94   1
  -3   3   8   13.46    5.94   2
  -2   3   8   16.50    6.10   2
   2  -3  -8    6.89    6.00   1
   1  -3  -8   47.84    8.57   1
  -1   3   8   53.84    8.86   2
   0   3   8  322.79   33.20   2
   0  -3  -8  315.30   36.23   1
   1   3   8    2.60    3.08   3
  -1  -3  -8   -0.53    3.04   1
   1   3   8    7.82    3.86   2
   2   3   8    0.37    2.91   3
   2   3   8    7.94    4.49   2
  -2  -3  -8    2.37    3.41   1
  -3  -3  -8   15.22    4.95   1
   3   3   8   26.76    5.59   3
   3   3   8   22.62    5.68   2
   4   3   8    0.86    2.99   3
   4   3   8    5.43    3.82   2
  -5  -3  -8    3.23    3.39   2
   5   3   8   -0.45    3.30   3
  -5  -3  -8    2.39    3.74   1
  -6  -3  -8   12.07    5.13   1
   6   3   8    4.28    4.61   3
  -6  -3  -8    9.39    3.88   2
  -7  -3  -8    3.90    4.45   1
  -7  -3  -8    9.97    4.56   2
   7   3   8    1.67    4.99   3
  -8  -3  -8   18.71    6.94   1
   8   3   8   24.43    7.41   3
   3  -4  -8   13.43    7.50   1
   3  -4  -8   10.34    9.06   5
   2  -4  -8   37.37    9.19   1
   2  -4  -8   45.28   11.19   5
  -2   4   8   29.32    6.96   2
   1  -4  -8    3.27    6.22   1
  -1   4   8    8.44    5.02   2
   0  -4  -8   24.76    6.44   1
   0   4   8   12.20    5.85   2
  -1  -4  -8   59.27    9.72   1
   1   4   8   49.04    9.09   2
   2   4   8    0.71    4.64   2
   2   4   8    8.58    3.64   3
  -2  -4  -8    7.56    4.17   1
   3   4   8   -0.15    2.83   3
  -4  -4  -8    2.44    3.88   1
   4   4   8    7.13    4.82   2
   5   4   8    6.79    3.84   3
  -5  -4  -8    0.96    3.53   1
  -5  -4  -8    3.04    4.16   2
  -6  -4  -8    3.48    4.47   1
  -6  -4  -8    7.53    3.96   2
  -7  -4  -8    8.35    5.89   1
   7   4   8   25.85    6.66   3
  -7  -4  -8   18.46    5.57   2
  -8  -4  -8   28.30    6.73   2
   8   4   8   41.17    9.20   3
   2  -5  -8    3.19    6.43   1
   2  -5  -8   21.31    9.83   5
  -1   5   8   15.49    6.95   2
   1  -5  -8    8.22    6.40   1
   0  -5  -8    2.94    6.44   1
   0   5   8    1.99    5.90   2
   1   5   8   24.36    6.69   2
  -1  -5  -8   29.09    7.44   1
   2   5   8    7.05    5.39   2
  -2  -5  -8   16.04    5.35   1
   3   5   8    3.45    3.42   3
  -3  -5  -8    5.88    4.21   1
   3   5   8   -0.95    4.28   2
  -4  -5  -8    7.11    4.13   1
   4   5   8   19.82    6.36   2
   4   5   8   14.23    4.56   3
  -5  -5  -8   23.09    6.25   1
   5   5   8   22.73    5.71   3
   6   5   8   13.92    5.50   3
  -6  -5  -8    8.34    4.58   1
  -6  -5  -8   10.28    4.27   2
   7   5   8    6.48    4.86   3
  -7  -5  -8    6.50    4.25   2
   8   5   8   68.18   10.98   3
  -8  -5  -8   58.66    9.54   2
   0  -6  -8    0.82    5.55   1
   0   6   8    0.51    7.24   2
   1   6   8    5.43    5.10   2
  -2  -6  -8    3.18    4.68   1
  -3  -6  -8    2.49    4.30   1
   4   6   8    7.61    5.44   2
   4   6   8    9.37    4.43   3
  -4  -6  -8    9.41    5.16   1
   5   6   8    0.20    3.92   3
  -5  -6  -8    3.38    3.89   1
  -6  -6  -8   30.54    7.53   1
  -6  -6  -8   33.29    6.63   2
   6   6   8   34.42    7.55   3
  -7  -6  -8    0.47    4.34   2
   7   6   8   11.38    6.76   3
   8   6   8   11.70    7.57   3
  -8  -6  -8   -0.18    4.70   2
  -1  -7  -8   34.75   11.67   5
  -1  -7  -8   33.41    9.25   1
   1   7   8   45.52    9.78   2
  -2  -7  -8    1.69    7.58   1
  -3  -7  -8    8.49    5.23   1
   3   7   8    4.37    5.99   2
   4   7   8   24.16    7.47   2
  -6  -7  -8    1.90    4.39   2
   6   7   8   -0.53    5.05   3
   7   7   8    5.75    5.96   3
   3   8   8   38.26    9.38   2
  -3  -8  -8   23.01    8.56   1
  -5  -8  -8    6.88    5.49   1
   5   8   8    8.72    7.11   2
   6   8   8   14.99    5.81   3
  -5  -9  -8    2.58    5.90   1
   2   6  -9    0.92    6.43   4
   1   6  -9    6.11    6.82   4
   4   5  -9   15.42    7.41   4
   3   5  -9   44.70    9.16   4
   2   5  -9    1.59    5.28   4
   0  -5   9    2.41    7.51   3
  -1   5  -9    2.44    5.91   1
   5   4  -9   38.37    9.96   4
  -4  -4   9   10.76    6.14   3
   3   4  -9   10.44    5.74   4
  -3  -4   9    8.32    6.40   3
  -2  -4   9    2.65    5.34   3
  -1  -4   9    3.39    5.73   3
   0   4  -9    9.52    4.92   1
   0  -4   9    2.92    6.76   3
   1  -4   9   13.29    7.19   3
  -1   4  -9    8.61    5.71   1
   3  -4   9    0.35    6.56   3
   5   3  -9   17.42    6.80   4
  -1  -3   9   10.06    5.40   3
   0  -3   9   37.29    8.89   3
   0   3  -9   30.66    6.71   1
  -1   3  -9   20.75    6.36   1
   1  -3   9   37.52    8.39   3
  -2   3  -9    8.68    5.05   1
   2  -3   9    9.18    6.84   3
   3  -3   9   57.99   10.85   3
   4  -3   9   29.92    8.48   3
  -5  -2   9   -0.73    5.08   2
  -4  -2   9   10.14    5.85   2
  -2  -2   9   24.92    6.42   3
  -1  -2   9   16.03    6.36   3
   1   2  -9   13.98    4.63   1
   0   2  -9    0.28    3.35   1
   0  -2   9    1.02    4.78   3
  -1   2  -9   10.39    4.46   1
   1  -2   9   12.19    5.91   3
   2  -2   9  256.29   26.08   3
   3  -2   9    9.66    6.46   3
  -3   2  -9   16.29    6.43   1
  -4   2  -9    5.12    5.01   1
   4  -2   9   13.52    7.17   3
   5  -2   9   12.50    6.28   3
  -5  -1   9    4.38    5.95   2
  -4  -1   9    7.50    5.53   2
  -2  -1   9   22.68    5.95   2
  -2  -1   9    8.29    5.50   3
  -1  -1   9   38.68    7.90   3
   1   1  -9   26.26    6.07   1
   0   1  -9   63.97    9.64   1
   0  -1   9   51.26    8.17   3
  -1   1  -9   -0.83    7.50   1
   1  -1   9    6.60    4.97   3
  -2   1  -9   18.92    5.38   1
   2  -1   9   12.70    6.39   3
  -3   1  -9    6.27    4.17   1
   4  -1   9   19.24    6.26   3
  -4   1  -9    6.24    5.19   1
  -5   1  -9    3.33    4.68   1
   6  -1   9    5.19    6.56   3
  -4   0   9    6.85    6.60   2
  -3   0   9    2.87    4.96   2
   2   0  -9    4.82    4.19   1
  -2   0   9    3.08    4.44   2
  -1   0   9    2.88    4.65   3
   1   0  -9   12.32    4.53   1
  -1   0   9   12.32    4.50   2
   0   0  -9    1.70    3.20   1
   1   0   9   13.77    5.48   3
  -1   0  -9    3.65    3.52   1
   2   0   9    4.83    4.61   3
  -2   0  -9   10.20    4.54   1
   3   0   9   -0.03    4.42   3
   4   0   9    3.91    4.52   3
  -4   0  -9    2.90    4.31   1
   6   0   9    5.51    6.05   3
   7   0   9   29.85    8.43   3
  -4   1   9   23.36    7.43   2
  -3   1   9   14.85    6.31   2
   2  -1  -9   11.12    4.54   1
  -2   1   9   11.65    5.26   2
  -1   1   9    4.60    4.21   2
   0   1   9   19.71    5.47   3
   0  -1  -9   14.56    4.89   1
   0   1   9   12.76    5.15   2
  -1  -1  -9    2.07    3.76   1
   1   1   9    8.17    3.89   2
   1   1   9    4.60    4.02   3
   2   1   9    6.08    4.01   3
   2   1   9    2.83    3.62   2
  -3  -1  -9    2.51    4.08   1
   3   1   9    3.94    4.05   3
  -4  -1  -9    3.29    4.00   1
   4   1   9    6.09    4.72   3
  -5  -1  -9    2.40    4.47   1
   5   1   9    1.75    4.35   3
  -6  -1  -9    5.84    4.93   1
   6   1   9    7.18    6.05   3
  -3   2   9   21.68    7.22   2
  -2   2   9    5.18    5.08   2
   2  -2  -9    9.21    5.08   1
  -1   2   9   25.93    6.34   2
   1  -2  -9   34.04    7.37   1
   0   2   9   33.07    7.02   2
   0  -2  -9   26.88    6.21   1
   1   2   9    2.72    3.19   3
   1   2   9    0.08    4.17   2
   2   2   9    0.33    3.78   2
  -2  -2  -9    5.77    4.52   1
   2   2   9   -0.93    3.25   3
   3   2   9   61.45    8.95   3
   3   2   9   43.50    7.61   2
   4   2   9    5.40    4.45   3
   4   2   9    3.58    4.01   2
  -4  -2  -9   -0.64    4.12   1
  -6  -2  -9    6.55    4.94   1
   6   2   9    6.28    4.91   3
  -7  -2  -9    3.88    5.40   1
   7   2   9   21.46    7.18   3
  -8  -2  -9   13.49    6.96   1
   3  -3  -9   11.73    6.10   1
  -2   3   9   11.19    5.58   2
   2  -3  -9   -0.55    5.23   1
  -1   3   9    4.63    5.02   2
   1  -3  -9   14.46    5.74   1
   0   3   9   22.55    6.65   2
   0  -3  -9   33.66    7.34   1
   1   3   9  262.40   27.96   2
  -1  -3  -9  213.23   25.84   1
  -2  -3  -9   20.66    5.83   1
   2   3   9   31.59    6.00   3
   2   3   9   22.97    6.30   2
   3   3   9    5.29    4.39   3
  -3  -3  -9    1.40    3.77   1
   4   3   9   15.00    4.64   3
   4   3   9   24.30    5.83   2
  -5  -3  -9   45.36    6.92   2
  -5  -3  -9   44.44    8.89   1
   5   3   9   45.09    7.92   3
  -6  -3  -9    0.21    4.71   1
   6   3   9    8.63    4.97   3
  -6  -3  -9   -0.35    3.74   2
  -7  -3  -9   -0.14    4.96   1
  -8  -3  -9    5.29    5.87   1
   2  -4  -9   19.39    7.95   1
  -1   4   9   29.53    7.66   2
   1  -4  -9   22.09    6.65   1
   0   4   9   39.33    8.76   2
   0  -4  -9   27.41    7.10   1
   1   4   9   12.55    5.74   2
  -1  -4  -9   13.94    5.11   1
   2   4   9   33.24    7.96   2
   2   4   9   35.19    6.13   3
  -2  -4  -9   49.27    9.06   1
   3   4   9    9.38    5.98   2
  -3  -4  -9   27.36    6.66   1
   3   4   9   30.84    6.45   3
   4   4   9    4.63    3.70   3
  -5  -4  -9    8.15    4.86   2
   5   4   9   12.89    5.73   2
  -5  -4  -9    3.13    4.07   1
  -6  -4  -9    6.41    5.05   1
   6   4   9    5.45    4.69   3
  -6  -4  -9   12.29    4.51   2
   7   4   9   -0.76    5.26   3
   0  -5  -9   11.21    5.62   1
  -1  -5  -9    3.75    4.55   1
   1   5   9   13.75    5.92   2
  -2  -5  -9   10.54    4.97   1
   2   5   9   11.34    6.09   2
   3   5   9    8.65    5.94   2
   3   5   9    5.31    4.72   3
  -3  -5  -9   16.19    6.09   1
   4   5   9   12.11    5.10   3
  -4  -5  -9   14.36    5.64   1
   4   5   9   17.58    6.79   2
   5   5   9    4.60    4.39   3
  -5  -5  -9    5.22    5.32   1
   6   5   9   11.74    5.44   3
  -6  -5  -9   17.30    5.20   2
  -6  -5  -9    4.34    4.60   1
  -7  -5  -9    3.76    5.17   1
  -7  -5  -9    0.73    4.03   2
   7   5   9    3.81    4.98   3
  -8  -5  -9    2.23    5.25   2
   1   6   9   11.81    8.06   2
  -1  -6  -9    0.85    5.15   1
  -2  -6  -9    3.30    4.97   1
   2   6   9   11.72    6.93   2
  -3  -6  -9    5.30    5.42   1
  -4  -6  -9    4.18    5.07   1
   4   6   9    3.42    4.21   3
   5   6   9   11.70    5.31   3
   5   6   9    5.68    6.25   2
  -5  -6  -9   13.53    5.51   1
   6   6   9    1.34    4.78   3
  -6  -6  -9    5.93    5.19   1
  -6  -6  -9    2.38    4.98   2
  -7  -6  -9    0.19    4.27   2
  -7  -6  -9    3.06    5.59   1
   3   7   9   24.02    8.04   2
  -3  -7  -9   11.66    6.01   1
  -4  -7  -9   10.81    6.71   1
   4   7   9    9.03    6.53   2
   5   7   9   27.19    8.54   2
   5   7   9    4.63    5.65   3
   6   7   9    0.40    6.01   3
  -6  -7  -9    2.73    5.60   1
  -5  -8  -9    2.19    6.27   1
  -1   4 -10    9.72    6.35   1
  -3  -3  10   23.14    7.54   3
  -2  -3  10    9.11    6.92   3
   0  -3  10    5.67    6.07   3
   0   3 -10    7.65    5.16   1
   1  -3  10   17.81    7.62   3
  -1   3 -10   11.28    5.80   1
   2  -3  10   16.39    7.61   3
  -2   3 -10   12.53    6.32   1
  -1  -2  10   14.74    6.44   3
   0  -2  10   15.01    6.41   3
   0   2 -10   -0.02    4.04   1
  -1   2 -10    9.38    5.79   1
   1  -2  10    2.77    5.57   3
   2  -2  10   77.21   12.02   3
  -3   2 -10   20.13    7.36   1
   3  -2  10   27.74    8.80   3
  -2  -1  10    5.08    5.51   3
  -1  -1  10   23.01    6.70   3
   1   1 -10    5.93    4.98   1
   0  -1  10   33.64    7.85   3
   0   1 -10   42.03    8.22   1
  -1   1 -10    1.41    3.99   1
   1  -1  10   -0.80    4.65   3
   2  -1  10    7.60    6.00   3
   3  -1  10   26.81    8.06   3
  -3   1 -10   14.59    5.63   1
  -4   1 -10   41.23    8.92   1
   4  -1  10   37.30    8.35   3
  -3   0  10   -1.36    5.47   2
  -2   0  10    2.56    4.64   2
   1   0 -10    4.53    4.66   1
  -1   0  10    6.70    5.01   3
  -1   0  10    4.85    5.16   2
   0   0  10    4.26    4.97   3
   0   0 -10    2.02    4.15   1
   1   0  10   -0.27    4.65   3
   2   0  10    8.27    5.92   3
   3   0  10    8.01    5.11   3
  -4   0 -10   11.93    5.85   1
   4   0  10   17.58    6.22   3
  -5   0 -10    4.54    5.37   1
   2  -1 -10    4.07    4.87   1
  -2   1  10    3.23    4.91   2
   1  -1 -10    4.74    4.52   1
   0  -1 -10    0.55    3.91   1
   0   1  10    4.79    4.49   3
   0   1  10    1.15    4.99   2
   1   1  10    5.51    4.60   3
   1   1  10    0.14    4.22   2
  -1  -1 -10    1.57    3.93   1
   2   1  10   16.84    5.38   3
  -2  -1 -10   11.40    4.71   1
   3   1  10   11.38    5.00   3
  -3  -1 -10    4.07    4.47   1
   4   1  10   -0.68    4.73   3
  -5  -1 -10    2.43    4.93   1
   5   1  10    3.85    5.58   3
  -6  -1 -10   -0.48    4.95   1
   2  -2 -10    1.11    4.95   1
  -2   2  10    2.51    5.73   2
   1  -2 -10    5.10    4.50   1
   0  -2 -10    5.83    4.70   1
   1   2  10    9.90    4.41   3
   1   2  10    5.83    4.93   2
  -1  -2 -10    5.18    4.72   1
   2   2  10    8.32    4.52   2
  -3  -2 -10    7.16    5.03   1
  -4  -2 -10    3.63    4.73   1
   4   2  10    1.00    4.56   3
   5   2  10   41.39    8.78   3
  -5  -2 -10   30.86    7.58   1
   6   2  10   15.38    6.06   3
  -6  -2 -10    4.41    5.28   1
   2  -3 -10    9.01    6.70   1
  -1   3  10    6.69    5.69   2
   1  -3 -10   11.36    6.12   1
   0  -3 -10   18.33    6.39   1
   0   3  10   30.60    8.38   2
   1   3  10   23.22    6.84   2
  -1  -3 -10   22.07    6.28   1
   2   3  10    2.70    5.26   2
   2   3  10    2.00    4.19   3
  -2  -3 -10    3.62    4.73   1
   3   3  10   36.37    7.86   2
   3   3  10   38.19    7.53   3
  -3  -3 -10   34.14    7.72   1
  -4  -3 -10    9.67    5.25   1
   4   3  10   12.58    5.50   2
   4   3  10   13.48    5.25   3
   5   3  10    8.65    4.81   3
   6   3  10   14.26    6.57   3
   0  -4 -10   10.88    6.03   1
  -1  -4 -10   10.82    6.09   1
   1   4  10   12.53    6.07   2
   2   4  10   80.07   12.47   2
  -2  -4 -10   45.17    8.66   1
  -3  -4 -10    2.76    5.03   1
   4   4  10    6.32    4.75   3
  -5  -4 -10   10.96    5.70   1
   5   4  10    0.71    4.42   3
   5   4  10    3.45    5.53   2
   6   4  10   10.43    5.84   3
  -6  -4 -10    2.72    5.52   1
  -7  -4 -10    2.20    6.38   1
  -1  -5 -10    4.72    4.98   1
   1   5  10    1.97    6.27   2
   2   5  10    6.67    6.62   2
  -2  -5 -10   22.96    7.34   1
  -3  -5 -10   28.55    7.00   1
   3   5  10   16.43    7.37   2
  -4  -5 -10    0.37    5.39   1
   4   5  10    3.55    4.52   3
  -5  -5 -10    6.18    5.83   1
   6   5  10   11.74    5.98   3
  -6  -5 -10   12.10    5.32   2
  -7  -5 -10   11.34    7.13   1
  -4  -6 -10    8.35    5.52   1
   4   6  10   10.24    7.31   2
   5   6  10   -0.21    6.85   2
  -5  -6 -10    8.90    6.58   1
   6   6  10    8.29    5.72   3
  -6  -6 -10   -0.35    5.77   1
  -7  -6 -10   12.88    6.81   1
  -1  -2  11   22.22    7.91   3
   0   2 -11   -0.37    4.91   1
  -1   2 -11   -0.44    4.57   1
   0   1 -11   13.07    6.68   1
   1  -1  11   26.65    7.65   3
  -1   1 -11    9.89    5.77   1
  -2   1 -11    3.32    5.21   1
   1   0 -11    4.30    5.36   1
   0   0 -11    9.69    5.46   1
   0   0  11   17.27    6.82   3
   1   0  11   18.89    6.91   3
  -1   0 -11   16.77    5.97   1
   2   0  11   24.90    7.53   3
  -2   0 -11    6.35    5.55   1
  -3   0 -11    3.02    5.03   1
   3   0  11   13.84    6.28   3
  -2   1  11   11.97    6.43   2
  -1   1  11   13.85    6.55   2
   1   1  11   17.07    5.97   3
  -1  -1 -11    6.70    5.23   1
   2   1  11   -0.28    5.97   3
  -2  -1 -11    7.20    5.42   1
   3   1  11    0.88    5.03   3
  -3  -1 -11    6.35    5.94   1
   1  -2 -11    9.46    6.12   1
   0  -2 -11    2.61    5.50   1
   0   2  11   21.13    6.53   2
   1   2  11   20.19    7.25   2
  -2  -2 -11    7.94    5.31   1
   3   2  11    2.68    5.01   3
  -3  -2 -11    0.10    4.66   1
   4   2  11    0.95    4.97   3
   0  -3 -11   -0.98    4.59   1
   1   3  11   31.34    8.03   2
   2   3  11   15.58    6.50   2
  -2  -3 -11    8.49    5.97   1
   3   3  11    1.98    5.45   3
   3   3  11    6.39    5.85   2
   4   3  11   10.90    5.64   2
   4   3  11   10.54    5.53   3
  -5  -3 -11    3.49    5.61   1
   5   3  11    8.67    5.67   3
   1   4  11   21.78    8.65   2
   2   4  11   40.10    9.20   2
  -2  -4 -11   19.73    7.63   1
  -3  -4 -11   40.51    9.94   1
   3   4  11   48.54    9.96   2
   3   4  11   36.27    7.33   3
   4   4  11   26.44    8.23   2
   4   4  11   16.86    6.24   3
   5   4  11    6.13    5.52   3
   5   4  11    1.38    6.26   2
   4   5  11   23.36    6.94   3
   4   5  11   12.57    7.67   2
   5   5  11   21.67    8.55   2
   1   1  12    5.26    7.21   3
   2   2  12   -0.96    5.58   3
   2   3  12    8.53    8.10   2
   0   0   0    0.00    0.00   0
;
_shelx_hkl_checksum              679
_shelx_res_file
;
    mh16_22.res created by SHELXL-2014/7
TITL mh16_22 in P-1
CELL 0.71073   8.0055   8.0256   9.3143  81.779  78.053  62.518
ZERR    2.00   0.0010   0.0010   0.0011   0.002   0.002   0.002
LATT  1
SFAC C H N O
UNIT 16 30 10 2
SIZE 0.5 0.4 0.4
REM colorless block
ACTA 50
L.S. 10
BOND $H
CONF
FMAP 2
PLAN 10
SIMU C1X > N3X'
DELU C1X > N3X'
TEMP -93
EQIV $1 -x, -y+2, -z+1
EQIV $2 -x+1, -y+2, -z
HTAB N21A O21X_$1
HTAB N21A N1A_$2
HTAB N41A N3A_$1
HTAB N41A O21X
DFIX 0.88 0.02 N21A H21A N21A H22A N41A H41A N41A H42A
DFIX 1.52 0.01 C1X C2X C31X C2X'
DFIX 1.25 0.01 C2X O21X C2X' O21X
DFIX 1.30 0.01 C2X N3X C2X' N3X'
DFIX 1.47 0.01 N3X C31X N3X C32X
DFIX 1.47 0.01 N3X' C1X N3X' C32X
DFIX 2.42 0.02 O21X C1X O21X C31X
DFIX 2.23 0.02 O21X N3X O21X N3X'
DFIX 2.41 0.02 C1X N3X C31X N3X'
DFIX 2.41 0.02 C2X C31X C2X' C1X
DFIX 2.43 0.02 C2X C32X C2X' C32X
DFIX 2.52 0.02 C31X C32X C1X C32X
MPLA N1A > N3X'
MPLA N1A > C6A
MPLA C1X > N3X'
WGHT    0.143800
FVAR       1.02177   0.80814
N1A   3    0.473156    0.807215    0.134609    11.00000    0.03291    0.02516 =
         0.03719   -0.00608    0.00447   -0.00769
C2A   1    0.327392    0.949734    0.210671    11.00000    0.02225    0.02111 =
         0.03584   -0.00467   -0.00440   -0.00528
N21A  3    0.289459    1.126067    0.153106    11.00000    0.03957    0.01994 =
         0.04106   -0.00277    0.00838   -0.00450
H21A  2    0.191168    1.213679    0.208587    11.00000   -1.20000
H22A  2    0.357316    1.143056    0.067213    11.00000   -1.20000
N3A   3    0.216713    0.934049    0.336070    11.00000    0.02734    0.02197 =
         0.03265   -0.00304   -0.00447   -0.00604
C4A   1    0.254408    0.760372    0.395586    11.00000    0.02895    0.02123 =
         0.03083   -0.00297   -0.00736   -0.00925
N41A  3    0.147851    0.745441    0.521825    11.00000    0.03660    0.01792 =
         0.04404   -0.00356    0.00450   -0.00554
H41A  2    0.047481    0.838042    0.565827    11.00000   -1.20000
H42A  2    0.154134    0.637644    0.562307    11.00000   -1.20000
C5A   1    0.405400    0.601904    0.325474    11.00000    0.03169    0.01796 =
         0.04567   -0.00354   -0.00157   -0.00433
AFIX  43
H5A   2    0.435399    0.477369    0.365098    11.00000   -1.20000
AFIX   0
C6A   1    0.504513    0.637131    0.199310    11.00000    0.03546    0.02019 =
         0.04035   -0.00725    0.00311   -0.00236
AFIX  43
H6A   2    0.606409    0.531341    0.151581    11.00000   -1.20000
AFIX   0
C1X   1   -0.080016    0.333040    0.923080    11.00000    0.05228    0.05851 =
         0.04582   -0.00103   -0.00524   -0.02322
AFIX 137
PART   1
H1XA  2    0.003489    0.281246    0.998003    21.00000   -1.50000
H1XB  2   -0.133972    0.247778    0.915217    21.00000   -1.50000
H1XC  2   -0.183499    0.456302    0.950964    21.00000   -1.50000
AFIX  33
PART   2
H1XD  2   -0.102696    0.249444    1.003834   -21.00000   -1.50000
H1XE  2   -0.043721    0.417640    0.960691   -21.00000   -1.50000
H1XF  2   -0.196676    0.407337    0.880119   -21.00000   -1.50000
AFIX   0
PART   0
O21X  4    0.013227    0.507838    0.712823    11.00000    0.04794    0.02110 =
         0.05350   -0.00109    0.00000   -0.00972
C31X  1    0.269420    0.214627    0.570388    11.00000    0.03552    0.03737 =
         0.05797   -0.02087   -0.00133   -0.00859
AFIX 137
PART   1
H3XA  2    0.190793    0.330359    0.517403    21.00000   -1.50000
H3XB  2    0.304173    0.106105    0.513827    21.00000   -1.50000
H3XC  2    0.385451    0.219358    0.583563    21.00000   -1.50000
AFIX  33
PART   2
H3XD  2    0.312165    0.079868    0.595389   -21.00000   -1.50000
H3XE  2    0.217759    0.247796    0.478132   -21.00000   -1.50000
H3XF  2    0.377618    0.244024    0.558907   -21.00000   -1.50000
AFIX   0
PART   0
C32X  1    0.203625    0.012011    0.792569    11.00000    0.06987    0.01785 =
         0.10431    0.00353   -0.04269   -0.01058
AFIX 137
PART   1
H4XA  2    0.204994    0.021024    0.896104    21.00000   -1.50000
H4XB  2    0.328289   -0.082553    0.748587    21.00000   -1.50000
H4XC  2    0.104732   -0.024753    0.785595    21.00000   -1.50000
AFIX  33
PART   2
H4XD  2    0.169307   -0.058474    0.878613   -21.00000   -1.50000
H4XE  2    0.187091   -0.027011    0.703588   -21.00000   -1.50000
H4XF  2    0.337021   -0.013391    0.785622   -21.00000   -1.50000
AFIX   0
PART   1
C2X   1    0.034258    0.354358    0.776333    21.00000    0.03603    0.03007 =
         0.04042    0.00251   -0.01146   -0.01440
N3X   3    0.162589    0.196945    0.713071    21.00000    0.03202    0.02516 =
         0.05316   -0.00649   -0.00780   -0.00736
PART   2
C2X'  1    0.112158    0.328980    0.695106   -21.00000    0.03504    0.03162 =
         0.04392   -0.00813    0.00124   -0.02977
N3X'  3    0.077734    0.217760    0.807645   -21.00000    0.02968    0.02433 =
         0.04778    0.00792   -0.01610   -0.01003
PART   0
HKLF 4
REM  mh16_22 in P-1
REM R1 =  0.1125 for    1346 Fo > 4sig(Fo)  and  0.1665 for all    2204 data
REM    161 parameters refined using    132 restraints
END
WGHT      0.1438      0.0000
REM Highest difference peak  0.395,  deepest hole -0.440,  1-sigma level  0.134
Q1    1   0.2789  0.7483  0.5088  11.00000  0.05    0.40
Q2    1   0.4686  1.1194  0.1585  11.00000  0.05    0.38
Q3    1   0.3453 -0.0356  0.8563  11.00000  0.05    0.37
Q4    1   0.3161  0.9406  0.3375  11.00000  0.05    0.37
Q5    1   0.0146  0.7561  0.4048  11.00000  0.05    0.35
Q6    1   0.3023  0.9218  0.3963  11.00000  0.05    0.35
Q7    1   0.2310  0.7232  0.5964  11.00000  0.05    0.34
Q8    1   0.3130  0.7205  0.5573  11.00000  0.05    0.33
Q9    1   0.1789  0.1553  0.9980  11.00000  0.05    0.33
Q10   1  -0.0779  0.2860  1.1219  11.00000  0.05    0.33
;
_shelx_res_checksum              15160
loop_
_space_group_symop_operation_xyz
'x, y, z'
'-x, -y, -z'
loop_
_atom_site_type_symbol
_atom_site_label
_atom_site_fract_x
_atom_site_fract_y
_atom_site_fract_z
_atom_site_U_iso_or_equiv
_atom_site_adp_type
_atom_site_calc_flag
_atom_site_occupancy
_atom_site_disorder_assembly
_atom_site_disorder_group
N N1A 0.4732(4) 0.8072(4) 0.1346(3) 0.0350(8) Uani d 1 . .
C C2A 0.3274(4) 0.9497(4) 0.2107(4) 0.0278(8) Uani d 1 . .
N N21A 0.2895(4) 1.1261(4) 0.1531(4) 0.0393(9) Uani d 1 . .
H H21A 0.191(4) 1.214(4) 0.209(4) 0.047 Uiso d 1 . .
H H22A 0.357(5) 1.143(5) 0.067(3) 0.047 Uiso d 1 . .
N N3A 0.2167(4) 0.9340(4) 0.3361(3) 0.0292(7) Uani d 1 . .
C C4A 0.2544(5) 0.7604(4) 0.3956(3) 0.0272(8) Uani d 1 . .
N N41A 0.1479(4) 0.7454(4) 0.5218(3) 0.0370(8) Uani d 1 . .
H H41A 0.047(4) 0.838(4) 0.566(4) 0.044 Uiso d 1 . .
H H42A 0.154(5) 0.638(4) 0.562(4) 0.044 Uiso d 1 . .
C C5A 0.4054(5) 0.6019(5) 0.3255(4) 0.0350(9) Uani d 1 . .
H H5A 0.4354 0.4774 0.3651 0.042 Uiso calc 1 . .
C C6A 0.5045(5) 0.6371(5) 0.1993(4) 0.0369(9) Uani d 1 . .
H H6A 0.6064 0.5313 0.1516 0.044 Uiso calc 1 . .
C C1X -0.0800(6) 0.3330(6) 0.9231(4) 0.0534(11) Uani d 1 . .
H H1XA 0.0035 0.2812 0.9980 0.080 Uiso calc 0.808(7) A 1
H H1XB -0.1340 0.2478 0.9152 0.080 Uiso calc 0.808(7) A 1
H H1XC -0.1835 0.4563 0.9510 0.080 Uiso calc 0.808(7) A 1
H H1XD -0.1027 0.2494 1.0038 0.080 Uiso calc 0.192(7) A 2
H H1XE -0.0437 0.4176 0.9607 0.080 Uiso calc 0.192(7) A 2
H H1XF -0.1967 0.4073 0.8801 0.080 Uiso calc 0.192(7) A 2
O O21X 0.0132(4) 0.5078(3) 0.7128(3) 0.0445(8) Uani d 1 . .
C C31X 0.2694(5) 0.2146(5) 0.5704(4) 0.0456(10) Uani d 1 . .
H H3XA 0.1908 0.3304 0.5174 0.068 Uiso calc 0.808(7) A 1
H H3XB 0.3042 0.1061 0.5138 0.068 Uiso calc 0.808(7) A 1
H H3XC 0.3855 0.2194 0.5836 0.068 Uiso calc 0.808(7) A 1
H H3XD 0.3122 0.0799 0.5954 0.068 Uiso calc 0.192(7) A 2
H H3XE 0.2178 0.2478 0.4781 0.068 Uiso calc 0.192(7) A 2
H H3XF 0.3776 0.2440 0.5589 0.068 Uiso calc 0.192(7) A 2
C C32X 0.2036(7) 0.0120(5) 0.7926(6) 0.0637(14) Uani d 1 . .
H H4XA 0.2050 0.0210 0.8961 0.096 Uiso calc 0.808(7) A 1
H H4XB 0.3283 -0.0826 0.7486 0.096 Uiso calc 0.808(7) A 1
H H4XC 0.1047 -0.0248 0.7856 0.096 Uiso calc 0.808(7) A 1
H H4XD 0.1693 -0.0585 0.8786 0.096 Uiso calc 0.192(7) A 2
H H4XE 0.1871 -0.0270 0.7036 0.096 Uiso calc 0.192(7) A 2
H H4XF 0.3370 -0.0134 0.7856 0.096 Uiso calc 0.192(7) A 2
C C2X 0.0343(6) 0.3544(6) 0.7763(5) 0.0353(12) Uani d 0.808(7) A 1
N N3X 0.1626(5) 0.1969(5) 0.7131(4) 0.0383(12) Uani d 0.808(7) A 1
C C2X' 0.1122(19) 0.3290(11) 0.6951(13) 0.032(4) Uani d 0.192(7) A 2
N N3X' 0.0777(16) 0.2178(11) 0.8076(12) 0.034(4) Uani d 0.192(7) A 2
loop_
_atom_site_aniso_label
_atom_site_aniso_U_11
_atom_site_aniso_U_22
_atom_site_aniso_U_33
_atom_site_aniso_U_12
_atom_site_aniso_U_13
_atom_site_aniso_U_23
N1A 0.0329(16) 0.0252(16) 0.0372(17) -0.0077(13) 0.0045(13) -0.0061(13)
C2A 0.0222(17) 0.0211(17) 0.036(2) -0.0053(13) -0.0044(14) -0.0047(13)
N21A 0.0396(19) 0.0199(15) 0.0411(19) -0.0045(13) 0.0084(14) -0.0028(13)
N3A 0.0273(15) 0.0220(14) 0.0326(16) -0.0060(12) -0.0045(12) -0.0030(11)
C4A 0.0289(18) 0.0212(17) 0.0308(19) -0.0093(14) -0.0074(15) -0.0030(13)
N41A 0.0366(17) 0.0179(15) 0.0440(19) -0.0055(13) 0.0045(14) -0.0036(13)
C5A 0.0317(19) 0.0180(17) 0.046(2) -0.0043(14) -0.0016(16) -0.0035(14)
C6A 0.035(2) 0.0202(18) 0.040(2) -0.0024(15) 0.0031(16) -0.0073(14)
C1X 0.052(3) 0.059(3) 0.046(2) -0.023(2) -0.0052(19) -0.001(2)
O21X 0.0479(16) 0.0211(13) 0.0535(17) -0.0097(11) 0.0000(13) -0.0011(11)
C31X 0.036(2) 0.037(2) 0.058(2) -0.0086(17) -0.0013(18) -0.0209(18)
C32X 0.070(3) 0.0178(19) 0.104(4) -0.0106(19) -0.043(3) 0.004(2)
C2X 0.036(3) 0.030(3) 0.040(3) -0.014(2) -0.011(2) 0.003(2)
N3X 0.032(2) 0.025(2) 0.053(3) -0.0074(18) -0.0078(18) -0.0065(18)
C2X' 0.035(9) 0.032(6) 0.044(9) -0.030(7) 0.001(6) -0.008(6)
N3X' 0.030(8) 0.024(6) 0.048(8) -0.010(6) -0.016(5) 0.008(6)
loop_
_atom_type_symbol
_atom_type_description
_atom_type_scat_dispersion_real
_atom_type_scat_dispersion_imag
_atom_type_scat_source
C C 0.0033 0.0016 'International Tables Vol C Tables 4.2.6.8 and 6.1.1.4'
H H 0.0000 0.0000 'International Tables Vol C Tables 4.2.6.8 and 6.1.1.4'
N N 0.0061 0.0033 'International Tables Vol C Tables 4.2.6.8 and 6.1.1.4'
O O 0.0106 0.0060 'International Tables Vol C Tables 4.2.6.8 and 6.1.1.4'
loop_
_geom_angle_atom_site_label_1
_geom_angle_atom_site_label_2
_geom_angle_atom_site_label_3
_geom_angle
C6A N1A C2A 113.0(3)
N3A C2A N1A 126.7(3)
N3A C2A N21A 117.0(3)
N1A C2A N21A 116.3(3)
C2A N21A H21A 112(2)
C2A N21A H22A 120(2)
H21A N21A H22A 128(3)
C2A N3A C4A 117.7(3)
N41A C4A N3A 117.6(3)
N41A C4A C5A 122.4(3)
N3A C4A C5A 120.0(3)
C4A N41A H41A 126(3)
C4A N41A H42A 123(3)
H41A N41A H42A 110(4)
C6A C5A C4A 116.3(3)
C6A C5A H5A 121.8
C4A C5A H5A 121.8
N1A C6A C5A 126.3(3)
N1A C6A H6A 116.9
C5A C6A H6A 116.9
C2X C1X H1XA 109.5
C2X C1X H1XB 109.5
H1XA C1X H1XB 109.5
C2X C1X H1XC 109.5
H1XA C1X H1XC 109.5
H1XB C1X H1XC 109.5
N3X' C1X H1XD 109.5
N3X' C1X H1XE 109.5
H1XD C1X H1XE 109.5
N3X' C1X H1XF 109.5
H1XD C1X H1XF 109.5
H1XE C1X H1XF 109.5
N3X C31X H3XA 109.5
N3X C31X H3XB 109.5
H3XA C31X H3XB 109.5
N3X C31X H3XC 109.5
H3XA C31X H3XC 109.5
H3XB C31X H3XC 109.5
C2X' C31X H3XD 109.5
C2X' C31X H3XE 109.5
H3XD C31X H3XE 109.5
C2X' C31X H3XF 109.5
H3XD C31X H3XF 109.5
H3XE C31X H3XF 109.5
N3X C32X H4XA 109.5
N3X C32X H4XB 109.5
H4XA C32X H4XB 109.5
N3X C32X H4XC 109.5
H4XA C32X H4XC 109.5
H4XB C32X H4XC 109.5
N3X' C32X H4XD 109.5
N3X' C32X H4XE 109.5
H4XD C32X H4XE 109.5
N3X' C32X H4XF 109.5
H4XD C32X H4XF 109.5
H4XE C32X H4XF 109.5
O21X C2X N3X 119.1(4)
O21X C2X C1X 124.1(4)
N3X C2X C1X 116.8(4)
C2X N3X C31X 117.6(3)
C2X N3X C32X 120.2(4)
C31X N3X C32X 122.0(3)
O21X C2X' N3X' 114.9(7)
O21X C2X' C31X 132.7(7)
N3X' C2X' C31X 112.4(6)
C2X' N3X' C32X 114.7(6)
C2X' N3X' C1X 110.8(6)
C32X N3X' C1X 134.5(7)
loop_
_geom_bond_atom_site_label_1
_geom_bond_atom_site_label_2
_geom_bond_distance
N1A C6A 1.342(4)
N1A C2A 1.353(4)
C2A N3A 1.341(4)
C2A N21A 1.355(4)
N21A H21A 0.898(19)
N21A H22A 0.901(19)
N3A C4A 1.342(4)
C4A N41A 1.328(5)
C4A C5A 1.413(5)
N41A H41A 0.875(19)
N41A H42A 0.876(19)
C5A C6A 1.348(5)
C5A H5A 0.9500
C6A H6A 0.9500
C1X N3X' 1.500(8)
C1X C2X 1.515(5)
C1X H1XA 0.9800
C1X H1XB 0.9800
C1X H1XC 0.9800
C1X H1XD 0.9800
C1X H1XE 0.9800
C1X H1XF 0.9800
O21X C2X 1.240(4)
O21X C2X' 1.296(8)
C31X N3X 1.451(5)
C31X C2X' 1.552(8)
C31X H3XA 0.9800
C31X H3XB 0.9800
C31X H3XC 0.9800
C31X H3XD 0.9800
C31X H3XE 0.9800
C31X H3XF 0.9800
C32X N3X 1.482(5)
C32X N3X' 1.495(7)
C32X H4XA 0.9800
C32X H4XB 0.9800
C32X H4XC 0.9800
C32X H4XD 0.9800
C32X H4XE 0.9800
C32X H4XF 0.9800
C2X N3X 1.328(5)
C2X' N3X' 1.346(9)
loop_
_geom_hbond_atom_site_label_D
_geom_hbond_atom_site_label_H
_geom_hbond_atom_site_label_A
_geom_hbond_site_symmetry_A
_geom_hbond_distance_DH
_geom_hbond_distance_HA
_geom_hbond_distance_DA
_geom_hbond_angle_DHA
N21A H21A O21X 2_576 0.898(19) 2.19(2) 3.048(4) 159(3)
N21A H22A N1A 2_675 0.901(19) 2.18(2) 3.082(4) 177(3)
N41A H41A N3A 2_576 0.875(19) 2.182(19) 3.055(4) 175(3)
N41A H42A O21X . 0.876(19) 2.08(3) 2.845(4) 145(3)
loop_
_geom_torsion_atom_site_label_1
_geom_torsion_atom_site_label_2
_geom_torsion_atom_site_label_3
_geom_torsion_atom_site_label_4
_geom_torsion
C6A N1A C2A N3A -1.5(5)
C6A N1A C2A N21A 178.9(3)
N1A C2A N3A C4A 1.4(5)
N21A C2A N3A C4A -179.0(3)
C2A N3A C4A N41A 178.2(3)
C2A N3A C4A C5A -0.5(5)
N41A C4A C5A C6A -178.8(3)
N3A C4A C5A C6A -0.1(5)
C2A N1A C6A C5A 0.8(5)
C4A C5A C6A N1A -0.1(6)
O21X C2X N3X C31X -1.0(6)
C1X C2X N3X C31X 178.2(4)
O21X C2X N3X C32X 174.2(4)
C1X C2X N3X C32X -6.5(6)
O21X C2X' N3X' C32X -175.0(11)
C31X C2X' N3X' C32X 3.2(18)
O21X C2X' N3X' C1X 3.9(19)
C31X C2X' N3X' C1X -177.8(10)

_cod_database_fobs_code 2020577
