#------------------------------------------------------------------------------
#$Date: 2017-08-05 08:54:07 +0300 (Sat, 05 Aug 2017) $
#$Revision: 199555 $
#$URL: file:///home/coder/svn-repositories/cod/cif/2/02/08/2020842.cif $
#------------------------------------------------------------------------------
#
# This file is available in the Crystallography Open Database (COD),
# http://www.crystallography.net/. The original data for this entry
# were provided by IUCr Journals, http://journals.iucr.org/.
#
# The file may be used within the scientific community so long as
# proper attribution is given to the journal article from which the
# data were obtained.
#
data_2020842
loop_
_publ_author_name
'Raffo, Pablo A.'
'Su\'arez, Sebasti\'an'
'Fantoni, Adolfo C.'
'Baggio, Ricardo'
'Cukiernik, Fabio D.'
_publ_section_title
;
 Polymorphism of a widely used building block for halogen-bonded
 assemblies: 1,3,5-trifluoro-2,4,6-triiodobenzene
;
_journal_coeditor_code           UK3135
_journal_issue                   9
_journal_name_full               'Acta Crystallographica Section C'
_journal_page_first
;
;
_journal_paper_doi               10.1107/S2053229617011007
_journal_volume                  73
_journal_year                    2017
_chemical_formula_iupac          'C6 F3 I3'
_chemical_formula_moiety         'C6 F3 I3'
_chemical_formula_sum            'C6 F3 I3'
_chemical_formula_weight         509.76
_chemical_name_systematic
;
1,3,5-Trifluoro-2,4,6-triiodobenzene
;
_space_group_crystal_system      monoclinic
_space_group_IT_number           14
_space_group_name_Hall           '-P 2ybc'
_space_group_name_H-M_alt        'P 1 21/c 1'
_symmetry_space_group_name_Hall  '-P 2ybc'
_symmetry_space_group_name_H-M   'P 1 21/c 1'
_audit_creation_method           SHELXL-2014/6
_cell_angle_alpha                90
_cell_angle_beta                 118.466(11)
_cell_angle_gamma                90
_cell_formula_units_Z            4
_cell_length_a                   9.3455(9)
_cell_length_b                   13.1854(10)
_cell_length_c                   9.2185(8)
_cell_measurement_reflns_used    1826
_cell_measurement_temperature    295(2)
_cell_measurement_theta_max      25.4890
_cell_measurement_theta_min      3.9930
_cell_volume                     998.61(18)
_computing_cell_refinement
;
CrysAlisPro (Oxford Diffraction, 2009)
;
_computing_data_collection
;
CrysAlisPro (Oxford Diffraction, 2009)
;
_computing_data_reduction
;
CrysAlisPro (Oxford Diffraction, 2009)
;
_computing_molecular_graphics
;
SHELXTL   (Sheldrick, 2008)
;
_computing_publication_material
;
SHELXL97, PLATON (Spek, 2009)
;
_computing_structure_refinement
;
SHELXL-2014 (Sheldrick, 2015)
;
_computing_structure_solution
;
SHELXS97 (Sheldrick, 2008)
;
_diffrn_ambient_temperature      295(2)
_diffrn_measured_fraction_theta_full 0.997
_diffrn_measured_fraction_theta_max 0.876
_diffrn_measurement_device       'four-circle diffractometer'
_diffrn_measurement_device_type
'CCD Oxford Diffraction Xcalibur, Eos, Gemini'
_diffrn_measurement_method       'thick slices'
_diffrn_radiation_type           MoK\a
_diffrn_radiation_wavelength     0.71073
_diffrn_reflns_av_R_equivalents  0.0745
_diffrn_reflns_limit_h_max       12
_diffrn_reflns_limit_h_min       -12
_diffrn_reflns_limit_k_max       17
_diffrn_reflns_limit_k_min       -17
_diffrn_reflns_limit_l_max       11
_diffrn_reflns_limit_l_min       -11
_diffrn_reflns_number            7952
_diffrn_reflns_theta_full        25.250
_diffrn_reflns_theta_max         29.335
_diffrn_reflns_theta_min         3.985
_exptl_absorpt_coefficient_mu    9.378
_exptl_absorpt_correction_T_max  0.42
_exptl_absorpt_correction_T_min  0.12
_exptl_absorpt_correction_type   multi-scan
_exptl_absorpt_process_details
;
CrysAlisPro (Oxford Diffraction, 2009)
;
_exptl_crystal_colour            light_brown
_exptl_crystal_density_diffrn    3.391
_exptl_crystal_description       plates
_exptl_crystal_F_000             888
_exptl_crystal_size_max          0.35
_exptl_crystal_size_mid          0.30
_exptl_crystal_size_min          0.12
_refine_diff_density_max         1.264
_refine_diff_density_min         -1.885
_refine_ls_extinction_method     none
_refine_ls_goodness_of_fit_ref   1.058
_refine_ls_hydrogen_treatment    undef
_refine_ls_matrix_type           full
_refine_ls_number_parameters     109
_refine_ls_number_reflns         2404
_refine_ls_number_restraints     0
_refine_ls_restrained_S_all      1.058
_refine_ls_R_factor_all          0.0868
_refine_ls_R_factor_gt           0.0538
_refine_ls_shift/su_max          0.000
_refine_ls_shift/su_mean         0.000
_refine_ls_structure_factor_coef Fsqd
_refine_ls_weighting_details
'w=1/[\s^2^(Fo^2^)+(0.0769P)^2^+0.0712P] where P=(Fo^2^+2Fc^2^)/3'
_refine_ls_weighting_scheme      calc
_refine_ls_wR_factor_gt          0.1320
_refine_ls_wR_factor_ref         0.1653
_reflns_number_gt                1610
_reflns_number_total             2404
_reflns_threshold_expression     'I > 2\s(I)'
_cod_data_source_file            uk3135sup1.cif
_cod_data_source_block           I
_cod_database_code               2020842
_shelx_space_group_comment
;
The symmetry employed for this shelxl refinement is uniquely defined
by the following loop, which should always be used as a source of
symmetry information in preference to the above space-group names.
They are only intended as comments.
;
_shelx_hkl_file
;
  -2   0   0 1643.49   64.68
  -3   0   0  604.45   45.73
   4   0   0    1.56    3.45
  -4   0   0    6.41    5.24
   5   0   0  791.06   49.28
  -5   0   0  725.33   57.93
   6   0   0   94.77   18.13
  -6   0   0   86.31   21.51
   6   0   0   64.85    6.63
   7   0   0   14.82    7.23
  -7   0   0   18.47   11.04
   8   0   0   61.15   15.31
  -8   0   0   60.30   19.51
  -9   0   0   -3.25    4.70
 -10   0   0  423.47   53.67
  -2  -1   0    7.81    3.25
   2  -1   0    8.39    2.87
  -2   1   0    4.95    2.83
  -3   1   0  469.21   39.73
   3  -1   0  366.29   23.55
  -3  -1   0  453.57   35.30
  -4   1   0 2024.53   95.70
   4  -1   0 1821.16   61.60
  -5   1   0  109.83   22.94
  -5  -1   0   89.54   19.66
   5  -1   0  111.98   16.94
  -6   1   0 1376.90   84.47
  -6  -1   0 1340.68   82.80
   6  -1   0 1472.16   65.77
   6   1   0 1482.98   74.85
  -7   1   0  560.98   55.35
  -7  -1   0  563.64   56.23
   7  -1   0  613.69   44.61
   7   1   0  588.88   48.67
   8   1   0    3.25    3.76
  -8   1   0   -5.14    5.59
  -8  -1   0    3.16    2.71
   8  -1   0    0.57    1.59
  -9   1   0   15.70   10.66
  -9  -1   0   19.99   11.44
 -10  -1   0   14.85   10.28
 -10   1   0    0.52    2.76
  -2  -2   0   73.91    9.37
  -2   2   0   69.69    5.90
  -2   2   0   66.44    8.45
  -3   2   0  763.41   38.85
  -3   2   0  818.79   31.54
   3  -2   0  850.51   27.40
  -4  -2   0   34.14   10.77
  -4   2   0   26.69    9.16
   4  -2   0   30.61    6.64
   5  -2   0  215.78   20.81
  -5  -2   0  226.05   30.76
  -5   2   0  244.40   34.73
   6  -2   0   27.20    8.33
  -6   2   0   32.34   13.85
  -6  -2   0   34.47   12.69
  -7  -2   0  173.87   31.30
   7  -2   0  168.24   21.44
  -7   2   0  159.46   29.43
   7   2   0  180.31   28.63
  -8   2   0   13.16    8.86
  -8  -2   0   16.85    9.93
   8   2   0   13.04    9.07
   9   2   0   15.57    9.50
  -9   2   0   30.21   13.15
  -9  -2   0   39.29   16.09
 -10  -2   0   -4.98    6.09
 -10   2   0    9.46    8.02
   0  -3   0    1.08    1.42
   0   3   0    0.55    1.27
  -1   3   0 2627.99   46.21
   1  -3   0 2648.41   40.25
  -1  -3   0 2572.13   43.44
  -2  -3   0   94.33   10.62
  -2   3   0  110.14    9.65
   2   3   0   77.53    4.92
  -2   3   0   94.72   10.02
  -3   3   0   37.81    7.79
  -3   3   0   44.95    5.86
  -3  -3   0   40.12    8.24
  -4   3   0 1007.09   50.58
  -4  -3   0 1053.53   54.63
   5  -3   0  134.80   14.53
  -5  -3   0  144.37   23.68
  -5   3   0  130.68   22.44
  -6  -3   0  322.85   39.63
  -6   3   0  343.70   43.83
   6  -3   0  303.94   24.47
   7  -3   0   83.39   14.09
  -7  -3   0   83.29   21.64
  -7   3   0  125.94   27.76
  -8  -3   0    4.22    5.29
  -8   3   0   12.54    8.59
  -9  -3   0   40.17   16.18
   9   3   0   41.56   15.60
  -9   3   0   65.69   20.04
  -9  -3   0   46.70   16.28
 -10  -3   0   -1.37    3.40
 -10  -3   0   23.36   12.23
 -10   3   0   14.15    9.60
   0  -4   0 8285.02   81.63
   0   4   0 8298.32   95.78
   1  -4   0  236.07   13.58
  -1   4   0  233.06   16.06
  -1   4   0  224.62   13.16
  -1  -4   0  204.95   13.60
  -2   4   0   33.93    5.46
  -2  -4   0   29.85    6.25
  -2   4   0   25.61    5.61
  -3   4   0  354.17   21.64
  -3   4   0  297.92   14.79
  -3  -4   0  370.54   26.32
  -3   4   0  298.81   21.83
   3   4   0  280.86   12.22
   4   4   0  210.41   14.37
  -4   4   0  175.72   11.33
  -4   4   0  182.56   20.29
  -4  -4   0  178.88   21.67
  -4   4   0  208.00   15.09
  -5  -4   0  262.49   29.99
  -5   4   0  268.89   29.75
   5   4   0  256.14   20.56
   6  -4   0   18.33    4.34
  -6  -4   0   25.22   10.36
  -7  -4   0   17.22    9.98
  -7   4   0   12.14    8.43
  -7  -4   0    9.08    6.32
   7   4   0   13.06    6.79
  -8  -4   0    4.49    5.85
   8   4   0   -4.20    5.11
  -8   4   0    7.26    5.97
  -9  -4   0   16.19    9.94
   9   4   0   23.98   10.63
  -9   4   0   21.27   11.67
 -10  -4   0  153.24   32.25
 -10   4   0  119.10   28.08
   0   5   0    1.16    1.93
   0  -5   0    0.59    0.58
   0   5   0    0.39    0.84
   1  -5   0  690.61   26.51
  -1  -5   0  607.10   25.80
  -1   5   0  663.20   31.30
  -1   5   0  644.94   24.79
  -2   5   0  177.99   13.49
  -2   5   0  153.07    7.75
  -2  -5   0  194.87   16.37
  -2   5   0  199.33   16.94
   2  -5   0  197.00   14.91
  -3  -5   0 1531.31   54.09
  -3   5   0 1590.10   46.29
  -3   5   0 1453.43   50.54
  -4  -5   0  318.30   28.52
  -4   5   0  270.60   24.49
  -4   5   0  290.21   16.98
   4   5   0  243.79   12.86
  -5   5   0   -0.03    0.89
  -5   5   0    0.29    1.19
  -5  -5   0    1.90    4.38
  -5   5   0    0.74    0.87
   5   5   0    4.77    2.40
  -6  -5   0  121.07   22.72
  -6   5   0  170.59   26.80
   6   5   0  139.87   15.61
  -7  -5   0  243.94   34.80
  -7   5   0  211.89   35.75
   7   5   0  137.12   17.79
  -8   5   0   89.28   25.29
  -8  -5   0  101.48   24.43
   9   5   0   36.46   16.39
  -9   5   0   69.28   21.94
  -9  -5   0   45.31   16.87
  10   5   0   49.99   17.61
   0   6   0   35.96    7.73
   0  -6   0   39.43    7.12
   0   6   0   45.95    7.44
  -1   6   0  228.47   19.78
  -1  -6   0  168.05   14.61
  -1   6   0  204.87   15.23
   1   6   0  177.40   15.39
   1  -6   0  193.36   15.53
  -2  -6   0   46.72    8.39
  -2   6   0   47.92    7.68
  -2  -6   0   30.72    3.27
  -2   6   0   44.80    8.90
   2  -6   0   55.11    8.67
  -2   6   0   39.11    4.93
  -3   6   0 1393.96   44.55
  -3   6   0 1391.82   52.18
  -3  -6   0 1518.56   54.83
  -4   6   0   51.25    7.27
  -4  -6   0   48.04   11.35
  -4   6   0   49.12   10.86
  -5   6   0  487.33   38.16
  -5   6   0  521.22   25.65
  -5  -6   0  569.12   44.26
   6   6   0   46.28    7.83
  -6  -6   0   63.28   17.40
  -6   6   0   63.36   15.87
  -7  -6   0  143.94   26.87
  -7   6   0  177.59   30.85
  -8   6   0   22.48   12.75
  -8  -6   0   24.77   11.96
   9   6   0   47.04   17.97
  -9   6   0   45.44   19.26
  -9  -6   0   28.86   13.39
  10   6   0   36.80   15.73
   0  -7   0    0.21    0.96
   0   7   0   -1.03    1.24
   0   7   0    1.35    2.60
   1  -7   0  859.08   35.31
  -1   7   0  796.21   32.96
  -1   7   0  862.52   41.96
  -1  -7   0  789.58   34.38
  -2   7   0  385.24   17.98
  -2   7   0  433.62   29.70
  -2   7   0  418.95   23.84
  -2  -7   0  417.78   26.73
   2  -7   0  422.61   25.25
  -3  -7   0   25.60    7.78
  -3   7   0   11.83    5.33
  -4   7   0   11.98    5.52
  -4  -7   0    8.68    5.86
  -4   7   0    6.80    3.09
  -5   7   0    0.52    0.85
  -5   7   0   -0.77    1.89
  -5  -7   0    1.04    4.46
  -6  -7   0    3.88    4.34
  -6   7   0    6.15    4.93
  -7  -7   0   -6.47    5.94
  -7   7   0   -0.66    2.09
  -8   7   0   26.26   14.33
  -8  -7   0   16.71   10.75
  -9  -7   0   86.51   24.00
  -9   7   0   51.74   20.74
  10   7   0    4.38    6.07
   0  -8   0   59.48   10.02
   0   8   0   38.43    9.86
  -1   8   0  101.68   15.74
  -1  -8   0   87.43   12.23
   1  -8   0  100.65   13.08
  -2  -8   0  467.94   29.92
   2  -8   0  525.11   29.97
  -2   8   0  517.40   34.71
  -2   8   0  436.53   21.54
  -3   8   0   31.64    3.85
  -3  -8   0   47.33   10.39
  -4   8   0  437.34   35.36
  -4  -8   0  455.27   36.18
  -5   8   0   90.77   17.30
  -5  -8   0  126.89   21.60
  -6   8   0   50.82   14.14
  -6  -8   0   53.77   15.49
  -7  -8   0   14.48    8.71
  -7   8   0   19.85   10.08
  -8  -8   0   38.72   15.63
  -8   8   0   34.64   15.36
  -9  -8   0   26.51   13.65
  -9   8   0   43.88   19.71
   0   9   0   -3.77    3.14
   0  -9   0   -0.15    2.54
   1  -9   0   27.56    7.65
  -1   9   0   22.16    8.28
  -1  -9   0   24.28    6.90
  -2   9   0  257.36   18.13
  -2   9   0  326.62   29.51
   2  -9   0  309.05   24.64
  -2  -9   0  287.47   24.52
  -3  -9   0  347.19   29.36
  -3   9   0  370.18   32.76
  -4  -9   0   -2.62    3.52
  -4   9   0    7.31    4.80
  -5   9   0    1.95    2.29
  -5  -9   0    2.43    3.94
  -6  -9   0   -2.85    3.91
  -6   9   0    0.28    1.58
  -7   9   0   78.52   20.66
  -7  -9   0  100.45   23.65
  -8  -9   0  101.23   25.62
  -8   9   0   90.27   24.99
   0  10   0  130.57   19.40
   0 -10   0  140.29   17.59
   1 -10   0   38.98    9.10
  -1  10   0   31.62    9.87
   1  10   0   34.65   10.05
  -1 -10   0   35.93    8.87
  -2 -10   0    0.86    2.62
  -2  10   0    1.57    0.66
  -2  10   0    1.49    1.18
  -3  10   0  194.95   25.23
  -3 -10   0  153.95   20.22
  -4  10   0    9.75    6.41
  -4 -10   0   10.93    5.49
  -5  10   0    2.52    1.83
  -5 -10   0   -2.70    3.83
  -6  10   0   -3.72    4.25
  -6 -10   0   -3.37    4.30
  -7 -10   0    0.37    2.22
  -7  10   0   -0.76    2.43
  -8 -10   0    9.38    8.10
  -8  10   0   23.79   12.77
   0 -11   0   -0.61    1.03
   0  11   0    1.56    1.78
   1 -11   0   15.59    5.77
  -1 -11   0   13.89    6.11
  -1  11   0   11.12    5.45
   1  11   0   12.12    6.01
  -2 -11   0  153.15   19.76
   2 -11   0  177.29   21.15
  -2  11   0  188.88   24.95
  -3  11   0    1.67    2.82
  -3 -11   0   12.57    5.62
  -4 -11   0  106.78   19.19
  -4  11   0   81.70   17.98
  -5 -11   0   13.67    7.36
  -5  11   0   23.07   10.12
  -6 -11   0   70.83   19.52
  -6  11   0   54.66   16.77
  -7  11   0    7.79    6.79
  -7 -11   0   20.80   10.69
   0  12   0   14.86    7.58
   0 -12   0   17.56    6.78
  -1 -12   0   11.24    5.28
   1 -12   0   19.39    6.85
   1  12   0    4.30    3.91
  -1  12   0   18.28    8.15
  -2 -12   0  131.33   19.47
   2 -12   0  164.74   20.96
  -2  12   0  179.05   25.58
   2  12   0  123.24   21.10
  -3 -12   0    3.24    3.89
  -3  12   0  -11.06    6.60
  -4 -12   0   67.97   15.98
  -4  12   0   69.87   17.60
  -5 -12   0   35.03   12.92
  -5  12   0   49.97   16.17
  -6  12   0   54.31   16.70
  -6 -12   0   58.49   17.13
  -7  12   0    2.62    4.50
  -7 -12   0    3.04    6.04
   0  13   0    2.78    3.82
   0 -13   0    2.59    2.76
   1 -13   0   61.05   12.94
  -1  13   0   65.84   16.20
   1  13   0   58.54   15.18
  -1 -13   0   54.02   12.75
   2 -13   0  106.18   17.59
  -2  13   0   86.51   18.48
   2  13   0   92.88   18.88
  -2 -13   0   70.01   15.00
  -3  13   0   -6.36    5.28
  -3 -13   0    7.93    5.30
  -4  13   0    0.18    1.48
  -4 -13   0    2.05    3.49
  -5  13   0    5.38    5.32
  -5 -13   0   -3.73    4.32
  -6 -13   0   14.76    9.10
  -6  13   0   -2.69    4.17
   0 -14   0   27.26    9.25
   0  14   0   35.00   12.13
  -1 -14   0    6.84    4.72
   1  14   0   -6.73    5.29
   1 -14   0    9.66    5.67
  -1  14   0    7.04    5.49
   2  14   0   -1.13    2.42
   2 -14   0    1.49    2.38
  -2  14   0   -3.63    4.06
  -3  14   0   -3.84    4.28
  -3 -14   0    1.80    5.30
   3  14   0    5.26    4.87
  -4  14   0   -3.01    4.11
  -4 -14   0    6.68    5.39
  -5 -14   0   25.91   10.81
  -5  14   0   39.84   14.84
   0 -15   0    2.81    3.38
   0  15   0   -3.57    4.07
  -1 -15   0   -3.19    3.49
  -1  15   0    0.46    1.82
   1 -15   0    6.61    5.40
   1  15   0    2.14    3.21
  -2 -15   0    4.39    4.08
  -2  15   0    8.19    7.58
   2  15   0   12.27    7.41
   2 -15   0    4.30    5.08
  -3  15   0    8.18    6.48
   3  15   0  -10.15    6.96
  -3 -15   0    3.98    4.00
  -4  15   0   -8.99    7.14
  -4 -15   0   10.85    7.03
  -5 -15   0   -2.51    3.94
   0  16   0    1.74    3.09
   0 -16   0   -1.97    2.80
  -1 -16   0    7.10    5.19
  -1  16   0   -6.00    5.49
   1 -16   0   -1.61    2.64
   1  16   0   -3.47    4.20
  -2  16   0    2.73    3.95
   2  16   0    1.09    2.56
  -2 -16   0    0.33    3.07
  -3  16   0    5.03    5.67
  -3 -16   0   -3.04    3.75
   3  16   0    3.54    3.07
  -4 -16   0   -0.22    1.70
   0 -17   0   -0.15    1.44
  -1 -17   0   19.41    8.52
  -2 -17   0    7.80    5.81
  -3 -17   0   -7.77    6.04
 -10   0   1   -2.88    4.59
  -9   0   1    6.40    6.37
   8   0  -1    3.32    1.69
  -8   0   1    6.35    6.08
  -7   0   1    4.09    4.75
   7   0  -1   -0.20    0.69
   7   0  -1    2.33    3.47
  -6   0   1    0.17    1.84
   6   0  -1   -4.77    3.74
  -5   0   1    0.36    2.33
  -4   0   1   -9.52    6.28
  -3   0   1    2.64    3.34
  -2   0   1    0.56    2.18
   1   0   1   -0.97    1.52
   1   0   1    0.52    0.64
  -1   0  -1   -2.10    1.73
   1   0   1    0.88    1.03
   2   0   1   -3.91    2.88
  -2   0  -1    1.11    2.51
  -3   0  -1   -5.47    4.44
   3   0   1   -0.43    1.03
  -4   0  -1    0.53    1.90
   4   0   1   -0.06    3.21
   5   0   1    3.82    2.81
  -5   0  -1   -1.02    3.69
  -6   0  -1    6.53    6.94
   6   0   1    1.22    2.41
   7   0   1   -9.40    6.35
  -7   0  -1   -8.29    7.03
  -8   0  -1  -11.57    8.56
   8   0   1    6.68    6.33
  -9   0  -1    3.50    5.07
 -11  -1   1   12.11   10.35
 -10   1   1   37.49   15.83
 -10  -1   1   29.66   14.05
  -9  -1   1   11.73    8.22
   9   1  -1    5.96    4.96
  -9   1   1   10.32   10.97
  -8  -1   1   62.03   18.63
   8  -1  -1  107.01   17.43
   8   1  -1   80.17   17.70
  -8   1   1   68.94   20.12
  -7  -1   1   74.54   20.03
  -7   1   1   64.89   19.06
   7  -1  -1   72.02   13.86
   6  -1  -1   15.16    4.05
  -6   1   1   24.16   10.72
  -6  -1   1   22.83   10.56
   6  -1  -1   18.38    6.57
   5  -1  -1 1080.10   36.24
  -5   1   1  958.51   68.61
  -5  -1   1 1044.47   67.21
  -4  -1   1  765.53   52.55
   4  -1  -1  762.03   30.13
   3  -1  -1 1494.01   39.81
  -3  -1   1 1745.24   68.29
  -2   1   1 1104.15   29.04
  -2  -1   1 1099.90   27.00
  -2   1   1 1056.72   30.77
   1  -1   1   65.39    5.74
  -1  -1  -1   60.60    6.97
   1   1   1   32.71    8.52
  -1   1  -1   62.07    5.27
   1  -1   1   62.96    7.41
  -1   1  -1   71.83    9.54
   1   1   1   63.50    6.36
  -2   1  -1 1119.63   40.10
   2  -1   1 1030.70   30.64
  -2  -1  -1 1121.33   45.15
   2  -1   1 1126.44   40.69
   2   1   1  924.46   50.26
  -2   1  -1  877.81   52.31
  -3   1  -1  218.26   22.45
  -3   1  -1  232.42   30.90
   3   1   1  270.42   29.73
   3  -1   1  179.61   19.86
  -3  -1  -1  217.11   25.09
   4  -1   1   60.13   12.92
  -4  -1  -1   52.71   13.97
  -4   1  -1  137.37   25.09
   4   1   1  138.10   22.51
  -5  -1  -1  190.92   30.21
  -5   1  -1  308.39   38.84
   5   1   1  264.96   32.63
   5  -1   1  233.49   27.63
  -6   1  -1  467.74   49.71
   6  -1   1  438.32   39.76
  -6  -1  -1  359.90   43.82
   6   1   1  484.73   45.41
  -7   1  -1   67.46   19.27
   7   1   1   66.46   17.03
   7  -1   1   95.16   19.20
  -7  -1  -1   72.65   20.73
   8  -1   1  473.94   43.99
   8   1   1  515.40   49.16
  -8   1  -1  479.71   54.12
  -8  -1  -1  452.42   53.84
  -9  -1  -1   15.64   10.64
  -9   1  -1   33.50   14.66
 -11  -2   1  124.16   28.65
 -10  -2   1    1.45    3.40
 -10   2   1    3.81    5.06
 -10  -2   1   -0.03    1.42
  -9  -2   1  684.40   67.04
  -9   2   1  583.14   59.60
   9   2  -1  683.97   55.19
  -9  -2   1  653.58   59.43
  -8   2   1  416.77   49.12
   8  -2  -1  457.07   32.27
  -8  -2   1  457.32   51.97
   8   2  -1  365.20   39.47
  -7   2   1   -2.46    3.90
   7  -2  -1    3.69    2.77
   6  -2  -1   53.76    9.58
  -6   2   1   31.90   13.19
  -6  -2   1   35.99   12.86
  -5  -2   1  183.53   26.50
   5  -2  -1  190.97   15.77
  -4  -2   1  352.64   26.49
   4  -2  -1  289.04   14.50
  -4   2   1  369.77   29.74
  -4  -2   1  359.67   32.28
  -3   2   1  133.55   13.82
  -3  -2   1  139.27   13.42
  -3  -2   1  148.06   16.73
  -3   2   1  145.53   10.89
  -2   2   1  176.20   12.09
  -2  -2   1  170.58   12.44
  -2  -2   1  192.93   12.34
  -1   2   1  291.51   12.60
  -1   2   1  322.14   14.33
   0   2  -1  723.41   17.74
   0   2   1  771.61   26.09
  -1   2  -1 3018.66   46.66
  -1  -2  -1 3093.95   39.59
   1   2   1 3046.06   43.17
  -1   2  -1 2990.03   31.25
   2   2   1 5382.06   69.40
   2  -2   1 5717.62   81.10
   2  -2   1 5094.84   53.93
  -2   2  -1 5431.21   93.98
  -2   2  -1 5037.29   73.47
   3  -2   1   38.89    8.02
  -3  -2  -1   49.32   10.89
  -3   2  -1   30.09    9.96
   3   2   1   36.80    7.59
   3  -2   1   23.90    8.02
   3  -2   1   36.65    5.96
  -3   2  -1   33.20    7.47
   4  -2   1  329.17   21.90
   4  -2   1  339.44   27.65
  -4   2  -1  354.69   40.82
  -4  -2  -1  414.01   37.96
   5  -2   1  168.95   18.10
   5  -2   1  225.28   24.89
  -5   2  -1  453.90   48.37
   5   2   1  505.89   47.18
  -5  -2  -1  253.29   33.69
  -6   2  -1  464.08   49.74
   6   2   1  485.04   47.64
  -6  -2  -1  329.77   41.48
   6  -2   1  315.76   26.63
   6  -2   1  378.45   34.88
   7  -2   1   19.27    8.14
  -7   2  -1   16.75    9.67
  -7  -2  -1   19.09   10.83
   7   2   1   22.33   10.24
   8   2   1   53.42   16.46
  -8   2  -1   54.78   18.25
  -8  -2  -1   34.07   14.52
  -9  -2  -1    8.83    7.89
  -9   2  -1    2.08    3.90
   9   2   1   -0.84    2.36
 -10  -3   1   10.19    7.99
 -10   3   1   21.89   11.84
 -10  -3   1   15.81   10.53
  -9  -3   1   21.54   11.88
  -9   3   1   14.64   10.30
  -9  -3   1   23.38   11.19
   9   3  -1   16.93    8.98
  -8  -3   1   10.92    7.85
  -8  -3   1   13.12    7.69
  -8   3   1   14.38    9.50
   7  -3  -1   11.02    3.96
  -7   3   1   22.03   11.62
  -7  -3   1   13.60    8.47
  -7  -3   1    6.46    2.68
  -6   3   1   97.88   20.62
  -6  -3   1   98.32   20.81
   6  -3  -1   98.71   10.41
  -6  -3   1  107.32   19.08
  -5   3   1  572.05   41.42
  -5  -3   1  632.72   40.91
  -5  -3   1  607.28   46.62
  -4   3   1 1033.92   45.64
  -4   3   1 1071.38   31.01
  -4  -3   1 1181.72   54.21
  -4  -3   1 1181.56   48.52
  -3   3   1  301.48   17.96
  -3  -3   1  288.01   19.71
  -3   3   1  265.27   19.05
   2  -3  -1 2241.00   35.99
  -2  -3   1 2086.92   45.54
  -2   3   1 2030.52   31.06
  -2   3   1 2239.17   46.98
  -1   3   1 3686.15   36.34
  -1   3   1 4009.60   60.24
   1  -3  -1 3998.74   39.54
  -1  -3   1 3712.89   54.62
  -1   3   1 3677.28   51.63
   0  -3  -1  217.82   10.78
   0  -3   1  252.17   14.11
   0   3  -1  244.04   13.17
   0   3   1  223.06   11.41
  -1  -3  -1  869.22   22.63
  -1   3  -1  804.47   25.98
   1  -3   1  842.86   27.64
  -2   3  -1   20.90    4.62
   2   3   1   28.38    4.90
   2  -3   1   34.83    6.81
  -2   3  -1   26.05    5.72
  -3   3  -1   76.74   12.80
   3  -3   1   55.71    5.60
   3  -3   1   76.18   12.64
   3   3   1   67.63    9.05
  -3   3  -1   64.18    9.29
  -4   3  -1   50.72   13.46
   4  -3   1   55.15    7.18
   4   3   1   55.71   10.06
   4  -3   1   68.92   11.73
  -4   3  -1   55.73   10.48
  -4  -3  -1   67.56   14.73
   5   3   1  352.37   29.59
  -5   3  -1  321.68   41.16
   5  -3   1  360.85   29.62
   5  -3   1  296.40   20.44
   6   3   1  152.25   27.47
  -6   3  -1  122.06   25.97
   6   3   1   36.96   10.75
  -6  -3  -1   51.96   16.46
   6  -3   1   70.81   14.24
   7   3   1   -1.45    2.42
   7  -3   1    9.48    5.47
   7   3   1    8.78    7.34
  -7  -3  -1    6.74    6.31
  -7   3  -1   -0.95    2.58
  -8  -3  -1  269.77   41.94
   8   3   1  340.55   42.75
  -8   3  -1  323.44   44.80
   8   3   1  263.51   33.20
   9   3   1  169.50   30.31
  -9  -3  -1  163.43   34.20
  -9   3  -1  169.99   32.79
 -10  -4   1    3.69    5.00
 -10   4   1   -0.04    0.90
  -9   4   1   -4.43    5.49
  -9  -4   1    2.41    4.17
  -9  -4   1   -7.50    6.48
  -8   4   1  198.02   36.60
  -8  -4   1  201.71   35.15
  -8  -4   1  152.06   28.65
  -7   4   1  140.78   27.44
  -7  -4   1  118.01   22.87
  -7  -4   1   92.56   22.26
  -6  -4   1  470.81   40.35
  -6   4   1  425.43   39.82
  -6  -4   1  400.86   40.79
  -5   4   1  566.84   38.59
  -5   4   1  595.98   23.77
  -4   4   1  550.52   32.58
  -4   4   1  590.00   25.83
   4  -4  -1  536.17   17.93
   3  -4  -1  335.68   14.36
  -3   4   1  313.52   21.56
  -3   4   1  352.09   17.42
  -3  -4   1  325.78   21.85
  -2   4   1  629.03   19.19
  -2   4   1  627.91   19.94
  -2   4   1  676.83   28.68
  -2  -4   1  592.67   25.96
   1  -4  -1  818.64   22.17
  -1   4   1  838.81   32.30
  -1  -4   1  782.42   28.11
  -1   4   1  768.81   20.58
  -1   4   1  756.28   26.83
   0  -4  -1  264.27   13.47
   0   4  -1  275.32   17.04
   0  -4   1  302.62   17.64
   0   4   1  259.28   13.70
  -1  -4  -1   35.57    5.01
  -1  -4  -1   36.22    6.28
   1  -4   1   32.79    5.99
   1  -4   1   32.67    5.83
  -1   4  -1   33.10    5.93
  -2  -4  -1  293.38   13.61
  -2   4  -1  261.62   16.68
  -2   4  -1  298.70   19.50
  -2  -4  -1  319.38   23.54
   2  -4   1  276.52   19.04
  -2   4  -1  245.96   18.05
   3   4   1  853.71   30.40
  -3   4  -1  738.91   30.44
  -3   4  -1  769.27   38.12
  -4   4  -1   69.19   14.40
   4   4   1   70.85   10.49
  -4   4  -1   75.07   11.25
   5   4   1  896.50   43.24
  -5   4  -1  909.36   47.14
  -5   4  -1  852.20   60.26
   6   4   1   31.81   12.89
   6   4   1   32.05    9.30
  -6   4  -1   26.67   12.18
   7   4   1  238.26   36.57
  -7   4  -1  215.64   36.61
   8   4   1   11.19    8.06
  -8   4  -1   12.59    8.80
  -9  -4  -1  103.57   26.35
  -9   4  -1   53.15   19.39
   9   4   1   88.49   22.52
 -10   5   1   53.99   19.91
  10   5  -1   74.74   21.31
 -10  -5   1   81.24   23.13
  -9  -5   1   25.08   12.54
  -9   5   1   27.90   14.48
  -8  -5   1   30.03   13.00
  -8   5   1   39.30   16.33
  -7  -5   1   57.66   15.46
  -7   5   1   74.61   18.80
   6  -5  -1    0.16    0.36
  -6   5   1    2.35    2.00
  -6  -5   1    0.83    2.39
  -5  -5   1   66.66   13.74
  -5   5   1   48.35    7.49
   5   5  -1   50.43    6.07
   5  -5  -1   27.20    3.51
  -5   5   1   53.17   12.00
  -4   5   1    7.00    3.89
   4  -5  -1    1.36    0.61
  -4   5   1    1.59    0.84
  -4   5   1    4.19    2.96
  -4  -5   1    6.09    3.63
  -3   5   1  584.70   31.76
  -3  -5   1  534.08   29.77
  -3   5   1  519.74   21.76
  -2   5   1   -0.89    0.85
  -2  -5   1    2.37    2.40
  -2   5   1    2.02    1.79
   2  -5  -1    3.23    1.48
  -2   5   1    2.55    1.06
  -1   5   1   75.05    7.47
   1  -5  -1   73.98    7.81
  -1  -5   1   63.98    8.82
  -1   5   1   79.63   11.14
  -1   5   1   74.56    9.38
   0   5  -1  413.13   23.19
   0   5   1  360.43   18.08
   0  -5  -1  350.77   17.49
   0  -5   1  380.30   21.83
   1  -5   1  489.78   24.90
   1  -5   1  448.07   23.77
  -1   5  -1  468.00   24.66
  -1  -5  -1  457.16   23.00
  -1   5  -1  461.30   23.62
  -2  -5  -1  356.60   14.78
  -2   5  -1  355.30   22.98
   2  -5   1  361.17   22.95
  -2   5  -1  393.29   22.91
  -2  -5  -1  399.86   26.13
  -3   5  -1  611.22   27.94
  -3   5  -1  604.18   33.71
  -4  -5  -1   11.80    6.27
  -4   5  -1   12.65    4.43
  -4   5  -1   11.53    5.36
   4   5   1   15.32    4.50
  -5   5  -1    2.53    2.30
  -5   5  -1    6.26    4.83
   5   5   1    5.71    3.33
  -5  -5  -1    0.18    3.61
   6   5   1    4.44    3.40
  -6   5  -1    4.82    5.22
  -6  -5  -1   -5.44    5.33
  -7  -5  -1   58.60   17.92
   7   5   1   26.34   12.57
  -7   5  -1   30.33   14.73
  -8   5  -1   10.30    8.29
   8   5   1   23.66   11.97
  -8  -5  -1    7.94    7.17
   9   5   1    2.47    4.34
  -9  -5  -1   -4.09    5.46
  -9   5  -1    8.83    8.90
 -10   6   1   11.24    9.52
 -10  -6   1   16.01   10.46
  -9   6   1   41.72   18.11
  -9  -6   1   49.29   17.20
  -8  -6   1   56.81   17.33
  -8   6   1   70.20   20.96
  -7  -6   1   70.30   17.83
  -7   6   1   78.98   19.17
  -6   6   1   24.27    8.73
  -6  -6   1   23.82    9.76
  -6   6   1   23.00    5.23
   6   6  -1   17.33    3.32
  -5  -6   1  154.33   21.06
  -5   6   1  137.91   14.69
  -5   6   1  137.89   19.50
  -5   6   1   97.50    7.71
  -4   6   1   20.92    5.19
  -4   6   1   24.11    7.29
  -4  -6   1   22.86    6.93
  -4   6   1   19.64    3.59
  -3   6   1  378.81   27.12
  -3  -6   1  379.40   26.02
  -3   6   1  386.71   20.26
  -2  -6   1  492.61   13.18
  -2   6   1  584.13   32.51
  -2   6   1  569.05   23.16
   2  -6  -1  600.53   24.84
  -2   6   1  542.80   22.95
  -2  -6   1  511.84   27.85
  -1   6   1  113.39   12.83
  -1   6   1  108.99   10.22
  -1   6   1  106.31   13.90
   1  -6  -1  112.58   10.93
  -1  -6   1  105.01   12.29
   0   6   1  373.75   20.30
   0   6  -1  415.06   25.70
   0  -6  -1  372.39   19.95
   0  -6   1  398.97   24.38
   0   6  -1  399.82   23.47
   1  -6   1  324.52   22.40
   1   6   1  321.06   21.26
  -1   6  -1  316.42   22.30
  -1   6  -1  303.91   20.42
   1  -6   1  313.60   21.96
  -1  -6  -1  314.00   20.16
  -2  -6  -1  264.47   13.62
  -2  -6  -1  295.77   22.80
  -2   6  -1  273.29   21.75
  -3   6  -1  191.76   16.54
  -3  -6  -1  218.73   23.11
  -3   6  -1  200.64   20.56
  -4  -6  -1    0.14    1.28
  -4   6  -1    1.95    1.79
  -4   6  -1    1.02    1.36
  -5  -6  -1  295.88   34.84
  -5   6  -1  315.16   24.42
   5   6   1  327.38   22.63
  -5   6  -1  304.92   32.83
  -6   6  -1  215.48   32.15
   6   6   1  250.22   22.90
  -7   6  -1   -0.78    2.72
  -7  -6  -1    3.64    4.66
  -8  -6  -1    7.58    5.21
  -8   6  -1   -4.79    5.99
   8   6   1    8.05    7.39
   9   6   1    7.64    7.33
  -9   6  -1    7.67    7.46
  -9  -6  -1   10.97    8.81
  10   6   1   40.30   16.62
  -9  -7   1   -2.58    4.13
  -9   7   1   10.18    9.07
  -8  -7   1   69.39   19.56
  -8   7   1   84.52   22.10
  -7  -7   1   29.78   11.53
  -7   7   1   36.03   12.78
  -6  -7   1  522.63   44.30
  -6   7   1  456.15   40.12
  -5   7   1   59.84   13.58
  -5   7   1   52.47    5.95
  -5  -7   1   67.74   13.94
  -4  -7   1   86.73   14.79
  -4   7   1   78.66   10.61
  -4   7   1   98.91   15.83
  -3   7   1   21.69    6.98
  -3  -7   1   19.65    6.43
  -3   7   1   18.22    3.77
  -3   7   1   23.96    5.32
   2  -7  -1  580.04   26.64
  -2   7   1  572.21   34.91
  -2   7   1  557.18   25.00
  -2   7   1  547.21   25.40
  -2  -7   1  533.73   30.32
  -1   7   1 2691.35   55.76
  -1   7   1 2784.20   76.30
  -1   7   1 2673.48   67.57
   1  -7  -1 2725.13   59.18
  -1  -7   1 2620.70   65.36
   0   7  -1   25.98    7.07
   0  -7   1   28.28    6.97
   0   7   1   16.96    5.58
   0   7   1   31.47    6.81
   0  -7  -1   43.31    7.82
  -1  -7  -1  343.75   22.54
  -1   7  -1  384.88   26.93
   1  -7   1  377.05   25.43
  -2  -7  -1   68.56   11.50
  -2  -7  -1   58.10    6.92
   2  -7   1   46.84    9.56
  -2   7  -1   53.27   10.43
  -3   7  -1    3.80    3.14
  -3  -7  -1   -0.56    1.90
  -4   7  -1  417.50   26.41
  -4   7  -1  443.96   34.60
  -4  -7  -1  495.49   39.86
  -5  -7  -1  137.65   23.45
  -5   7  -1  155.07   22.90
  -6  -7  -1    3.83    3.72
  -6   7  -1    9.13    6.42
  -7  -7  -1    6.97    6.46
  -7   7  -1    8.85    5.75
  -8  -7  -1   16.68   10.45
  -8   7  -1   58.55   23.32
   8   7   1   54.88   19.80
   9   7   1  134.12   31.37
  -9   7  -1  102.02   29.11
  -9  -8   1    9.99    8.18
  -9   8   1   23.03   13.33
  -8  -8   1  140.66   27.99
  -8   8   1  121.34   26.63
  -7   8   1   20.15    9.68
  -7  -8   1   28.80   12.26
  -6   8   1  131.96   22.38
  -6  -8   1  163.26   25.22
  -5   8   1  228.35   27.02
  -5  -8   1  262.39   28.95
  -4  -8   1   76.21   14.22
  -4   8   1   85.80   15.75
  -3   8   1   50.33    7.05
  -3   8   1   53.83    8.71
  -3  -8   1   62.99   11.84
  -3   8   1   58.81   12.18
  -2   8   1  109.89   16.42
   2  -8  -1  125.47   13.33
  -2   8   1  119.00   12.84
  -2  -8   1  131.28   15.85
  -2   8   1  119.54   12.52
  -1   8   1  432.16   32.07
  -1  -8   1  424.21   27.88
  -1   8   1  424.83   28.78
   1  -8  -1  430.27   25.40
   1   8  -1  429.59   29.98
  -1   8   1  456.81   25.06
   0   8   1   38.14    9.36
   0   8  -1   36.15    9.06
   0  -8   1   41.93    8.68
   0  -8  -1   39.71    7.83
  -1   8  -1   13.06    5.67
   1  -8   1   16.28    5.93
  -1  -8  -1   12.11    5.12
  -2  -8  -1  362.48   27.01
   2  -8   1  338.93   26.90
  -2  -8  -1  366.96   18.42
  -2   8  -1  358.63   28.45
  -3  -8  -1  266.58   26.15
  -3   8  -1  267.64   26.37
  -4   8  -1   54.21   12.77
  -4  -8  -1   57.75   13.83
  -5  -8  -1  381.18   39.96
  -5   8  -1  339.19   34.85
  -6  -8  -1   -4.00    4.71
  -6   8  -1    2.66    3.67
  -7   8  -1   28.26   13.07
  -7  -8  -1   11.78    7.46
  -8   8  -1    0.19    2.33
   8   8   1   -4.92    6.45
  -8  -8  -1   -9.01    7.82
   9   8   1    1.40    6.17
  -9   9   1   27.90   14.66
  -9  -9   1    7.06    6.39
  -8  -9   1    1.39    3.20
  -8   9   1    7.03    6.58
  -7   9   1  184.82   29.76
  -7  -9   1  186.17   31.04
  -6   9   1   59.89   15.45
  -6  -9   1   44.67   13.33
  -5   9   1  107.82   19.51
  -5  -9   1  105.91   18.64
  -4  -9   1   92.75   16.02
  -4   9   1   98.22   17.63
  -3   9   1   31.33    9.80
  -3   9   1   26.03    5.61
  -3  -9   1   30.53    8.54
   3  -9  -1   23.92    6.89
  -2   9   1   56.94    9.55
  -2   9   1   74.03   14.38
  -2  -9   1   56.50   10.83
   2  -9  -1   71.14   10.89
  -1   9   1   20.89    8.25
  -1  -9   1   11.70    4.24
   1  -9  -1   25.92    7.01
   1   9  -1   10.56    5.66
   0  -9   1   79.27   12.89
   0  -9  -1   84.80   12.10
   0   9  -1   81.91   14.51
   0   9   1   77.74   14.09
  -1   9  -1   46.69   10.78
  -1  -9  -1   41.23    8.61
   1  -9   1   51.85   10.85
  -2  -9  -1    5.44    2.40
   2  -9   1    9.35    5.23
  -2  -9  -1    6.60    4.58
  -2   9  -1    4.13    2.56
  -3   9  -1  162.86   21.77
  -3  -9  -1  163.53   21.11
  -4  -9  -1  297.45   31.83
  -4   9  -1  255.69   28.69
  -5   9  -1    5.93    4.49
  -5  -9  -1    6.44    7.09
  -6  -9  -1  134.63   26.55
  -6   9  -1  123.25   24.02
  -7   9  -1    6.48    6.24
  -7  -9  -1   28.95   13.25
  -8   9  -1    8.38    8.33
  -8  -9  -1   17.33   11.11
  -8 -10   1   19.56   11.01
  -8  10   1    3.82    5.10
  -7  10   1   76.35   19.55
  -7 -10   1   73.35   19.56
  -6 -10   1   -1.00    3.94
  -6  10   1   -3.52    4.04
  -5  10   1   31.26   11.07
  -5 -10   1   37.65   11.96
  -4  10   1   24.96    9.80
  -4 -10   1   14.58    6.52
  -3  10   1  314.27   31.63
  -3 -10   1  297.73   27.86
  -3  10   1  252.35   18.45
   3 -10  -1  319.46   25.01
  -2 -10   1  509.29   34.91
   2 -10  -1  536.08   31.72
  -2  10   1  537.76   41.17
  -1  10   1  235.77   26.44
   1 -10  -1  274.96   23.17
   1  10  -1  229.55   24.96
  -1 -10   1  238.00   23.35
   0 -10   1  596.35   37.49
   0  10  -1  559.05   39.45
   0  10   1  504.77   38.04
   0 -10  -1  531.39   31.89
  -1  10  -1   -0.15    2.41
  -1 -10  -1    3.68    3.41
   1 -10   1    5.86    4.62
  -2 -10  -1   28.84    5.96
  -2 -10  -1   24.00    7.64
  -2  10  -1   23.52    8.45
   2 -10   1   40.06   10.37
  -3 -10  -1  190.07   23.49
  -3  10  -1  178.18   24.25
  -4 -10  -1   39.62   11.91
  -4  10  -1   28.32    9.93
  -5  10  -1   61.49   16.03
  -5 -10  -1   52.54   15.25
  -6  10  -1   71.08   18.73
  -6 -10  -1   52.11   16.95
  -7  10  -1   19.28   10.84
  -7 -10  -1    9.22    5.91
  -8  10  -1   30.28   21.38
  -8 -11   1   10.36    8.33
  -8  11   1    5.47    6.09
  -7 -11   1   66.39   19.43
  -7  11   1   63.53   18.87
  -6  11   1  188.31   29.90
  -6 -11   1  165.34   27.64
  -5 -11   1    4.06    2.04
  -5  11   1   17.52    8.14
  -4 -11   1    4.22    3.83
  -4  11   1    2.89    2.44
   3 -11  -1   -0.06    1.82
  -3 -11   1   -3.46    3.27
   2 -11  -1   23.97    7.18
   2  11  -1   18.64    7.51
  -2  11   1   13.78    6.58
  -2 -11   1    4.73    3.64
   1 -11  -1  300.77   25.42
  -1 -11   1  286.33   27.09
   1  11  -1  279.77   28.77
  -1  11   1  296.68   31.26
   0 -11  -1   45.39    9.97
   0 -11   1   44.47   11.11
   0  11   1   42.88   11.64
   0  11  -1   56.59   13.63
   1 -11   1   14.56    6.24
  -1 -11  -1    9.49    4.67
   1  11   1    0.33    2.16
  -1  11  -1    6.99    4.51
   2 -11   1    5.79    4.60
  -2  11  -1   -0.39    2.69
  -2 -11  -1   -0.28    2.75
  -3  11  -1  117.76   20.88
  -3 -11  -1  119.97   19.15
  -4  11  -1  187.62   27.18
  -4 -11  -1  155.12   24.26
  -5 -11  -1   10.28    8.54
  -5  11  -1    0.01    4.78
  -6  11  -1   25.02   11.31
  -6 -11  -1   25.01   11.67
  -7 -11  -1    8.95    7.79
  -7  11  -1    5.93    6.32
  -7 -12   1   10.68    7.92
  -7  12   1   -8.29    7.10
  -6  12   1  -12.08    7.93
  -6 -12   1   -1.55    5.18
  -5  12   1    2.68    3.72
  -5 -12   1   -3.15    3.79
  -4  12   1   22.43    9.74
  -4 -12   1   26.62    9.46
  -3 -12   1   20.96    7.98
   3 -12  -1   14.60    6.16
  -3  12   1   13.46    8.14
   2 -12  -1   -1.38    2.01
  -2 -12   1   -1.77    3.12
   2  12  -1   -5.22    4.20
  -2  12   1    0.01    2.52
  -1 -12   1   42.35   10.88
   1 -12  -1   27.81    8.03
  -1  12   1   41.23   12.13
   1  12  -1   34.05   10.88
   0 -12  -1    1.19    2.49
   0  12   1    2.43    3.88
   0 -12   1    1.62    2.69
   0  12  -1    1.58    3.73
  -1 -12  -1   37.59    9.87
  -1  12  -1   55.72   13.76
   1  12   1   41.51   12.03
   1 -12   1   51.38   12.37
   2 -12   1   91.18   17.18
  -2 -12  -1   77.05   14.88
  -2  12  -1   73.17   16.47
  -3  12  -1    6.51    4.30
  -3 -12  -1    0.35    3.95
  -4  12  -1    5.17    4.42
  -4 -12  -1    6.52    5.22
  -5 -12  -1    3.64    5.97
  -5  12  -1   -0.19    1.34
  -6  12  -1    2.10    3.72
  -6 -12  -1    3.09    4.58
  -7  12  -1   26.66   13.28
  -6 -13   1    3.98    4.71
  -6  13   1   13.58    7.97
  -5  13   1   81.73   20.53
  -5 -13   1   40.08   13.47
  -4 -13   1   20.26    8.18
  -4  13   1   10.59    6.72
   3 -13  -1   35.08   10.06
  -3 -13   1   51.77   13.19
  -3  13   1   35.01   12.81
  -2 -13   1    5.22    3.49
   2  13  -1    7.73    5.82
  -2  13   1    2.60    1.91
   2 -13  -1    5.03    3.96
   1  13  -1   25.51   10.15
  -1  13   1   35.90   12.40
   1 -13  -1   18.75    7.22
  -1 -13   1   19.94    8.64
   0  13   1    1.60    2.61
   0 -13   1    2.06    2.69
   0 -13  -1   -4.40    3.49
   0  13  -1   -2.28    3.08
   1  13   1    0.78    2.05
   1 -13   1    3.04    4.51
  -1 -13  -1    3.20    3.13
  -1  13  -1    1.58    3.22
   2 -13   1   29.56   10.21
  -2 -13  -1   31.75    9.96
  -2  13  -1   27.85   10.78
   2  13   1   13.08    6.96
  -3  13  -1   -1.77    3.03
  -3 -13  -1    1.27    2.37
  -4  13  -1   87.43   20.56
  -4 -13  -1   63.20   16.03
  -5 -13  -1   -0.09    4.44
  -5  13  -1   -4.63    4.98
  -6  13  -1   22.29   11.51
  -6 -13  -1   39.26   15.67
  -6 -14   1    8.24    6.56
  -6  14   1   -9.10    7.54
  -5 -14   1    1.79    3.38
  -5  14   1    9.41    7.19
  -4 -14   1   28.24   10.92
  -4  14   1   35.15   13.41
  -3  14   1   70.25   18.20
  -3 -14   1   50.71   13.95
   3  14  -1   40.28   12.98
   3 -14  -1   56.91   12.74
   2 -14  -1   41.38   11.28
  -2 -14   1   40.48   12.82
  -2  14   1   30.45   11.71
   2  14  -1   34.41   12.12
   1 -14  -1   48.06   11.82
  -1 -14   1   39.45   11.79
  -1  14   1   38.12   12.66
   1  14  -1   34.65   11.77
   0 -14  -1   44.50   11.61
   0  14  -1   55.18   14.95
   0  14   1   63.80   16.47
   0 -14   1   51.19   13.12
  -1 -14  -1   -2.37    2.82
  -1  14  -1   -0.72    2.09
   1  14   1    2.80    3.60
   1 -14   1    2.55    1.95
   2 -14   1    9.34    6.30
  -2 -14  -1    2.29    2.95
  -2  14  -1    4.20    4.31
  -3  14  -1   15.87    9.82
  -3 -14  -1   11.10    6.42
  -4 -14  -1    0.13    1.60
  -4  14  -1    6.00    5.41
  -5 -14  -1   -8.67    6.80
  -5  14  -1   -9.00    7.16
  -5 -15   1    0.36    2.07
  -4 -15   1   -7.40    5.75
   4  15  -1   -2.33    3.56
  -4  15   1    0.30    1.93
  -3  15   1    8.53    6.56
   3  15  -1    8.04    6.15
  -3 -15   1    9.84    7.65
   2  15  -1   -1.04    2.41
  -2 -15   1    3.76    3.89
  -1  15   1   14.90    8.24
  -1 -15   1   12.10    6.88
   1  15  -1    8.31    6.89
   1 -15  -1    6.76    4.53
   0 -15   1   39.79   11.93
   0 -15  -1   46.80   12.37
   0  15   1   23.31   10.23
   0  15  -1   42.81   13.80
   1  15   1   28.49   11.88
   1 -15   1   38.19   11.62
  -1  15  -1   34.87   13.01
  -1 -15  -1   30.26   10.17
  -2  15  -1    0.90    4.73
   2  15   1    9.18    6.62
  -2 -15  -1    9.43    6.38
   2 -15   1   12.00    6.83
  -3 -15  -1   51.80   14.37
  -3  15  -1   57.14   17.08
   3  15   1   45.54   14.59
  -4 -15  -1   22.07    9.75
  -4  15  -1   12.99    8.68
  -4 -16   1   10.30    7.01
   3  16  -1   13.97    9.21
  -3 -16   1   13.41    7.61
  -3  16   1   20.44   11.25
   2  16  -1    6.37    5.54
  -2 -16   1    3.41    3.85
  -2  16   1   -9.34    6.90
  -1  16   1   -8.01    6.36
  -1 -16   1    0.79    2.08
   0  16  -1    0.98    2.49
   0  16   1   12.14    7.69
   0 -16  -1    4.90    4.63
   0 -16   1    4.06    4.54
   1 -16   1   10.83    6.06
   1  16   1   17.98    9.36
  -1 -16  -1    9.58    6.15
  -1  16  -1    9.82    6.85
  -2 -16  -1   -3.84    4.01
   2 -16   1    6.44    5.19
   2  16   1   -5.94    5.57
  -2  16  -1   -4.73    4.94
  -3 -16  -1   -0.40    1.75
  -3  16  -1    2.72    1.74
  -4 -16  -1   13.32    6.91
  -2 -17   1    2.20    3.37
  -1 -17   1   -0.44    1.66
   0  17  -1    1.19    2.69
   0 -17   1    3.53    3.94
   1 -17   1    1.54    2.85
  -2 -17  -1   -0.92    2.27
  -3 -17  -1   15.45    8.42
 -11   0   2   31.74   13.55
 -11   0   2   31.16   13.30
 -10   0   2   84.39   20.76
 -10   0   2   54.02   18.45
  -9   0   2  614.01   60.07
   8   0  -2  314.45   30.58
  -8   0   2  378.40   45.86
   8   0  -2  301.93   24.53
  -7   0   2 1922.11  100.26
   7   0  -2 1897.40   64.95
  -6   0   2  382.10   42.76
  -5   0   2  112.61   22.68
  -4   0   2  109.10   11.79
  -4   0   2   96.65   19.76
  -3   0   2 2962.15   88.40
  -3   0   2 3186.59   47.84
  -2   0   2 1315.37   23.75
   2   0  -2 1282.77   23.73
  -1   0   2  661.77   16.42
  -1   0   2  644.81   22.54
   0   0   2  427.26   15.33
   0   0   2  363.37   18.61
   0   0   2  442.68   23.35
   0   0   2  382.54   18.67
  -1   0  -2 3015.57   56.16
   1   0   2 3404.33   81.92
   1   0   2 3422.60   81.83
   1   0   2 3044.99   61.30
  -1   0  -2 3413.87   66.42
   1   0   2 3272.10   61.84
   2   0   2    1.59    1.44
  -2   0  -2    0.09    0.70
  -2   0  -2    1.19    1.04
   2   0   2   -2.04    2.87
   2   0   2    3.45    2.54
   2   0   2    2.35    1.94
   2   0   2    0.77    0.98
   3   0   2 3034.95   80.20
   3   0   2 3011.17   57.93
   4   0   2 1061.76   64.37
  -4   0  -2 1058.64   67.88
  -5   0  -2  332.02   40.70
   5   0   2  312.45   36.73
   6   0   2    7.44    5.99
  -6   0  -2   20.32    9.63
  -7   0  -2  424.51   51.01
   7   0   2  498.06   49.29
  -8   0  -2  195.68   36.11
   8   0   2  190.75   30.91
   9   0   2   14.63    9.12
  -9   0  -2    2.53    4.44
 -12   1   2   -1.28    3.12
 -11  -1   2   58.30   19.29
 -11  -1   2   31.65   14.83
 -11   1   2   36.45   15.59
 -11   1   2   68.01   17.90
 -10   1   2  121.54   27.92
 -10  -1   2  148.45   31.29
 -10  -1   2  151.56   28.26
  -9  -1   2  142.52   26.61
  -9  -1   2  178.03   33.17
   9   1  -2  191.86   26.49
  -9   1   2  240.45   37.90
  -8   1   2   -2.39    3.85
  -8  -1   2    0.02    4.60
  -8  -1   2   -4.00    4.17
   8  -1  -2    5.45    3.62
  -7   1   2  234.06   36.13
   7  -1  -2  295.83   25.34
   7  -1  -2  237.01   21.18
  -7  -1   2  234.19   35.11
  -6  -1   2   33.27   12.14
  -6   1   2   29.56   12.10
  -6  -1   2   21.36    6.63
   6  -1  -2   32.20    8.02
  -5   1   2  192.10   28.78
  -5  -1   2  247.90   22.07
  -5  -1   2  296.99   34.99
   5  -1  -2  269.65   23.77
  -4  -1   2  266.88   18.98
  -4  -1   2  242.61   28.51
  -4   1   2  271.44   26.40
  -3   1   2 2508.57   39.34
  -3  -1   2 2417.83   45.63
   3   1  -2 2516.16   90.27
   3   1  -2 2338.48   44.38
  -3   1   2 2552.17   58.36
  -2   1   2  323.38   20.67
  -2   1   2  278.01   13.40
  -2  -1   2  294.98   13.49
  -2  -1   2  329.87   18.28
   2  -1  -2  257.18    7.95
   2  -1  -2  315.54   14.55
  -1   1   2 1441.98   44.02
  -1   1   2 1277.20   32.91
  -1   1   2 1426.29   25.22
   1  -1  -2 1323.61   19.69
  -1  -1   2 1328.75   31.77
  -1   1   2 1311.88   35.51
  -1  -1   2 1372.04   27.99
   0  -1   2 1266.60   37.32
   0   1   2 1416.87   49.07
   0   1   2 1302.38   37.71
   0   1   2 1322.27   42.90
   0  -1   2 1324.33   23.71
   0  -1   2 1213.12   33.53
   0   1   2 1206.33   33.38
   1   1   2 1086.56   34.13
   1   1   2 1097.76   35.81
   1  -1   2 1162.88   42.39
   1  -1   2 1075.78   32.56
   1   1   2 1114.92   52.89
   1   1   2  972.15   38.31
   1  -1   2 1170.29   41.05
   1  -1   2  962.97   39.59
  -1   1  -2 1053.53   30.10
   1   1   2 1178.13   41.47
  -1   1  -2 1077.20   50.33
  -1   1  -2 1158.22   30.93
   2   1   2   39.73    7.84
   2   1   2   28.41    9.77
   2  -1   2   39.39    9.38
   2   1   2   47.92    9.57
  -2   1  -2   49.76   12.86
  -2  -1  -2   53.89   10.15
   2   1   2   54.25   10.90
   2  -1   2   46.85    7.81
  -2   1  -2   46.19    9.51
   2  -1   2   32.73    9.56
  -3   1  -2  723.79   44.63
   3  -1   2  708.47   35.56
  -3  -1  -2  707.06   46.23
   3  -1   2  610.80   41.48
   3   1   2  598.39   38.09
   3   1   2  715.40   39.96
   3   1   2  644.94   49.74
   4   1   2  257.22   27.48
   4   1   2  391.01   23.62
   4   1   2  398.84   41.17
  -4  -1  -2  224.46   30.02
   4  -1   2  280.52   25.01
  -4   1  -2  421.88   44.07
   4  -1   2  215.25   27.07
   5  -1   2   45.56   13.16
   5   1   2   14.91    7.30
  -5   1  -2   44.02   14.77
   5   1   2   48.64   15.29
  -5  -1  -2   33.27   12.57
   5   1   2   45.80    7.44
   6  -1   2   21.57    9.49
   6   1   2   24.04   11.26
  -6   1  -2   22.58   11.81
   6   1   2   15.67    6.13
  -6  -1  -2   16.04    9.47
  -7  -1  -2  196.52   34.98
  -7   1  -2  220.43   36.04
   7   1   2  170.17   28.51
   7   1   2  256.79   36.66
   7  -1   2  231.19   32.46
   8  -1   2   76.13   18.67
  -8   1  -2   78.96   22.37
   8   1   2   73.18   19.56
   8   1   2   82.02   20.32
  -8  -1  -2   54.19   18.82
   9   1   2   55.91   18.19
  -9   1  -2   45.48   17.55
  -9  -1  -2   52.65   19.82
  10  -1   2   76.20   21.61
 -12   2   2   23.71   11.85
 -11   2   2    0.02    1.84
 -11  -2   2    3.77    5.29
 -10   2   2    1.82    3.72
 -10  -2   2    0.19    1.70
 -10  -2   2    9.56    8.11
  -9  -2   2    3.10    4.11
  -9   2   2   -3.54    4.74
  -9  -2   2   -3.10    4.65
  -8  -2   2   29.05   10.78
   8  -2  -2   63.52   10.22
  -8   2   2   72.17   20.25
  -8  -2   2   75.80   20.61
   7  -2  -2    0.62    1.05
  -7  -2   2   -1.19    2.31
  -7   2   2    1.66    6.56
  -7  -2   2   -1.21    2.84
   6  -2  -2  501.99   23.70
  -6  -2   2  358.41   40.58
  -6  -2   2  422.22   34.58
  -6   2   2  425.30   44.34
  -5   2   2    4.12    3.99
   5  -2  -2    0.36    0.58
  -5  -2   2    1.89    2.56
  -5  -2   2   -3.92    3.86
   5  -2  -2   -1.45    1.83
  -4  -2   2  890.12   35.71
  -4   2   2  824.37   38.93
  -4  -2   2  925.23   48.96
   4   2  -2  884.19   58.21
  -3   2   2   69.99    9.02
  -3  -2   2   66.83    8.28
  -3  -2   2   75.50   10.75
   3   2  -2   83.09   12.86
  -3   2   2   69.21    9.63
  -2   2   2  421.61   16.18
  -2   2   2  470.02   25.79
  -2  -2   2  433.38   19.05
  -2   2   2  394.51   17.56
   2   2  -2  437.48   19.11
   2   2  -2  395.37   16.35
   2  -2  -2  415.98   22.59
  -1  -2   2    2.07    1.38
  -1   2   2    2.05    2.07
  -1  -2   2    3.12    1.99
  -1   2   2    5.39    2.02
  -1   2   2    1.72    1.73
   0   2   2   71.30    9.53
   0   2   2   61.54   11.93
   0   2  -2   63.58    5.36
   0  -2   2   63.39    8.33
   0  -2   2   56.87    4.79
   0  -2   2   63.82    7.66
   1   2   2   24.96    5.31
   1   2   2   12.41    6.06
   1  -2   2   19.81    4.32
   1   2   2   16.47    4.08
  -1   2  -2   21.72    4.05
  -1  -2  -2   19.05    4.10
  -1   2  -2   19.01    5.27
   1   2   2   21.75    6.11
   2   2   2    1.42    1.58
   2   2   2    1.84    1.70
  -2   2  -2   -1.04    3.35
  -2   2  -2    0.68    1.11
  -2   2  -2   -0.75    0.74
   2   2   2   -0.67    1.92
   2  -2   2    0.72    0.85
   2  -2   2   -3.00    2.14
   2  -2   2    2.68    2.84
   2   2   2   -3.87    2.97
  -3   2  -2   71.08   17.29
  -3  -2  -2   68.86   13.53
   3   2   2   77.63   12.32
   3  -2   2   69.65   10.05
   3   2   2   61.52   16.55
   3  -2   2   67.58   12.82
  -3   2  -2   61.26   11.62
   4  -2   2  233.19   20.61
   4   2   2  234.11   24.67
  -4  -2  -2  244.77   29.86
  -4   2  -2  347.04   40.59
   4   2   2  346.57   40.38
   4  -2   2  179.10   23.38
   5   2   2   63.66   14.37
  -5   2  -2  130.34   26.05
  -5  -2  -2   61.92   16.73
   5  -2   2   67.57   12.56
   5  -2   2   59.09   14.61
   5   2   2  117.84   24.63
   6   2   2   48.27   13.46
  -6  -2  -2   86.85   22.23
  -6   2  -2  169.73   30.80
   6   2   2  184.31   30.57
   6  -2   2  144.23   23.79
  -7  -2  -2   97.31   24.45
   7   2   2  138.69   27.38
   7   2   2   93.50   20.76
  -7   2  -2  129.90   27.67
   7  -2   2   99.50   20.72
   8   2   2   10.35    7.65
  -8   2  -2   40.45   15.92
  -8  -2  -2   17.79   10.85
   8   2   2   33.42   12.70
  -9   2  -2   20.95   11.37
  -9  -2  -2    9.44    8.21
 -11  -3   2   16.24   10.18
 -10  -3   2    0.59    2.11
 -10   3   2    2.24    4.01
 -10  -3   2   10.43    8.51
  -9  -3   2   54.06   16.88
  -9  -3   2  119.45   27.34
  -9   3   2   95.10   24.86
  -8  -3   2  117.35   22.80
  -8  -3   2  180.60   32.32
  -8   3   2  146.95   31.34
  -7   3   2   72.10   19.98
  -7  -3   2   69.46   15.68
  -7  -3   2   42.75   15.65
  -6   3   2   76.36   16.96
  -6  -3   2   64.08   17.13
  -6  -3   2   93.48   15.93
  -5  -3   2   58.04   13.71
  -5   3   2   51.61   11.33
  -5  -3   2   61.15   11.43
  -4  -3   2  305.79   21.66
  -4  -3   2  317.84   25.88
  -4   3   2  258.92   20.91
  -4   3   2  299.38   20.58
   4   3  -2  298.50   27.18
  -3   3   2 1716.27   46.61
   3   3  -2 1730.13   48.95
   3  -3  -2 1815.39   42.21
  -3  -3   2 1810.39   46.06
  -2  -3   2  291.96   17.23
   2   3  -2  264.18   12.64
   2  -3  -2  275.83   16.65
   2   3  -2  224.77   13.14
  -2   3   2  286.72   16.88
  -2   3   2  267.05   15.58
  -1   3   2  964.27   33.09
  -1  -3   2  943.53   26.81
  -1   3   2  942.75   45.77
  -1  -3   2 1083.56   33.33
   1  -3  -2  942.39   17.82
  -1   3   2 1067.54   32.93
   0   3   2  151.65   15.18
   0  -3   2  122.38    9.00
   0  -3   2  149.51   12.58
   0   3  -2  124.66    8.56
   0  -3  -2  143.18   12.16
  -1  -3  -2   57.18    7.54
   1  -3   2   64.45    7.45
  -1   3  -2   60.50    7.69
  -1   3  -2   58.37    6.24
   1   3   2   65.71   11.73
  -1   3  -2   52.76    8.23
   1   3   2   39.03   12.10
   1   3   2   67.22    8.62
   2   3   2 1181.54   40.76
   2   3   2 1114.19   42.40
  -2   3  -2 1167.35   29.20
   2   3   2 1228.68   72.51
  -2   3  -2 1108.36   40.96
  -2   3  -2 1207.98   48.39
   3   3   2   39.97    8.55
   3  -3   2   49.98    7.27
   3   3   2   70.61   18.18
  -3   3  -2   44.67    9.42
  -3   3  -2   59.92   14.51
  -3   3  -2   37.72    4.51
   4   3   2  626.88   38.37
   4  -3   2  516.18   38.04
   4  -3   2  602.41   29.36
  -4   3  -2  462.51   48.18
   4   3   2  735.63   60.68
  -5   3  -2   -4.86    5.24
   5  -3   2    2.41    2.77
   5   3   2   -1.83    2.38
   5  -3   2   -0.33    0.94
   5   3   2   -7.99    6.50
  -6   3  -2   31.73   13.42
   6   3   2   18.05   10.09
   6  -3   2   16.91    7.82
   7  -3   2  108.20   21.24
   7   3   2   37.49   12.19
  -7   3  -2  124.72   27.12
   7   3   2  113.93   25.17
  -8   3  -2    1.23    3.24
   8   3   2    5.05    5.52
   9   3   2  104.10   25.31
  -9   3  -2   84.15   23.79
 -11  -4   2  -15.66   10.17
 -10  -4   2   25.93   14.70
 -10  -4   2   19.11   10.63
 -10   4   2   32.58   14.89
  -9  -4   2   70.34   21.02
  -9  -4   2   45.46   15.18
  -9   4   2   54.69   19.40
  -8  -4   2   84.01   21.56
  -8   4   2   79.08   22.02
  -8  -4   2  116.28   22.68
  -7  -4   2  596.43   46.27
  -7  -4   2  425.91   45.11
  -7   4   2  552.21   50.19
  -6   4   2  280.84   30.04
  -6  -4   2  298.76   33.71
  -6  -4   2  297.79   29.17
  -5   4   2   56.31    9.11
  -5  -4   2   53.39   11.13
  -5   4   2   55.23   11.23
  -4   4   2  270.12   20.70
  -4  -4   2  259.55   21.29
   4  -4  -2  297.48   18.05
  -4   4   2  243.74   21.00
   3   4  -2  932.62   35.56
  -3   4   2 1027.17   21.04
  -3  -4   2 1067.24   38.08
   3   4  -2  970.71   22.26
   3  -4  -2 1142.64   35.16
  -3   4   2 1102.63   29.81
  -3   4   2 1074.12   39.52
   2  -4  -2  370.27   10.95
  -2   4   2  407.32   23.05
  -2   4   2  387.37   20.27
   2  -4  -2  402.20   22.32
  -2   4   2  372.66   10.78
  -2  -4   2  365.71   15.20
  -2  -4   2  384.69   21.65
   1  -4  -2   23.25    6.05
  -1   4   2   22.62    5.59
   1  -4  -2   17.75    2.92
  -1   4   2   18.20    4.96
   1   4  -2   18.20    4.23
  -1  -4   2   17.52    3.98
  -1  -4   2   14.94    4.75
   0   4  -2    2.49    1.69
   0  -4   2    0.01    0.90
   0  -4   2    1.61    1.76
   0   4   2    2.88    2.40
   0  -4  -2    3.48    2.05
   1   4   2  246.89   23.93
   1  -4   2  211.77   14.88
  -1   4  -2  203.10   14.63
  -1  -4  -2  224.57   15.62
  -2   4  -2  149.38   15.05
   2  -4   2  174.30   15.97
  -2   4  -2  135.77   14.73
  -2  -4  -2  175.28   13.48
   2   4   2  157.99   14.66
  -2   4  -2  149.20    9.57
  -3   4  -2  912.04   41.13
  -3   4  -2  911.52   48.78
   3   4   2  976.81   40.88
   4   4   2  503.79   34.18
   4   4   2  532.44   53.84
  -4   4  -2  439.48   42.44
   5   4   2   39.62   10.61
  -5   4  -2   16.63    9.06
   5   4   2   30.61   12.63
  -6   4  -2    3.75    4.89
   6   4   2    2.55    3.10
   6   4   2    3.17    4.41
  -7   4  -2  293.51   42.25
   7   4   2  340.46   44.97
   8   4   2   92.02   23.09
  -8   4  -2   87.19   23.93
  -9   4  -2    3.21    4.69
   9   4   2    2.97    2.49
 -10  -5   2  231.13   37.67
 -10   5   2  245.68   42.85
  -9  -5   2    1.41    2.84
  -9   5   2   12.14    9.52
  -8  -5   2   97.58   20.99
  -8   5   2   66.08   19.21
  -7  -5   2    1.52    2.59
   7  -5  -2    1.90    1.69
  -7   5   2    7.25    6.49
  -6   5   2    4.32    3.85
   6  -5  -2    1.46    1.45
  -6  -5   2    3.21    3.09
   5  -5  -2   91.55   10.37
  -5  -5   2   79.99   14.09
  -5   5   2   90.97   14.78
  -5   5   2   93.04   11.39
  -5   5   2   99.02   12.82
  -4  -5   2  194.26   19.18
  -4   5   2  221.36   13.82
   4  -5  -2  224.85   16.20
  -4   5   2  215.16   20.57
  -4   5   2  233.57   21.37
  -3   5   2  139.39    8.87
  -3  -5   2  144.04   14.81
  -3   5   2  147.10   15.64
   3   5  -2  114.92   12.63
   3  -5  -2  155.46   14.31
  -2   5   2  613.85   31.51
  -2   5   2  619.76   27.92
   2  -5  -2  605.99   17.92
  -2   5   2  596.51   17.44
  -2  -5   2  589.70   29.07
  -2  -5   2  608.53   20.03
  -1   5   2  126.37    9.59
  -1  -5   2  131.16   13.68
  -1   5   2  135.71   14.64
   1  -5  -2  126.80    9.08
  -1   5   2  145.35   15.16
   1   5  -2  146.43   13.65
   0  -5  -2 2930.85   52.70
   0  -5   2 3198.73   67.85
   0   5   2 3123.75   80.90
   0   5  -2 3115.78   60.16
  -1  -5  -2 1568.00   42.67
  -1   5  -2 1432.04   42.51
  -1  -5  -2 1468.44   47.59
   1  -5   2 1552.67   49.22
   1  -5   2 1379.42   41.18
  -2  -5  -2  367.88   19.53
  -2   5  -2  343.74   23.51
  -2   5  -2  314.60   13.40
  -2   5  -2  347.23   23.80
   3   5   2  484.61   27.90
  -3   5  -2  430.96   31.52
   4   5   2    3.53    2.97
  -4   5  -2    4.12    3.77
  -5   5  -2    6.83    5.89
   5   5   2   17.44   10.14
   5   5   2   13.70    6.03
   6   5   2   29.11    9.60
  -6   5  -2   33.90   14.83
   6   5   2   64.42   19.68
   7   5   2   26.02   12.96
  -7   5  -2   11.74    8.69
  -8  -5  -2    8.89    7.77
  -8   5  -2   11.39    8.61
   8   5   2   10.08    8.04
  -9   5  -2    9.88    8.17
   9   5   2   -5.80    6.29
 -10  -6   2   -5.21    5.85
 -10   6   2    5.67    6.96
  -9  -6   2   -0.34    1.78
  -9   6   2    4.42    5.79
  -8  -6   2   44.36   14.36
  -8   6   2   59.28   17.94
  -7   6   2   29.27   10.84
  -7  -6   2   41.11   12.76
  -6   6   2  846.18   38.61
  -6   6   2  778.93   49.40
  -5   6   2   -0.62    1.43
  -5  -6   2    4.72    4.37
   5  -6  -2    0.04    0.51
  -5   6   2    2.53    2.81
  -4  -6   2 1365.39   52.80
   4  -6  -2 1535.00   46.83
  -4   6   2 1422.76   56.36
  -4   6   2 1362.91   35.86
  -3   6   2  193.53   19.38
  -3  -6   2  167.80   17.03
  -3   6   2  188.07   11.70
  -3   6   2  167.96   13.66
   2  -6  -2  405.59   17.43
  -2  -6   2  402.70   25.79
  -2  -6   2  381.23   16.29
  -2   6   2  390.55   16.62
  -2   6   2  373.83   22.56
  -2   6   2  458.40   29.72
  -1   6   2   26.61    4.76
  -1  -6   2   29.83    6.92
  -1   6   2   23.87    6.33
   1  -6  -2   20.88    4.22
   1   6  -2   17.31    4.94
  -1   6   2   20.25    6.05
   0  -6   2   38.50    7.94
   0  -6  -2   41.95    6.66
   0   6  -2   40.00    7.71
   1  -6   2    3.03    2.15
  -1   6  -2    3.38    2.46
  -1  -6  -2    3.15    2.01
  -1  -6  -2    6.09    3.09
   1  -6   2    4.50    3.42
  -2   6  -2    1.56    1.75
  -2  -6  -2    1.72    2.59
  -2  -6  -2    2.35    1.56
  -2   6  -2    1.34    0.91
  -3  -6  -2   42.22   11.05
  -3   6  -2   30.15    8.26
  -4   6  -2  617.59   43.75
  -4  -6  -2  630.19   49.58
   5   6   2  150.63   18.89
  -5   6  -2  122.24   23.54
  -6   6  -2  200.55   35.58
  -6  -6  -2  246.06   37.46
  -7  -6  -2  222.20   36.98
   7   6   2  259.32   41.88
  -7   6  -2  231.35   40.35
  -8  -6  -2   17.54   10.94
  -8   6  -2   24.11   12.69
   8   6   2   39.79   16.52
   9   6   2   22.94   12.67
 -10  -7   2    0.83    3.01
 -10   7   2   25.05   14.87
  -9   7   2    7.03    7.01
  -9  -7   2  -10.09    7.68
  -8  -7   2  130.06   25.46
  -8   7   2  150.68   28.09
  -7  -7   2   31.57   11.25
  -7   7   2   32.69   11.37
  -6  -7   2   40.28   11.95
  -6   7   2   47.74   12.42
  -5   7   2  386.99   22.98
  -5  -7   2  404.37   33.05
  -5   7   2  376.05   32.60
  -4   7   2  102.65   16.23
  -4   7   2   97.16   10.13
  -4  -7   2   85.19   13.97
  -3   7   2    1.07    0.96
  -3  -7   2    1.22    1.78
  -3   7   2    1.79    1.49
  -3   7   2    2.59    1.51
  -2   7   2  393.33   29.74
  -2  -7   2  361.65   16.93
  -2   7   2  341.01   17.66
  -2   7   2  346.31   23.19
  -2  -7   2  353.91   25.71
   2  -7  -2  372.56   19.10
   1   7  -2    1.41    1.99
  -1  -7   2   -0.93    1.39
   1  -7  -2    3.77    2.29
  -1   7   2   -0.41    2.10
  -1   7   2   -0.42    1.71
   0  -7   2  138.46   16.09
   0  -7  -2  145.65   13.37
   0   7  -2  157.68   16.80
  -1   7  -2    4.09    3.07
  -1  -7  -2    1.21    0.94
   1  -7   2    5.97    4.07
  -1  -7  -2    2.85    2.04
  -2  -7  -2  364.21   20.79
  -2  -7  -2  361.36   28.29
  -2   7  -2  319.55   25.31
  -3   7  -2   32.48    8.72
  -3  -7  -2   33.85    9.79
  -4   7  -2   32.38   10.06
  -4  -7  -2   25.70   10.60
  -5  -7  -2   99.72   21.52
  -5   7  -2  131.62   23.27
   6   7   2   36.09   15.82
  -6  -7  -2   21.76   10.79
  -6   7  -2   18.20   10.26
  -7  -7  -2   -1.56    3.62
   7   7   2  -11.49    9.06
  -7   7  -2    2.56    4.59
  -8  -7  -2   38.13   16.24
   8   7   2   27.44   12.97
  -8   7  -2   34.17   16.58
   9   7   2   13.64   11.24
  -9  -8   2   47.28   16.80
  -9   8   2   41.89   18.23
  -8  -8   2   55.46   17.05
  -8   8   2   46.01   15.51
  -7  -8   2   19.49    9.13
  -7   8   2   16.04    8.15
  -6  -8   2  116.69   20.29
  -6   8   2   80.97   17.26
  -5   8   2   26.39    6.54
  -5   8   2   23.37    8.62
  -5  -8   2   22.83    7.86
  -4  -8   2  190.47   21.59
  -4   8   2  179.05   14.85
  -4   8   2  196.08   23.69
  -3   8   2   25.75    5.27
  -3   8   2   25.47    7.98
   3  -8  -2   28.41    5.87
  -3  -8   2   19.00    6.37
  -3   8   2   34.36    7.11
  -2  -8   2   56.86   10.66
  -2   8   2   55.34    7.91
   2  -8  -2   49.63    7.82
  -2   8   2   55.22   11.76
  -2  -8   2   50.55    6.87
  -2   8   2   49.93    9.40
   1  -8  -2  738.19   30.87
  -1   8   2  749.84   42.76
  -1   8   2  679.56   30.01
  -1  -8   2  770.89   40.57
   1   8  -2  736.02   39.22
   0  -8   2  158.71   18.54
   0  -8  -2  123.68   13.17
   0   8   2  148.99   18.62
   0   8  -2  141.15   17.02
  -1   8  -2  548.04   33.49
  -1  -8  -2  518.14   30.37
   1  -8   2  562.56   35.55
  -2  -8  -2  386.81   29.60
  -2   8  -2  428.74   31.63
  -2  -8  -2  420.90   23.29
  -3   8  -2    2.55    3.09
  -3  -8  -2    4.29    4.91
  -4   8  -2   14.86    6.62
  -4  -8  -2   14.56    5.47
  -5  -8  -2    7.79    6.20
  -5   8  -2    5.76    5.60
  -6  -8  -2   -3.43    4.68
  -6   8  -2   -5.83    5.69
  -7  -8  -2   39.72   15.90
  -7   8  -2   62.58   21.71
   7   8   2   78.56   24.70
  -8   8  -2   13.92   10.77
   8   8   2   15.14   10.85
  -9  -9   2   15.44    9.95
  -9   9   2    4.18    5.51
  -8   9   2    2.01    3.54
  -8  -9   2    5.47    5.60
  -7   9   2   33.97   12.73
  -7  -9   2   29.85   12.11
  -6   9   2   -2.91    3.50
  -6  -9   2    1.45    2.55
  -5  -9   2  298.09   30.38
  -5   9   2  319.93   33.47
  -4   9   2  184.84   16.16
  -4  -9   2  190.92   22.64
  -4   9   2  200.36   25.20
   3  -9  -2   -0.05    1.62
  -3  -9   2    0.38    0.48
  -3  -9   2   -0.61    1.61
  -3   9   2    3.22    2.54
  -3   9   2    0.68    1.67
  -3   9   2    2.84    2.21
  -2  -9   2   15.81    4.29
  -2  -9   2    7.79    3.15
   2  -9  -2   10.80    4.27
  -2   9   2    9.52    4.80
  -2   9   2   10.51    3.58
  -1  -9   2   34.49    8.85
  -1   9   2   35.87    9.85
   1  -9  -2   30.64    6.76
   1   9  -2   35.00    9.05
   0   9   2  683.59   42.64
   0  -9   2  737.26   41.68
   0  -9  -2  643.86   32.29
   0   9  -2  723.50   41.47
   1  -9   2  321.83   28.11
  -1  -9  -2  282.21   23.27
  -1   9  -2  298.88   26.52
  -2  -9  -2   24.71    7.92
  -2  -9  -2   22.71    5.45
  -2   9  -2   28.12    8.83
  -3   9  -2   15.98    6.64
  -3  -9  -2   15.84    7.00
  -4  -9  -2    6.93    2.82
  -4   9  -2    1.39    2.62
  -5  -9  -2  162.37   28.14
  -5   9  -2  174.21   27.03
  -6  -9  -2   36.76   13.32
  -6   9  -2   70.93   19.57
  -7  -9  -2   -4.24    5.58
   7   9   2   27.33   15.00
  -7   9  -2   12.70    9.62
  -8   9  -2    6.34    7.74
  -8 -10   2    6.69    6.46
  -8  10   2    9.46    7.48
  -7 -10   2   62.74   17.51
  -7  10   2   50.77   15.46
  -6  10   2   56.64   15.57
  -6 -10   2   68.67   16.50
  -5  10   2    2.16    3.06
  -5 -10   2    2.98    2.12
  -4  10   2   68.82   15.47
  -4 -10   2   66.75   13.84
  -3 -10   2   27.23    3.92
  -3 -10   2   47.23   11.59
  -3  10   2   48.03   12.62
   3 -10  -2   40.75    8.57
  -2  10   2   25.44    9.45
   2  10  -2   19.51    7.53
   2 -10  -2   21.07    6.29
  -2 -10   2   21.45    7.17
  -2 -10   2   16.72    4.57
  -1 -10   2    9.92    5.88
  -1  10   2   16.23    6.79
   1  10  -2   18.22    6.84
   1 -10  -2   10.53    4.33
   0 -10  -2   -3.79    2.71
   0 -10   2   -1.93    2.41
   0  10   2   -3.24    3.21
   0  10  -2   -1.69    2.25
  -1 -10  -2    7.79    4.00
   1 -10   2   10.79    5.83
  -1  10  -2    7.76    5.30
   2 -10   2    8.82    5.16
  -2 -10  -2    6.32    3.22
  -2  10  -2    2.90    2.96
  -3 -10  -2   20.38    7.84
  -3  10  -2   23.48    8.74
  -4 -10  -2  130.11   23.20
  -4  10  -2  133.18   22.32
  -5 -10  -2    1.95    5.80
  -5  10  -2    4.27    4.37
  -6 -10  -2   30.75   13.70
  -6  10  -2   42.05   15.53
   7  10   2   49.92   21.17
  -7  10  -2   36.34   16.62
  -7 -10  -2   24.08   12.83
  -8  11   2   18.69   10.70
  -8 -11   2   14.84    8.62
  -7  11   2   34.66   14.05
  -7 -11   2   40.23   15.46
  -6 -11   2   -1.30    2.75
  -6  11   2    4.04    4.49
  -5 -11   2  329.46   34.47
  -5  11   2  337.26   38.06
  -4 -11   2    0.30    4.44
  -4  11   2    2.98    3.52
   3 -11  -2  138.55   16.03
  -3  11   2  149.67   23.02
  -3 -11   2  132.25   19.84
   2  11  -2   43.02   11.25
  -2 -11   2   34.29   10.07
  -2  11   2   46.53   12.97
  -2 -11   2   40.16    7.48
   2 -11  -2   34.11    8.00
   1  11  -2   73.16   14.49
  -1  11   2   72.04   15.72
  -1 -11   2   66.57   13.66
   1 -11  -2   60.49   10.92
   0  11  -2    0.13    1.57
   0 -11   2    3.13    2.89
   0  11   2   -0.05    2.99
   0 -11  -2   -5.50    3.41
   1  11   2    2.28    3.16
   1 -11   2   -0.12    3.48
  -1  11  -2    4.50    4.64
  -1 -11  -2   -0.39    3.06
  -2 -11  -2   -3.52    3.23
  -2  11  -2    5.36    4.56
   2 -11   2   -0.18    3.86
  -3  11  -2   23.65    9.05
  -3 -11  -2   22.66    9.00
  -4  11  -2   22.40    9.51
  -4 -11  -2    9.48    6.31
  -5 -11  -2   84.41   21.18
  -5  11  -2   67.92   17.87
  -6  11  -2   66.00   19.58
  -6 -11  -2   46.46   16.78
  -7  11  -2    0.69    2.62
  -7  12   2   -5.66    5.73
  -7 -12   2   -6.38    5.93
  -6  12   2    3.38    4.31
  -6 -12   2   -1.77    3.20
  -5 -12   2    3.71    2.20
  -5  12   2    4.82    4.92
  -4 -12   2    6.27    4.57
  -4  12   2   -5.89    5.07
  -3 -12   2   -0.25    1.29
  -3  12   2    2.53    2.27
   3 -12  -2    1.88    2.29
   3  12  -2   -3.51    3.49
  -2  12   2   51.70   14.34
   2  12  -2   57.73   13.90
   2 -12  -2   48.11    9.98
  -2 -12   2   48.47   11.91
  -2 -12   2   54.02    9.01
  -1  12   2  206.93   27.29
  -1 -12   2  237.49   27.13
   1 -12  -2  245.97   23.17
   1  12  -2  235.96   27.95
   0  12  -2   19.42    8.48
   0 -12   2   22.92    8.85
   0  12   2   16.26    6.81
   0 -12  -2   28.33    8.53
   1  12   2  226.36   28.59
  -1 -12  -2  213.93   23.26
   1 -12   2  287.10   30.56
  -1  12  -2  272.85   30.20
   2 -12   2  129.59   21.56
  -2 -12  -2  118.83   18.61
  -2  12  -2  142.07   22.70
  -3 -12  -2    6.30    5.54
  -3  12  -2    3.93    3.92
  -4 -12  -2    4.82    5.68
  -4  12  -2   -9.26    6.31
  -5  12  -2   -2.72    3.86
  -5 -12  -2   12.09    7.51
  -6  12  -2    2.27    3.89
  -6 -12  -2   -6.79    6.77
  -7  13   2    3.87    5.02
  -7 -13   2   -9.11    7.27
  -6  13   2   11.18    7.86
  -6 -13   2   19.76    9.37
  -5 -13   2   69.67   17.26
  -5  13   2   71.35   19.72
  -4 -13   2   49.10   13.47
  -4  13   2   66.42   17.41
  -3  13   2    6.67    5.41
   3 -13  -2    1.50    2.03
  -3 -13   2   -3.91    3.82
   3  13  -2   -1.57    2.55
  -2  13   2   25.25   10.78
  -2 -13   2   27.99    9.18
   2 -13  -2   36.07    9.43
   2  13  -2   26.16    9.55
  -1 -13   2   37.30   11.16
   1 -13  -2   28.40    8.10
  -1  13   2   26.53   10.97
   1  13  -2   36.40   11.72
   0 -13   2   11.12    6.21
   0  13  -2   20.09    9.35
   0 -13  -2    6.50    4.08
   0  13   2    6.94    4.51
   1 -13   2    6.54    4.53
  -1 -13  -2   11.20    5.57
   1  13   2    9.85    6.27
  -1  13  -2   14.18    7.56
  -2 -13  -2   33.96   10.18
   2 -13   2   47.16   13.74
  -2  13  -2   38.65   12.60
  -3 -13  -2    0.48    1.85
  -3  13  -2   17.59    8.59
  -4  13  -2   18.92    9.42
  -4 -13  -2   40.44   13.92
  -5  13  -2   81.34   20.87
  -5 -13  -2   75.77   20.11
  -6  13  -2   21.56   11.62
  -6  14   2    5.53    5.86
  -6 -14   2    1.80    3.44
  -5 -14   2    2.74    1.68
  -5  14   2   -4.72    5.32
  -4 -14   2    9.25    6.90
  -4  14   2    6.74    5.85
   4  14  -2    7.68    5.14
  -3  14   2  -10.62    7.00
   3  14  -2   -2.12    3.03
  -2  14   2  100.64   21.25
   2  14  -2   88.98   19.02
  -2 -14   2   78.24   17.55
   1 -14  -2   -0.62    1.58
  -1 -14   2   -6.08    4.77
  -1  14   2    6.56    6.64
   1  14  -2   -1.07    4.81
   0  14  -2   -5.26    4.60
   0  14   2    1.72    5.45
   0 -14   2    2.53    3.35
   0 -14  -2   -4.75    3.67
   1 -14   2   -1.79    2.82
   1  14   2    8.12    6.10
  -1 -14  -2   -0.69    1.75
  -1  14  -2    3.67    3.90
  -2 -14  -2   15.55    7.00
  -2  14  -2    8.39    6.49
   2 -14   2    7.60    4.42
   2  14   2    6.87    5.66
  -3  14  -2   22.98   10.57
  -3 -14  -2   19.65    9.50
  -4 -14  -2   -9.47    6.84
  -4  14  -2   -3.14    5.85
  -5 -14  -2    7.96    6.94
  -5  14  -2   -4.44    5.19
  -5 -15   2    9.63    6.90
  -4 -15   2   -0.83    2.31
  -4  15   2    2.32    3.75
  -3 -15   2   11.50    6.82
  -3  15   2   10.82    7.30
   3  15  -2    7.34    5.70
  -2  15   2   -0.34    1.90
   2  15  -2   -1.91    3.05
  -1 -15   2    3.68    3.27
   1  15  -2    6.23    5.17
  -1  15   2    6.94    5.81
   0  15  -2   -6.39    5.24
   0 -15  -2    6.25    4.12
   0  15   2    4.97    4.89
   0 -15   2    0.96    2.12
   1  15   2   -2.49    3.59
   1 -15   2    4.82    4.57
  -1 -15  -2    2.01    2.72
  -1  15  -2    0.48    1.82
  -2 -15  -2    6.23    4.82
   2  15   2   -6.37    5.70
  -2  15  -2   -0.82    2.17
   2 -15   2    3.95    3.26
  -3  15  -2    2.07    3.44
  -3 -15  -2   -4.79    4.71
  -4  15  -2    4.02    4.89
  -4 -15  -2    0.55    2.35
  -4 -16   2    3.66    4.26
   4  16  -2    6.11    5.58
  -3 -16   2    5.53    5.02
   3  16  -2   -5.05    5.02
  -2  16   2   26.75   11.78
  -2 -16   2   27.58   11.18
   2  16  -2   28.90   11.58
  -1  16   2   12.20    7.87
  -1 -16   2    2.43    3.23
   1  16  -2   13.17    7.76
   0 -16   2   -2.71    3.71
   0  16  -2    0.45    1.84
   0  16   2    5.55    5.32
   1 -16   2   16.19    7.88
  -1  16  -2   10.62    7.06
  -2 -16  -2   14.86    7.58
  -2  16  -2   19.61   10.35
  -3 -16  -2   -2.46    3.52
  -3  16  -2   23.09   11.16
  -2 -17   2   12.52    7.47
   2  17  -2   14.34    8.40
  -1 -17   2   15.60    7.10
   1  17  -2   14.25    9.79
   0 -17   2   -3.80    4.32
   0  17  -2    3.71    4.41
   1 -17   2   -5.33    5.10
  -1  17  -2   -8.76    6.71
 -12   0   3   19.20   10.56
 -11   0   3    1.12    3.15
 -11   0   3    1.60    6.72
 -10   0   3   -4.63    4.69
 -10   0   3    7.05    6.66
  -9   0   3   -8.48    7.09
  -9   0   3   -0.75    2.01
   8   0  -3    1.09    1.74
  -8   0   3    1.73    3.35
  -8   0   3   -5.01    4.12
  -7   0   3    3.75    6.74
   7   0  -3    1.36    2.99
  -7   0   3    1.54    1.70
  -6   0   3   -4.54    4.80
  -6   0   3   -0.46    1.18
  -5   0   3    1.44    2.06
  -5   0   3   -5.87    5.29
  -4   0   3    0.46    1.12
  -4   0   3    5.98    4.53
   4   0  -3    3.38    2.58
   3   0  -3    2.13    1.46
  -3   0   3    0.99    0.94
   3   0  -3    0.47    0.59
   2   0  -3    2.42    2.17
  -2   0   3    0.99    1.25
   2   0  -3    0.15    1.23
   2   0  -3    0.37    0.45
  -2   0   3    1.65    0.90
  -1   0   3    1.83    1.82
  -1   0   3    0.94    1.83
   1   0  -3    2.74    1.64
   0   0  -3    0.53    0.66
   0   0   3    3.97    3.17
   0   0   3    1.61    0.96
   0   0   3    1.14    0.65
   0   0   3    3.33    1.86
   1   0   3    0.40    2.77
  -1   0  -3    2.39    1.64
   1   0   3    1.97    2.38
   1   0   3    2.20    2.10
   1   0   3    0.95    1.45
  -1   0  -3    3.30    2.70
   2   0   3    0.68    0.76
   2   0   3   -1.94    2.09
  -2   0  -3    5.05    3.58
   2   0   3    1.73    2.79
   2   0   3    0.71    1.39
   3   0   3    1.32    2.59
   3   0   3    2.91    3.82
   4   0   3    3.24    3.94
  -4   0  -3   -5.47    4.95
   4   0   3   -5.35    4.48
  -5   0  -3   -0.13    2.00
   5   0   3   -7.95    5.89
   6   0   3    1.66    3.91
  -6   0  -3   -0.83    4.80
   6   0   3    2.47    3.75
  -7   0  -3   -2.06    3.87
   7   0   3    7.59    6.47
   7   0   3   -1.98    3.40
   8   0   3    3.25    4.44
   8   0   3    5.45    5.72
   9   0   3   -2.32    3.95
 -12   1   3   62.40   19.62
 -12  -1   3  100.28   24.58
 -11   1   3    3.03    4.63
 -11   1   3   -0.68    2.08
 -11  -1   3    3.03    4.29
 -10  -1   3   20.26   11.38
 -10  -1   3   16.24    8.80
 -10   1   3   35.69   14.68
 -10   1   3   17.95    8.61
   9   1  -3   28.54    8.93
  -9  -1   3   11.48   11.38
  -9  -1   3   13.66    7.83
  -9   1   3   21.88    9.11
  -9   1   3   14.65    8.91
  -8  -1   3  149.88   22.83
  -8  -1   3  208.17   33.98
  -8   1   3  170.14   30.56
   8  -1  -3  220.43   24.00
  -7  -1   3  557.80   38.68
   7  -1  -3  756.44   46.27
  -7  -1   3  715.78   59.99
  -7   1   3  583.28   57.20
  -7   1   3  437.83   34.21
   6  -1  -3  172.55   22.44
  -6   1   3  104.75   22.73
  -6  -1   3  181.84   19.30
  -6   1   3  147.10   16.70
  -6  -1   3  184.80   28.75
  -5   1   3 1335.89   40.56
  -5  -1   3 1354.04   72.17
  -5  -1   3 1349.64   44.48
  -5   1   3 1290.38   66.12
   4  -1  -3    6.67    3.25
  -4  -1   3    4.12    3.66
  -4   1   3    7.43    2.56
   4   1  -3    2.08    2.54
   4   1  -3    6.39    2.61
   4  -1  -3    5.34    3.66
  -4   1   3   10.21    4.81
  -4  -1   3    7.53    3.02
   3  -1  -3  165.37    8.64
  -3   1   3  177.19    8.85
  -3  -1   3  164.63   17.80
   3   1  -3  178.45   17.03
   3  -1  -3  163.63   12.19
   3   1  -3  180.19   12.74
  -3   1   3  180.99   13.60
   3  -1  -3  189.16   14.22
  -3  -1   3  178.80   12.32
  -2   1   3 1615.02   25.56
   2  -1  -3 1548.51   30.78
  -2  -1   3 1663.40   36.17
   2  -1  -3 1741.51   49.07
   2   1  -3 1752.22   38.84
  -2  -1   3 1867.96   32.51
   2   1  -3 1654.56   25.54
  -2   1   3 1770.18   58.98
  -2   1   3 1581.90   30.06
  -2   1   3 1487.85   39.94
   2  -1  -3 1715.93   27.69
   1  -1  -3  676.64   20.72
  -1   1   3  716.17   38.33
  -1   1   3  703.35   19.88
  -1  -1   3  641.46   28.09
  -1   1   3  652.69   29.36
  -1  -1   3  681.01   24.15
  -1   1   3  671.28   32.40
   0   1   3  682.77   31.22
   0  -1   3  744.28   33.37
   0   1  -3  809.65   34.98
   0   1   3  623.87   21.63
   0   1   3  722.74   39.33
   0   1  -3  780.38   23.65
   0   1  -3  685.05   28.31
   0   1   3  771.32   35.41
   0  -1   3  772.81   36.92
   0  -1   3  758.38   25.92
   0   1   3  786.07   42.74
   1  -1   3  768.71   37.94
   1  -1   3  801.24   34.66
   1   1   3  773.51   37.20
   1   1   3  554.20   34.12
  -1   1  -3  749.01   37.71
   1   1   3  785.94   33.59
   1   1   3  854.78   40.93
  -1   1  -3  755.82   31.09
  -1  -1  -3  775.65   35.48
  -1   1  -3  794.61   31.03
   1  -1   3  849.92   43.96
   1  -1   3  538.22   33.84
   1   1   3  761.57   49.01
   2   1   3   66.31   12.08
   2   1   3   40.27    9.12
   2  -1   3   55.97   12.41
   2   1   3   38.10   12.15
   2  -1   3   68.38   11.47
  -2   1  -3   34.73    9.96
  -2  -1  -3   64.12   11.29
   2   1   3   73.38   13.74
   2  -1   3   56.09   11.83
   2  -1   3   55.51   13.40
   3   1   3  578.38   50.97
  -3  -1  -3  742.12   48.02
   3  -1   3  771.81   49.88
   3   1   3  841.56   47.94
   3  -1   3  647.07   47.96
   3  -1   3  835.87   43.89
  -3   1  -3  765.81   54.59
   3   1   3  897.13   42.19
   4  -1   3    4.41    3.91
   4  -1   3   -4.69    4.40
  -4  -1  -3   -2.84    3.44
   4   1   3   -1.87    3.22
  -4   1  -3    1.93    4.23
   4   1   3   -1.19    2.20
   4   1   3    0.64    1.15
   5  -1   3  389.72   42.52
  -5   1  -3  534.48   53.43
   5   1   3  486.87   50.80
   5   1   3  189.27   27.57
  -5  -1  -3  277.69   37.22
   5  -1   3  169.79   27.69
   6  -1   3  165.70   29.31
  -6  -1  -3  179.87   32.31
  -6   1  -3  248.06   37.96
   6  -1   3  210.43   32.23
   6   1   3  239.88   36.77
   7  -1   3   21.40   10.44
  -7   1  -3   14.70    9.52
   7   1   3    4.71    5.01
   7  -1   3   16.93    9.70
  -7  -1  -3    6.68    6.66
   7   1   3   24.97   11.82
   8  -1   3   -2.55    4.01
  -8  -1  -3   -1.43    3.56
   8   1   3   -0.10    1.34
   8   1   3   -5.68    5.83
  -8   1  -3   -5.66    6.32
   9  -1   3   37.92   15.68
 -12  -2   3   94.52   24.98
 -11  -2   3  174.42   35.32
 -11   2   3  150.70   27.86
 -11   2   3  157.83   32.40
 -11  -2   3  133.49   27.95
 -10  -2   3    8.59    7.56
 -10   2   3    2.32    3.90
 -10  -2   3    2.58    3.65
 -10   2   3   10.74    8.76
  -9  -2   3   13.39    8.68
  -9  -2   3   68.12   20.08
  -9   2   3   64.05   19.75
  -8  -2   3  115.25   25.99
  -8  -2   3  115.35   20.02
  -8   2   3  116.73   27.17
   7  -2  -3   40.28   10.48
  -7  -2   3   20.51    9.41
  -7   2   3    7.31    6.42
  -7  -2   3   29.23    9.55
   7  -2  -3   26.96    5.48
   6  -2  -3 1398.73   62.75
  -6  -2   3 1326.62   52.81
  -5   2   3  781.56   30.38
  -5  -2   3  607.24   44.93
  -5  -2   3  809.80   36.34
  -5   2   3  779.74   44.22
   5  -2  -3  708.39   22.12
   5  -2  -3  578.22   40.04
   4  -2  -3  165.93   21.15
  -4  -2   3  221.34   16.37
  -4  -2   3  246.14   23.11
   4  -2  -3  245.33   19.39
  -4   2   3  220.10   11.41
   4   2  -3  271.71   33.76
  -4   2   3  231.74   19.00
   4   2  -3  206.32   16.24
   4  -2  -3  243.31   15.08
  -3  -2   3  115.51   10.95
   3  -2  -3  153.51   14.32
   3   2  -3  112.06   11.11
  -3   2   3  136.18   16.53
  -3  -2   3  129.18   12.04
  -3   2   3  124.79   11.43
   3   2  -3   96.35   16.62
   3  -2  -3  110.85   10.55
   3   2  -3  120.68   11.52
   2   2  -3 1949.76   46.70
   2  -2  -3 2413.30   66.77
  -2   2   3 2049.02   40.24
   2   2  -3 2295.05   47.84
  -2  -2   3 2181.66   47.09
   2  -2  -3 2104.69   42.76
   2  -2  -3 2069.05   24.26
  -2   2   3 2284.21   69.00
  -2   2   3 2005.07   49.46
  -1   2   3 5358.13  107.92
  -1  -2   3 5165.96   81.58
  -1   2   3 5422.78   67.30
  -1   2   3 5219.48   88.21
  -1  -2   3 5404.26   74.96
   0   2   3  240.19   23.52
   0   2   3  230.54   18.18
   0  -2   3  249.65   19.35
   0   2  -3  234.73   15.94
   0   2   3  255.10   21.45
   0   2  -3  193.43   18.09
   0   2   3  247.38   26.62
   0  -2   3  217.49   10.27
   1   2   3  535.59   29.97
   1  -2   3  613.36   27.52
   1   2   3  449.80   33.27
   1  -2   3  570.77   34.25
   1   2   3  508.52   25.77
  -1   2  -3  624.34   43.25
   1   2   3  583.15   35.96
   1  -2   3  554.54   34.34
   1   2   3  470.79   42.00
  -1  -2  -3  548.93   26.99
  -1   2  -3  521.36   24.38
  -2   2  -3  119.81   12.58
  -2   2  -3  125.74   11.17
  -2   2  -3  174.60   24.88
   2   2   3  146.57   17.82
   2  -2   3  157.71   20.81
   2  -2   3  133.73   14.70
   2   2   3   56.28   16.03
   2  -2   3  123.55   16.51
   2   2   3   90.26   14.87
   2  -2   3  138.58   19.16
   3   2   3  197.89   31.31
   3   2   3  205.04   22.21
   3  -2   3  222.93   21.04
  -3   2  -3  250.74   33.06
   3  -2   3  165.75   23.14
   3   2   3  198.18   23.11
   4   2   3  300.71   39.82
   4   2   3  250.99   28.41
   4   2   3  341.36   27.29
  -4  -2  -3  253.28   30.97
  -4   2  -3  407.15   44.22
   4  -2   3  269.66   25.66
   4  -2   3  156.18   25.02
   5   2   3  881.09   69.98
  -5  -2  -3  477.39   47.52
  -5   2  -3  929.67   70.00
   5  -2   3  501.24   46.61
   5   2   3  496.75   44.18
  -6   2  -3   65.50   19.36
   6   2   3   70.68   19.77
   6   2   3   16.75    7.25
  -6  -2  -3   13.94    8.87
   6  -2   3   34.99   12.65
   7   2   3    0.35    1.86
   7  -2   3   -4.18    4.66
  -7   2  -3    6.42    6.38
   7   2   3   -4.62    4.91
  -7  -2  -3   -4.93    5.62
   7  -2   3   12.44    8.46
  -8   2  -3   80.97   23.33
   8   2   3   45.55   15.36
   8  -2   3   77.40   21.86
   8   2   3   80.08   21.87
   9  -2   3  172.10   33.60
 -11  -3   3   78.17   23.71
 -11   3   3  108.13   27.23
 -11  -3   3   53.36   17.46
 -10   3   3   30.77   13.98
 -10  -3   3   20.73   11.90
 -10  -3   3   -2.22    3.74
  -9  -3   3  336.78   45.45
  -9  -3   3  238.91   33.18
  -9   3   3  280.37   43.87
  -8  -3   3  494.21   52.36
  -8   3   3  403.47   50.08
  -8  -3   3  574.36   46.07
  -7  -3   3   36.71   14.45
  -7   3   3   65.73   17.41
  -7  -3   3   85.93   15.79
  -6  -3   3  249.35   24.46
  -6  -3   3  219.71   29.00
  -6   3   3  262.18   28.55
  -5  -3   3  297.99   28.69
  -5   3   3  262.66   24.15
  -5  -3   3  309.11   23.38
  -4   3   3  165.80   18.25
  -4  -3   3  160.84   15.18
  -4   3   3  156.10    8.83
  -4  -3   3  161.58   16.71
   4  -3  -3  164.53   15.70
   4   3  -3  171.18   21.57
  -4   3   3  143.57   15.09
   3   3  -3    5.96    2.52
   3  -3  -3    1.60    2.37
   3  -3  -3    6.72    3.08
  -3  -3   3    2.65    1.73
  -3   3   3    5.85    2.18
   3   3  -3    5.22    2.83
   3  -3  -3    3.58    2.09
  -3   3   3    3.63    2.04
  -3   3   3    5.33    2.78
   2   3  -3   48.08    7.10
  -2   3   3   62.24    8.23
   2  -3  -3   55.73    7.99
  -2  -3   3   58.50    8.66
  -2   3   3   51.76   10.82
  -2   3   3   51.67    9.20
  -2  -3   3   53.34    7.83
   2   3  -3   45.60    5.34
  -2   3   3   51.03    8.28
  -1  -3   3  481.19   25.17
  -1   3   3  539.34   24.30
  -1  -3   3  514.45   24.92
  -1   3   3  518.77   29.39
   1   3  -3  464.18   14.18
  -1   3   3  552.69   37.50
   0  -3   3  315.07   20.57
   0  -3   3  283.23   13.26
   0  -3  -3  300.16   20.67
   0  -3   3  294.69   21.88
   0   3   3  300.75   24.38
   0   3  -3  303.96   14.96
   0   3   3  282.97   31.39
   1   3   3 1039.64   41.65
  -1  -3  -3 1060.86   38.12
   1  -3   3 1118.07   50.37
   1  -3   3 1085.03   33.67
  -1   3  -3 1009.87   33.65
  -1   3  -3 1160.45   46.23
   2   3   3 1439.17   83.27
   2   3   3 1724.66   58.94
  -2   3  -3 1368.22   71.08
  -2   3  -3 1584.44   42.69
   2  -3   3 1805.89   56.85
   3  -3   3  481.99   38.54
   3   3   3  543.51   37.59
  -3   3  -3  496.81   48.84
  -3   3  -3  408.86   17.73
   3   3   3  552.37   53.96
   4   3   3  341.19   32.94
   4  -3   3  295.35   23.97
  -4   3  -3  393.27   43.74
   4   3   3  416.11   47.76
   4  -3   3  267.74   31.40
  -5   3  -3  281.82   38.83
   5   3   3  211.45   28.40
   5   3   3  292.60   41.03
   6   3   3   99.58   24.51
   6  -3   3   67.16   18.06
   6   3   3   46.51   14.64
   7   3   3   -9.09    7.58
   7   3   3    3.67    4.37
  -7   3  -3    4.65    5.32
   7  -3   3   -0.28    1.71
   8   3   3   -6.80    6.72
  -8   3  -3  -12.86    9.32
 -11  -4   3    8.13    7.74
 -11  -4   3  -13.28    8.98
 -11   4   3    8.98    7.97
 -10  -4   3    0.74    2.61
 -10  -4   3   -4.62    5.15
 -10   4   3   -0.77    2.85
  -9  -4   3  -11.21    7.18
  -9   4   3   -6.32    6.76
  -9  -4   3   -3.71    4.96
  -8   4   3   49.99   16.73
  -8  -4   3   20.73   12.17
  -8  -4   3   47.89   14.04
  -7  -4   3  122.77   19.89
  -7  -4   3  104.64   21.70
  -7   4   3  139.48   23.45
  -6  -4   3  610.25   38.64
  -6  -4   3  522.43   42.06
  -6   4   3  515.02   38.19
  -5  -4   3  493.64   31.04
   5  -4  -3  540.50   29.96
  -5   4   3  461.79   31.36
   4   4  -3 1629.23   40.01
   4  -4  -3 1716.22   52.14
   4   4  -3 1610.29   56.72
  -4   4   3 1714.76   60.73
  -4   4   3 1551.55   51.51
  -4  -4   3 1643.78   50.94
  -3   4   3  474.72   23.38
  -3  -4   3  437.20   24.92
   3   4  -3  450.17   20.85
   3  -4  -3  438.93   25.18
   3   4  -3  421.63   22.76
  -3   4   3  532.35   35.42
   3  -4  -3  461.80   26.61
  -3   4   3  426.15   24.56
  -2   4   3 1066.03   38.69
   2  -4  -3 1049.35   38.87
  -2  -4   3 1049.76   39.01
  -2   4   3 1177.36   50.23
  -2   4   3 1062.30   40.53
   2   4  -3 1111.43   36.40
   2  -4  -3 1105.47   42.66
  -2  -4   3  983.67   32.98
   1   4  -3   34.54    5.03
  -1   4   3   39.58   11.76
  -1  -4   3   47.06    7.99
  -1   4   3   33.49    6.69
  -1  -4   3   31.58    6.61
  -1   4   3   37.48    8.32
   0  -4   3  214.76   18.08
   0  -4  -3  211.09   18.06
   0   4   3  157.02   25.67
   0   4  -3  196.62   12.62
   0  -4   3  195.32   12.80
   0  -4   3  213.88   19.65
   1   4   3   14.81    8.28
  -1  -4  -3   22.24    5.63
   1  -4   3   21.97    4.94
  -1   4  -3   22.38    4.84
  -1   4  -3   19.82    5.16
   2   4   3   74.58   20.40
   2   4   3   92.94   13.58
  -2   4  -3   67.94    8.54
  -2  -4  -3   81.46   11.05
  -2   4  -3   68.59   12.84
   2  -4   3   72.94   10.98
   3   4   3    1.79    2.04
  -3   4  -3    5.15    3.84
  -3   4  -3    2.70    1.42
   4   4   3  248.42   38.31
  -4   4  -3  153.59   28.56
   4   4   3  227.58   26.50
   5   4   3   13.40    9.00
   5   4   3    8.54    5.73
  -5   4  -3    8.17    7.76
   6   4   3  386.63   49.20
  -6   4  -3  402.74   48.31
   7   4   3    2.80    4.42
   7   4   3   -1.62    3.10
  -7   4  -3    4.24    5.12
  -8   4  -3  172.54   33.51
   8   4   3  150.73   32.08
   9   4   3   15.79   11.67
 -11  -5   3    8.50    7.40
 -10  -5   3   51.24   16.23
 -10   5   3   61.84   22.72
  -9  -5   3   -1.35    2.91
  -9   5   3   -4.25    5.51
   8  -5  -3    4.59    3.47
  -8  -5   3   -0.23    1.68
  -8   5   3    7.30    5.98
  -7  -5   3  130.39   20.84
   7  -5  -3  101.23   14.25
  -7   5   3  100.00   19.18
  -6   5   3   11.61    6.22
  -6  -5   3   18.94    7.62
   6  -5  -3    9.67    4.22
  -5   5   3  128.24    9.96
  -5  -5   3  122.87   16.11
   5   5  -3  127.29   10.84
   5  -5  -3  154.05   16.39
  -5   5   3  105.30   15.70
   4   5  -3   59.49    7.04
  -4  -5   3   48.60    9.28
  -4   5   3   53.18    5.94
  -4   5   3   50.25    4.33
   4  -5  -3   56.69    9.70
  -4   5   3   56.72   10.59
  -3   5   3  226.78   19.44
   3   5  -3  157.25   14.03
  -3  -5   3  180.76   17.22
   3  -5  -3  209.61   19.27
  -3   5   3  195.03   16.84
  -3   5   3  183.70   17.56
  -2  -5   3  871.68   37.80
   2  -5  -3  858.40   18.99
  -2   5   3  876.19   38.23
  -2   5   3  885.24   39.20
   2  -5  -3  967.05   43.51
  -2  -5   3  868.69   31.91
  -1   5   3    5.88    6.93
  -1  -5   3    2.58    2.23
  -1  -5   3    0.97    1.66
   1  -5  -3    0.46    1.21
   1   5  -3    0.76    1.24
  -1   5   3    2.00    1.66
   0  -5   3 1289.00   47.15
   0  -5  -3 1249.96   41.12
   0  -5   3 1164.90   48.58
   0  -5   3 1204.14   36.20
   0   5  -3 1121.05   33.91
   0  -5  -3 1320.10   46.83
   1  -5   3   97.59   11.09
   1   5   3   78.26   20.20
  -1  -5  -3  113.40   13.56
  -1   5  -3   92.30   11.14
  -2  -5  -3   84.40   11.35
  -2   5  -3   80.69    8.79
  -2   5  -3   81.75   12.90
   2   5   3   96.78   23.80
   3   5   3  198.41   34.75
   3   5   3  152.03   18.84
  -3   5  -3  145.02   21.57
   4   5   3  107.19   25.91
  -4   5  -3   63.97   17.48
   4   5   3   97.32   16.64
  -4   5  -3   68.49    6.72
   5   5   3   11.82    5.90
  -5   5  -3    8.80    7.24
   5   5   3   22.72   12.01
   6   5   3   80.03   23.53
  -6   5  -3   58.43   18.59
   6   5   3   84.02   18.69
  -7   5  -3   18.99   10.81
   7   5   3   16.46   10.74
   8   5   3   13.41    9.72
  -8   5  -3    9.27    7.76
   9   5   3    4.51    6.00
 -11  -6   3   -1.72    3.74
 -10  -6   3   18.10   10.30
 -10   6   3   20.49   12.96
  -9  -6   3   24.37   11.45
  -9   6   3   24.67   12.46
  -8  -6   3    2.07    3.50
  -8   6   3   18.20    9.23
  -7   6   3   40.22   12.30
  -7  -6   3   56.65   14.38
   7  -6  -3   46.72    9.25
  -6   6   3  219.90   17.17
  -6  -6   3  218.22   24.82
   6  -6  -3  206.15   19.20
  -6   6   3  181.35   23.04
   6   6  -3  151.39   10.33
  -5   6   3  344.44   16.34
   5  -6  -3  375.25   26.17
  -5  -6   3  333.61   27.85
  -5   6   3  344.53   29.43
   5   6  -3  313.57   14.69
  -4   6   3  175.58    9.20
  -4  -6   3  174.76   18.69
   4  -6  -3  192.35   19.18
  -4   6   3  177.83   14.07
  -4   6   3  195.16   20.70
  -3   6   3   78.11   12.56
  -3   6   3   85.72   14.34
  -3  -6   3   62.50   10.74
  -3   6   3   64.67    5.24
  -3  -6   3   71.66    8.37
  -3   6   3   67.09   10.32
   3  -6  -3   83.51   13.25
  -2  -6   3  789.32   38.44
  -2   6   3  755.59   38.43
  -2  -6   3  737.60   29.68
   2  -6  -3  803.75   22.17
  -1   6   3  215.18   20.40
  -1  -6   3  239.41   20.96
   1   6  -3  201.08   16.59
   1  -6  -3  199.59   12.97
  -1  -6   3  211.94   18.18
   0   6  -3  210.45   16.40
   0  -6   3  254.54   22.30
   0  -6  -3  227.88   17.45
  -1  -6  -3  268.00   21.53
  -1  -6  -3  249.48   22.45
   1  -6   3  233.12   18.82
  -1   6  -3  209.23   17.85
  -2  -6  -3   94.00   12.04
  -2   6  -3   85.53   12.88
  -2   6  -3   90.96    9.28
   2   6   3  109.35   25.94
  -3   6  -3  231.76   25.64
   3   6   3  293.25   43.68
   4   6   3  126.37   28.60
  -4   6  -3   68.65   17.09
   5   6   3   69.84   21.62
   5   6   3   78.28   16.04
  -5   6  -3   50.38   17.27
  -6   6  -3   12.13    9.02
   6   6   3   28.04   14.63
   7   6   3   11.41    8.92
  -7  -6  -3   -6.53    6.71
  -7   6  -3    4.50    5.49
  -8   6  -3   59.72   20.19
   8   6   3   59.11   20.67
 -10   7   3   26.72   16.18
 -10  -7   3    7.50    6.85
  -9  -7   3  309.10   40.74
  -9   7   3  295.35   42.57
  -8  -7   3  288.83   35.75
  -8   7   3  218.21   32.01
  -7  -7   3   21.16    9.18
  -7   7   3   16.83    8.09
  -6   7   3   18.86    7.71
  -6   7   3    6.59    2.23
  -6  -7   3    7.51    4.41
   6  -7  -3   10.95    4.77
  -5   7   3   19.36    4.03
  -5   7   3   24.01    8.22
  -5  -7   3   14.39    6.47
  -5   7   3   11.38    1.95
   5  -7  -3   22.12    6.47
  -4   7   3  245.47   20.69
  -4  -7   3  257.34   24.12
  -4   7   3  252.61   12.64
   4  -7  -3  258.65   24.26
  -4   7   3  253.67   25.27
  -3   7   3  360.45   28.83
  -3   7   3  333.79   14.56
  -3  -7   3  321.10   26.07
  -3  -7   3  356.30   18.82
   3  -7  -3  315.27   14.09
   2  -7  -3   28.96    4.92
  -2  -7   3   18.28    6.16
  -2  -7   3   18.29    4.85
   2   7  -3   25.83    6.69
  -2   7   3   18.96    6.81
  -1  -7   3   32.99    7.44
  -1   7   3   30.61    8.09
  -1  -7   3   24.93    6.89
   1  -7  -3   28.19    5.27
   1   7  -3   27.97    6.59
   0   7  -3  305.19   21.75
   0  -7   3  332.35   27.55
   0  -7  -3  288.22   19.75
   1  -7   3  530.33   35.17
  -1  -7  -3  508.52   31.86
  -1  -7  -3  568.31   32.17
  -1   7  -3  496.80   29.40
  -2  -7  -3 1217.29   43.96
  -2   7  -3 1071.64   32.30
  -2   7  -3 1022.00   46.27
  -2  -7  -3 1177.71   57.26
  -3   7  -3   50.28   11.54
  -3  -7  -3   46.00   12.94
  -4  -7  -3  202.61   30.77
  -4   7  -3  208.81   28.45
   4   7   3  249.26   41.76
   5   7   3   -9.52    8.31
  -5  -7  -3   -8.57    7.03
  -5   7  -3    4.92    5.29
   6   7   3   44.60   18.02
  -6  -7  -3   37.78   15.04
  -6   7  -3   25.49   13.35
  -7   7  -3   50.68   19.18
  -7  -7  -3   47.27   17.21
   7   7   3   60.01   21.04
  -8   7  -3   17.99   11.27
   8   7   3   13.87   10.38
 -10  -8   3   17.78   10.74
 -10   8   3    4.24    6.04
  -9  -8   3    4.42    5.16
  -9   8   3   -0.13    1.85
  -8   8   3    1.26    3.53
  -8  -8   3   -0.66    2.21
  -7   8   3   69.31   16.61
  -7  -8   3   49.27   13.80
  -6  -8   3   60.42   13.96
  -6   8   3   60.85   14.79
  -5  -8   3  346.00   31.14
  -5   8   3  364.38   18.88
  -5   8   3  358.06   33.26
  -4   8   3  498.43   35.18
  -4  -8   3  504.04   35.25
  -4   8   3  487.31   19.99
  -4   8   3  504.82   37.25
  -3  -8   3  146.72   12.23
  -3  -8   3  151.41   18.69
  -3   8   3  163.02   11.81
   3  -8  -3  153.16   11.28
  -3   8   3  167.98   20.92
  -2   8   3  327.28   28.89
  -2  -8   3  313.47   26.83
  -2  -8   3  285.22   19.36
   2  -8  -3  304.88   17.85
   2   8  -3  289.99   23.57
  -1   8   3   16.21    6.42
   1  -8  -3   16.84    4.46
  -1  -8   3   21.36    7.31
  -1  -8   3   18.64    6.16
   1   8  -3   14.36    5.28
   0  -8   3   22.07    7.00
   0   8  -3   17.85    5.75
   0  -8  -3   21.39    5.34
  -1  -8  -3    2.43    1.48
  -1   8  -3    1.50    1.86
   1  -8   3    0.72    2.37
  -2   8  -3   26.49    7.71
  -2  -8  -3   41.12    8.28
  -2  -8  -3   51.03   11.84
  -2   8  -3   32.00    5.42
  -3  -8  -3   -6.92    5.13
  -3   8  -3    0.33    1.31
   4   8   3   23.83   11.66
  -4  -8  -3   21.82    9.33
  -4   8  -3   30.64   10.50
   5   8   3    4.86    6.21
  -5  -8  -3    2.95    4.33
  -5   8  -3    7.57    6.15
  -6  -8  -3   90.55   23.90
  -6   8  -3   91.39   25.36
   6   8   3  114.53   29.79
   7   8   3    4.02    5.79
  -7  -8  -3  -11.92    9.24
  -7   8  -3   -3.74    5.62
  -9  -9   3   -4.76    5.37
  -9   9   3    0.59    2.57
  -8  -9   3    9.35    6.84
  -8   9   3    5.26    3.05
  -7   9   3    7.73    5.12
  -7  -9   3    0.57    1.86
  -6   9   3   81.50   17.73
  -6  -9   3   81.55   17.09
  -5   9   3   55.70    9.18
  -5  -9   3   70.97   14.92
  -5   9   3   82.68   17.13
  -4  -9   3  150.27   20.15
  -4   9   3  170.67   13.13
  -4   9   3  181.54   23.96
  -3  -9   3  474.44   22.67
   3  -9  -3  473.65   22.61
  -3   9   3  467.08   22.58
  -3  -9   3  462.18   34.01
  -3   9   3  499.04   38.36
   2  -9  -3    3.36    2.08
  -2  -9   3    8.51    3.69
  -2   9   3    1.82    2.41
   2   9  -3    7.74    4.77
  -2  -9   3    1.02    2.41
   1   9  -3  157.06   18.55
   1  -9  -3  141.06   13.94
  -1  -9   3  167.77   18.81
  -1  -9   3  150.52   19.48
  -1   9   3  145.54   20.16
   0   9  -3   93.15   14.32
   0   9   3   98.57   16.70
   0  -9  -3   88.58   12.07
   0  -9   3  118.64   17.91
   1  -9   3    2.80    2.84
  -1  -9  -3    2.76    2.62
  -1   9  -3    3.63    3.71
  -2   9  -3    6.34    3.95
  -2   9  -3    0.94    0.66
  -2  -9  -3   -0.68    4.36
  -3   9  -3    1.91    2.19
  -3  -9  -3   -2.37    3.19
  -4   9  -3    4.56    2.13
  -4  -9  -3   -1.06    2.67
  -5  -9  -3   43.24   15.35
  -5   9  -3   61.15   17.19
   6   9   3  -13.86   10.82
  -6  -9  -3   -9.06    7.68
  -6   9  -3  -10.61    8.49
   7   9   3   72.16   24.56
  -7   9  -3   61.53   22.52
  -9 -10   3   69.40   20.37
  -9  10   3   88.50   24.78
  -8  10   3   33.94   13.83
  -8 -10   3   40.56   14.53
  -7 -10   3  121.37   23.09
  -7  10   3  118.90   23.98
  -6  10   3   17.38    8.90
  -6 -10   3   10.18    5.15
  -5 -10   3   36.27   11.15
  -5  10   3   36.00   11.44
  -4 -10   3    6.58    4.11
  -4  10   3   10.62    5.59
  -3 -10   3   77.69    9.42
  -3  10   3   75.13   15.78
  -3  10   3   67.55    9.29
   3 -10  -3   79.00   10.23
  -3 -10   3   87.36   15.47
   2 -10  -3   50.20    8.46
  -2 -10   3   46.32   11.62
  -2 -10   3   39.01    7.61
  -2  10   3   48.80   12.30
   2  10  -3   48.23   10.98
   1 -10  -3   32.28    7.12
  -1 -10   3   20.08    7.68
  -1  10   3   29.15    9.48
   1  10  -3   28.25    8.36
   0  10  -3  178.96   21.30
   0  10   3  161.96   22.43
   0 -10   3  191.20   23.84
   0 -10  -3  157.89   16.68
   1 -10   3  486.36   38.91
  -1 -10  -3  416.99   30.69
  -1  10  -3  448.11   34.13
  -2 -10  -3   44.21   11.28
  -2  10  -3   38.44   10.85
  -3 -10  -3  404.10   38.53
  -3  10  -3  344.32   33.55
  -4 -10  -3   35.27   12.86
  -4  10  -3   14.62    7.88
   5  10   3   -5.63    7.22
  -5 -10  -3   -3.44    4.57
  -5  10  -3    5.23    5.24
  -6 -10  -3   -4.14    5.50
   6  10   3   -1.81    9.56
  -6  10  -3   -1.61    3.49
  -7  10  -3   -4.24    6.32
  -8  11   3    3.19    4.60
  -8 -11   3   12.63    8.34
  -7  11   3    4.01    4.62
  -7 -11   3   11.23    7.30
  -6  11   3   24.39    9.62
  -6 -11   3   21.10    9.40
  -5 -11   3   12.70    6.36
  -5  11   3   23.90    9.81
  -4 -11   3   81.68   16.54
  -4  11   3   78.94   16.98
  -3 -11   3  255.47   28.30
   3 -11  -3  254.47   19.44
   3  11  -3  223.18   25.52
  -3  11   3  260.47   30.54
  -3 -11   3  230.01   16.74
   2 -11  -3    4.36    2.80
  -2 -11   3   11.40    5.26
   2  11  -3    3.58    2.90
  -2  11   3   12.88    7.30
  -2 -11   3    5.85    3.15
  -1 -11   3   -1.20    4.35
   1 -11  -3   -0.18    1.42
   1  11  -3   -1.25    2.88
   0 -11   3    4.78    3.53
   0  11  -3    2.99    2.70
   0 -11  -3    3.14    1.69
   0  11   3    1.88    3.42
  -1 -11  -3  103.78   15.79
  -1  11  -3  129.68   19.44
   1 -11   3  115.22   19.85
  -2 -11  -3   50.68   12.23
  -2  11  -3   67.89   14.72
  -3  11  -3    6.58    4.88
  -3 -11  -3    6.08    4.96
  -4 -11  -3   -4.14    4.52
  -4  11  -3   -4.25    4.32
  -5 -11  -3   -0.71    2.53
  -5  11  -3   -1.91    3.31
  -6 -11  -3   28.64   14.75
  -6  11  -3   32.86   14.84
  -8 -12   3   15.55    9.99
  -7 -12   3    2.12    3.54
  -7  12   3    1.88    3.44
  -6  12   3   29.04   11.78
  -6 -12   3   28.11   11.34
  -5 -12   3   41.86   12.93
  -5  12   3   43.18   13.50
  -4 -12   3    1.75    2.55
  -4  12   3    0.34    1.80
  -3 -12   3    0.68    2.11
  -3  12   3    4.37    4.09
   3  12  -3   -1.76    2.54
  -2 -12   3   -2.70    2.28
   2 -12  -3    0.27    1.81
   2  12  -3    2.26    2.52
  -2 -12   3    6.27    4.61
  -2  12   3    2.03    1.47
  -1  12   3   58.43   14.76
   1  12  -3   47.45   12.48
  -1 -12   3   53.42   13.27
  -1 -12   3   66.97   13.28
   1 -12  -3   55.19   10.62
   0 -12   3   13.10    6.13
   0  12   3   12.35    7.44
   0 -12  -3   11.96    5.81
   0  12  -3   16.60    6.87
   1 -12   3    5.32    4.17
  -1 -12  -3    3.16    1.93
  -1  12  -3    5.75    4.39
  -2  12  -3   -3.41    3.55
  -2 -12  -3   11.20    6.03
  -3  12  -3   -4.69    4.38
  -3 -12  -3   -1.21    2.50
  -4  12  -3   16.86    8.62
  -4 -12  -3   19.68    9.85
  -5 -12  -3   10.77    8.51
  -5  12  -3   -7.29    6.36
  -6  12  -3   -6.59    6.67
  -7  13   3    7.25    7.88
  -7 -13   3   -2.18    3.70
  -6 -13   3    4.23    4.55
  -6  13   3   11.18    7.73
  -5 -13   3   28.40   11.38
  -5  13   3   21.15   11.66
  -4 -13   3   44.28   12.94
   4  13  -3   56.22   14.81
  -4  13   3   54.77   15.67
  -3  13   3   72.93   17.60
   3  13  -3   58.99   14.52
  -3 -13   3   52.11   13.78
   2  13  -3   11.77    6.29
  -2 -13   3   12.65    6.48
  -2  13   3   15.67    8.04
   1 -13  -3   26.38    7.54
  -1 -13   3   33.03    9.64
  -1  13   3   30.99   11.15
  -1 -13   3   28.84   10.36
   1  13  -3   26.13    9.42
   0  13  -3    5.98    4.57
   0 -13   3   -1.70    2.80
   0 -13  -3   -3.26    2.92
   0  13   3    4.82    3.92
   1  13   3    0.93    2.21
   1 -13   3    8.63    6.08
  -1 -13  -3    3.39    3.04
  -1  13  -3    1.71    1.22
  -2 -13  -3   -5.54    4.44
  -2  13  -3   -1.66    2.82
  -3  13  -3    4.83    4.63
  -3 -13  -3   16.07    8.42
  -4  13  -3  -10.79    7.26
  -4 -13  -3    2.86    3.06
  -5  13  -3   40.10   14.96
  -5 -13  -3    8.73    7.50
  -6 -14   3    8.64    6.65
  -6  14   3    3.75    4.82
  -5 -14   3    3.73    3.96
  -5  14   3    0.70    2.57
   4  14  -3   -1.96    3.00
  -4 -14   3    1.31    2.65
  -4  14   3    1.30    3.29
  -3  14   3   -4.38    4.65
  -3 -14   3    7.01    5.34
   3  14  -3    2.68    2.60
  -2  14   3    1.59    2.93
   2  14  -3    5.08    3.90
  -1 -14   3   -2.72    3.47
   1  14  -3   -2.53    3.31
  -1  14   3   -2.49    3.46
   0  14  -3   46.84   13.19
   0 -14  -3   47.68   11.26
   0 -14   3   49.07   14.04
   0  14   3   59.76   16.27
   1  14   3   29.83   11.60
  -1 -14  -3   38.95   10.93
  -1  14  -3   39.11   12.27
   1 -14   3   44.68   14.38
   2  14   3    2.61    3.46
  -2  14  -3    1.83    3.01
  -2 -14  -3    0.16    1.51
  -3  14  -3   63.49   17.32
  -3 -14  -3   64.99   16.15
  -4  14  -3    2.29    3.54
  -4 -14  -3   14.68   10.20
  -5  14  -3   10.99    8.14
  -5 -15   3   -8.46    6.42
   5  15  -3    4.80    4.89
  -4 -15   3   15.73    8.54
   4  15  -3   12.59    8.45
  -4  15   3    8.45    6.68
  -3  15   3   56.72   16.94
   3  15  -3   46.94   14.85
  -3 -15   3   75.37   17.92
  -2 -15   3   23.48    9.82
  -2  15   3   17.42    9.14
   2  15  -3   18.98    8.70
   1  15  -3  -10.60    6.57
  -1  15   3   -3.01    3.92
   0  15   3   26.43   11.83
   0  15  -3   35.85   12.74
   0 -15   3   37.15   12.98
   1 -15   3   12.84    7.92
  -1  15  -3   24.31   10.18
   1  15   3    4.38    4.74
  -2 -15  -3   -2.23    3.09
  -2  15  -3   -1.61    3.09
  -3 -15  -3    2.24    4.88
  -3  15  -3    9.86    7.05
  -4  15  -3    2.82    4.14
  -4 -15  -3   -3.71    4.73
   5  16  -3   -1.96    3.43
   4  16  -3  -10.44    7.02
   3  16  -3   -2.07    3.17
  -3 -16   3    5.36    5.04
  -2 -16   3   12.81    7.49
   2  16  -3    1.68    2.96
   1  16  -3   16.39    8.83
  -1 -16   3   17.95    8.05
   0 -16   3    7.95    6.04
   0  16  -3   15.40    8.48
   1 -16   3    1.71    3.78
  -1  16  -3   16.20    8.68
  -2  16  -3   -0.41    1.89
   3  17  -3    7.92    6.24
   2  17  -3    7.35    6.02
   1  17  -3   -3.08    3.99
   0  17  -3   15.18    8.49
  -1  17  -3   22.24   10.58
 -11   0   4    8.17    7.36
 -11   0   4    8.80    6.42
 -10   0   4  355.64   38.85
 -10   0   4  815.83   71.91
  -9   0   4  123.10   20.66
  -9   0   4  194.61   34.03
   9   0  -4  210.75   27.14
   8   0  -4  489.96   43.25
  -8   0   4  360.50   31.12
  -8   0   4  446.49   50.11
   7   0  -4   66.04   16.44
  -7   0   4   43.57   14.87
  -7   0   4   45.58   10.04
  -6   0   4  304.84   21.29
  -6   0   4  332.03   39.98
   6   0  -4  342.27   37.21
  -5   0   4  182.19   14.13
  -5   0   4  129.47   23.25
   5   0  -4  131.49   22.48
   5   0  -4  205.45   21.55
   4   0  -4 1190.45   32.39
  -4   0   4 1151.39   57.26
  -4   0   4 1224.94   32.69
   3   0  -4   42.21    5.18
  -3   0   4   45.56    5.87
   3   0  -4   50.56    6.68
   3   0  -4   50.34    9.13
  -3   0   4   51.37    8.04
   2   0  -4  721.91   36.77
  -2   0   4  666.55   23.76
   2   0  -4  685.95   24.81
  -2   0   4  677.66   16.30
  -1   0   4   29.98    7.79
  -1   0   4   32.27    3.99
   1   0  -4   29.94    7.91
   1   0  -4   34.66    6.12
  -1   0   4   27.18    6.82
   0   0  -4 4295.42   89.05
   0   0   4 4178.28   92.31
   0   0   4 4302.42   91.61
   0   0  -4 4052.11   81.20
   0   0   4 4461.50  107.94
   1   0   4 2333.48   76.51
  -1   0  -4 2214.21   63.25
   1   0   4 2319.34   88.63
   2   0   4  216.89   25.58
  -2   0  -4  223.81   23.21
   2   0   4  282.54   35.17
   2   0   4  226.08   30.32
   3   0   4  760.07   51.73
  -3   0  -4  665.75   47.98
  -4   0  -4    2.51    3.54
   4   0   4    4.92    4.62
   4   0   4    6.18    5.73
   5   0   4    5.01    5.37
   5   0   4   -5.11    5.06
  -5   0  -4   -7.15    6.18
   6   0   4   73.82   19.40
  -6   0  -4  159.75   30.85
   6   0   4  185.03   33.10
  -7   0  -4    6.21    6.55
   7   0   4   21.53   11.48
   7   0   4   24.41   12.12
  -8   0  -4    4.29    5.70
   8   0   4    0.08    1.74
 -12  -1   4    3.95    4.88
 -11   1   4   -0.19    1.66
 -11  -1   4    3.58    4.27
 -11   1   4   -0.01    1.01
 -10  -1   4   46.10   17.67
 -10   1   4   15.30    8.15
 -10   1   4   42.60   16.32
 -10  -1   4   25.57   10.30
   9   1  -4   -1.16    2.38
  -9   1   4   -0.10    1.56
   9  -1  -4    8.70    5.40
  -9  -1   4    7.25    6.53
  -9  -1   4   11.07    6.17
  -9   1   4    8.12    5.09
   8  -1  -4    7.15    5.35
  -8  -1   4    0.68    2.27
  -8   1   4   -6.81    6.27
  -8  -1   4    8.38    4.83
  -8   1   4    3.00    2.83
  -7   1   4  135.78   16.14
  -7  -1   4  151.79   18.41
  -7  -1   4  189.97   30.56
  -7   1   4  181.02   31.77
   7  -1  -4  184.52   26.72
  -6  -1   4 1180.25   44.01
  -6   1   4 1186.04   39.45
  -6  -1   4 1184.04   71.72
   6  -1  -4 1275.39   69.85
   5  -1  -4  246.18   19.16
  -5   1   4  217.92   14.00
   5   1  -4  206.47   16.41
  -5  -1   4  196.64   26.61
  -5  -1   4  223.72   16.76
  -5   1   4  236.53   26.19
   5   1  -4  185.34   23.00
  -4   1   4 1344.30   29.59
   4   1  -4 1378.95   39.15
   4  -1  -4 1276.30   29.18
   4  -1  -4 1351.54   40.58
  -4   1   4 1391.25   47.75
   4  -1  -4 1315.11   66.63
   4   1  -4 1580.60   50.45
  -4  -1   4 1343.13   37.89
   4  -1  -4 1497.50   48.43
  -3  -1   4 1196.77   34.47
  -3   1   4 1164.00   25.77
   3   1  -4 1310.91   37.84
  -3  -1   4 1300.03   41.34
   3   1  -4 1103.02   42.00
   3  -1  -4 1262.61   28.08
  -3   1   4 1135.10   31.81
   3   1  -4 1206.36   27.59
   3  -1  -4 1110.59   30.38
   3  -1  -4 1297.26   47.59
   2  -1  -4    5.97    3.93
  -2  -1   4    3.61    2.13
   2  -1  -4    2.72    1.40
  -2   1   4    2.90    1.84
   2   1  -4    2.47    1.71
  -2   1   4    3.54    1.33
   1   1  -4   69.55   12.69
   1  -1  -4   61.31    7.95
  -1  -1   4   60.93   10.35
   1   1  -4   58.00    8.20
  -1   1   4   88.82   15.95
  -1   1   4   60.89   11.42
   0   1  -4  165.45   17.79
   0   1   4  167.85   18.45
   0  -1   4  161.81   18.50
   0   1   4  155.72   12.72
   0   1  -4  171.17   16.55
   0  -1   4  141.36   13.30
   0  -1   4  162.91   20.10
   0   1   4  139.73   20.64
   0   1   4  187.95   23.74
  -1   1  -4   -0.73    1.56
   1   1   4   11.06    5.65
   1   1   4    6.23    4.80
  -1   1  -4    2.91    2.30
   1   1   4    2.16    2.37
   1  -1   4    4.10    5.56
   1   1   4    6.92    4.27
  -1   1  -4    1.37    2.09
   1  -1   4   -2.52    2.57
  -1  -1  -4    3.72    3.82
   1  -1   4    2.24    1.26
   2   1   4   28.55    8.95
   2   1   4   13.61    8.18
  -2   1  -4   22.01    7.42
   2  -1   4   28.45    9.39
   2   1   4   21.06    7.66
   2  -1   4   19.23    7.38
   2  -1   4   29.99   10.30
  -2   1  -4   34.62    8.12
   3   1   4  133.20   21.89
   3  -1   4  125.38   21.83
  -3   1  -4   59.55   14.83
   3   1   4  169.10   20.71
   3   1   4   74.83   19.57
   3  -1   4   60.83   16.47
   4   1   4  432.36   49.35
   4   1   4  361.73   39.25
   4  -1   4  292.34   35.99
  -4  -1  -4  349.49   37.87
  -4   1  -4  442.80   45.66
   4  -1   4  302.60   38.54
   5   1   4  133.08   27.70
  -5   1  -4  119.80   25.41
  -5  -1  -4   46.82   15.23
   5   1   4   50.34   15.85
   5  -1   4   37.02   14.21
   5  -1   4   93.06   22.10
  -6   1  -4  179.45   32.74
   6   1   4   54.00   17.11
   6   1   4  223.80   37.08
   6  -1   4  106.01   24.81
  -6  -1  -4  124.47   26.97
   6  -1   4  165.57   30.85
   7  -1   4  270.55   40.11
   7  -1   4  214.20   36.80
   7   1   4  156.24   31.01
  -7  -1  -4  242.70   39.71
  -7   1  -4  262.15   41.70
   7   1   4  269.53   41.19
   8   1   4    8.43    6.71
  -8   1  -4    5.50    6.25
   8   1   4   14.67   10.00
   8  -1   4   16.59   10.49
 -12  -2   4  -16.06    9.69
 -11  -2   4    2.75    4.69
 -11   2   4   15.33   10.73
 -11  -2   4    5.59    5.49
 -10  -2   4   -6.38    6.56
 -10   2   4   12.35    8.71
 -10  -2   4   -4.79    4.66
 -10   2   4    0.15    4.10
  -9  -2   4    5.94    5.98
  -9  -2   4   13.32    6.90
  -9   2   4   -1.32    3.01
  -9   2   4    4.19    3.58
   8  -2  -4   28.88   10.59
  -8  -2   4   27.31   12.55
  -8  -2   4   20.88    7.19
  -8   2   4   13.35    5.62
  -8   2   4   22.23   11.65
  -7  -2   4   68.80   12.68
  -7   2   4   75.08   11.75
  -7  -2   4   51.50   15.47
  -7   2   4   50.29   15.67
   7  -2  -4   41.10    6.53
   6  -2  -4  117.91   20.65
  -6  -2   4   51.37   14.49
  -6  -2   4  102.64   14.12
  -6   2   4  100.11   11.06
  -6   2   4   84.50   17.02
   6  -2  -4   85.61   10.08
  -5  -2   4  325.32   21.92
  -5  -2   4  323.03   30.03
  -5   2   4  365.66   15.92
   5   2  -4  341.60   36.48
  -5   2   4  330.29   26.47
   5  -2  -4  362.27   22.73
   4  -2  -4   92.99   17.44
  -4   2   4   93.48    6.34
  -4  -2   4   98.06   12.83
   4   2  -4  108.16   12.20
   4  -2  -4   89.21   10.75
  -4   2   4   90.75   11.36
   4   2  -4   55.03   11.98
  -4  -2   4  112.74   12.16
   4  -2  -4  114.52   14.20
   3  -2  -4  880.34   43.32
   3   2  -4  701.88   33.36
  -3  -2   4  787.30   30.95
   3  -2  -4  758.55   17.08
   3  -2  -4  768.41   28.07
   3   2  -4  858.64   32.59
   3   2  -4  818.65   32.75
  -3   2   4  750.98   27.73
  -3   2   4  702.15   30.19
  -2   2   4  254.60   14.97
  -2  -2   4  252.95   17.32
  -2  -2   4  222.00   18.77
   2  -2  -4  307.75   28.09
   2  -2  -4  234.13   11.56
   2   2  -4  231.03   18.77
   2   2  -4  253.71   17.89
  -2   2   4  250.09   21.23
   1   2  -4  306.62   19.75
  -1  -2   4  313.38   20.20
  -1  -2   4  329.96   24.43
  -1   2   4  361.26   30.31
   0   2   4   61.21   13.44
   0   2   4   62.54   11.15
   0  -2   4   44.40    9.98
   0   2   4   59.53    8.19
   0   2  -4   76.95    9.45
   0   2  -4   57.39    9.44
   0   2   4   68.97   15.20
   0  -2   4   62.65    6.30
   1   2   4   -0.22    1.00
   1   2   4    5.50    2.99
   1   2   4    2.58    2.99
  -1   2  -4    3.66    2.51
  -1   2  -4    1.24    0.79
   1  -2   4    1.11    1.39
   1  -2   4    0.64    2.02
  -1  -2  -4    4.73    3.20
   1   2   4   -5.11    4.69
   1  -2   4    2.48    2.73
  -1   2  -4    2.48    2.34
   2  -2   4    3.81    3.69
   2   2   4    8.70    5.06
   2   2   4    4.75    5.25
   2  -2   4   10.80    5.23
   2   2   4   13.66    6.20
  -2   2  -4   10.54    5.98
  -2   2  -4    3.90    2.19
   2  -2   4   15.80    7.17
  -2   2  -4   10.09    4.24
   3   2   4    3.17    3.08
   3   2   4   -1.70    3.21
  -3   2  -4    9.20    6.23
   3  -2   4    4.04    4.14
   3   2   4    6.62    4.85
   3  -2   4   -1.93    3.80
   4  -2   4   29.36   11.73
   4  -2   4   19.54    9.47
  -4   2  -4   62.86   17.36
   4   2   4   58.76   15.81
   4   2   4   55.56   18.13
  -5   2  -4    4.25    4.97
   5  -2   4    9.78    6.22
   5   2   4    6.66    5.78
   5  -2   4    1.58    2.37
   6   2   4   51.11   18.19
   6  -2   4   36.98   14.13
  -6   2  -4   48.97   16.70
   6   2   4    6.80    6.20
   6  -2   4   31.41   13.47
   7   2   4   15.13   10.96
   7  -2   4    0.05    1.47
  -7   2  -4   -4.07    5.40
   7   2   4   12.34    8.79
   7  -2   4   22.29   12.74
   8   2   4   45.52   17.32
  -8   2  -4   26.30   13.45
   8  -2   4   35.20   15.40
 -12  -3   4    0.32    1.91
 -11  -3   4  103.05   27.09
 -11   3   4   97.03   25.86
 -11  -3   4   34.25   14.91
 -10  -3   4   38.38   16.72
 -10  -3   4   27.71   11.81
 -10   3   4   32.33   14.62
 -10   3   4   20.56    9.35
  -9  -3   4  117.65   27.72
  -9  -3   4  131.05   22.93
  -9   3   4   64.13   13.91
  -9   3   4  115.43   27.85
  -8  -3   4   11.24    6.30
  -8  -3   4   12.57    8.15
  -8   3   4    7.23    4.11
  -8   3   4   12.93    8.59
  -7  -3   4   34.70   12.06
  -7  -3   4   67.97   13.36
  -7   3   4   60.28   10.09
  -7   3   4   57.19   15.33
   6  -3  -4  321.50   17.45
  -6   3   4  414.40   20.56
  -6  -3   4  391.21   36.37
  -6   3   4  400.77   33.50
  -6  -3   4  431.50   29.27
  -5  -3   4  181.65   17.37
  -5   3   4  199.26   10.00
  -5  -3   4  186.81   20.62
   5   3  -4  200.42   31.33
  -5   3   4  177.36   18.68
   5  -3  -4  133.06   14.96
   4  -3  -4  592.57   36.85
   4   3  -4  712.41   32.94
   4  -3  -4  688.81   32.00
  -4  -3   4  673.68   31.60
   4  -3  -4  785.72   38.69
   4   3  -4  554.12   45.84
  -4   3   4  654.64   31.35
   3  -3  -4  479.13   24.72
   3   3  -4  471.13   26.50
   3  -3  -4  508.19   31.08
   3   3  -4  515.30   31.77
   3  -3  -4  507.73   38.16
  -3  -3   4  482.31   26.06
  -3   3   4  446.09   25.09
  -3   3   4  488.45   24.16
   2  -3  -4  266.59   30.31
  -2   3   4  228.02   16.25
   2  -3  -4  218.72   10.41
  -2  -3   4  211.16   18.33
  -2  -3   4  235.99   17.94
   2   3  -4  199.41   17.04
   2   3  -4  187.29    8.13
  -2   3   4  238.44   22.56
   2   3  -4  219.24   11.05
  -1  -3   4  134.47   16.00
  -1  -3   4  127.83   13.76
   1   3  -4  150.15    9.43
  -1   3   4  168.55   22.76
   0   3   4  572.68   47.90
   0  -3   4  520.27   33.80
   0   3  -4  510.85   27.58
   0   3  -4  437.08   31.66
   0  -3   4  535.24   18.49
   1   3   4  330.99   27.75
   1  -3   4  331.23   29.86
  -1   3  -4  298.25   21.16
  -1   3  -4  402.56   36.83
   1   3   4  242.11   33.57
   1  -3   4  361.18   21.12
   2   3   4  565.20   39.43
   2  -3   4  566.90   43.76
  -2   3  -4  574.52   30.51
  -2   3  -4  566.50   28.40
   2  -3   4  590.93   34.94
   3   3   4   19.33    8.02
   3   3   4    9.82    6.16
  -3   3  -4   11.26    7.28
   3  -3   4    8.08    2.93
   4   3   4   25.02   12.64
   4   3   4   34.03   11.79
   4  -3   4   17.23    9.19
  -4   3  -4   44.35   14.30
   4  -3   4   13.90    7.88
   5   3   4   76.39   19.31
   5  -3   4   37.28   13.59
   5  -3   4   47.20   15.77
   6  -3   4   40.32   15.97
   6   3   4   42.66   16.67
  -6   3  -4   28.38   12.91
   6   3   4   14.05    8.83
  -7   3  -4  139.56   29.88
   7  -3   4  105.93   26.47
   7   3   4  169.54   34.66
   8   3   4   10.98    8.67
  -8   3  -4   -5.62    6.31
   8  -3   4    7.61    7.34
 -12  -4   4  -13.30    9.43
 -11  -4   4    0.25    1.72
 -11   4   4   11.88    9.27
 -10  -4   4  134.16   29.77
 -10  -4   4  133.87   25.43
 -10   4   4  138.88   32.41
  -9  -4   4   28.20   13.32
  -9  -4   4   66.55   16.69
  -9   4   4   36.30   10.52
  -9   4   4   45.32   17.25
  -8  -4   4   16.43    7.45
  -8   4   4    2.28    2.84
  -8   4   4    6.58    5.71
  -8  -4   4    9.02    6.55
  -7  -4   4    4.57    4.79
  -7   4   4    6.32    3.14
  -7  -4   4    6.45    4.99
  -7   4   4    2.54    3.17
  -6   4   4    9.96    5.16
  -6  -4   4    7.76    3.97
  -6  -4   4    5.83    4.96
  -6   4   4    6.96    2.47
   6  -4  -4   15.35    5.89
  -5   4   4   92.97    5.50
   5   4  -4  119.78   13.47
  -5   4   4   91.87    5.29
  -5  -4   4  111.60   14.40
   5  -4  -4  135.64   17.14
  -5   4   4  107.95   14.98
   4   4  -4  684.43   31.71
  -4  -4   4  669.37   33.28
   4   4  -4  759.68   41.49
   4  -4  -4  743.29   38.97
  -4   4   4  646.40   33.12
  -4   4   4  615.50   25.10
   3  -4  -4   45.44    8.39
  -3   4   4   44.37    8.59
  -3  -4   4   52.26    9.21
   3   4  -4   35.74    7.09
  -3   4   4   46.86    8.32
   3   4  -4   44.33    7.31
   3  -4  -4   42.45    9.01
  -2   4   4  251.78   25.69
  -2   4   4  210.31   17.44
  -2  -4   4  196.44   17.69
   2   4  -4  215.50   18.60
  -2  -4   4  186.26   17.31
   2   4  -4  192.68   11.21
  -1   4   4  126.27   13.67
  -1  -4   4  139.93   15.45
  -1  -4   4  112.66   14.61
  -1   4   4  154.07   23.61
   1   4  -4  130.98    8.64
   0   4   4 1580.81   83.77
   0  -4   4 1639.70   37.03
   0  -4   4 1726.18   62.21
   1  -4   4  537.08   25.14
   1  -4   4  522.90   38.90
  -1   4  -4  563.76   29.30
  -1   4  -4  614.58   40.55
   2   4   4    4.12    4.94
   2   4   4    0.64    1.57
  -2   4  -4    0.77    1.64
   2  -4   4    0.33    2.10
  -3   4  -4   96.40   10.54
   3   4   4  129.21   27.98
   3   4   4  136.14   20.93
  -3   4  -4  142.57   26.97
   3  -4   4   72.11   18.34
   4   4   4   77.47   17.29
  -4   4  -4  112.85   24.10
   4   4   4  112.44   26.82
   5   4   4   68.46   21.18
   5   4   4   45.88   15.21
  -5   4  -4   81.56   21.31
   5  -4   4   37.13   14.82
   6   4   4   77.20   22.98
  -6   4  -4   70.86   20.88
   6   4   4   43.34   15.74
   6  -4   4   64.04   19.67
   7   4   4    2.00    3.97
  -7   4  -4   13.77    9.30
   7  -4   4    8.88    8.08
   8   4   4    6.63    6.93
  -8   4  -4   -0.62    2.55
 -11  -5   4   11.06    8.14
 -11   5   4   11.79    9.90
 -10  -5   4   11.48    7.97
 -10   5   4    2.79    4.74
  -9  -5   4  198.12   29.50
  -9   5   4  168.93   32.03
  -8  -5   4    7.57    4.91
   8  -5  -4    4.31    3.60
  -8   5   4    2.14    3.14
  -7  -5   4  940.47   52.01
   7  -5  -4  973.88   50.08
  -7   5   4  875.73   54.49
  -6   5   4  412.82   17.70
   6   5  -4  440.04   25.67
  -6  -5   4  375.85   30.39
  -6   5   4  392.03   17.76
   6  -5  -4  467.47   33.57
  -6   5   4  379.39   31.88
  -5   5   4    7.87    3.68
  -5  -5   4    8.14    4.25
   5   5  -4    5.58    2.80
   5  -5  -4    7.77    4.26
   4   5  -4   91.01   11.02
  -4  -5   4   85.64   12.80
   4   5  -4   93.36   13.13
   4  -5  -4   81.86   13.11
  -4   5   4   79.46   12.44
  -4   5   4   86.50   10.26
  -3   5   4  332.83   24.13
  -3  -5   4  348.96   22.63
  -3  -5   4  346.99   25.27
   3   5  -4  390.44   24.49
   3   5  -4  295.13   18.62
   3  -5  -4  422.91   30.42
  -3   5   4  399.01   29.19
  -2   5   4  764.78   36.54
   2   5  -4  750.83   26.63
  -2  -5   4  734.24   36.36
  -2  -5   4  700.87   34.32
   2  -5  -4  691.59   18.43
  -2   5   4  875.27   51.99
   2  -5  -4  816.39   43.22
  -1   5   4   23.90   10.05
  -1  -5   4   20.66    6.83
  -1  -5   4   16.41    5.59
  -1   5   4   22.17    6.17
   1   5  -4   20.98    4.06
   0  -5   4   47.54    9.97
   0  -5   4   64.57   12.42
   0   5   4   45.41   14.89
   0  -5   4   57.28    7.83
   0   5  -4   60.86    8.28
   1  -5   4  152.03   22.00
  -1   5  -4  135.00   14.26
  -1   5  -4  140.52   16.27
   1  -5   4  139.27   13.71
   2   5   4   65.35   19.93
   2  -5   4   58.25   14.65
  -2   5  -4   54.54    9.02
  -2   5  -4   51.03   13.01
   3   5   4  583.28   42.86
   3   5   4  683.46   67.03
  -3   5  -4  569.11   27.88
   4   5   4  647.53   65.80
   4   5   4  596.40   47.45
  -4   5  -4  561.01   55.88
  -5   5  -4    7.47    6.58
   5   5   4    8.05    7.55
   5   5   4   -1.29    2.65
   6   5   4  111.69   28.06
  -6   5  -4   95.48   23.62
   6  -5   4  102.19   25.88
   7   5   4   82.19   24.48
  -7   5  -4   56.54   18.67
   7  -5   4   72.65   22.03
  -8   5  -4   33.45   14.98
 -11  -6   4   30.71   13.81
 -10  -6   4   34.15   13.50
 -10   6   4   19.89   12.33
  -9  -6   4   28.21   11.79
  -9   6   4   16.68    9.66
  -8  -6   4   10.01    4.77
   8  -6  -4    5.90    4.23
  -8   6   4   -2.42    3.49
  -7  -6   4  105.21   18.04
   7  -6  -4   85.75   14.95
  -7   6   4   92.64   18.37
  -6   6   4  113.78    8.27
   6   6  -4  127.09   12.65
  -6  -6   4  124.40   18.06
   6  -6  -4  133.98   17.95
  -6   6   4  131.46   19.28
  -5  -6   4  562.44   35.98
   5   6  -4  641.53   28.32
   5  -6  -4  665.22   39.37
  -5   6   4  559.32   37.32
  -5   6   4  475.47   18.56
  -4   6   4   54.04    9.17
   4  -6  -4   63.10   12.10
  -4  -6   4   46.65    9.74
  -4   6   4   49.97   10.57
  -3   6   4 1574.85   64.15
  -3  -6   4 1404.48   45.81
  -3  -6   4 1409.32   54.17
   3  -6  -4 1544.05   61.68
  -3   6   4 1457.51   54.87
  -2   6   4  455.72   41.47
   2  -6  -4  396.95   15.17
  -2   6   4  420.19   29.24
  -2  -6   4  377.06   25.45
   2   6  -4  406.19   22.33
  -2  -6   4  394.04   28.36
  -1   6   4  452.76   46.81
  -1  -6   4  529.32   33.63
   1  -6  -4  467.41   22.42
  -1   6   4  482.08   31.12
  -1  -6   4  444.19   29.92
   1   6  -4  467.88   22.48
   0  -6   4  187.86   21.99
   0  -6   4  202.55   21.55
   0  -6  -4  180.10   18.02
   0   6  -4  168.97   14.61
   1  -6   4   25.59    6.46
  -1   6  -4   27.43    6.89
   1   6   4   14.62   10.14
   1  -6   4   19.05    6.76
  -1   6  -4   27.94    6.41
   2   6   4   24.09   12.45
  -2   6  -4   17.04    5.08
  -2   6  -4   23.70    7.96
   3   6   4   50.60   18.68
  -3   6  -4   28.66   10.45
   4   6   4  112.87   28.55
  -4   6  -4   48.22   17.22
   5   6   4   30.64   11.21
  -5   6  -4   16.66   10.67
   5   6   4   47.53   18.29
   6   6   4   91.32   25.71
  -6   6  -4   68.97   19.96
  -7   6  -4   49.78   18.00
   7  -6   4   23.52   12.81
   7   6   4   19.67   12.31
 -10  -7   4   -4.19    5.07
 -10   7   4    4.74    6.47
  -9  -7   4   63.46   18.15
  -9   7   4   65.47   19.58
  -8  -7   4   78.44   17.74
  -8   7   4   72.25   17.97
  -7   7   4   18.05    7.82
  -7  -7   4   28.17    9.75
   7  -7  -4   15.26    6.25
  -6   7   4    5.52    3.44
  -6  -7   4    5.57    3.52
   6  -7  -4    7.44    4.53
  -5  -7   4    5.66    4.04
  -5   7   4    6.30    3.73
  -5   7   4    2.57    1.57
   5  -7  -4    4.91    4.27
  -4   7   4   42.11    9.14
  -4  -7   4   43.10   10.03
  -4   7   4   41.84   10.02
   4  -7  -4   54.66   12.33
  -3   7   4    3.58    3.36
   3  -7  -4    0.97    0.72
  -3   7   4    2.10    3.35
  -3  -7   4    0.11    1.39
  -3  -7   4    2.60    2.04
   3  -7  -4   -2.42    2.80
  -2   7   4   41.44    9.69
  -2   7   4   60.09   16.26
   2  -7  -4   43.54    5.71
  -2  -7   4   50.12   10.75
  -2  -7   4   39.05    8.36
   2   7  -4   47.95    8.59
   1   7  -4  374.39   22.74
  -1   7   4  288.88   39.67
  -1  -7   4  403.21   30.85
  -1  -7   4  405.36   29.40
   1  -7  -4  380.21   20.58
  -1   7   4  385.16   29.81
   0  -7   4   12.90    5.86
   0   7   4    5.99    6.13
   0  -7   4   12.67    5.98
   0   7  -4    6.13    3.33
   0  -7  -4   10.56    4.29
   1   7   4  175.48   34.49
   1  -7   4  229.85   28.69
  -1  -7  -4  232.29   24.26
  -1   7  -4  224.88   18.54
  -1   7  -4  210.01   19.68
   2   7   4  267.42   43.65
  -2  -7  -4  280.06   31.18
  -2   7  -4  235.47   17.79
  -2   7  -4  243.00   24.57
   3   7   4    2.30    4.31
  -3   7  -4   -8.44    5.53
   4   7   4    2.45    4.62
  -4   7  -4    0.62    2.17
   5   7   4    5.19    6.50
  -5   7  -4    8.11    7.33
   6   7   4   -2.58    4.82
  -6   7  -4    6.08    6.37
  -6  -7  -4    0.53    2.49
   7   7   4   11.86    9.71
  -7   7  -4   -7.44    7.22
 -10  -8   4   -4.11    5.09
 -10   8   4    3.86    5.52
  -9   8   4    8.65    7.13
  -9  -8   4    7.88    5.52
  -8  -8   4  139.62   24.32
  -8   8   4  135.18   24.94
  -7   8   4   12.28    7.59
  -7  -8   4    7.39    5.16
  -6  -8   4  128.81   20.05
   6  -8  -4  124.96   19.10
  -6   8   4  108.33   19.22
  -5   8   4   72.57    9.56
  -5  -8   4   93.92   16.14
   5  -8  -4   94.62   16.58
  -5   8   4   88.03   16.41
  -4   8   4  175.39   21.96
  -4   8   4  197.82   22.19
  -4  -8   4  184.64   21.66
   3  -8  -4  149.43    9.25
  -3   8   4  160.33   25.04
  -3  -8   4  177.97   16.69
  -3  -8   4  181.17   21.46
  -3   8   4  168.26   21.31
  -2   8   4    4.59    4.91
  -2   8   4   -0.97    2.49
  -2  -8   4    5.12    3.67
  -2  -8   4    5.71    3.18
   2  -8  -4    3.77    1.79
   2   8  -4    5.32    2.86
   1   8  -4  397.76   25.96
  -1  -8   4  444.97   34.01
  -1  -8   4  372.15   29.08
   1  -8  -4  358.71   21.06
  -1   8   4  367.30   30.71
   0  -8   4   80.22   15.35
   0  -8  -4   78.04   11.59
   0  -8   4   79.95   14.47
   0   8   4   53.16   18.74
   0   8  -4   70.94   11.03
  -1   8  -4    0.44    1.84
  -1  -8  -4    3.94    3.33
   2   8   4  245.61   43.20
  -2  -8  -4  233.11   27.96
  -2   8  -4  259.80   18.75
  -2   8  -4  236.66   24.57
   3   8   4   37.95   16.86
  -3  -8  -4   40.73   12.60
  -3   8  -4   46.65   13.31
   4   8   4  175.12   37.61
  -4  -8  -4   95.65   22.11
  -4   8  -4  138.82   26.28
   5   8   4  162.17   35.95
  -5  -8  -4   74.74   21.26
  -5   8  -4  112.07   27.36
   6   8   4   12.82   10.14
  -6   8  -4    6.19    6.83
  -6  -8  -4    4.89    6.51
  -7   8  -4  -16.84   10.75
 -10  -9   4   16.19   10.08
  -9   9   4   18.21   10.53
  -9  -9   4   14.76    8.88
  -8   9   4   55.16   16.60
  -8  -9   4   57.86   16.38
  -7  -9   4  327.20   35.85
  -7   9   4  376.28   40.23
  -6   9   4   46.25   12.98
  -6  -9   4   42.70   12.01
  -5   9   4   22.51    6.15
  -5  -9   4   20.20    8.06
  -5   9   4   22.36    8.72
  -4   9   4   25.56    9.26
  -4  -9   4   12.73    5.92
  -4   9   4   23.26    8.73
   3  -9  -4   31.00    4.81
  -3  -9   4   24.24    6.44
  -3  -9   4   25.19    7.97
   3   9  -4   32.53    8.27
  -3   9   4   36.53   10.48
  -3   9   4   49.56   14.85
  -2   9   4  354.06   45.83
  -2   9   4  458.34   36.52
  -2  -9   4  402.67   28.02
   2   9  -4  488.98   32.15
  -2  -9   4  452.36   35.32
   2  -9  -4  446.88   22.13
   1   9  -4   60.57   11.05
  -1   9   4   26.36   13.78
  -1  -9   4   72.61   14.47
  -1  -9   4   45.99   10.64
   1  -9  -4   45.72    7.63
  -1   9   4   37.56   10.72
   0  -9   4    5.02    4.10
   0  -9   4    2.44    2.21
   0   9   4   -6.14    6.88
   0  -9  -4    3.16    2.49
   0   9  -4    2.50    1.97
   0   9   4   -1.46    4.85
   1   9   4    9.58    8.57
  -1   9  -4   12.67    5.33
  -1  -9  -4   16.16    6.33
  -2   9  -4    5.55    3.89
  -2  -9  -4    5.53    4.41
   3   9   4  264.18   47.03
  -3  -9  -4  242.20   31.79
  -3   9  -4  219.83   27.49
  -4  -9  -4   59.67   17.07
  -4   9  -4   61.25   16.63
   4   9   4   95.64   28.22
   5   9   4   -5.92    7.17
  -5  -9  -4   -1.13    3.05
  -5   9  -4  -10.31    8.22
   6   9   4    5.81    7.26
  -6  -9  -4   -0.67    2.69
  -6   9  -4   -5.10    6.35
  -7   9  -4    8.93    8.07
  -9  10   4   -9.78    7.85
  -9 -10   4    2.12    3.61
  -8  10   4    4.49    4.96
  -8 -10   4    4.27    4.68
  -7  10   4    3.66    4.40
  -7 -10   4    3.07    4.71
  -6 -10   4    1.02    2.19
  -6  10   4   -6.57    5.32
  -5 -10   4    7.15    5.80
  -5  10   4   10.11    6.18
  -4  10   4   38.65   11.86
  -4 -10   4   40.72   11.15
  -4  10   4   43.95   12.71
  -3  10   4  143.02   27.11
   3 -10  -4  137.56   11.59
  -3 -10   4  134.77   15.14
  -3 -10   4  160.02   22.30
   3  10  -4  127.11   17.68
  -3  10   4  139.22   21.67
  -2 -10   4   34.28   10.14
   2 -10  -4   28.22    5.90
  -2 -10   4   30.30    7.84
  -2  10   4   42.13   11.60
   2  10  -4   28.27    7.69
   1  10  -4   17.88    6.30
  -1 -10   4   29.18    9.48
   1 -10  -4   21.67    5.68
  -1 -10   4   23.01    7.56
  -1  10   4   23.68    8.81
   0 -10   4   78.12   16.41
   0 -10   4   69.26   15.07
   0  10  -4   73.64   13.19
   0  10   4   48.42   12.35
   0 -10  -4   68.16   11.37
  -1 -10  -4  107.17   16.42
  -1  10  -4   99.22   15.97
   2  10   4    2.35    4.69
  -2  10  -4    2.68    2.95
  -2 -10  -4    3.60    1.90
  -3  10  -4   38.16   11.58
   3  10   4   24.50   14.62
  -3 -10  -4   35.02   12.38
   4  10   4   -4.74    6.79
  -4 -10  -4   -1.85    3.39
  -4  10  -4    2.22    3.34
   5  10   4    5.85    7.51
  -5 -10  -4   -6.30    6.37
  -5  10  -4    5.01    5.74
  -6  10  -4    5.58    6.95
  -8  11   4   10.51    9.66
  -8 -11   4   27.85   11.73
  -7  11   4    4.21    4.72
  -7 -11   4  -11.00    7.07
  -6 -11   4   32.45   11.24
  -6  11   4   24.34   10.32
  -5 -11   4   15.43    7.41
  -5  11   4   27.43   10.41
  -4  11   4  143.17   23.40
  -4  11   4  138.33   24.47
  -4 -11   4  158.65   23.15
   3  11  -4    1.09    1.60
  -3  11   4    0.38    3.88
  -3 -11   4   -0.26    0.94
  -3 -11   4    3.06    3.36
  -3  11   4    2.22    3.79
  -2  11   4  131.67   21.49
  -2 -11   4  136.61   20.98
   2 -11  -4  133.27   13.94
  -2 -11   4  127.31   16.66
   2  11  -4  142.36   19.50
   1 -11  -4   66.01   10.60
   1  11  -4   72.38   13.48
  -1 -11   4   86.51   17.00
  -1  11   4   77.03   16.14
  -1 -11   4   81.35   15.04
   0 -11   4   53.10   13.77
   0 -11  -4   35.95    8.61
   0 -11   4   33.19   10.99
   0  11  -4   36.58    9.78
   0  11   4   31.21   10.49
   1 -11   4    4.47    4.02
  -1  11  -4    5.34    3.13
  -1 -11  -4   11.52    5.62
   2  11   4   19.26   14.15
  -2  11  -4   13.63    6.22
  -2 -11  -4   24.12    9.12
  -3  11  -4   -7.40    5.28
   3  11   4    4.94    7.00
  -3 -11  -4   15.55    8.72
  -4  11  -4   -2.98    3.85
   4  11   4   -2.54    5.16
  -4 -11  -4   -7.15    6.24
  -5 -11  -4   18.00   10.74
  -5  11  -4   28.11   13.06
  -8  12   4  105.70   25.04
  -8 -12   4   65.40   19.00
  -7  12   4    9.61    7.30
  -7 -12   4    9.15    6.72
  -6 -12   4   61.16   16.10
  -6  12   4   77.14   19.27
  -5 -12   4   45.11   12.91
  -5  12   4   80.95   19.14
  -4  12   4   39.93   12.39
  -4 -12   4   36.83   11.12
   4  12  -4   38.85   10.67
  -3  12   4    8.15    6.17
  -3 -12   4   16.44    8.55
   3  12  -4   11.31    5.37
  -2 -12   4   19.71    8.60
  -2 -12   4   21.85    7.43
  -2  12   4   34.67   11.48
   2  12  -4   26.63    8.85
   1  12  -4   51.95   12.56
  -1 -12   4   65.43   15.62
   1 -12  -4   51.99   10.03
  -1 -12   4   52.22   12.76
  -1  12   4   53.80   14.71
   0  12   4   -0.26    4.13
   0 -12   4    1.46    3.07
   0 -12  -4   -6.42    3.83
   0 -12   4   -1.22    2.42
   0  12  -4   -5.80    4.18
   1 -12   4    6.85    6.07
  -1  12  -4   -4.08    3.71
  -1 -12  -4   -2.95    3.00
  -2 -12  -4  114.41   20.02
  -2  12  -4  122.61   20.50
  -3  12  -4   19.71    7.74
   3  12   4   28.08   16.82
  -3 -12  -4   32.73   12.16
  -4  12  -4   32.03   12.79
   4  12   4    5.65    7.61
  -4 -12  -4   29.98   13.68
  -5 -12  -4   38.11   15.71
  -7  13   4    6.45    6.49
  -7 -13   4   10.41    7.37
  -6  13   4   13.45    8.12
  -6 -13   4   10.63    7.21
  -5 -13   4   -2.55    3.44
  -5  13   4    1.05    2.70
  -4  13   4    5.33    5.03
   4  13  -4    7.08    5.49
  -4 -13   4    6.95    5.60
  -3  13   4    0.67    2.67
   3  13  -4   14.47    7.12
  -3 -13   4    9.86    6.36
  -2 -13   4   53.06   13.89
   2  13  -4   53.98   13.31
  -2  13   4   66.00   17.03
   1  13  -4   90.33   16.93
  -1  13   4   63.27   16.24
  -1 -13   4   65.32   15.96
  -1 -13   4   79.89   16.01
   0 -13   4   17.42    9.27
   0 -13   4   19.59    9.17
   0  13  -4   16.47    7.48
   0  13   4    8.23    6.06
   1 -13   4    8.14    7.87
   1  13   4    7.38    5.80
  -1 -13  -4   12.61    6.06
  -1  13  -4    5.34    4.41
  -2  13  -4   77.55   17.16
  -2 -13  -4   66.59   15.70
   3  13   4   15.33   12.91
  -3  13  -4   14.10    7.75
  -3 -13  -4    4.00    4.45
  -4 -13  -4    6.64    6.28
  -6 -14   4  -13.59    8.20
  -6  14   4    2.35    5.75
  -5 -14   4   18.05    9.50
  -5  14   4   17.18    9.52
   5  14  -4    2.58    3.38
  -4 -14   4   38.99   12.92
   4  14  -4   37.36   12.15
  -4  14   4   33.82   13.18
   3  14  -4  -10.27    6.08
  -3  14   4    7.78    5.84
  -3 -14   4   -6.98    5.43
  -2 -14   4   -2.57    3.44
   2  14  -4    3.35    3.49
  -2  14   4    4.67    4.71
  -1  14   4    7.55    5.87
   1  14  -4    4.16    3.92
  -1 -14   4    1.83    1.86
   0 -14   4    9.64    7.10
   0 -14   4   24.14   10.07
   0  14   4   16.02    8.51
   0  14  -4    1.97    2.88
   1 -14   4   34.95   12.77
   1  14   4   24.14   11.34
   1 -14   4   30.21   12.52
  -1  14  -4   10.46    5.70
  -2  14  -4    2.04    3.12
   2  14   4   -7.47    6.35
  -3 -14  -4   10.43    7.35
  -4 -14  -4    0.20    2.25
   6  15  -4    0.66    2.06
   5  15  -4   -0.14    1.43
  -4 -15   4   18.22    9.16
   4  15  -4    4.52    4.38
  -4  15   4    5.35    5.40
  -3  15   4   -3.91    4.61
  -3 -15   4    0.04    1.13
  -2 -15   4   11.36    7.80
   2  15  -4   10.19    6.21
  -2  15   4   12.84    7.98
  -1 -15   4   -5.95    5.39
   1  15  -4    3.81    3.84
  -1  15   4    1.93    3.26
   0 -15   4    3.11    4.17
   0  15   4    1.29    2.88
   0  15  -4    5.46    4.70
  -1  15  -4   -4.99    4.73
   5  16  -4   17.42    9.09
   4  16  -4   -0.46    1.84
   3  16  -4    3.43    3.93
   2  16  -4   11.40    6.94
 -12   0   5  -13.48    9.73
 -11   0   5    6.36    6.46
 -11   0   5    1.03    2.14
  10   0  -5   -2.26    3.29
 -10   0   5    0.55    2.14
 -10   0   5    1.28    2.21
   9   0  -5    0.52    2.14
  -9   0   5    1.75    3.41
  -9   0   5    0.88    1.75
   8   0  -5   -1.11    3.93
  -8   0   5    0.96    5.92
  -8   0   5    3.99    3.98
   7   0  -5    0.75    2.33
  -7   0   5   -4.93    5.06
  -7   0   5   -2.92    2.23
  -6   0   5    1.04    1.33
  -6   0   5    5.39    5.29
   6   0  -5    1.53    3.18
   5   0  -5   -6.08    5.46
   5   0  -5   -0.44    1.99
  -5   0   5    1.03    2.05
   5   0  -5   -0.43    0.93
   5   0  -5    0.37    1.10
  -5   0   5   -3.52    3.95
  -4   0   5    2.64    2.46
   4   0  -5   -1.93    0.94
   4   0  -5    2.75    2.13
  -4   0   5    2.73    2.30
   4   0  -5   -0.36    0.77
   3   0  -5   -0.07    0.28
  -3   0   5   -0.32    1.32
   3   0  -5    1.49    1.44
  -3   0   5   -0.02    1.43
   2   0  -5   -0.33    1.42
  -2   0   5    1.44    0.88
   1   0  -5   -1.70    2.15
  -1   0   5   -1.17    1.72
  -1   0   5    0.86    0.99
  -1   0   5    0.30    2.97
   1   0  -5    0.09    1.52
   0   0   5   -1.25    1.94
   0   0  -5   -0.44    1.10
   0   0   5   -0.39    1.48
   0   0   5    0.79    1.99
   0   0  -5    0.01    0.49
   1   0   5    0.78    1.67
   1   0   5   -0.01    1.67
   1   0   5   -0.23    2.25
  -1   0  -5    0.01    2.60
   2   0   5    3.88    4.21
   2   0   5    4.42    4.69
   3   0   5   -1.04    2.67
   3   0   5   -0.97    2.43
   4   0   5    6.32    6.15
   4   0   5   -0.41    1.76
  -4   0  -5   -3.88    4.19
   5   0   5    2.63    4.19
   5   0   5   -4.56    5.37
  -5   0  -5    1.48    4.09
   6   0   5   -2.75    4.47
  -6   0  -5   -3.75    4.93
   6   0   5   -4.77    5.64
   7   0   5    3.33    4.89
   7   0   5   -6.27    6.59
 -12  -1   5   40.91   16.77
 -12   1   5   64.34   20.71
 -11  -1   5   -8.82    7.68
 -11   1   5   10.67    8.29
 -11  -1   5   -2.73    3.56
  10   1  -5   17.16    7.48
 -10  -1   5   13.05    8.99
 -10   1   5    9.04    7.48
 -10  -1   5   15.77    6.37
 -10   1   5    3.71    3.54
  10  -1  -5   13.58    7.35
   9  -1  -5  140.66   24.56
  -9  -1   5  101.90   17.78
  -9   1   5   98.63   16.13
  -9  -1   5  132.29   27.71
  -9   1   5   84.93   22.75
   9   1  -5  151.98   26.82
   8  -1  -5  -11.48    7.27
  -8  -1   5   -4.31    4.94
  -8  -1   5    1.39    2.06
  -8   1   5    5.96    4.82
  -8   1   5   -2.91    4.37
   7  -1  -5  161.64   27.32
  -7  -1   5  112.15   14.60
  -7   1   5   99.63   23.75
  -7  -1   5  125.30   24.76
   7  -1  -5  111.86   15.17
  -7   1   5  107.34   12.58
   6  -1  -5   83.90   19.59
  -6   1   5  113.39   11.18
  -6  -1   5  108.19   12.93
   6  -1  -5  137.31   17.00
  -6  -1   5   86.07   18.77
  -6   1   5   84.50   18.66
   5  -1  -5  303.06   36.62
  -5   1   5  410.48   18.68
  -5  -1   5  389.37   22.40
   5   1  -5  383.63   22.86
   5  -1  -5  354.40   17.93
  -5  -1   5  271.65   29.08
  -5   1   5  383.46   31.09
   5  -1  -5  399.04   24.57
   5   1  -5  425.78   27.55
   5  -1  -5  422.01   30.12
   4  -1  -5 1312.31   37.24
  -4   1   5 1343.95   31.52
  -4  -1   5 1389.55   40.83
   4   1  -5 1468.55   44.26
   4  -1  -5 1391.75   33.52
  -4  -1   5 1374.78   51.14
  -4   1   5 1428.36   45.44
   4   1  -5 1384.82   35.26
   4  -1  -5 1502.34   59.46
  -3  -1   5    4.02    1.42
   3   1  -5    0.86    0.56
  -3   1   5    2.93    1.58
  -3  -1   5    4.64    2.37
   3  -1  -5    1.26    1.30
   3   1  -5   -0.33    0.84
  -2   1   5 1575.94   31.49
   2  -1  -5 1516.18   39.27
   2   1  -5 1575.85   46.07
  -2   1   5 1535.31   59.81
   1  -1  -5   80.98   10.73
  -1  -1   5   77.36   13.49
   1  -1  -5  106.34   16.86
  -1   1   5   70.69    7.67
   1   1  -5   83.86   13.09
   1   1  -5   86.78   15.61
  -1   1   5   73.49   14.67
   0  -1   5   13.65    6.55
   0   1   5    8.67    4.82
   0  -1   5   11.03    6.25
   0   1   5    7.09    3.11
   0  -1   5    9.93    3.82
   0   1  -5   17.07    5.77
   0   1  -5   14.57    6.04
   0  -1  -5    7.67    4.88
   0   1   5   11.01    6.83
  -1   1  -5  136.66   16.45
   1  -1   5  134.06   21.08
   1   1   5  149.74   21.29
   1   1   5  127.24   18.33
  -1   1  -5  142.81   17.64
  -1  -1  -5  147.39   19.09
   1  -1   5   97.36   15.52
   1  -1   5  138.12   23.17
   1   1   5  127.87   23.85
   2   1   5    7.05    6.12
  -2   1  -5   25.14    8.81
   2   1   5   14.90    8.79
   2  -1   5   25.94   11.11
   2  -1   5   34.95   13.79
  -2   1  -5   37.42    9.80
   3   1   5  201.11   30.27
   3  -1   5  172.28   28.16
  -3   1  -5  122.11   21.40
   3  -1   5  115.12   24.58
   3   1   5  134.78   27.92
   4  -1   5   -1.53    3.09
   4   1   5    0.58    2.26
  -4   1  -5   -4.77    4.80
   4   1   5    6.96    6.07
   4  -1   5  -10.14    7.26
   5   1   5    0.36    2.03
  -5   1  -5   -5.48    5.67
   5  -1   5   -2.23    4.02
   5   1   5   -9.45    7.64
   5  -1   5   -8.68    7.23
  -6   1  -5   80.15   22.00
   6   1   5   87.33   24.86
   6   1   5    6.98    7.01
   6  -1   5   28.15   13.52
   6  -1   5   76.01   22.02
   7   1   5   34.08   15.30
  -7   1  -5   12.90    9.26
   7  -1   5   16.37   11.55
   7   1   5   14.90   10.56
   7  -1   5   -6.67    7.14
 -12  -2   5   11.63   12.12
 -12  -2   5    2.60    3.94
 -11  -2   5   94.98   25.59
 -11   2   5  102.90   26.27
 -11  -2   5   68.29   17.92
 -10  -2   5  118.01   21.83
 -10  -2   5  117.85   27.22
 -10   2   5  129.82   28.70
  10   2  -5  157.05   26.70
   9  -2  -5  379.56   40.62
  -9  -2   5  293.68   31.04
  -9   2   5  254.46   24.81
  -9  -2   5  285.62   40.34
  -9   2   5  315.77   45.61
  -8  -2   5 1069.91   52.00
  -8   2   5 1023.26   43.10
  -8  -2   5  908.35   68.09
   7  -2  -5  174.84   28.67
  -7  -2   5  151.07   17.67
  -7   2   5  179.88   15.04
  -7  -2   5   92.17   19.98
   7  -2  -5   93.16   12.90
  -7   2   5  146.77   26.04
  -6   2   5  299.47   16.02
  -6  -2   5  269.41   21.51
  -6  -2   5  224.10   27.64
  -6   2   5  282.24   29.40
   6  -2  -5  275.46   23.76
   5  -2  -5   -2.93    2.67
  -5  -2   5   -0.83    1.58
  -5   2   5    2.90    3.19
  -5   2   5    1.87    1.05
  -5  -2   5    4.66    3.30
   5   2  -5   -1.97    2.17
   5  -2  -5    1.59    2.52
   4  -2  -5   39.05   10.24
  -4  -2   5   38.15    7.68
   4  -2  -5   33.28    4.13
  -4  -2   5   33.03    5.95
   4  -2  -5   34.59    6.48
   4  -2  -5   30.36    8.54
   4   2  -5   45.97    7.01
  -4   2   5   37.53    7.14
  -3  -2   5  562.69   27.72
   3  -2  -5  612.13   20.80
  -3   2   5  556.65   32.50
  -3   2   5  541.16   23.18
  -2   2   5   53.91   11.60
  -2   2   5   45.82    6.69
  -2  -2   5   48.14    8.42
   2  -2  -5   46.50    6.59
  -2  -2   5   35.45    8.91
  -1   2   5   18.21    7.65
  -1  -2   5   13.92    5.55
   1   2  -5   15.63    5.61
   0   2   5  715.23   54.23
   0   2   5  658.47   41.44
   0  -2   5  709.73   45.08
   0   2  -5  631.56   23.62
   0   2   5  627.73   29.58
   0   2  -5  668.05   36.74
   0  -2  -5  649.66   39.37
   0  -2   5  731.74   24.01
   0   2  -5  721.10   41.53
   1   2   5  214.32   32.26
  -1   2  -5  240.80   21.68
   1   2   5  246.40   27.43
   1  -2   5  232.00   27.71
  -1   2  -5  250.61   22.39
   1  -2   5  284.67   32.70
  -1   2  -5  244.97   22.63
  -1  -2  -5  224.40   24.60
   1  -2   5  239.88   20.34
   2   2   5 1052.49   77.50
   2  -2   5 1736.84   82.65
   2   2   5 1928.21   83.60
  -2   2  -5 1249.54   62.29
  -2   2  -5 1757.81   62.89
   2  -2   5 1730.46   87.60
   3   2   5  189.77   34.07
   3  -2   5  215.68   31.08
   3   2   5  290.03   35.66
  -3   2  -5  160.17   25.28
   3  -2   5  200.29   32.09
   4  -2   5   65.85   18.81
   4   2   5  127.66   28.74
   4   2   5  130.33   25.81
   4  -2   5   99.15   22.68
  -4   2  -5  128.48   25.02
   5   2   5  113.29   27.58
  -5   2  -5  129.74   27.09
   5   2   5   87.11   22.80
   5  -2   5   24.56   12.02
   5  -2   5  109.61   26.30
   6   2   5   27.46   13.80
  -6   2  -5   33.99   14.65
   6  -2   5   23.31   11.86
   6   2   5   12.85    8.96
   6  -2   5   10.06    8.19
   7   2   5   12.08    9.20
  -7   2  -5   13.00    9.35
   7   2   5    6.46    7.18
   7  -2   5    9.01    8.04
   7  -2   5   21.34   11.81
 -12  -3   5   74.83   24.44
 -12  -3   5   49.61   16.66
 -11  -3   5   58.75   20.07
 -11   3   5   58.15   19.74
 -11  -3   5   52.99   17.13
 -10  -3   5    8.44    7.33
 -10  -3   5    3.99    4.15
 -10   3   5   -2.60    4.40
  -9  -3   5   45.57   12.65
  -9  -3   5   25.67   12.70
  -9   3   5   35.95    9.00
  -9   3   5   19.18   11.18
  -8  -3   5   43.75   15.31
  -8  -3   5   82.96   15.17
  -8   3   5   76.24   11.18
  -8   3   5   64.37   18.09
   7  -3  -5   28.75    6.69
  -7  -3   5   34.21   12.16
  -7   3   5   43.93    6.82
  -7  -3   5   26.05    7.96
  -7   3   5   44.37   12.53
  -6   3   5   11.51    5.18
   6  -3  -5    3.51    2.82
  -6  -3   5   11.84    5.60
  -6   3   5   11.69    2.70
  -6  -3   5   16.67    5.50
   5  -3  -5  953.38   50.68
  -5  -3   5 1145.51   44.53
  -5  -3   5 1121.91   43.68
   5  -3  -5 1265.80   56.63
  -5   3   5 1067.99   44.88
   4  -3  -5  408.69   36.23
  -4  -3   5  386.77   25.19
   4  -3  -5  424.25   32.02
   4   3  -5  351.80   27.24
  -4   3   5  345.52   22.41
   4  -3  -5  356.86   23.04
  -3   3   5   27.41    7.61
   3  -3  -5   23.75    9.24
   3  -3  -5   29.52    3.89
  -3   3   5   24.57    5.58
  -3  -3   5   25.23    6.38
   3   3  -5   23.55    3.55
   3  -3  -5   27.37    8.13
  -2   3   5  798.87   31.43
   2  -3  -5  766.77   25.64
  -2  -3   5  725.13   34.60
  -2  -3   5  692.51   38.46
  -2   3   5  834.11   48.13
  -1   3   5  969.72   59.56
  -1  -3   5  920.72   47.61
   1   3  -5  884.53   41.49
   0   3   5  158.36   27.12
   0  -3   5  136.94    9.69
   0  -3   5  142.69   20.35
   0   3   5  131.47   13.90
   0   3  -5  131.99   13.78
   0   3  -5  131.16   16.14
   0  -3  -5  137.90   19.08
   1   3   5   96.50   22.58
   1   3   5  166.83   22.39
   1  -3   5  155.77   22.88
  -1   3  -5   73.99   13.74
  -1   3  -5  147.01   17.05
   1  -3   5  157.62   14.81
  -1   3  -5  138.63   16.97
   2   3   5   12.95    8.79
   2   3   5   33.17   11.22
  -2   3  -5   24.10    8.16
   2  -3   5   27.72   10.80
  -2   3  -5   23.79    6.39
  -2   3  -5   26.01    7.70
   3   3   5   20.06   11.19
   3   3   5   11.68    6.67
  -3   3  -5   10.03    5.65
   3  -3   5    2.89    3.72
   4   3   5   -3.36    4.94
  -4   3  -5   -3.07    4.06
   4   3   5   -8.23    6.50
   4  -3   5   -2.99    4.15
   5   3   5  167.01   34.68
   5   3   5   99.94   24.17
  -5   3  -5  174.23   31.11
  -6   3  -5  105.32   25.04
   6   3   5   28.02   13.11
   6  -3   5   73.86   22.57
   6   3   5  102.32   27.21
  -7   3  -5   -9.70    8.01
   7  -3   5   -6.99    7.18
   7   3   5    2.24    4.26
 -12  -4   5   34.27   14.21
 -11  -4   5   27.58   13.13
 -11  -4   5   46.12   17.83
 -11   4   5   24.23   13.34
 -10  -4   5    3.57    4.75
 -10  -4   5    2.16    3.29
 -10   4   5    9.77    8.65
  -9  -4   5    0.64    2.09
  -9  -4   5   -2.50    4.35
  -9   4   5    2.73    4.36
  -8  -4   5    9.47    6.39
  -8  -4   5   14.87    7.46
  -8   4   5   12.37    4.28
  -8   4   5   14.82    8.32
  -7  -4   5  195.35   21.95
  -7   4   5  200.80   12.82
  -7  -4   5  191.71   25.58
   7  -4  -5  220.05   26.37
  -7   4   5  188.66   24.95
  -6   4   5    1.06    1.12
  -6  -4   5    4.30    3.03
   6  -4  -5    1.97    2.48
  -5  -4   5  894.85   41.46
   5  -4  -5 1045.07   52.67
   5   4  -5  910.75   66.09
  -5   4   5  853.48   41.27
  -4   4   5    2.23    1.65
   4  -4  -5    5.47    5.10
  -4  -4   5    5.47    2.91
   4   4  -5    3.84    3.64
  -4   4   5    7.95    3.28
   4  -4  -5    5.34    3.71
  -3   4   5 1021.04   39.23
  -3  -4   5 1028.30   42.81
   3  -4  -5  901.76   17.63
  -3   4   5 1097.24   50.02
   3   4  -5 1067.91   41.04
   3  -4  -5 1090.00   50.86
  -2   4   5   21.08    5.70
  -2   4   5   27.97    9.30
  -2  -4   5   27.39    7.82
  -2  -4   5   26.90    7.27
  -1   4   5  863.08   60.14
  -1  -4   5  805.48   40.12
  -1  -4   5  711.70   42.66
   1   4  -5  670.47   31.24
   0   4   5   24.03   11.84
   0  -4   5   19.05    8.11
   0   4  -5   33.34    9.28
   0   4  -5   14.81    5.54
   0  -4   5   14.58    3.55
   0  -4  -5   22.08    8.11
   1  -4   5  157.57   14.36
   1  -4   5  173.89   24.68
  -1   4  -5  200.09   26.36
  -1   4  -5  148.53   17.00
  -2   4  -5    4.38    2.98
   2   4   5    2.77    4.18
   2   4   5    2.38    5.00
  -2   4  -5    2.55    1.65
   2  -4   5    7.22    5.62
  -2   4  -5    4.86    3.16
  -3   4  -5   55.98    8.86
   3   4   5   95.07   25.16
   3   4   5   63.90   16.48
  -3   4  -5  103.58   22.25
   3  -4   5   45.84   14.63
   4   4   5    7.88    5.92
   4   4   5    8.87    8.03
  -4   4  -5   16.09    9.03
   4  -4   5   -3.59    4.69
   5   4   5  137.14   31.64
   5   4   5   73.43   20.38
  -5   4  -5  117.99   25.89
  -6   4  -5   53.38   17.83
   6   4   5   14.02    9.54
   6  -4   5   41.09   16.58
   6   4   5   75.53   23.88
   7   4   5   45.74   18.55
  -7   4  -5   57.86   19.20
 -12  -5   5    3.72    5.26
 -11  -5   5   -3.74    4.61
 -11   5   5   -3.50    5.61
 -10  -5   5   35.82   12.71
 -10   5   5   13.14    9.86
  -9  -5   5  211.30   28.92
   9  -5  -5  159.02   24.14
  -9   5   5  196.06   33.38
  -8  -5   5    5.29    4.17
   8  -5  -5   -6.36    4.73
  -8   5   5   -0.71    2.97
  -7  -5   5  254.91   26.43
  -7   5   5  219.74   11.05
   7  -5  -5  281.43   30.02
  -7   5   5  230.90   27.40
  -6   5   5   11.87    5.38
   6   5  -5    5.38    3.27
  -6  -5   5    8.44    4.75
   6  -5  -5   11.77    5.90
  -5  -5   5   20.19    7.15
  -5   5   5   26.31    8.01
   5   5  -5   11.29    6.36
   5  -5  -5   24.28    8.20
  -4  -5   5   89.69   13.64
   4   5  -5  101.87   14.68
   4  -5  -5   98.49   15.87
  -4   5   5   99.35   13.74
  -4   5   5   82.63   12.35
  -3   5   5   18.56    7.14
  -3   5   5   12.65    4.46
   3   5  -5   21.51    4.73
  -3  -5   5    8.32    3.96
  -3  -5   5   15.34    5.58
   3   5  -5   13.57    3.55
   3  -5  -5   16.99    6.36
  -2   5   5   80.84   17.48
  -2   5   5   71.96   11.63
  -2  -5   5   64.26   11.83
  -2  -5   5   74.28   12.91
   2  -5  -5   75.99   14.26
   2   5  -5   70.01    6.50
   1   5  -5   25.67    4.69
  -1   5   5   27.44    7.18
  -1   5   5   36.56   14.13
  -1  -5   5   13.83    5.28
  -1  -5   5   22.75    7.53
   1  -5  -5   25.66    8.45
   0   5   5   11.70    8.49
   0  -5   5   12.90    6.15
   0   5  -5   13.45    4.89
   0  -5   5   13.93    3.75
   0   5  -5   14.89    5.14
   1  -5   5  433.07   39.35
  -1   5  -5  467.58   30.58
  -1   5  -5  359.35   37.32
   1  -5   5  431.83   25.01
   2   5   5    2.14    3.97
   2  -5   5   -0.24    1.55
  -2   5  -5    5.26    5.13
  -2   5  -5    4.15    3.72
  -2   5  -5    1.61    1.83
  -3   5  -5  253.54   19.83
   3   5   5  293.97   45.69
   3   5   5  294.11   34.56
   3  -5   5  204.19   32.28
  -3   5  -5  368.59   42.61
   4   5   5   37.00   15.41
   4   5   5   27.94   11.48
  -4   5  -5   35.51   14.29
   4  -5   5    3.57    5.07
   5   5   5    5.47    3.45
   5   5   5    7.40    6.43
  -5   5  -5    5.05    5.41
   5  -5   5   -2.03    3.93
   6   5   5   -3.62    5.50
  -6   5  -5   10.98    8.22
   6  -5   5   10.28    8.50
 -11  -6   5    7.24    6.45
 -11   6   5    3.87    6.07
 -10  -6   5   16.27    9.02
 -10   6   5   18.94   11.57
  -9  -6   5   58.88   15.67
  -9   6   5   54.49   16.81
  -8   6   5   38.71   12.58
  -8  -6   5   26.31    9.88
   8  -6  -5   27.67    9.75
  -7  -6   5  207.91   25.03
   7  -6  -5  245.31   28.36
  -7   6   5  201.44   26.10
  -6   6   5    6.55    5.06
   6   6  -5    6.65    3.44
  -6  -6   5    3.74    3.69
   6  -6  -5   -5.78    4.19
  -5  -6   5   76.51   13.85
   5   6  -5   80.75   12.25
   5  -6  -5   80.06   15.50
  -5   6   5   83.89   14.63
  -5   6   5   75.92   10.08
  -4  -6   5   83.80   13.93
  -4   6   5   86.26   13.36
   4   6  -5   85.17   12.57
   4  -6  -5   91.37   16.05
  -4   6   5   85.79   13.61
  -3   6   5  114.37   18.78
   3   6  -5  101.49   10.76
  -3   6   5   87.09   13.69
  -3  -6   5   86.02   13.19
  -3  -6   5   97.50   14.74
   3   6  -5   94.17   10.47
   3  -6  -5  115.85   18.33
  -2   6   5  315.11   36.02
   2   6  -5  271.95   15.51
  -2  -6   5  265.36   24.72
  -2  -6   5  252.11   24.49
   2  -6  -5  270.17   14.71
  -2   6   5  267.82   23.97
   2  -6  -5  321.27   31.36
  -1   6   5  118.79   24.50
  -1   6   5  101.38   14.83
  -1  -6   5   93.04   15.03
  -1  -6   5   90.78   15.66
   1   6  -5  106.98   10.41
   0   6  -5   29.34    6.87
   0   6   5   22.10   11.69
   0  -6   5   25.69    9.06
   0   6  -5   35.29    8.34
   1  -6   5  320.14   34.88
   1  -6   5  343.57   23.62
  -1   6  -5  369.40   27.04
  -1   6  -5  365.45   32.07
   2   6   5  105.01   27.64
   2  -6   5  119.66   23.11
  -2   6  -5   92.19   20.60
  -2   6  -5  132.67   15.90
   3   6   5   35.66   16.93
   3  -6   5   18.72    9.56
  -3   6  -5   16.85    9.61
   4   6   5   19.29   12.00
   4  -6   5    4.81    5.44
  -4   6  -5   23.73   11.35
   5   6   5   31.96   15.70
  -5   6  -5   27.27   12.74
   5  -6   5   12.06    8.85
   6   6   5   66.27   22.88
  -6   6  -5   99.29   24.63
   6  -6   5   62.54   21.29
 -11  -7   5   40.79   15.57
 -10  -7   5    2.82    3.93
 -10   7   5    2.51    4.33
  -9  -7   5   34.86   12.30
  -9   7   5   16.20    9.31
  -8  -7   5  148.85   23.71
   8  -7  -5  124.36   20.29
  -8   7   5  127.58   23.30
  -7   7   5   29.27   10.46
  -7  -7   5   32.70   10.45
   7  -7  -5   30.07    9.72
  -6  -7   5  280.59   28.41
   6  -7  -5  328.40   32.42
  -6   7   5  297.24   30.19
  -5   7   5  584.00   29.59
  -5  -7   5  626.58   40.36
  -5   7   5  680.21   43.87
  -4  -7   5    1.42    1.73
  -4   7   5    3.34    2.02
   4  -7  -5    0.65    1.69
  -3   7   5    3.41    3.53
  -3  -7   5    8.43    4.34
  -3  -7   5    4.06    4.69
  -3   7   5    4.25    3.33
   3   7  -5    3.17    1.91
   3  -7  -5    8.79    4.46
  -2   7   5   27.94   11.43
  -2   7   5   21.66    7.07
   2   7  -5   22.99    5.27
  -2  -7   5   18.96    6.60
  -2  -7   5   17.00    6.56
   2  -7  -5   27.06    4.71
  -1   7   5  733.14   41.96
  -1   7   5  691.52   62.55
  -1  -7   5  766.81   45.07
  -1  -7   5  676.50   43.17
   1  -7  -5  712.74   32.25
   1   7  -5  710.80   29.89
   0  -7   5  255.63   28.86
   0  -7  -5  289.63   25.81
   0   7  -5  263.23   20.46
   1   7   5   80.39   24.49
   1  -7   5  115.13   21.28
  -1   7  -5  134.08   16.33
  -1   7  -5  126.25   17.34
   2   7   5   21.70   12.61
   2  -7   5   18.15    8.65
  -2   7  -5   17.23    8.04
  -2   7  -5   19.25    5.78
   3   7   5   38.79   16.84
   3  -7   5   15.08    9.10
  -3   7  -5   18.58   10.15
   4   7   5   61.72   22.37
   4  -7   5   10.55    7.28
  -4   7  -5   48.68   17.72
   5   7   5  214.19   41.63
   5  -7   5  104.55   26.76
  -5   7  -5  168.98   31.99
   6   7   5    3.34    5.53
 -10  -8   5    3.06    5.12
 -10   8   5    6.07    6.41
  -9   8   5   20.92   10.56
  -9  -8   5   18.76    9.33
  -8   8   5   50.48   15.10
  -8  -8   5   38.40   13.10
  -7   8   5   34.68   11.43
  -7  -8   5   33.05   11.42
   7  -8  -5   39.23   11.71
  -6   8   5   17.17    6.82
  -6  -8   5   23.22    9.01
   6  -8  -5   19.88    8.65
  -5  -8   5  171.54   22.09
  -5   8   5  200.21   18.78
   5  -8  -5  231.52   28.80
  -5   8   5  217.03   26.06
  -4   8   5    2.70    1.94
  -4  -8   5    0.62    1.48
  -4   8   5    0.73    1.81
  -3   8   5  209.07   29.34
  -3   8   5  194.57   23.29
   3   8  -5  171.59   17.10
  -3  -8   5  169.02   18.91
   3  -8  -5  142.13    7.72
  -3  -8   5  195.86   22.95
  -2   8   5   47.92   11.34
  -2   8   5   46.87   15.87
   2  -8  -5   46.63    6.61
  -2  -8   5   57.37   12.32
  -2  -8   5   46.61   10.80
   2   8  -5   44.05    8.21
  -1   8   5  181.54   34.06
  -1   8   5  202.72   23.47
  -1  -8   5  238.64   26.27
  -1  -8   5  201.19   24.09
   1  -8  -5  215.41   17.52
   1   8  -5  215.56   18.06
   0   8   5   -2.97    4.58
   0  -8   5   16.76    6.81
   0   8  -5    1.94    1.89
   0  -8   5    5.03    2.96
   0  -8  -5   10.63    4.67
   1  -8   5   29.71   11.21
  -1  -8  -5   39.09   10.65
  -1   8  -5   41.83    9.26
  -1   8  -5   41.66    9.75
   1   8   5   27.13   13.94
   2   8   5   43.54   19.13
   2  -8   5   45.69   15.07
  -2  -8  -5   46.35   13.28
  -2   8  -5   48.97   12.89
   3   8   5  124.23   30.86
   3  -8   5   52.87   17.44
  -3  -8  -5  103.87   22.80
  -3   8  -5   70.59   19.03
   4  -8   5  -13.50    9.35
  -4  -8  -5    3.63    4.98
  -4   8  -5    6.88    6.72
   4   8   5   11.01   11.13
   5   8   5   98.45   28.72
   5  -8   5   58.28   20.19
  -5  -8  -5   68.05   21.76
 -10  -9   5    5.61    5.87
  -9  -9   5   46.63   15.09
  -9   9   5   31.44   13.27
  -8   9   5    1.86    4.67
  -8  -9   5    1.18    2.51
  -7   9   5   52.90   14.68
  -7  -9   5   57.66   14.64
  -6  -9   5  139.20   21.63
   6  -9  -5  136.19   22.90
  -6   9   5  155.77   23.89
  -5  -9   5   -0.04    3.42
  -5   9   5    1.37    2.47
  -5   9   5    1.66    1.35
  -4   9   5  160.75   23.15
  -4   9   5  169.16   22.83
  -4  -9   5  147.33   21.43
  -3  -9   5    7.09    3.95
   3   9  -5    1.53    2.21
  -3  -9   5   -0.50    2.53
  -3   9   5   -0.36    2.32
  -3   9   5    7.50    5.15
  -2   9   5  158.34   30.59
   2   9  -5  154.06   16.87
  -2   9   5  160.66   21.88
  -2  -9   5  146.32   19.47
   2  -9  -5  156.55   12.75
  -2  -9   5  172.01   22.69
  -1   9   5   -4.93    3.92
  -1   9   5    5.12    9.21
  -1  -9   5    3.72    4.70
  -1  -9   5   -0.72    1.69
   1  -9  -5    2.00    2.26
   1   9  -5   -1.00    0.84
   0   9   5  116.29   19.48
   0  -9   5  120.17   20.90
   0  -9  -5  141.83   17.47
   0  -9   5  151.67   22.60
   0   9  -5  127.52   15.99
   1   9   5   20.82   12.89
   1  -9   5   45.85   14.27
  -1  -9  -5   53.78   12.36
  -1   9  -5   57.22   10.71
  -1   9  -5   50.77   10.85
   2   9   5    0.56    2.94
   2  -9   5   -2.71    3.99
  -2  -9  -5   -2.23    5.63
  -2   9  -5   -4.94    4.05
   3   9   5   32.44   16.63
   3  -9   5    8.61    7.23
  -3  -9  -5   26.15   10.74
  -3   9  -5   26.11   10.75
   4  -9   5   -0.68    2.63
  -4  -9  -5   16.70   10.00
  -4   9  -5   16.25   10.20
   5   9   5   -0.20    2.54
   5  -9   5    7.76    7.57
  -5  -9  -5    8.88    7.92
  -9  10   5   -1.79    3.58
  -9 -10   5    1.88    3.37
  -8 -10   5   28.93   12.72
  -8  10   5   17.31    9.31
  -7  10   5  111.68   22.48
  -7 -10   5   89.82   19.19
  -6 -10   5   62.14   15.23
  -6  10   5   60.26   15.85
  -5 -10   5   20.11    8.37
  -5  10   5   48.61   13.62
  -4  10   5   76.49   16.01
  -4  10   5   72.54   16.63
   4  10  -5   60.07   12.25
  -4 -10   5   71.39   15.44
  -3  10   5   33.89   13.35
   3  10  -5   35.67    8.79
  -3 -10   5   35.01    8.86
  -3 -10   5   44.36   12.19
  -3  10   5   43.48   12.04
  -2  10   5  190.93   35.44
   2  10  -5  206.10   20.91
  -2  10   5  199.62   25.53
  -2 -10   5  206.96   26.35
  -2 -10   5  181.12   22.29
   2 -10  -5  187.18   14.98
  -1 -10   5   10.76    5.02
  -1 -10   5   15.65    6.96
   1 -10  -5   13.03    4.45
  -1  10   5   15.80    7.44
   1  10  -5   13.84    5.22
  -1  10   5   12.38    9.58
   0 -10   5  255.91   31.12
   0 -10   5  241.48   30.35
   0 -10  -5  234.14   22.59
   0  10   5  265.36   30.45
   0  10  -5  249.75   23.79
   1  10   5   93.19   28.83
  -1 -10  -5   97.33   17.00
   1 -10   5   96.47   21.11
  -1  10  -5  107.19   16.65
   2  10   5   10.51    9.65
  -2  10  -5   -0.33    1.37
   2 -10   5    8.05    6.71
  -2 -10  -5    8.90    5.46
   3 -10   5    4.52    5.42
  -3 -10  -5    7.28    5.46
  -3  10  -5    5.29    4.82
   4  10   5   72.76   26.20
   4 -10   5   23.13   12.60
  -4 -10  -5   45.98   16.14
  -5 -10  -5   -7.72    7.47
  -8  11   5   28.40   12.38
  -8 -11   5   27.46   12.27
  -7  11   5   26.56   11.16
  -7 -11   5   17.81    8.79
  -6 -11   5  125.43   22.21
  -6  11   5  124.48   23.91
  -5 -11   5   64.64   15.32
  -5  11   5   93.27   19.65
  -4  11   5    1.82    2.91
  -4 -11   5    2.39    2.64
   4  11  -5    5.45    3.64
  -4  11   5    8.78    5.17
   3  11  -5   -5.12    3.59
  -3  11   5   -6.85    6.35
  -3 -11   5    0.36    1.23
  -3 -11   5   -3.40    3.62
  -3  11   5   -2.94    2.97
  -2  11   5    6.98    7.04
   2  11  -5   -9.78    4.89
  -2 -11   5    3.13    2.90
  -2 -11   5    3.33    2.71
  -2  11   5    4.39    4.54
  -1  11   5  110.20   20.08
  -1  11   5   62.06   22.75
  -1 -11   5  140.62   22.78
  -1 -11   5  113.33   19.48
   1  11  -5  124.40   17.22
   0 -11   5   69.24   16.62
   0  11   5   18.30   12.59
   0 -11   5   77.94   17.55
   0  11  -5   55.64   11.96
   0 -11  -5   50.55   10.80
   0  11   5   55.24   14.37
   1  11   5   18.75   12.97
  -1  11  -5    6.33    4.72
   1 -11   5    8.29    6.42
  -1 -11  -5    6.78    4.58
   2  11   5    5.36    7.14
   2 -11   5   -6.11    6.06
  -2 -11  -5    3.52    3.81
   3  11   5   -7.46    8.60
   3 -11   5    7.00    6.82
  -3 -11  -5   12.80    7.97
   4 -11   5   33.29   16.60
  -4 -11  -5   77.71   21.47
  -8  12   5   25.33   12.19
  -7  12   5   -0.14    1.65
  -7 -12   5    1.59    2.97
  -6 -12   5    7.28    5.82
  -6  12   5   -1.70    3.27
   5  12  -5   18.64    8.00
  -5 -12   5    1.99    3.35
  -5  12   5   12.22    7.39
  -4  12   5    2.59    3.42
  -4 -12   5    1.46    5.39
   4  12  -5   -0.80    1.74
  -3  12   5   36.29   15.06
  -3  12   5   25.36   10.02
  -3 -12   5   32.67   10.95
   3  12  -5   20.60    8.62
  -2  12   5   27.52   14.47
   2  12  -5   20.37    7.62
  -2 -12   5   29.16   11.34
  -2 -12   5   22.96    8.14
  -2  12   5   13.19    7.19
  -1 -12   5    2.06    3.73
  -1  12   5    2.59    2.40
  -1 -12   5   -1.58    2.53
   0  12   5    9.11    9.24
   0  12   5    0.16    1.88
   0 -12   5    1.34    3.07
   0 -12   5    4.09    4.23
   0  12  -5   -4.76    3.76
   1  12   5   -4.49    6.77
   1 -12   5    9.08    6.87
  -1 -12  -5    2.08    2.68
   1  12   5   -3.24    3.85
   2  12   5   75.25   28.27
   2 -12   5   32.48   13.93
  -2 -12  -5   37.32   11.98
   3  12   5   34.60   18.76
   3 -12   5   16.01   10.48
  -3 -12  -5   29.00   11.91
  -4 -12  -5   13.50    9.06
  -7  13   5    3.02    4.37
  -6 -13   5   17.39    7.75
  -6  13   5   32.82   13.29
   5  13  -5    0.23    1.29
  -5 -13   5   -3.78    4.19
  -4  13   5   66.60   17.27
  -4 -13   5   56.48   15.18
   4  13  -5   42.57   11.83
  -3  13   5    9.66    8.19
  -3  13   5   -3.22    3.95
  -3 -13   5    3.00    2.19
   3  13  -5   10.48    5.65
   2  13  -5   38.56   10.43
  -2 -13   5   48.03   14.22
  -2  13   5   50.06   14.64
  -2  13   5   41.61   18.96
  -1  13   5   -6.30    7.73
  -1  13   5    6.89    5.51
  -1 -13   5   -0.14    1.79
  -1 -13   5    6.33    4.88
   0  13   5    3.99    6.68
   0 -13   5   27.02   10.50
   0 -13   5   39.30   13.14
   0  13   5   24.15   10.33
   1  13   5    3.25    6.10
   1  13   5    3.36    4.15
   1 -13   5   -1.90    3.52
   2  13   5    2.15    4.90
   2 -13   5    2.66    4.33
   3 -13   5    6.44    6.73
  -4 -13  -5    9.55    7.70
  -5 -14   5    3.70    4.31
  -5  14   5    4.29    6.36
  -4  14   5    7.26    5.50
  -4 -14   5   12.93    7.62
  -3  14   5   21.61   10.06
  -3 -14   5   18.80    9.15
  -2  14   5   19.81   14.14
  -2 -14   5   13.22    7.77
  -2  14   5   25.57   11.32
  -1  14   5    3.62    6.24
  -1 -14   5   -3.21    4.02
  -1  14   5   -0.01    2.41
   0 -14   5   50.85   15.85
   0 -14   5   37.62   13.19
   0  14   5   28.83   11.53
   0  14   5   33.41   19.00
   1  14   5   -3.43    6.45
   1  14   5   -0.68    2.38
   1 -14   5    0.18    1.88
   2 -14   5   -3.12    4.70
  -3  15   5    0.91    3.71
  -3 -15   5    0.15    2.18
  -2  15   5   11.56   10.66
  -2 -15   5   -3.90    4.56
  -2  15   5    6.08    5.65
  -1  15   5  -10.97   11.10
  -1 -15   5   14.79    8.51
   0  15   5    1.00    3.97
   2 -15   5    0.40    2.59
  -1  16   5   -5.26    7.84
 -12   0   6   35.45   15.60
 -11   0   6    6.52    6.59
  10   0  -6   12.44    9.32
 -10   0   6    1.38    6.59
 -10   0   6   10.24    5.49
   9   0  -6  705.80   62.77
  -9   0   6  554.11   36.60
  -9   0   6  610.80   60.46
  -8   0   6    2.89    2.42
  -8   0   6   14.63   10.30
   8   0  -6    7.92    6.55
  -7   0   6 1294.42   44.93
  -7   0   6 1486.83   85.78
   7   0  -6 1565.14   95.65
  -6   0   6 1219.87   40.27
  -6   0   6 1318.96   77.00
   5   0  -6   50.32    7.66
   5   0  -6   46.23   15.78
  -5   0   6   48.00    7.31
   5   0  -6   51.30    7.97
  -5   0   6   45.45   12.90
   4   0  -6   74.76    7.64
  -4   0   6   84.24    9.86
   4   0  -6   76.64   10.13
  -4   0   6   63.07   12.24
   3   0  -6  160.01   25.55
   3   0  -6  160.39   14.99
  -3   0   6  165.60   12.19
   2   0  -6 1401.81   69.75
  -2   0   6 1431.06   28.52
   2   0  -6 1175.05   54.54
   1   0  -6  229.76   26.24
  -1   0   6  248.36   27.05
   1   0  -6  219.25   23.31
  -1   0   6  210.11   20.51
  -1   0   6  247.39   29.70
   0   0   6  281.86   31.13
   0   0  -6  262.75   26.30
   0   0   6  342.20   32.02
   0   0   6  261.53   33.57
   1   0   6   57.46   15.26
   1   0   6   63.20   14.53
   1   0   6   61.10   17.69
  -1   0  -6   54.20   12.52
   2   0   6  199.83   30.61
   2   0   6  121.09   26.44
   3   0   6  607.98   58.57
   3   0   6  316.83   44.92
   4   0   6  495.88   56.91
   4   0   6  585.38   62.99
   5   0   6    4.50    5.72
   5   0   6   -0.15    1.52
   6   0   6   50.42   19.19
   6   0   6   12.92   10.22
   7   0   6   83.38   24.91
 -12  -1   6   12.22    9.26
 -12   1   6   17.57   10.90
 -11  -1   6   38.54   15.31
 -11   1   6   50.32   18.21
  10  -1  -6  194.23   30.86
  10   1  -6  174.34   30.67
 -10  -1   6  117.91   19.56
 -10  -1   6  142.72   29.56
 -10   1   6  164.91   32.60
   9   1  -6   66.23   19.69
   9  -1  -6   63.36   17.59
  -9  -1   6   74.91   20.72
  -9  -1   6   53.05   12.25
  -9   1   6   68.77   12.17
  -9   1   6   46.15   16.68
   8  -1  -6   71.93   20.57
  -8   1   6   56.76    9.70
  -8  -1   6   64.17   12.06
   8   1  -6   89.86   23.99
  -8  -1   6   60.05   17.63
  -8   1   6   54.89   18.88
   7  -1  -6   76.14   14.63
   7  -1  -6   79.63   20.90
  -7   1   6   89.24   10.84
  -7  -1   6   86.33   12.66
  -7  -1   6   54.91   17.08
  -7   1   6   63.74   18.30
   7   1  -6   84.35   23.09
   6  -1  -6   67.15   18.79
  -6   1   6  110.65   11.06
  -6  -1   6   97.19   12.27
  -6  -1   6   62.27   14.64
  -6   1   6   85.54   18.55
   6   1  -6   81.88   22.65
   5  -1  -6   -2.40    3.76
  -5   1   6    1.17    1.08
  -5  -1   6    6.47    3.28
  -5  -1   6    4.96    1.47
   5  -1  -6    9.02    3.44
   5  -1  -6    2.27    1.49
   5   1  -6    6.37    2.64
  -5   1   6    3.76    3.72
   5   1  -6    6.40    4.14
  -4   1   6    5.62    2.74
   4  -1  -6    6.32    5.44
   4  -1  -6    2.93    1.74
  -4  -1   6    3.99    1.86
  -4  -1   6    4.69    2.20
   4  -1  -6    4.09    1.87
   4  -1  -6    5.25    1.66
   4   1  -6    4.53    1.60
   3  -1  -6 1336.21   72.73
  -3  -1   6 1102.86   40.48
   3  -1  -6 1200.76   38.29
   3   1  -6 1145.84   53.89
  -3   1   6 1169.56   30.19
   3   1  -6 1367.68   77.96
   2   1  -6  562.49   45.26
   2  -1  -6  497.15   41.72
  -2   1   6  464.31   17.78
  -2   1   6  450.34   36.92
   2   1  -6  444.17   33.04
   2  -1  -6  420.51   33.12
   1   1  -6  238.24   26.94
  -1  -1   6  172.41    7.25
  -1  -1   6  247.20   27.52
  -1   1   6  248.42   17.17
   1   1  -6  227.85   23.80
   1  -1  -6  235.77   24.41
  -1  -1   6  214.88    8.77
  -1   1   6  254.88   30.76
   0   1  -6  782.92   45.45
   0   1   6  843.84   53.19
   0  -1   6  829.26   53.44
   0   1   6  866.11   44.19
   0   1  -6  784.45   44.01
   0  -1  -6  758.21   45.32
   0  -1   6  723.26   32.99
   0  -1   6  842.24   58.59
   0   1   6  850.97   61.99
   1   1   6  243.14   30.81
   1  -1   6  223.45   30.61
  -1   1  -6  210.19   23.64
  -1  -1  -6  217.79   25.35
   1  -1   6  146.45   19.31
   1   1   6  200.98   32.58
   1  -1   6  218.74   32.71
   2  -1   6   21.58   11.78
   2   1   6   15.42   10.67
   2   1   6   25.81   10.73
   2  -1   6   30.31   12.25
   3  -1   6    7.36    6.23
   3   1   6   14.40    9.68
   3   1   6   22.28   11.55
   3  -1   6   13.20    9.99
   4   1   6   93.64   25.76
   4   1   6   61.93   19.36
   4  -1   6   56.92   19.22
   4  -1   6   50.39   18.14
   5  -1   6    8.28    7.65
   5   1   6   14.29   10.10
   5   1   6    4.23    5.74
   5  -1   6   -0.44    2.21
   6  -1   6   10.35    8.80
   6   1   6   -6.76    7.13
   6   1   6    2.19    4.40
   6  -1   6    9.11    8.52
   7  -1   6   34.03   15.90
 -12  -2   6   26.22   13.72
 -12   2   6    6.29    6.67
 -11  -2   6   -7.23    7.08
 -11   2   6    8.63    7.71
 -11  -2   6  -14.76    7.81
  10   2  -6   13.81    8.77
 -10  -2   6   13.43    9.09
 -10  -2   6   10.90    6.35
 -10   2   6    9.44    7.73
   9  -2  -6   -0.76    6.33
  -9  -2   6   -4.55    5.11
  -9  -2   6    2.10    2.77
  -9   2   6    4.40    5.58
   8  -2  -6    0.27    2.11
  -8   2   6   -2.33    1.88
  -8  -2   6   -0.20    1.65
  -8   2   6   -1.42    3.33
   7  -2  -6   23.72    8.13
   7  -2  -6   27.79   10.99
  -7   2   6   47.01    7.09
  -7  -2   6   26.14    9.86
  -7  -2   6   46.60    9.82
  -7   2   6   34.49   12.17
   6  -2  -6   34.52   14.26
  -6   2   6   78.15    7.81
  -6  -2   6   68.67   11.13
  -6  -2   6   62.37   12.78
  -6   2   6   75.91   14.81
   6  -2  -6   81.04   15.60
   5  -2  -6  207.70   32.41
  -5   2   6  205.60   12.11
  -5  -2   6  193.77   18.03
   5  -2  -6  189.24   11.34
  -5  -2   6  205.76   17.55
   5  -2  -6  216.20   25.39
  -5   2   6  191.04   19.04
   5   2  -6  203.73   15.83
   4   2  -6   76.68    5.75
   4  -2  -6  123.75   24.27
   4  -2  -6  109.13   11.90
  -4  -2   6   87.82   11.59
   4  -2  -6   95.36    8.81
   4  -2  -6   95.47   16.33
  -4   2   6   97.75   11.29
   3  -2  -6  405.80   41.20
  -3  -2   6  328.05   23.48
   3  -2  -6  346.05   19.08
   3  -2  -6  305.64   28.82
  -3   2   6  320.38   29.03
  -3   2   6  320.55   17.86
  -2   2   6   93.42    9.80
  -2  -2   6   81.90   15.06
   2  -2  -6   91.79   10.87
   2   2  -6  102.61   15.71
   2  -2  -6   92.12   15.41
  -2   2   6   95.32   17.48
   2   2  -6  103.11   19.73
  -1  -2   6  190.35   24.16
  -1   2   6  179.34   14.89
   1   2  -6  175.13   20.65
   1  -2  -6  163.26   21.10
  -1   2   6  211.24   29.41
   1   2  -6  208.90   25.95
   0   2  -6   70.23   13.78
   0   2   6   74.40   15.94
   0  -2   6   80.10   17.34
   0   2   6   75.92   19.24
   0   2   6   74.00   11.62
   0   2  -6   68.54   13.12
   0  -2  -6   80.48   15.37
   0  -2   6   73.80    8.06
  -1   2  -6   22.32    7.30
   1   2   6   26.78   10.85
   1  -2   6   23.69    6.64
   1  -2   6   16.02    8.51
  -1  -2  -6   33.46   10.52
  -1   2  -6   28.19    8.66
   1   2   6   33.15   13.74
   2   2   6    1.03    2.82
   2   2   6   10.64    6.85
   2  -2   6    3.50    4.23
  -2   2  -6   13.05    6.03
  -2   2  -6   14.53    6.02
   2  -2   6    5.07    5.23
   3   2   6   -0.87    2.89
  -3   2  -6    3.60    3.80
   3   2   6    0.69    2.38
   3  -2   6    1.57    4.22
   3  -2   6    6.47    6.26
   4   2   6    5.97    8.77
  -4   2  -6   10.40    7.01
   4   2   6   -7.91    7.06
   4  -2   6    1.77    3.64
   4  -2   6    9.31    7.82
   5   2   6   17.63    9.83
  -5   2  -6   17.94    8.97
   5   2   6   18.59   11.44
   5  -2   6   -2.20    4.32
   5  -2   6    8.96    7.92
   6   2   6   -1.97    4.27
   6   2   6    1.10    3.53
   6  -2   6   -0.92    2.97
 -12  -3   6   -0.10    1.59
 -12   3   6   15.47   10.55
 -11  -3   6   36.97   17.25
 -11  -3   6   64.53   16.03
 -11   3   6   60.89   20.41
  11   3  -6   90.62   21.74
 -10  -3   6    0.35    2.14
 -10  -3   6    2.79    3.35
 -10   3   6    8.31    7.74
  -9  -3   6    0.31    1.95
  -9  -3   6   -1.66    2.47
  -9   3   6   -0.06    1.81
  -8  -3   6  252.52   25.70
  -8  -3   6  230.24   31.85
  -8   3   6  223.03   34.25
  -7  -3   6   17.54    7.36
  -7   3   6   17.46    3.65
  -7  -3   6   14.14    6.52
  -7   3   6   15.25    8.00
  -6   3   6  393.46   12.78
  -6  -3   6  419.25   28.83
  -6  -3   6  398.79   28.90
   6  -3  -6  490.72   39.87
  -6   3   6  422.28   32.53
   5   3  -6   36.54    7.51
  -5   3   6   20.07    6.06
  -5  -3   6   29.68    7.42
   5  -3  -6   23.95    7.58
  -4   3   6   14.57    5.28
  -4  -3   6   11.22    4.55
   4   3  -6   12.34    2.42
   4  -3  -6   11.67    2.50
  -4   3   6    5.23    1.56
   4  -3  -6   16.60    7.14
  -3   3   6  699.37   29.61
  -3  -3   6  695.95   35.99
   3  -3  -6  692.85   24.45
   3  -3  -6  702.17   43.69
  -3   3   6  717.58   43.83
  -2   3   6  201.07   16.26
  -2  -3   6  192.96   19.66
  -2  -3   6  173.81   21.78
   2  -3  -6  206.70   15.85
   2  -3  -6  211.12   23.95
  -2   3   6  217.07   27.32
   1   3  -6  770.15   51.31
  -1  -3   6  647.63   44.69
   1   3  -6  636.53   39.30
   1  -3  -6  638.18   42.66
  -1   3   6  687.81   54.58
   0  -3   6  204.66   12.27
   0  -3   6  230.01   29.16
   0   3  -6  222.96   23.68
   0  -3  -6  217.77   25.79
   0   3  -6  234.01   25.81
   0   3   6  236.88   35.10
  -1   3  -6    9.22    4.85
   1   3   6    3.78    4.91
   1   3   6    3.37    3.72
  -1   3  -6    3.04    2.53
   1  -3   6    0.98    2.23
   1  -3   6    4.82    2.53
  -1   3  -6    4.76    3.49
  -2   3  -6   59.54   11.28
   2   3   6   25.52   12.64
  -2   3  -6   37.39   10.98
   2   3   6   63.27   16.90
   2  -3   6   50.22   16.00
  -2   3  -6   60.18   12.77
   3   3   6  105.95   27.66
  -3   3  -6   48.50   14.05
   3   3   6  122.96   25.64
   3  -3   6   72.61   20.15
   4   3   6   83.67   24.70
  -4   3  -6   93.90   21.37
   4   3   6   80.38   22.27
   4  -3   6   28.29   13.62
   5   3   6   84.54   25.27
   5   3   6   57.73   18.90
   6   3   6   -4.91    6.20
   6   3   6    0.59    2.82
 -12  -4   6    5.04    5.56
 -12  -4   6    7.56    7.49
 -11  -4   6    4.10    4.62
 -11  -4   6   11.19    8.55
 -11   4   6   -4.47    6.21
 -10  -4   6   22.80    9.09
 -10  -4   6    3.69    4.72
 -10   4   6   10.93    9.29
  -9  -4   6  116.55   19.52
  -9  -4   6   76.00   19.93
   9  -4  -6   94.87   20.85
  -9   4   6   85.27   22.73
  -8  -4   6  110.78   17.64
   8  -4  -6  118.35   21.98
  -8   4   6   82.45   18.86
  -7  -4   6  398.18   31.61
   7  -4  -6  479.57   41.68
  -7   4   6  367.13   34.32
   6  -4  -6  542.24   45.18
  -6  -4   6  462.91   31.91
   6  -4  -6  533.64   42.61
  -6   4   6  418.01   31.92
   5  -4  -6   16.42    8.67
  -5   4   6    3.35    1.09
  -5  -4   6    8.82    4.12
   5  -4  -6   10.93    5.86
   5   4  -6   13.52    5.91
  -4   4   6   39.26    9.60
  -4  -4   6   37.44    8.69
  -4   4   6   34.53    7.57
   4   4  -6   52.42    7.33
   4  -4  -6   46.97   11.80
  -3   4   6  238.33   19.27
  -3  -4   6  198.13   22.71
  -3  -4   6  240.82   22.41
   3  -4  -6  237.33   12.80
   3  -4  -6  250.39   26.49
  -3   4   6  231.89   26.10
  -2  -4   6  458.40   31.66
   2  -4  -6  491.19   24.17
  -2  -4   6  433.42   34.58
  -2   4   6  498.76   28.50
   2  -4  -6  491.95   38.09
  -2   4   6  533.32   45.14
  -1   4   6  146.60   26.64
  -1   4   6  122.69   14.59
  -1  -4   6  139.90   21.18
   1   4  -6  139.55   18.22
   1  -4  -6  155.75   21.81
   0   4  -6   -0.78    1.16
   0  -4   6   -0.04    2.13
   0   4  -6    3.36    2.96
   0  -4   6    0.79    1.23
   0  -4  -6    1.26    2.18
  -1   4  -6   12.95    5.72
   1   4   6    1.76    3.78
  -1   4  -6    5.62    3.36
   1  -4   6   14.82    9.02
  -1   4  -6   12.79    5.85
  -2   4  -6   -3.82    2.85
   2   4   6   -1.87    3.02
  -2   4  -6   -5.85    4.62
   2   4   6   -8.58    7.85
  -2   4  -6   -2.67    2.68
   3   4   6  356.90   51.66
   3   4   6  367.37   43.63
   3  -4   6  245.44   37.49
  -3   4  -6  347.57   39.21
   4   4   6  196.52   38.97
   4   4   6  176.62   32.46
  -4   4  -6  206.32   32.39
   5   4   6   13.83   12.11
   5   4   6    7.17    7.10
   5  -4   6   -5.95    6.53
 -12  -5   6   18.83   10.43
 -11  -5   6    6.94    5.88
 -11   5   6  -13.79   10.86
 -10  -5   6  280.26   34.30
 -10   5   6  173.33   35.19
  -9  -5   6  154.87   23.66
   9  -5  -6  140.82   24.90
  -9   5   6  137.38   27.31
  -8  -5   6   34.64   10.89
   8  -5  -6   36.63   12.50
  -8   5   6   17.86    8.60
  -7  -5   6   95.31   15.99
   7  -5  -6  113.93   20.70
  -7   5   6   93.80   17.20
  -6  -5   6  136.59   18.49
   6  -5  -6  160.26   23.64
  -6   5   6  124.48   18.11
  -5  -5   6    4.65    3.15
  -5   5   6    1.34    2.34
   5   5  -6    2.54    3.29
   5  -5  -6   -0.82    4.42
  -5   5   6    1.56    1.78
  -4  -5   6  306.90   26.07
   4  -5  -6  317.80   31.10
  -4   5   6  316.72   27.37
  -4   5   6  324.25   25.08
  -3   5   6  295.71   23.62
  -3  -5   6  294.30   27.33
  -3  -5   6  309.38   26.63
   3  -5  -6  269.01   12.22
   3  -5  -6  322.17   31.69
   3   5  -6  238.27    8.87
  -3   5   6  322.07   32.10
  -2   5   6   23.07   10.56
  -2   5   6   20.36    6.31
  -2  -5   6   16.74    6.31
  -2  -5   6   15.76    6.97
   2  -5  -6   21.86    8.71
  -1   5   6   13.09    7.94
  -1  -5   6    3.98    3.67
   1   5  -6    2.68    1.92
  -1   5   6    3.23    2.82
   1   5  -6    3.08    1.52
   1  -5  -6    5.60    4.50
   0   5   6  306.02   43.46
   0  -5   6  303.96   17.37
   0  -5   6  351.25   36.50
   0   5  -6  338.14   29.31
   0   5  -6  403.69   31.57
   1  -5   6  754.23   57.95
  -1   5  -6  778.47   51.54
  -1   5  -6  757.99   42.82
  -1   5  -6  775.52   46.09
  -2   5  -6   10.77    4.95
   2   5   6    3.98    5.59
  -2   5  -6   11.21    6.72
   2  -5   6    2.80    4.56
  -2   5  -6   10.24    5.00
   3   5   6  183.31   37.96
   3  -5   6  124.62   26.72
  -3   5  -6  214.41   31.35
   4   5   6   15.21   11.07
   4   5   6   14.23    9.21
   4  -5   6    4.05    5.11
   5   5   6    0.68    2.41
   5  -5   6    8.12    7.72
   5   5   6   12.42   10.06
 -11  -6   6    6.20    5.78
 -11   6   6   -3.85    5.92
 -10  -6   6   42.50   14.26
 -10   6   6   40.63   16.33
  -9  -6   6    8.78    6.43
   9  -6  -6    6.85    5.55
  -9   6   6   13.96    5.98
  -8   6   6    1.63    3.62
  -8  -6   6    0.71    1.87
   8  -6  -6    4.52    4.44
  -7   6   6    6.34    4.61
  -7  -6   6   10.86    4.95
   7  -6  -6   12.98    6.22
  -6  -6   6  257.54   26.15
   6  -6  -6  298.61   32.19
  -6   6   6  231.03   25.59
  -5  -6   6  267.48   26.23
   5   6  -6  285.87   32.93
   5  -6  -6  292.70   31.31
  -5   6   6  243.45   21.85
  -5   6   6  268.24   26.09
  -4   6   6  236.08   22.98
  -4  -6   6  231.81   24.09
   4   6  -6  264.12   23.90
   4  -6  -6  265.12   29.82
  -4   6   6  244.99   25.56
  -3   6   6  523.44   43.84
   3   6  -6  444.96   17.39
  -3   6   6  462.17   31.97
  -3  -6   6  436.17   33.66
   3  -6  -6  425.46   14.30
  -3  -6   6  463.82   34.14
   3  -6  -6  406.27   13.71
   3   6  -6  506.81   23.85
   3  -6  -6  533.95   42.28
  -2   6   6  145.55   26.10
  -2   6   6  140.55   17.62
  -2  -6   6  141.44   19.18
  -2  -6   6  126.12   19.56
   2  -6  -6  173.87   24.57
   2   6  -6  140.45    9.99
  -1   6   6  296.93   41.24
  -1   6   6  277.77   25.20
  -1  -6   6  284.37   30.87
   1   6  -6  314.25   22.74
   0   6   6  117.84   27.68
   0  -6   6  179.82   26.77
   0   6  -6  167.36   20.48
   0   6  -6  135.39   21.53
   1   6   6   23.55   12.88
   1  -6   6   24.07   10.61
  -1   6  -6   24.37   10.22
  -1   6  -6   37.27    9.54
  -2   6  -6    3.61    3.03
   2   6   6    4.12    5.80
   2  -6   6    8.72    7.71
  -2   6  -6   12.02    7.31
  -2   6  -6    6.41    3.90
   3   6   6   -6.07    7.18
   3  -6   6   -1.94    3.67
   4   6   6    6.53    7.57
   4  -6   6   -2.33    4.13
   5   6   6   84.93   26.58
   5  -6   6    8.89    8.16
 -11  -7   6    3.11    4.32
 -10  -7   6    5.08    5.30
 -10   7   6   11.38   12.18
  -9  -7   6   18.73    8.83
  -9   7   6   -9.77    7.12
  -8   7   6   53.95   14.85
  -8  -7   6   61.80   15.36
   8  -7  -6   60.51   15.65
  -7   7   6   42.22   11.86
  -7  -7   6   37.68   10.85
   7  -7  -6   45.28   12.85
  -6   7   6   51.04   12.66
  -6  -7   6   61.48   13.43
   6  -7  -6   57.84   14.92
  -5  -7   6  132.35   19.58
   5  -7  -6  143.26   22.87
  -5   7   6  123.85   18.52
  -5   7   6  107.04   14.94
  -4   7   6  165.82   20.46
   4   7  -6  133.03   13.39
  -4  -7   6  130.86   18.85
   4  -7  -6  142.97   22.87
  -4   7   6  157.54   21.75
  -3   7   6   12.97    6.83
   3   7  -6    6.82    2.86
  -3  -7   6    7.38    5.26
  -3  -7   6    6.55    3.76
  -3   7   6    4.81    3.19
   3  -7  -6    5.54    1.58
   3  -7  -6    3.77    4.12
  -2   7   6   54.45   16.95
  -2   7   6   54.66   11.64
   2  -7  -6   53.17    7.61
  -2  -7   6   51.91   12.24
  -2  -7   6   55.13   12.79
   2   7  -6   55.99    7.30
  -1   7   6   82.85   22.59
  -1   7   6   94.23   15.66
  -1  -7   6  120.05   19.16
  -1  -7   6  107.67   19.56
   1  -7  -6   96.81   13.77
   1   7  -6   94.78   11.30
   0   7   6   11.93    9.87
   0  -7   6   19.48    8.77
   0   7  -6   13.81    5.79
   0   7  -6   14.23    5.97
   1   7   6   -7.21    7.39
   1  -7   6   -4.82    4.82
  -1   7  -6    4.34    4.45
  -1   7  -6    2.44    2.54
   2   7   6   46.35   18.15
   2  -7   6   42.28   15.26
   3   7   6   70.47   22.77
   3  -7   6   22.95   11.77
   4   7   6   22.76   13.92
   4  -7   6    2.53    4.36
 -10  -8   6   73.07   19.62
 -10   8   6   69.09   20.97
  -9   8   6    8.88    7.36
  -9  -8   6   10.98    7.13
  -8  -8   6  228.49   29.91
  -8   8   6  186.60   28.44
  -7   8   6    5.25    4.33
  -7  -8   6    3.18    3.39
   7  -8  -6    2.06    3.14
  -6  -8   6   21.42    8.45
  -6   8   6   14.50    5.83
   6  -8  -6   23.26   10.17
  -5  -8   6   99.83   17.62
   5  -8  -6  132.00   23.25
  -5   8   6  136.28   20.38
  -5   8   6   97.81   15.09
  -4   8   6    5.31    5.07
  -4  -8   6    6.66    4.55
   4   8  -6    4.11    2.55
  -4   8   6    4.86    4.50
   4  -8  -6   -1.67    2.99
  -3   8   6  139.65   25.37
  -3  -8   6  114.53   17.80
  -3  -8   6  123.74   19.32
  -3   8   6  135.77   19.57
   3   8  -6  132.62   13.32
  -2   8   6   39.71   15.35
  -2   8   6   35.62   10.13
  -2  -8   6   24.65    8.87
  -2  -8   6   33.69   10.25
   2  -8  -6   29.69    5.50
   2   8  -6   28.73    6.00
  -1   8   6   79.49   15.21
   1  -8  -6   98.72   13.25
  -1  -8   6   85.43   16.79
  -1  -8   6   77.18   16.64
   1   8  -6   98.09   12.07
  -1   8   6   71.32   21.78
   0  -8   6  137.66   24.34
   0  -8  -6  172.49   21.50
   0   8  -6  152.09   19.58
   0   8  -6  155.44   18.46
   1   8   6    7.20    7.56
   1  -8   6    7.65    5.91
  -1  -8  -6    9.24    4.99
  -1   8  -6   11.20    5.77
   2   8   6  202.72   41.11
   2  -8   6  167.33   30.33
  -2  -8  -6  157.64   27.85
   3   8   6   55.14   22.22
   3  -8   6   19.59   10.19
  -3  -8  -6   33.34   13.86
   4   8   6   -5.44    7.08
   4  -8   6   -2.76    4.61
  -4  -8  -6   -4.32    5.63
  -5  -8  -6    9.88    8.59
 -10  -9   6   63.22   19.25
 -10   9   6   46.08   17.99
  -9  -9   6   28.82   11.69
  -9   9   6   21.49   10.51
  -8   9   6    3.07    3.87
  -8  -9   6   -0.67    2.75
  -7   9   6   -4.80    4.61
  -7  -9   6   -4.42    4.14
   7  -9  -6    6.96    5.69
  -6  -9   6   72.52   15.89
  -6   9   6   75.06   16.63
   6  -9  -6   81.08   19.67
  -5   9   6   69.02   13.42
  -5  -9   6   56.28   13.63
  -5   9   6   60.89   14.34
   5  -9  -6   75.00   18.46
  -4   9   6  343.50   36.37
  -4   9   6  300.38   30.76
   4   9  -6  279.59   22.71
  -4  -9   6  298.35   30.80
  -3   9   6   24.01   11.09
   3   9  -6   23.83    6.23
  -3  -9   6   25.14    7.95
  -3  -9   6   24.93    8.42
  -3   9   6   27.74    8.86
  -2   9   6    3.29    3.64
  -2   9   6   -7.02    6.58
  -2  -9   6    7.61    4.62
  -2  -9   6    4.00    3.09
   2   9  -6    3.32    2.29
  -1   9   6   -0.53    2.22
  -1   9   6    9.29    8.09
  -1  -9   6   -2.99    3.53
  -1  -9   6   -1.77    3.90
   1  -9  -6    4.22    2.78
   0   9   6   34.36   16.26
   0  -9   6   34.27   11.64
   0  -9  -6   54.11   11.57
   0   9  -6   49.27   11.65
   0   9   6   54.30   13.53
   1   9   6  196.87   41.06
   1  -9   6  189.09   30.61
  -1  -9  -6  263.36   30.65
   2   9   6    1.04    3.53
   2  -9   6    1.78    3.44
   3   9   6    9.30    9.21
   3  -9   6    8.35    7.39
  -3  -9  -6    0.96    2.86
  -4  -9  -6   -2.82    4.54
  -9  10   6   27.94   12.65
  -9 -10   6   31.52   12.72
  -8  10   6    3.20    4.16
  -8 -10   6    3.57    4.18
  -7  10   6   33.82   12.84
  -7 -10   6   26.81   10.06
  -6 -10   6   81.27   17.59
  -6  10   6   76.78   17.73
   5  10  -6   -0.42    2.95
  -5 -10   6    5.12    2.26
  -5  10   6   -1.96    3.85
  -4  10   6   19.86    9.03
  -4  10   6   21.69    8.34
   4  10  -6   20.43    6.52
  -4 -10   6   22.06    8.66
  -3 -10   6    6.33    3.73
  -3 -10   6   13.82    7.34
  -3  10   6   10.02    7.36
  -3  10   6    9.74    5.90
  -2  10   6   -1.63    2.59
  -2  10   6    6.45    6.60
  -2 -10   6   -3.75    3.88
  -2 -10   6   -3.91    3.80
  -1  10   6    5.94    6.74
  -1 -10   6    1.60    2.17
  -1 -10   6    1.51    2.72
  -1  10   6    0.72    4.00
   0  10   6   15.52   11.34
   0  10   6   13.35    7.02
   0 -10   6   14.05    6.69
   0 -10  -6   33.88    9.35
   1 -10   6   -4.81    5.11
  -1 -10  -6    0.78    3.94
   2  10   6   -4.07    6.26
   2 -10   6   -6.89    6.52
  -2 -10  -6   -8.33    6.24
   3  10   6    7.58    8.49
   3 -10   6   -6.98    6.81
  -3 -10  -6    5.62    5.80
  -4 -10  -6   26.37   13.16
  -8  11   6  -10.51    7.52
  -8 -11   6   -2.77    3.84
  -7  11   6    8.75    6.54
  -7 -11   6   12.89    8.23
  -6 -11   6   -3.43    3.93
  -6  11   6  -12.26    7.51
  -5 -11   6   39.26   12.26
  -5  11   6   54.67   15.10
  -4  11   6   83.23   20.00
  -4  11   6   83.71   17.42
  -4 -11   6   85.99   17.82
  -3  11   6   40.69   15.25
  -3 -11   6   43.81   11.56
  -3 -11   6   39.05   12.05
  -3  11   6   40.93   12.30
  -2  11   6   59.78   20.68
  -2 -11   6   48.76   13.75
  -2 -11   6   61.48   14.74
  -2  11   6   63.68   15.27
  -1  11   6   -1.36    3.59
  -1 -11   6   -1.22    2.45
  -1  11   6   -3.04    3.54
   0  11   6   18.29   12.69
   0 -11   6   28.29   12.84
   0  11   6   15.88    8.30
   1  11   6    5.61    7.37
   1  11   6    6.52    5.45
   1 -11   6   20.88   10.62
   2  11   6    9.40    9.66
   2 -11   6   -7.07    6.82
  -2 -11  -6   13.57    7.76
   3 -11   6    1.71    3.81
  -3 -11  -6   12.36    8.38
  -4 -11  -6   -8.28    7.59
  -7  12   6   -3.04    4.19
  -7 -12   6    3.62    3.51
  -6 -12   6    4.97    4.81
  -6  12   6  -12.07    7.70
  -5 -12   6   28.14   11.19
  -5  12   6   28.78   11.03
  -4  12   6    7.62    6.79
  -4 -12   6   -0.27    2.27
  -3  12   6   19.28   11.03
  -3 -12   6    9.14    7.11
  -3  12   6    1.74    2.89
  -2  12   6   24.77   13.75
  -2 -12   6   -1.51    2.84
  -2 -12   6   19.19    8.41
  -2  12   6   19.06    8.90
  -1  12   6   28.68   15.87
  -1 -12   6   68.76   18.19
  -1  12   6   39.83   13.10
  -1 -12   6   49.24   14.58
   0  12   6   15.55   12.17
   0  12   6   41.23   13.82
   0 -12   6   35.18   13.06
   1  12   6   26.14   16.19
   1 -12   6   11.54    8.18
   1  12   6   10.94    7.35
   2 -12   6   47.70   17.52
  -6 -13   6    2.72    3.87
  -6  13   6    2.11    5.35
  -5 -13   6   56.68   16.16
  -5  13   6   54.23   15.82
  -4  13   6   57.62   15.94
  -4 -13   6   40.72   12.77
  -3  13   6    1.41    3.19
  -3 -13   6    7.16    6.21
  -3  13   6    2.03    3.21
  -2 -13   6   -4.15    4.51
  -2  13   6    2.99    3.71
  -1  13   6   -8.18    8.88
  -1  13   6    2.93    3.81
  -1 -13   6    3.39    4.28
  -1 -13   6    7.37    5.86
   0 -13   6   13.50    8.38
   0  13   6    6.08    4.94
   0  13   6   -7.73    8.86
   1  13   6    4.58    7.17
   1  13   6    3.94    4.62
   2 -13   6    0.36    1.92
  -5  14   6    8.97    7.69
  -4  14   6   -0.66    2.19
  -4 -14   6   -1.36    2.80
  -3  14   6   12.26    7.67
  -3 -14   6    4.36    5.88
  -2  14   6   26.72   15.45
  -2 -14   6   23.45   10.67
  -2  14   6   36.90   13.25
  -1  14   6   14.61    8.42
  -1  14   6    7.09    8.63
   0  14   6   10.87   10.99
   0 -14   6   -2.67    4.02
   1 -14   6    2.83    4.37
  -1  15   6   -5.87    8.10
 -12   0   7  -12.52    9.41
  11   0  -7  -20.65   10.82
 -11   0   7  -13.19    9.40
 -10   0   7   -2.79    4.25
  10   0  -7   -2.92    4.43
   9   0  -7    0.59    2.85
  -9   0   7   -0.26    1.14
   8   0  -7   -4.55    5.79
  -8   0   7   -4.22    2.78
  -8   0   7   -6.75    5.98
   7   0  -7    5.67    5.27
  -7   0   7    2.14    1.97
  -7   0   7    5.59    5.10
   6   0  -7    3.28    2.17
  -6   0   7    0.74    1.47
  -6   0   7    0.67    2.07
   5   0  -7    3.37    2.70
  -5   0   7    7.88    4.08
  -5   0   7    0.96    1.94
   5   0  -7    1.56    4.14
   4   0  -7   -1.64    2.51
  -4   0   7   -1.27    1.49
   4   0  -7    1.33    2.53
   3   0  -7   -8.21    6.07
   3   0  -7    2.57    4.54
   2   0  -7    3.68    3.80
   2   0  -7    3.63    2.94
   1   0  -7    1.61    3.63
  -1   0   7    8.64    7.00
  -1   0   7    2.49    1.71
  -1   0   7    1.12    1.48
   1   0  -7   11.39    6.64
  -1   0   7    9.28    7.73
   0   0   7    3.30    2.54
   0   0   7    1.27    2.52
   0   0  -7    1.67    3.73
   1   0   7    2.80    4.21
   1   0   7   -2.44    3.72
  -1   0  -7   -0.46    1.48
   2   0   7    6.36    6.57
   2   0   7    1.70    6.80
   3   0   7  -10.64    8.77
   3   0   7   -0.77    2.77
   4   0   7  -13.62   10.18
   4   0   7   -8.97    8.25
   5   0   7  -14.63   10.76
   5   0   7    4.69    6.41
 -12  -1   7   44.94   17.93
 -12   1   7   53.81   19.13
  11   1  -7  107.51   25.42
  11  -1  -7   91.09   22.76
 -11  -1   7  109.93   27.08
 -11   1   7  110.25   27.19
  10   1  -7   23.45   13.21
  10  -1  -7   22.18   11.53
 -10  -1   7   25.76   12.40
 -10   1   7   43.82   16.57
   9   1  -7  145.51   31.49
  -9  -1   7  109.60   16.37
   9  -1  -7  148.33   30.83
  -9  -1   7  101.25   23.75
  -9   1   7   86.37   23.84
   8   1  -7    6.91    7.04
   8  -1  -7   -0.52    2.73
  -8  -1   7   -2.12    3.20
  -8   1   7    3.88    2.45
  -8  -1   7    1.41    1.80
  -8   1   7   -5.48    5.85
   7  -1  -7   88.92   24.06
  -7   1   7  103.33   11.55
  -7  -1   7  119.79   15.01
  -7  -1   7   67.01   15.97
  -7   1   7   91.02   22.52
   7   1  -7   99.60   26.68
   6   1  -7  164.34   14.83
   6   1  -7  117.14   28.95
   6  -1  -7  131.38   28.80
  -6   1   7  185.86   14.84
  -6  -1   7  148.58   15.52
   6  -1  -7  163.83   13.67
  -6  -1   7  149.31   19.58
  -6   1   7  116.56   22.40
   5  -1  -7  410.70   48.41
   5   1  -7  299.80   15.29
   5  -1  -7  330.83   20.13
  -5  -1   7  371.39   24.75
   5  -1  -7  355.42   20.75
  -5  -1   7  361.45   21.56
   5  -1  -7  378.12   35.81
  -5   1   7  401.57   31.85
   5   1  -7  398.01   50.59
   4  -1  -7  365.57   43.25
  -4  -1   7  310.99   22.84
   4  -1  -7  319.23   21.02
   4   1  -7  289.50   30.23
   4  -1  -7  319.28   32.22
  -4   1   7  325.38   20.86
   4   1  -7  375.70   45.46
   3   1  -7   94.81   21.18
   3  -1  -7   92.21   20.01
   3   1  -7   76.23   15.21
   3  -1  -7   62.22   13.54
  -3   1   7   79.13    7.64
  -2   1   7    2.21    3.56
   2   1  -7    2.64    3.96
   2  -1  -7    2.68    3.30
  -2   1   7    2.53    1.36
  -2   1   7    5.36    2.25
   2   1  -7   -1.96    2.50
   2  -1  -7    2.25    3.17
   1   1  -7  572.70   44.36
  -1   1   7  570.70   24.07
  -1  -1   7  544.41   45.14
  -1   1   7  584.10   33.62
   1   1  -7  544.75   39.83
   1  -1  -7  547.63   41.13
  -1   1   7  583.55   51.84
   0   1   7   14.60    9.54
   0   1  -7    9.36    6.24
   0   1   7    8.46    6.50
   0  -1   7    9.25    6.31
   0   1  -7    8.98    5.25
   0  -1  -7    9.89    5.61
   1   1   7  247.98   34.63
   1  -1   7  287.79   37.95
  -1   1  -7  271.90   29.71
  -1  -1  -7  282.55   31.53
   1  -1   7  262.36   39.22
   1   1   7  239.16   38.42
   2  -1   7   84.29   23.57
   2   1   7   27.58   13.39
   2   1   7  102.82   24.33
   2  -1   7   78.59   21.46
   3  -1   7    0.35    2.17
   3   1   7   -4.00    5.46
   3   1   7    1.79    3.75
   3  -1   7   -6.79    6.94
   4  -1   7   20.70   12.49
   4   1   7   12.22    9.57
   4  -1   7    7.48    6.32
   4   1   7   12.26    9.74
   5  -1   7   24.27   13.83
   5   1   7   25.20   14.29
   5   1   7    7.69    8.14
   5  -1   7   -4.14    6.15
 -12  -2   7   10.82    8.82
 -12   2   7   15.99   10.66
 -11  -2   7  158.76   32.88
 -11   2   7  208.81   38.14
  11   2  -7  229.45   37.49
  10   2  -7   26.47   13.09
  10  -2  -7   36.15   15.86
 -10  -2   7   23.53   11.73
 -10  -2   7   27.74    9.56
 -10   2   7   10.92   10.26
   9  -2  -7  143.51   30.73
  -9  -2   7   95.64   16.08
  -9  -2   7   55.74   17.42
   9   2  -7  142.28   31.64
  -9   2   7  103.77   27.76
   8  -2  -7    6.02    6.49
  -8  -2   7   -4.89    4.54
  -8  -2   7   11.41    5.12
  -8   2   7   -0.98    2.94
   8   2  -7   15.55   10.64
   7  -2  -7  291.37   44.24
  -7   2   7  347.20   18.11
  -7  -2   7  346.33   26.89
  -7  -2   7  296.01   30.66
  -7   2   7  356.91   39.69
   6  -2  -7  149.74   31.08
  -6   2   7  188.95   13.04
  -6  -2   7  193.00   19.24
  -6  -2   7  194.65   18.74
   6  -2  -7  187.71   26.44
  -6   2   7  195.21   24.02
   6   2  -7  182.28   15.82
   5  -2  -7 1164.92   82.84
   5  -2  -7  936.98   37.29
  -5  -2   7  965.49   41.90
   5  -2  -7  981.23   29.60
   5  -2  -7 1101.98   61.53
  -5   2   7 1048.18   44.60
   5   2  -7 1107.11   85.26
   4  -2  -7  212.51   33.42
  -4  -2   7  157.34   16.99
   4  -2  -7  175.34   14.17
   4  -2  -7  169.87   23.81
  -4   2   7  181.19   15.34
   4   2  -7  185.26   32.64
  -3   2   7   11.74    6.21
   3   2  -7   13.01    8.37
   3  -2  -7   15.58    4.63
  -3   2   7   15.98    3.90
   3   2  -7   17.88    7.00
   3  -2  -7   14.52    6.86
   2   2  -7  170.48   26.71
  -2   2   7  156.67   12.97
  -2  -2   7  140.87   21.69
  -2   2   7  137.34   12.26
   2   2  -7  148.19   20.84
   2  -2  -7  163.98   22.34
  -2   2   7  181.19   26.81
   1   2  -7  404.44   37.87
  -1   2   7  386.36   22.61
  -1  -2   7  353.22   36.74
  -1   2   7  373.49   24.23
   1   2  -7  387.94   33.89
   1  -2  -7  349.80   33.46
  -1   2   7  403.05   44.06
   0   2  -7  548.86   40.85
   0  -2   7  560.65   49.24
   0   2  -7  554.43   40.52
   0  -2  -7  530.13   42.45
   0   2   7  610.27   58.57
   1   2   7   23.54   12.19
  -1   2  -7   31.71    9.58
   1   2   7   23.00    9.88
   1  -2   7   37.64   14.19
  -1   2  -7   30.77    9.59
   2   2   7   59.77   20.78
   2   2   7  118.69   25.76
   2  -2   7  103.37   24.73
  -2   2  -7  123.33   20.79
   3   2   7    7.52    7.66
   3   2   7    5.08    5.87
   3  -2   7   25.34   13.55
   4   2   7   -1.51    3.65
   4   2   7   15.19   10.57
   4  -2   7    7.75    7.78
   5   2   7   85.00   26.70
   5  -2   7   34.68   17.16
 -12  -3   7    3.85    5.16
 -12   3   7   16.32   11.04
 -11  -3   7   31.20   14.03
  11   3  -7   87.17   23.69
 -11  -3   7   54.47   15.15
 -11   3   7   57.23   20.18
 -10  -3   7   23.81   11.45
 -10  -3   7   46.92   12.93
 -10   3   7   53.22   19.78
  10   3  -7   60.09   19.94
  -9  -3   7   40.05   14.11
  -9  -3   7   61.33   13.35
  -9   3   7   40.66   16.82
  -8  -3   7  435.52   33.27
  -8  -3   7  349.32   35.45
  -8   3   7  396.39   45.04
  -7  -3   7  132.94   17.61
  -7  -3   7  104.30   16.01
   7  -3  -7  154.65   25.48
  -7   3   7  134.71   21.89
  -6   3   7   20.00    6.43
  -6  -3   7   25.32    7.54
   6  -3  -7   27.78   10.28
  -5  -3   7  148.43   17.35
   5  -3  -7  129.43    8.38
   5  -3  -7  173.82   24.87
  -5   3   7  161.30   17.18
   5   3  -7  130.07    8.53
  -4  -3   7    9.61    5.44
   4  -3  -7    7.86    2.83
  -4   3   7    8.22    3.51
   4  -3  -7    6.67    3.08
  -3   3   7   28.83    9.95
  -3  -3   7   25.37    7.35
   3  -3  -7   26.53    5.50
   3  -3  -7   28.84    9.56
  -3   3   7   23.02    5.36
   2   3  -7   12.33    7.33
  -2   3   7   11.14    7.10
  -2  -3   7   10.45    5.57
   2   3  -7    8.50    4.77
  -2   3   7   11.63    3.97
   2  -3  -7   18.36    7.64
  -1   3   7  176.98   16.88
  -1  -3   7  172.82   25.50
  -1   3   7  183.74   17.58
   1   3  -7  189.52   23.75
   1  -3  -7  173.74   24.18
  -1   3   7  171.19   29.71
   1   3  -7  195.50   26.89
   0   3   7   20.19   10.87
   0   3  -7   16.06    7.32
   0  -3   7   18.73    9.24
   0   3  -7   12.82    6.42
   0  -3  -7   17.98    8.00
   1   3   7   19.06   11.64
  -1   3  -7   12.00    5.69
   1  -3   7   17.34    9.51
  -1   3  -7   21.37    8.31
   2   3   7  434.57   48.92
   2  -3   7  452.10   52.61
  -2   3  -7  487.33   40.29
   3   3   7  145.66   33.71
   3   3   7  129.22   28.88
   3  -3   7  128.76   29.77
   4   3   7   -1.99    3.98
   4  -3   7    3.50    5.26
   5   3   7   29.24   15.47
 -11  -4   7   10.74    8.95
 -11   4   7   -5.68    6.88
 -10  -4   7   33.06   11.65
 -10   4   7   11.35    9.39
  10  -4  -7   42.01   15.16
  -9  -4   7   51.36   12.84
   9  -4  -7   52.24   15.93
  -9   4   7   43.00   15.70
  -8  -4   7    2.15    3.63
   8  -4  -7    0.98    2.65
  -8   4   7    2.36    5.82
  -7   4   7    8.38    4.24
  -7  -4   7    8.41    4.07
   7  -4  -7   17.38    8.22
  -6  -4   7   89.81   15.08
   6  -4  -7   88.84   19.17
  -6   4   7   68.57   13.17
  -5  -4   7   12.24    5.44
  -5   4   7   12.02    4.84
   5  -4  -7    7.79    4.19
  -4  -4   7  683.60   39.94
   4  -4  -7  647.81   20.20
   4  -4  -7  684.00   47.89
  -4   4   7  660.96   33.85
  -4   4   7  637.15   43.00
  -3  -4   7   94.25   14.90
   3  -4  -7  112.64   10.77
  -3   4   7  105.57   12.98
   3  -4  -7  110.53   19.10
  -3   4   7  114.19   20.08
  -2   4   7  466.49   28.49
  -2  -4   7  401.72   37.27
   2   4  -7  440.44   35.68
   2  -4  -7  482.59   40.31
  -2   4   7  499.83   47.50
  -1   4   7  133.17   15.89
  -1  -4   7  157.77   25.01
   1   4  -7  119.75   18.83
   1  -4  -7  139.95   22.56
   1   4  -7  140.85   23.69
  -1   4   7  161.20   29.53
   0   4   7  126.55   27.85
   0  -4   7  123.75   23.73
   0   4  -7  134.28   19.97
   0   4  -7  134.22   21.37
   1   4   7    3.00    4.81
  -1   4  -7    2.38    2.64
   1  -4   7    2.08    1.47
  -1   4  -7    3.27    2.78
   2   4   7   17.38   13.37
   2  -4   7   13.53    9.12
  -2   4  -7   28.44    9.43
   3   4   7    6.93    7.54
   3   4   7    6.31    6.39
   3  -4   7    2.42    4.19
   4   4   7    6.13    7.22
   4   4   7    1.00    2.99
   4  -4   7   -9.50    8.64
   5   4   7   14.81    2.78
 -12  -5   7   47.55   15.82
 -11  -5   7    4.34    4.54
 -11   5   7   -6.32    7.44
 -10  -5   7   84.67   18.55
 -10   5   7   63.64   21.64
  10  -5  -7   50.18   16.77
  -9  -5   7   24.83    9.25
   9  -5  -7   24.79   11.33
  -9   5   7   21.02   10.85
  -8   5   7   59.78   15.44
  -8  -5   7   63.82   13.92
   8  -5  -7   85.03   20.00
  -7   5   7   14.24    6.70
  -7  -5   7    3.12    2.68
   7  -5  -7    8.44    6.30
  -6  -5   7  124.80   18.19
   6  -5  -7  160.59   25.55
  -6   5   7  147.44   19.54
  -5  -5   7    5.87    2.63
  -5   5   7   14.46    5.17
   5  -5  -7   15.45    7.59
  -5   5   7   17.55    6.37
  -4  -5   7  155.36   19.91
   4  -5  -7  171.86   24.85
  -4   5   7  135.92   20.76
  -4   5   7  144.34   16.91
  -3   5   7    2.19    3.10
  -3  -5   7    3.01    3.51
  -3   5   7    0.99    2.34
  -3  -5   7    3.17    1.86
   3  -5  -7   11.42    6.18
  -2   5   7   42.64    9.45
  -2   5   7   53.36   15.85
  -2  -5   7   55.46   14.07
   2   5  -7   57.99   13.11
   2  -5  -7   54.67   13.86
  -1   5   7   54.45   18.10
  -1   5   7   58.91   11.52
  -1  -5   7   48.32   14.37
   1   5  -7   44.23   11.38
   1  -5  -7   58.26   14.98
   0  -5   7  131.06   25.31
   0   5   7   75.83   23.08
   0   5  -7  111.08   18.40
   0   5  -7  119.37   20.53
  -1   5  -7  119.46   19.03
   1   5   7   85.31   25.07
   1  -5   7  114.26   25.15
  -1   5  -7  114.33   18.43
   2   5   7    1.77    4.01
   2  -5   7    5.63    6.07
  -2   5  -7   -1.12    1.99
   3   5   7    2.86    4.93
   3  -5   7   -2.05    4.05
   4   5   7   45.84   19.80
   4  -5   7    8.48    8.27
 -12  -6   7    7.84    6.82
 -11  -6   7   16.49    9.12
 -11   6   7    3.90    6.03
 -10  -6   7   20.55    9.40
 -10   6   7   13.65    9.56
  -9  -6   7   64.33   15.64
   9  -6  -7   36.66   13.59
  -9   6   7   35.66   13.33
  -8   6   7   17.10    8.75
  -8  -6   7   25.81    9.51
   8  -6  -7   27.50   11.35
  -7   6   7   28.31    9.30
  -7  -6   7   25.50    8.61
   7  -6  -7   24.69   10.32
  -6  -6   7   97.03   16.69
   6  -6  -7  107.77   21.07
  -6   6   7   98.47   16.54
  -5  -6   7   98.55   16.25
   5  -6  -7  131.58   22.43
  -5   6   7  112.93   16.88
  -5   6   7  107.99   16.44
  -4   6   7  133.12   17.40
  -4  -6   7  114.38   17.67
   4  -6  -7  142.32   23.50
  -4   6   7  138.14   21.55
  -3   6   7   13.02    7.38
  -3  -6   7    4.18    4.13
  -3  -6   7    9.85    5.35
  -3   6   7    3.40    2.89
   3  -6  -7    6.14    2.38
   3  -6  -7    7.30    3.72
  -2   6   7  263.69   37.15
  -2   6   7  229.57   23.21
  -2  -6   7  267.80   28.42
  -2  -6   7  256.85   30.39
   2  -6  -7  272.22   32.65
  -1   6   7   95.88   24.50
  -1   6   7   76.33   13.58
  -1  -6   7   63.02   16.20
   1   6  -7   75.93   15.04
   0   6   7   48.31   18.04
   0  -6   7   52.15   15.67
   0   6  -7   76.95   15.24
  -1   6  -7   40.68   11.72
   1   6   7    6.00    6.21
   1  -6   7   36.56   14.67
  -1   6  -7   37.97   10.81
   2   6   7   -1.73    4.14
   2  -6   7    3.21    4.61
   3   6   7   51.31   21.35
   3  -6   7   13.03    9.60
 -11  -7   7   11.61    7.97
 -11   7   7    3.85    5.98
 -10  -7   7   61.57   16.76
 -10   7   7   46.07   16.87
  -9   7   7   23.11   10.87
  -9  -7   7   67.88   16.69
  -8  -7   7  396.71   37.78
   8  -7  -7  404.49   44.05
  -8   7   7  390.20   40.15
  -7   7   7   18.28    7.95
  -7  -7   7   16.51    7.20
   7  -7  -7   15.93    8.96
  -6  -7   7   69.82   14.97
  -6   7   7   71.46   14.95
   6  -7  -7   94.99   20.47
  -5   7   7    2.16    2.02
  -5  -7   7    3.80    2.21
  -5   7   7   10.88    5.91
   5  -7  -7    8.13    5.45
  -4   7   7    9.18    4.81
  -4   7   7   14.95    7.52
  -4  -7   7    3.38    5.23
   4  -7  -7   15.44    8.48
  -3   7   7  336.18   29.67
  -3  -7   7  302.31   31.73
  -3  -7   7  319.91   31.42
   3  -7  -7  337.99   37.62
  -3   7   7  329.06   39.03
  -2   7   7   76.26   21.10
  -2   7   7   65.19   12.91
   2  -7  -7   68.20   10.39
  -2  -7   7   91.03   16.94
  -2  -7   7   70.70   16.33
  -1   7   7   -1.29    2.04
  -1  -7   7   -3.42    4.02
   1   7  -7    0.74    1.69
   0   7   7    0.37    2.50
   0  -7   7    2.22    3.46
   0   7  -7    3.62    3.44
   1  -7   7   -1.78    3.76
  -1   7  -7    0.81    1.64
   2   7   7  309.22   52.13
   2  -7   7  267.95   41.30
   3   7   7  128.04   34.28
   3  -7   7   70.16   22.18
 -10  -8   7   10.62    7.55
 -10   8   7    8.75    7.49
  -9   8   7    9.69    7.14
  -9  -8   7   15.68    8.27
  -8   8   7    5.00    4.72
  -8  -8   7    1.59    3.33
   8  -8  -7   -5.66    5.50
  -7   8   7    9.25    6.01
  -7  -8   7   -0.25    1.73
   7  -8  -7    8.25    6.39
  -6  -8   7   11.85    6.32
  -6   8   7    8.34    5.34
   6  -8  -7   13.52   10.17
  -5   8   7   43.03   11.34
  -5  -8   7   29.78    9.85
  -5   8   7   34.41   10.24
   5  -8  -7   45.57   14.39
  -4   8   7  295.71   29.30
  -4  -8   7  301.57   31.22
   4  -8  -7  301.51   36.93
  -4   8   7  297.52   34.08
  -3   8   7   12.35    7.85
  -3  -8   7   11.04    6.68
  -3  -8   7    8.46    5.94
  -3   8   7    9.49    5.34
  -2   8   7  163.41   31.68
  -2   8   7  146.82   20.87
  -2  -8   7  147.41   22.82
  -2  -8   7  133.20   22.67
  -1   8   7   57.84   20.82
  -1   8   7   52.33   12.74
  -1  -8   7   44.19   14.29
   1   8  -7   50.64   12.21
   0   8   7    4.25    5.87
   0   8   7    6.38    4.50
   0  -8   7    5.09    3.29
   0  -8  -7   12.83    6.71
   0   8  -7   12.58    6.21
   1  -8   7   -1.90    3.50
  -1  -8  -7   -6.18    5.41
   2   8   7   -0.08    2.04
   2  -8   7   17.26   10.63
   3   8   7  -11.61   10.50
   3  -8   7    7.16    7.31
  -4  -8  -7    6.28    6.84
 -10  -9   7    0.84    2.30
 -10   9   7   -1.16    3.01
  -9   9   7   -3.21    4.39
  -9  -9   7   -4.69    4.77
  -8   9   7    4.81    4.46
  -8  -9   7   -1.01    2.58
  -7   9   7    6.39    5.19
  -7  -9   7   -1.52    2.68
  -6  -9   7   -2.27    3.04
  -6   9   7   -2.38    3.28
   6  -9  -7    2.56    3.88
  -5   9   7   34.74   10.52
  -5  -9   7   34.66   11.01
  -5   9   7   40.65   11.91
   5  -9  -7   49.82   16.13
  -4   9   7   18.68    8.35
  -4   9   7   16.61    7.83
  -4  -9   7   10.30    7.03
  -3   9   7  181.11   31.76
  -3   9   7  129.96   20.62
  -3  -9   7  118.93   20.37
  -3  -9   7  139.31   22.70
  -2   9   7   63.35   14.36
  -2   9   7   47.13   18.53
  -2  -9   7   47.40   13.05
  -2  -9   7   24.99    9.89
  -1   9   7   73.47   24.25
  -1  -9   7   75.99   18.75
  -1   9   7   62.97   14.76
   0   9   7   17.65   12.75
   0  -9   7   55.03   16.21
   0   9   7   49.95   13.43
   1   9   7    5.49    9.74
   1  -9   7    5.69    6.02
  -1  -9  -7    7.03    5.56
   2   9   7   -1.37    3.78
   2  -9   7   -1.24    3.10
  -2  -9  -7    7.74    6.54
  -3  -9  -7  -14.82    9.76
  -9  10   7  118.25   25.98
  -9 -10   7  123.90   24.88
  -8  10   7    8.41    6.52
  -8 -10   7   10.56    6.94
  -7 -10   7  127.19   23.27
  -7  10   7  142.74   25.34
   7 -10  -7  145.19   28.39
  -6 -10   7   14.52    7.59
  -6  10   7   17.09    8.43
  -5 -10   7   -7.19    5.27
  -5  10   7    4.27    5.16
  -4  10   7   25.52   10.98
  -4  10   7   31.63   10.79
  -4 -10   7   28.75   10.58
  -3  10   7   17.54   10.27
  -3 -10   7    0.62    2.09
  -3 -10   7   15.65    7.52
  -3  10   7    1.77    2.78
  -2  10   7   78.68   24.35
  -2 -10   7   71.56   16.91
  -2 -10   7   85.05   18.68
  -2  10   7   66.98   15.47
  -1  10   7   -0.52    2.21
  -1 -10   7   -7.96    6.24
  -1  10   7   -1.49    2.58
   0  10   7    3.79    5.86
   0 -10   7   12.87    9.20
   0  10   7    4.77    4.41
   1  10   7   38.99   19.02
   1 -10   7   89.97   23.73
   2  10   7    4.54    6.87
   2 -10   7   14.43    9.95
  -8  11   7   25.04   11.26
  -8 -11   7   38.41   13.27
  -7 -11   7    6.73    5.66
  -7  11   7   -0.25    1.77
  -6 -11   7    1.13    2.39
  -6  11   7   -0.52    2.09
  -5 -11   7   17.07    8.22
  -5  11   7   29.04   11.13
  -4  11   7    6.59    5.78
  -4  11   7    3.11    2.48
  -4 -11   7   10.61    6.96
  -3  11   7  136.92   23.24
  -3  11   7  161.86   32.02
  -3 -11   7  151.85   23.54
  -3 -11   7  198.65   29.05
  -2  11   7   30.16   14.45
  -2 -11   7   31.56   11.52
  -2 -11   7   32.55   11.76
  -2  11   7   32.30   11.67
  -1  11   7    8.83    8.77
  -1 -11   7   -9.96    7.08
  -1  11   7    2.49    3.33
   0  11   7   -0.09    1.41
   0 -11   7   -3.39    4.50
   1  11   7    2.13    3.41
   1 -11   7    0.51    2.36
  -7 -12   7    5.43    4.95
  -7  12   7    4.29    2.46
  -6 -12   7   12.44    6.79
  -6  12   7   14.93    8.33
  -5 -12   7   61.12   16.53
  -5  12   7   42.99   14.35
  -4  12   7    1.46    2.80
  -4 -12   7    7.66    7.16
  -3  12   7    3.09    4.74
  -3 -12   7    5.11    5.51
  -3  12   7   -8.71    6.17
  -2  12   7   11.11    9.44
  -2 -12   7   -3.63    4.29
  -2 -12   7   -7.85    6.00
  -2  12   7    2.79    5.25
  -1  12   7    2.88    5.07
  -1  12   7   -4.91    4.72
  -1 -12   7    4.06    4.83
   0  12   7    2.48    5.09
   0 -12   7   19.42   10.67
   0  12   7   20.00    9.71
   1  12   7    0.53    2.12
   1 -12   7    5.69    6.30
  -6  13   7   -4.29    4.92
  -5  13   7   16.84    9.11
  -4  13   7   12.75    7.65
  -4 -13   7    6.76    5.76
  -3  13   7   20.84   12.22
  -3 -13   7   42.49   14.77
  -3  13   7   38.83   13.14
  -2  13   7    2.81    5.19
  -2  13   7    3.20    4.01
  -1  13   7   39.89   13.74
  -1  13   7   15.88   12.32
  -1 -13   7   40.73   14.74
   0 -13   7    7.07    6.60
   0  13   7    5.08    5.21
  -2  14   7   16.86   12.28
  -1  14   7    9.95   10.03
 -12   0   8    8.04    7.63
  11   0  -8   37.98   17.15
 -11   0   8   30.21   14.02
  10   0  -8  153.74   33.59
 -10   0   8  134.02   28.41
   9   0  -8  873.10   82.42
  -9   0   8  663.87   61.09
   8   0  -8   27.44   14.70
  -8   0   8   14.14    8.22
   7   0  -8   83.31   25.75
  -7   0   8  121.04   14.13
  -7   0   8   94.50   19.08
   6   0  -8  108.57   27.92
  -6   0   8  131.00   14.75
   6   0  -8  147.16   25.04
  -6   0   8   94.60   16.42
   5   0  -8   28.27   13.21
   5   0  -8   41.42   12.84
   4   0  -8  837.28   69.31
   4   0  -8  662.56   49.62
   3   0  -8  161.85   28.63
   3   0  -8  115.84   20.48
   2   0  -8   91.26   19.88
   2   0  -8   75.45   16.08
   1   0  -8    2.13    2.80
   0   0   8   89.36   21.46
   0   0  -8   75.43   17.05
   0   0   8  104.12   25.59
   1   0   8  691.98   64.48
  -1   0  -8  731.42   54.16
   1   0   8  617.45   66.14
   2   0   8   38.81   17.16
   2   0   8   80.12   23.33
   3   0   8  110.87   30.02
   3   0   8  100.83   27.99
   4   0   8    1.17    3.58
 -12   1   8    2.35    4.46
  11   1  -8   -4.59    5.85
  11  -1  -8   -3.20    5.03
 -11  -1   8    3.62    4.94
 -11   1   8    3.49    4.63
  10   1  -8   65.57   20.92
  10  -1  -8  126.55   30.89
 -10  -1   8   54.95   18.27
 -10   1   8   69.32   22.43
   9   1  -8   66.53   22.38
   9  -1  -8   46.50   18.80
  -9  -1   8   25.39   11.16
  -9   1   8   58.86   19.53
   8   1  -8    0.22    2.32
   8  -1  -8   -5.45    6.73
  -8  -1   8   -1.95    2.95
  -8  -1   8    7.59    4.04
  -8   1   8    9.72    7.40
   7   1  -8   27.69   14.97
   7  -1  -8   25.29   13.74
  -7  -1   8   27.96    8.72
  -7  -1   8   47.23    9.65
  -7   1   8   33.86   13.32
   7  -1  -8   52.72   15.64
   6   1  -8  290.63   47.00
   6  -1  -8  348.84   50.00
  -6  -1   8  315.65   24.55
   6  -1  -8  332.62   37.32
  -6   1   8  216.73   30.88
   5   1  -8  263.62   42.70
   5  -1  -8  304.57   44.26
  -5  -1   8  212.90   20.27
   5   1  -8  234.98   30.19
   5  -1  -8  240.46   30.69
  -5   1   8  228.64   25.66
   4   1  -8   20.28   10.95
   4  -1  -8   15.53    9.82
   4   1  -8   13.93    7.60
   4  -1  -8   16.65    7.72
  -4   1   8   23.23    5.79
   3   1  -8  580.68   54.24
   3  -1  -8  599.27   55.60
   3   1  -8  515.41   42.59
   3  -1  -8  524.31   43.53
   2   1  -8    7.38    5.46
   2   1  -8   11.13    6.25
   2  -1  -8    6.10    4.18
  -1   1   8   -1.02    2.54
   1   1  -8   -0.06    0.78
  -1  -1   8    5.21    4.93
   1   1  -8   -2.83    3.14
   1  -1  -8   -2.82    3.27
   0   1   8   22.46   11.78
   0   1   8   34.64   13.39
   0  -1   8   38.20   14.01
   0   1  -8   53.78   14.17
   0  -1  -8   31.23   10.73
   1   1   8   13.55   10.09
   1   1   8   54.51   18.31
   1  -1   8   41.86   16.25
  -1   1  -8   25.86   10.28
   2   1   8    0.66    2.75
   2   1   8    5.86    6.35
   2  -1   8    1.08    3.23
   3   1   8   21.46   13.38
   3   1   8   34.09   16.29
   3  -1   8   42.79   18.18
   4   1   8   29.38   16.06
 -12   2   8   35.85   15.95
  11   2  -8   34.94   15.95
 -11   2   8   16.94   10.87
  10   2  -8    9.40    8.78
  10  -2  -8   16.92   12.02
 -10   2   8   12.80    9.27
   9   2  -8   26.13   14.82
   9  -2  -8    6.40    7.33
  -9  -2   8   13.01    5.91
  -9   2   8    4.67    5.87
   8   2  -8    7.55    8.28
   8  -2  -8   -2.26    4.64
  -8  -2   8    4.49    2.59
  -8   2   8    0.98    3.02
   8  -2  -8    2.79    4.02
   7   2  -8   -7.50    8.12
   7  -2  -8    7.02    8.11
  -7  -2   8    9.82    4.54
  -7   2   8    8.45    6.34
   7  -2  -8   15.98    8.74
   6  -2  -8   60.16   21.68
  -6  -2   8   82.03   13.28
   6  -2  -8   61.27   16.06
  -6   2   8   80.40   15.97
   6   2  -8   35.08   15.24
  -5   2   8    1.35    1.44
   5   2  -8    4.66    5.99
   5  -2  -8    5.37    3.21
  -5  -2   8    1.17    1.56
   5  -2  -8    6.66    5.71
   4   2  -8   98.25   24.71
   4   2  -8   96.78   18.67
   4  -2  -8   99.06   19.31
  -4   2   8  103.53   11.41
   3   2  -8   24.31   11.72
  -3   2   8   12.84    3.77
   3   2  -8   16.22    8.40
   3  -2  -8   11.23    7.67
   2   2  -8  202.00   29.97
  -2   2   8  198.54   14.84
  -2  -2   8  161.26   25.46
   2   2  -8  143.98   22.64
   2  -2  -8  149.49   23.17
  -2   2   8  199.88   31.14
  -1   2   8   -3.58    4.63
   1   2  -8   10.50    7.23
  -1  -2   8    9.47    6.40
   1   2  -8    7.84    5.15
   1  -2  -8    4.32    4.03
   0   2   8  101.22   26.18
   0   2  -8   85.78   17.64
   0  -2   8  116.98   24.87
   0   2  -8  106.31   19.80
   0  -2  -8  111.14   20.93
   1   2   8    8.32    6.18
   1   2   8    4.78    5.38
   1  -2   8   -4.25    5.26
  -1   2  -8    0.91    2.07
   2   2   8   15.23    7.77
   2  -2   8    4.37    5.89
   3   2   8   -1.73    3.96
   3   2   8    1.46    3.43
   3  -2   8    0.05    1.86
   4   2   8    1.07    3.54
 -12   3   8   11.40    9.32
  11   3  -8   -1.26    3.67
 -11   3   8  -10.41    8.65
 -10  -3   8  181.18   24.66
 -10   3   8  117.25   29.71
  10  -3  -8  179.01   33.73
  -9  -3   8    3.02    3.10
  -9   3   8    7.30    7.29
   9  -3  -8    1.46    3.32
   9   3  -8    8.31    8.46
  -8  -3   8  164.93   21.08
   8  -3  -8  184.54   30.42
  -8   3   8  128.28   26.07
  -7  -3   8   -1.41    2.81
   7  -3  -8   -6.55    5.68
  -7   3   8    4.00    3.81
  -6   3   8    3.64    3.97
  -6  -3   8    4.13    4.26
   6  -3  -8    1.91    3.20
  -5  -3   8  240.86   23.65
   5  -3  -8  284.77   34.02
  -5   3   8  250.72   21.72
   5   3  -8  252.91   43.02
   4   3  -8    1.30    4.53
  -4  -3   8    9.36    5.66
  -4   3   8    2.57    1.89
   4  -3  -8    9.95    6.26
   3   3  -8  330.91   34.12
   3  -3  -8  353.16   36.25
  -3   3   8  359.73   39.29
   3   3  -8  393.53   47.12
  -3   3   8  345.71   21.40
  -2   3   8    1.07    2.67
   2   3  -8    0.14    3.39
  -2  -3   8   -0.08    2.52
  -2   3   8    4.15    2.49
   2   3  -8    2.51    2.04
   2  -3  -8    3.61    4.96
  -1   3   8    4.47    4.48
   1   3  -8    6.56    5.11
  -1   3   8   -5.10    3.02
  -1  -3   8    8.13    6.18
   1   3  -8    3.31    3.43
   1  -3  -8    2.19    2.97
   0   3  -8  161.33   23.98
   0   3   8  147.92   31.63
   0  -3   8  157.16   29.19
   0   3  -8  155.54   23.94
   0  -3  -8  146.84   24.80
   1   3   8   12.93    9.83
  -1   3  -8   14.84    7.47
   1  -3   8   25.41   12.52
  -1   3  -8   15.00    7.44
   2   3   8   69.71   24.33
   2  -3   8  118.65   28.86
   3   3   8   16.44   11.21
   3  -3   8    1.29    3.91
   4   3   8   -3.78    5.86
  12   4  -8   -7.57    7.66
 -12   4   8   -3.58    5.57
 -11   4   8   -1.10    3.71
  11   4  -8    1.42    3.76
 -10  -4   8   51.45   13.97
 -10   4   8   30.24   15.42
  10  -4  -8   45.73   17.48
  -9  -4   8  148.37   21.59
  -9   4   8  151.08   30.46
   9  -4  -8  135.12   27.87
  -8  -4   8   13.53    6.33
  -8   4   8    5.09    4.81
  -7   4   8   -6.93    4.87
  -7  -4   8    2.05    2.50
   7  -4  -8   -1.67    4.60
  -6   4   8   11.88    6.28
  -6  -4   8   22.44    8.07
   6  -4  -8   16.06    7.50
  -5  -4   8   11.63    5.85
  -5   4   8   11.30    4.99
   5  -4  -8   18.41    8.03
  -4  -4   8  305.29   28.46
   4  -4  -8  277.15   32.72
  -4   4   8  291.54   22.74
  -4   4   8  281.35   32.41
  -3   4   8   73.41   18.04
  -3   4   8   51.60    9.26
   3   4  -8   60.02   14.73
   3  -4  -8   64.76   15.81
   3   4  -8   91.28   22.82
  -2   4   8  130.62   15.24
  -2  -4   8   94.30   20.51
   2   4  -8  137.63   22.11
   2  -4  -8  123.09   21.91
  -2   4   8  123.32   25.78
   2   4  -8  155.43   28.21
  -1   4   8   10.10    6.89
   1   4  -8    1.32    2.50
  -1   4   8    2.68    2.06
  -1  -4   8    3.34    4.05
   1   4  -8    4.86    4.23
   1  -4  -8    3.18    2.43
   0   4  -8  114.01   20.11
   0   4   8  125.37   30.05
   0  -4   8  138.81   27.40
   0   4  -8  157.29   23.30
  -1   4  -8  269.18   29.37
   1   4   8  154.31   34.74
   1  -4   8  248.98   39.88
  -1   4  -8  271.94   31.62
   2   4   8    9.45    8.98
   2  -4   8   21.61   12.59
   3   4   8    7.47    8.31
   3  -4   8    3.83    6.08
  12   5  -8   12.15    9.53
 -11  -5   8   -0.99    2.42
 -11   5   8   -2.09    4.85
 -10  -5   8   -0.56    1.72
 -10   5   8   -4.01    5.67
  10  -5  -8    1.81    3.59
  -9  -5   8   72.50   15.59
   9  -5  -8   86.48   22.40
  -9   5   8   78.37   20.45
  -8  -5   8   44.85   11.86
   8  -5  -8   67.80   18.85
  -8   5   8   39.22   12.85
  -7  -5   8  244.54   26.75
   7  -5  -8  303.68   38.92
  -7   5   8  242.11   27.89
  -6  -5   8  609.48   41.10
   6  -5  -8  649.66   53.95
  -6   5   8  613.32   40.36
  -5  -5   8    4.50    3.52
  -5   5   8   -2.32    2.45
   5  -5  -8   -1.65    4.83
  -4   5   8   44.65   12.79
  -4  -5   8   62.76   13.39
  -4   5   8   48.26    9.79
   4  -5  -8   57.89   15.02
  -3   5   8   37.51   13.13
  -3  -5   8   32.19   11.05
  -3   5   8   28.21    7.33
   3   5  -8   28.26   10.00
   3  -5  -8   34.37   12.00
  -2   5   8   31.17   13.09
  -2  -5   8   30.16   11.93
   2   5  -8   46.22   12.60
  -2   5   8   32.97    8.31
   2  -5  -8   44.55   13.86
  -1   5   8  114.83   27.75
  -1   5   8  122.39   16.95
  -1  -5   8  121.60   24.15
   1   5  -8  118.07   20.44
   1  -5  -8  136.63   24.36
   1   5  -8  138.93   25.05
   0   5   8    0.35    6.20
   0   5  -8    0.95    2.00
   0  -5   8   -0.29    1.97
   0   5  -8    8.13    4.91
   1   5   8   -7.08    7.67
   1  -5   8    2.99    4.59
  -1   5  -8    4.96    4.29
   2   5   8    1.95    4.29
   2  -5   8   11.25    9.23
 -11  -6   8   46.89   14.97
 -11   6   8   34.41   17.14
 -10  -6   8   34.85   12.09
 -10   6   8   24.57   12.65
  -9  -6   8   10.54    6.33
   9  -6  -8   10.69    8.13
  -9   6   8    2.02    3.62
  -8   6   8    4.92    3.45
  -8  -6   8   -0.58    3.44
   8  -6  -8   -7.45    6.51
  -7   6   8    4.95    4.71
  -7  -6   8    0.58    1.76
  -6  -6   8   83.90   15.81
   6  -6  -8  105.90   22.22
  -6   6   8  100.84   16.87
  -5   6   8   20.49    8.15
  -5  -6   8   18.02    7.36
  -5   6   8   18.46    6.54
   5  -6  -8   23.99    9.24
  -4   6   8   90.70   14.41
  -4   6   8   88.84   18.72
  -4  -6   8  102.90   17.65
   4  -6  -8  103.84   21.37
  -3   6   8   92.58   14.65
  -3  -6   8   86.77   18.45
  -3  -6   8   89.31   16.90
   3  -6  -8   96.24   20.38
  -3   6   8  114.05   23.86
  -2   6   8  304.77   27.48
  -2  -6   8  329.05   37.86
   2   6  -8  326.19   33.76
   2  -6  -8  343.34   38.99
  -2   6   8  301.30   42.53
  -1   6   8   20.91   11.98
  -1   6   8   29.00    8.83
  -1  -6   8   18.08   10.11
   1   6  -8   35.67   11.47
   0   6   8  139.25   32.96
   0  -6   8  158.72   30.35
   0   6  -8  171.22   24.51
   0   6  -8  175.46   26.73
   1   6   8   -2.68    5.19
   1  -6   8    6.55    6.83
   2   6   8    3.85    6.00
   2  -6   8   -2.23    4.35
 -11  -7   8   34.47   13.27
 -11   7   8   45.74   19.39
 -10  -7   8    9.84    6.75
 -10   7   8   35.66   14.85
  -9   7   8   10.08    8.38
  -9  -7   8   20.76    9.17
   9  -7  -8    8.19    6.96
  -8   7   8   33.17   11.96
  -8  -7   8   32.72   11.04
   8  -7  -8   42.11   15.66
  -7   7   8    1.74    4.70
  -7  -7   8   -9.41    5.78
   7  -7  -8   -3.17    4.30
  -6  -7   8    1.41    2.37
  -6   7   8    2.07    2.70
   6  -7  -8   -2.37    3.67
  -5   7   8    2.86    3.23
  -5  -7   8   -0.32    1.45
  -5   7   8   -0.30    2.69
   5  -7  -8   -5.77    5.32
  -4   7   8    3.08    2.98
  -4   7   8    7.01    5.51
  -4  -7   8    7.49    4.05
   4  -7  -8   -4.33    4.62
  -3   7   8   -1.51    3.06
  -3  -7   8    2.31    3.19
  -3  -7   8    2.99    3.33
  -3   7   8   -4.31    3.51
   3  -7  -8   -0.94    2.80
  -2   7   8    0.55    2.55
  -2  -7   8   12.49    7.44
   2   7  -8    3.27    3.50
  -2   7   8    6.06    4.16
  -1   7   8   81.78   25.12
  -1  -7   8   67.30   18.66
   1   7  -8   70.89   16.03
  -1   7   8   73.86   14.82
   0   7   8   38.53   18.24
   0   7   8   73.47   16.06
   0  -7   8   66.47   20.31
   0   7  -8   74.60   16.21
   0   7  -8   80.15   18.31
   1   7   8    1.32    3.85
   1  -7   8   17.41   10.83
   2   7   8   45.35   20.47
   2  -7   8   32.38   15.67
 -10  -8   8    3.00    3.93
 -10   8   8   -6.61    6.59
  -9   8   8    9.57    6.28
  -9  -8   8    4.94    4.75
  -8   8   8   49.58   14.74
  -8  -8   8   46.07   13.68
   8  -8  -8   69.02   19.82
  -7   8   8   93.59   18.59
  -7  -8   8   90.69   18.44
   7  -8  -8  129.38   26.78
  -6  -8   8   23.64    9.21
  -6   8   8   23.80    8.98
   6  -8  -8   34.84   12.70
  -5  -8   8  147.05   22.75
   5  -8  -8  196.78   31.71
  -5   8   8  137.28   20.78
  -5   8   8  135.44   22.25
  -4   8   8   28.60    9.11
  -4   8   8   22.71   10.09
  -4  -8   8   23.89    9.12
   4  -8  -8   23.53   10.86
  -3   8   8   20.03    9.58
  -3  -8   8    3.89    4.08
  -3  -8   8   12.67    6.92
  -3   8   8    7.48    4.06
  -2   8   8   76.03   22.38
  -2  -8   8   64.14   17.65
   2   8  -8   74.23   16.69
  -2   8   8   78.39   15.54
  -1   8   8   45.22   18.61
  -1  -8   8   34.04   13.58
  -1   8   8   24.59    9.32
   1   8  -8   61.49   14.91
   0   8   8   42.71   18.90
   0   8   8   73.13   16.54
   0  -8   8   92.89   23.75
   1   8   8    4.12    6.38
   1  -8   8   14.38   10.00
 -10   9   8  -13.20    9.36
  -9   9   8    2.40    3.75
  -9  -9   8   -0.78    2.26
  -8   9   8    3.36    3.38
  -8  -9   8    3.84    4.25
   8  -9  -8   15.73    9.81
  -7  -9   8  166.69   26.02
   7  -9  -8  172.34   32.08
  -7   9   8  173.80   26.80
  -6  -9   8  142.97   23.40
  -6   9   8  135.47   22.65
   6  -9  -8  143.20   28.74
  -5   9   8   15.98    7.78
  -5  -9   8   12.46    7.12
  -5   9   8   15.83    6.89
   5  -9  -8   11.72    8.16
  -4   9   8   -4.28    4.67
  -4   9   8   -0.84    2.00
  -4  -9   8   -4.84    4.44
  -3   9   8   -5.01    5.67
  -3  -9   8    3.45    5.02
  -3  -9   8    2.13    2.87
  -3   9   8   -4.62    4.11
  -2   9   8   43.57   17.71
  -2  -9   8   40.43   14.24
  -2   9   8   40.80   11.85
  -1   9   8   95.64   27.80
  -1   9   8  129.43   21.69
  -1  -9   8  141.76   27.88
   1   9  -8  143.72   22.98
   0   9   8    1.06    3.77
   0  -9   8    9.26    6.76
   0   9   8   -4.20    4.19
   1   9   8    4.91    7.16
   1  -9   8   -1.56    3.63
  -9  10   8    1.04    2.84
  -8  10   8    3.99    4.54
  -8 -10   8    8.49    6.34
  -7 -10   8   -0.38    1.70
  -7  10   8    2.25    3.29
   7 -10  -8   -3.44    4.88
  -6 -10   8   -6.51    5.25
  -6  10   8    2.50    3.15
   6 -10  -8    2.26    4.13
  -5 -10   8   17.41    8.87
  -5  10   8   24.31    9.58
  -4  10   8    1.50    3.12
  -4  10   8    9.07    4.97
  -4 -10   8   11.23    6.88
  -3  10   8   75.71   21.69
  -3 -10   8   60.04   16.30
  -3 -10   8   61.32   16.13
  -3  10   8   69.27   16.16
  -2  10   8   18.63   14.12
  -2 -10   8   12.59    9.14
  -2  10   8   19.08    8.45
  -1  10   8   10.96    9.75
  -1 -10   8    6.15    3.78
  -1  10   8   10.16    6.43
   0  10   8  -10.04    9.77
   0  10   8    7.67    5.84
   0 -10   8   -1.33    3.29
   1  10   8   -0.33    1.89
  -8  11   8    5.46    5.50
  -7 -11   8    1.65    3.10
  -7  11   8   -9.90    6.88
  -6 -11   8   15.65    8.22
  -6  11   8   -8.76    6.38
  -5 -11   8   14.41    7.68
  -5  11   8   11.62    6.99
  -4  11   8   10.22    6.45
  -4 -11   8    8.93    6.41
  -3  11   8   40.09   16.26
  -3 -11   8   36.08   13.14
  -3 -11   8   31.25   12.00
  -3  11   8   38.78   12.45
  -2  11   8   18.77   12.21
  -2 -11   8   11.49    7.65
  -2  11   8   15.74    8.10
  -1  11   8   56.69   23.75
  -1  11   8   51.77   15.24
  -1 -11   8   28.37   12.92
   0 -11   8    5.14    5.99
   0  11   8   -2.28    3.37
   1  11   8   29.16   12.41
  -7  12   8   21.74   10.59
  -6  12   8   27.79   11.10
  -5  12   8   44.59   14.04
  -4  12   8    3.08    3.89
  -4 -12   8    9.24    6.72
  -3  12   8    5.08    6.15
  -3  12   8   -7.71    5.94
  -2  12   8    0.18    2.04
  -2 -12   8    2.76    4.03
  -2  12   8    6.58    4.76
  -1  12   8    8.91    9.27
  -1  12   8   22.94   10.39
  -1 -12   8   32.52   14.02
   0 -12   8   19.03   11.68
   0  12   8   -4.97    5.19
  -5  13   8   -8.07    6.41
  -4  13   8   12.49    6.76
  -3  13   8    1.80    2.36
  -2  13   8    8.94    9.05
  -2  13   8   14.32    8.43
  12   0  -9   22.04   13.02
  11   0  -9   -2.84    5.18
  10   0  -9   -0.50    3.20
   9   0  -9  -17.83   12.70
   8   0  -9   -6.89    8.06
   7   0  -9   -0.78    3.60
   7   0  -9    9.58    8.25
   6   0  -9   -6.45    7.42
   6   0  -9    0.46    2.11
   5   0  -9   -7.97    7.51
   5   0  -9   -3.80    4.25
   4   0  -9   -5.74    6.06
   4   0  -9    9.30    6.29
   3   0  -9   -2.84    4.08
   3   0  -9   -1.14    3.81
   2   0  -9    5.10    5.58
   1   0  -9   11.96    7.05
   0   0   9   -3.69    5.01
   0   0  -9   -2.14    3.13
   1   0   9   -7.35    7.31
   2   0   9    7.66    7.99
   2   0   9    8.07    8.39
  12   1  -9   89.30   26.72
  11   1  -9    2.25    4.80
  11  -1  -9    7.90    8.39
  10   1  -9    6.74    8.05
  10  -1  -9   14.53   11.37
   9   1  -9   57.38   22.96
   9  -1  -9   78.80   27.02
   9  -1  -9   81.70   22.64
   8   1  -9   40.92   18.40
   8  -1  -9   57.51   22.85
   8  -1  -9   53.76   18.14
   7   1  -9   67.61   24.59
   7  -1  -9   73.96   25.32
  -7  -1   9  100.56   14.67
   7  -1  -9   96.18   22.56
   6   1  -9   39.56   18.00
   6  -1  -9   29.37   15.27
   6   1  -9   55.88   16.24
   6  -1  -9   18.32    8.56
   5   1  -9    4.23    5.66
   5  -1  -9   -3.31    4.85
   5   1  -9   -2.72    3.56
   5  -1  -9   -5.99    5.28
   4   1  -9  231.57   38.14
   4  -1  -9  212.46   37.33
   4   1  -9  206.79   29.62
   4  -1  -9  197.40   29.22
   3   1  -9  224.69   35.42
   3   1  -9  187.27   27.72
   3  -1  -9  207.68   28.93
   2   1  -9  227.85   33.17
   2   1  -9  231.21   30.17
   2  -1  -9  217.15   30.16
  -1   1   9  270.36   41.96
   1   1  -9  293.05   35.17
   1  -1  -9  238.37   31.87
   0   1   9   -3.97    5.50
   0  -1   9   -3.88    5.08
   0   1  -9   -4.31    4.36
   0  -1  -9    1.33    2.57
   1   1   9   -0.05    1.24
   1   1   9   -0.41    2.24
   1  -1   9   10.85    8.93
  -1   1  -9    4.99    5.69
   2   1   9   27.09   15.46
   2   1   9   39.75   17.85
   2  -1   9   16.19    9.84
  12   2  -9   14.24   10.67
  12  -2  -9   19.73   13.48
  11   2  -9    0.97    3.54
  11  -2  -9    6.38    7.24
  10   2  -9   40.67   19.85
  10  -2  -9   51.69   21.10
  10  -2  -9   30.28   14.58
   9   2  -9   12.78   11.17
   9  -2  -9    6.00    8.99
   9  -2  -9    7.15    6.82
   8  -2  -9  447.99   65.21
  -8  -2   9  495.30   35.18
   8  -2  -9  552.61   56.25
   8   2  -9  548.95   72.87
   7  -2  -9  322.73   54.29
  -7  -2   9  363.05   29.95
   7  -2  -9  398.51   45.83
   7   2  -9  269.11   49.89
   6   2  -9  123.53   32.20
   6  -2  -9  144.71   34.39
  -6  -2   9  155.45   19.39
   6  -2  -9  158.42   27.65
   5   2  -9   31.14   15.32
   5   2  -9   10.33    7.34
   5  -2  -9    9.31    6.37
   4   2  -9    2.65    4.63
   4   2  -9   13.81    7.78
   4  -2  -9    2.56    3.09
   3   2  -9  156.49   29.83
   3   2  -9  129.10   22.90
   3  -2  -9  149.39   24.78
   2   2  -9  254.18   35.21
   2   2  -9  244.37   31.11
   2  -2  -9  216.80   30.22
  -2   2   9  196.84   33.98
  -1   2   9    6.28    6.61
   1   2  -9    7.34    5.67
  -1  -2   9    9.86    7.42
   1   2  -9    9.87    6.02
   1  -2  -9   12.55    8.36
   0   2   9    2.39    4.37
   0  -2   9    5.60    6.11
   0   2  -9    1.07    2.35
   1   2   9   -4.92    6.52
   1  -2   9   -5.64    6.52
  -1   2  -9    1.48    2.68
   2   2   9   61.07   23.30
   2  -2   9  164.15   36.52
  12   3  -9   -8.99    8.82
  11   3  -9   67.39   25.00
  11  -3  -9   40.32   16.95
  10   3  -9   14.44   13.30
  10  -3  -9   16.64   10.82
   9   3  -9   48.05   24.26
   9  -3  -9  -13.15    9.25
   8   3  -9    4.04    6.91
  -8  -3   9    8.86    5.61
   8  -3  -9    9.48    9.45
   7   3  -9   11.74   10.66
  -7  -3   9   39.99   10.31
   7  -3  -9   46.74   16.48
   6   3  -9    3.36    5.61
  -6  -3   9    1.70    2.34
   6  -3  -9   -3.03    4.15
  -5  -3   9  241.82   25.59
   5   3  -9  250.01   33.05
   5  -3  -9  261.06   34.51
   5   3  -9  309.39   49.84
   4   3  -9  231.63   30.90
   4  -3  -9  237.14   31.81
   4   3  -9  305.26   45.65
   3   3  -9   26.55   12.46
   3   3  -9   10.42    6.94
   3  -3  -9   23.46   11.34
  -3   3   9   22.43   10.65
  -2   3   9   87.48   23.57
   2   3  -9   89.20   20.95
  -2  -3   9   84.96   20.66
   2   3  -9   70.96   16.93
   2  -3  -9   79.77   18.82
   1   3  -9  160.89   26.56
  -1  -3   9  190.31   32.73
   1   3  -9  197.48   28.08
   1  -3  -9  166.72   27.41
  -1   3   9  187.65   35.80
   0   3   9   39.81   17.44
   0   3  -9   51.54   14.41
   0  -3   9   52.26   18.20
   0   3  -9   46.27   13.97
   1   3   9  -11.77    9.70
   1  -3   9    0.58    2.54
  -1   3  -9   -6.51    5.37
  11   4  -9   68.39   24.78
  11  -4  -9   49.09   19.31
  10   4  -9    6.80   10.30
  10  -4  -9   -0.02    4.69
  -9  -4   9   37.22   11.39
   9  -4  -9   67.51   21.03
   9   4  -9   66.85   25.50
  -8  -4   9   -1.61    2.41
   8  -4  -9    9.68    7.70
   8   4  -9   20.15   14.18
  -7  -4   9    1.74    2.87
   7  -4  -9  -10.92    7.86
  -6  -4   9   58.32   13.02
   6  -4  -9   82.63   20.13
   6   4  -9   72.24   25.31
   5   4  -9   25.21   14.25
  -5  -4   9   17.41    7.57
   5  -4  -9   28.79   11.03
   4   4  -9  135.13   23.50
   4  -4  -9  145.14   25.59
  -4   4   9  147.29   25.98
   4   4  -9  207.70   38.47
  -3   4   9  130.02   26.11
   3   4  -9  129.26   23.05
   3  -4  -9  145.81   25.48
   3   4  -9  157.00   30.94
  -2   4   9   50.12   17.84
   2   4  -9   77.12   20.27
  -2  -4   9   61.03   17.37
   2   4  -9   52.58   14.41
   2  -4  -9   52.02   15.87
  -1   4   9  110.24   28.41
   1   4  -9  117.09   22.65
  -1  -4   9  119.86   26.21
   1   4  -9  103.81   20.55
   1  -4  -9  107.25   22.39
   0   4   9   77.26   24.01
   0   4  -9   46.65   13.18
   0  -4   9   51.11   18.23
   0   4  -9   67.00   16.72
   1   4   9   16.63   11.93
   1  -4   9   21.42   12.58
  -1   4  -9   35.53   12.91
  11   5  -9    1.74    4.55
 -10  -5   9    5.01    4.54
  10  -5  -9    8.97    8.14
  -9  -5   9   86.92   17.48
   9  -5  -9   80.35   22.93
  -8  -5   9   12.92    5.67
   8  -5  -9   30.70   13.60
  -7  -5   9  142.75   21.10
   7  -5  -9  172.16   30.27
  -6  -5   9   45.47   11.92
   6  -5  -9   62.04   17.68
  -5  -5   9    4.39    3.81
   5  -5  -9   -1.56    3.01
  -4   5   9   16.19    8.94
   4   5  -9   11.38    6.97
   4  -5  -9   25.26   10.82
   3   5  -9   30.72   13.84
  -3   5   9   34.96   13.89
   3   5  -9   36.28   11.88
   3  -5  -9   36.56   13.15
  -2   5   9   57.02   18.53
   2   5  -9   51.78   17.11
  -2  -5   9   51.17   15.82
   2   5  -9   50.51   14.74
   2  -5  -9   47.59   14.82
  -1   5   9   27.30   14.12
   1   5  -9   36.45   13.20
  -1  -5   9   21.71   11.21
   1   5  -9   25.95   10.85
   0   5   9    6.22    7.31
   0   5  -9    1.04    2.23
   0  -5   9    9.19    7.88
   0   5  -9    0.02    0.99
   1   5   9   -4.20    6.25
   1  -5   9   25.06   13.53
 -10  -6   9    3.88    4.34
  10  -6  -9  -14.30   10.21
  -9  -6   9   54.63   14.51
   9  -6  -9   21.64   11.89
  -9   6   9   46.29   15.99
  -8   6   9   35.54   11.09
  -8  -6   9   28.81    9.46
   8  -6  -9   35.88   14.25
  -7   6   9   30.93   10.23
  -7  -6   9   46.38   12.74
   7  -6  -9   40.13   15.27
  -6   6   9   14.12    5.80
  -6  -6   9   13.43    6.64
   6  -6  -9    8.26    6.72
  -5  -6   9   11.24    7.10
   5  -6  -9    6.29    5.78
  -5   6   9    8.85    6.38
  -4   6   9   35.60   13.43
  -4  -6   9   45.85   12.33
   4  -6  -9   67.00   17.70
  -3   6   9   74.79   20.27
  -3  -6   9   81.86   19.70
   3   6  -9   85.23   18.56
   3  -6  -9   92.43   21.33
   2   6  -9   59.53   18.27
  -2   6   9   41.84   16.18
  -2  -6   9   44.94   15.49
   2   6  -9   36.46   12.23
   2  -6  -9   38.01   14.01
   1   6  -9   41.26   14.15
  -1   6   9   42.13   17.23
  -1  -6   9   35.35   14.36
   1   6  -9   42.35   13.62
   0   6   9   -8.09    8.43
   0  -6   9   -0.90    2.88
   0   6  -9    7.05    5.45
   1  -6   9   43.81   18.34
 -10  -7   9   26.81   11.06
 -10   7   9   27.00   13.15
  -9   7   9    8.71    6.82
  -9  -7   9   -3.39    3.87
   9  -7  -9   14.09    9.62
  -8   7   9   -2.63    3.59
  -8  -7   9   -8.32    5.67
   8  -7  -9    1.16    3.00
  -7   7   9   83.03   17.37
  -7  -7   9   81.22   16.94
   7  -7  -9  111.73   25.27
  -6  -7   9    9.78    5.95
  -6   7   9    3.85    3.59
   6  -7  -9    1.76    3.40
  -5  -7   9  370.75   36.71
   5  -7  -9  420.45   47.05
  -5   7   9  371.54   33.13
  -5   7   9  347.86   38.03
  -4   7   9   38.03   14.29
  -4  -7   9   38.62   11.72
   4  -7  -9   43.51   15.11
  -3   7   9   12.99    7.93
  -3  -7   9   18.63    8.96
   3   7  -9   20.78    9.61
   3  -7  -9   17.43    9.53
  -2   7   9   -7.55    7.38
  -2  -7   9    1.06    2.75
   2   7  -9    4.59    4.46
   1   7  -9   31.03   12.63
  -1   7   9   33.88   16.50
  -1  -7   9   26.28   12.55
   1   7  -9   16.20    8.23
   0   7   9   69.32   24.83
   0  -7   9  103.89   26.88
 -10  -8   9    9.62    7.03
 -10   8   9  -11.91    8.76
  -9   8   9    2.32    3.86
  -9  -8   9   14.27    7.97
   9  -8  -9   17.57   11.07
  -8   8   9    4.04    4.46
  -8  -8   9   -1.29    2.54
   8  -8  -9   -1.11    2.99
  -7   8   9   12.48    7.04
  -7  -8   9   15.99    8.00
   7  -8  -9   13.43   10.33
  -6  -8   9    5.98    4.94
  -6   8   9    2.77    3.23
   6  -8  -9    3.83    4.60
  -5   8   9   30.76   11.62
  -5  -8   9   24.82    9.85
  -5   8   9   28.65    9.72
   5  -8  -9    6.06    6.00
  -4   8   9   24.30   11.21
  -4  -8   9   20.08    9.28
   4  -8  -9   34.55   13.84
  -4   8   9   23.80    8.12
  -3   8   9   63.51   19.73
  -3  -8   9   65.71   18.11
   3   8  -9   65.55   16.96
  -2   8   9   -3.03    5.02
  -2  -8   9   -2.24    3.78
   2   8  -9    3.35    3.79
  -1   8   9   33.54   18.12
  -1  -8   9   52.83   17.96
   1   8  -9   63.25   18.54
   0   8   9    3.37    5.82
   0  -8   9   27.52   14.10
 -10   9   9   27.94   12.80
  -9   9   9    5.04    5.46
  -9  -9   9    2.50    3.65
  -8   9   9   -2.55    3.69
  -8  -9   9   -3.41    4.04
   8  -9  -9   -0.90    3.06
  -7   9   9   24.54   10.04
  -7  -9   9   18.36    8.75
   7  -9  -9   30.89   14.24
  -6  -9   9   13.68    7.57
  -6   9   9   18.24    8.84
   6  -9  -9    4.65    5.56
  -5  -9   9    6.18    5.16
  -5   9   9   11.31    6.42
   5  -9  -9   21.07   11.44
  -4   9   9   16.16    7.44
  -4   9   9   10.43    7.61
  -4  -9   9   17.22    8.68
  -3   9   9   13.24    9.44
  -3  -9   9    2.28    3.62
  -2   9   9   -8.82    8.41
   2   9  -9   -4.57    4.44
  -1   9   9    4.73    6.70
  -1  -9   9   16.36   10.18
  -9  10   9    9.68    7.59
  -8  10   9    6.69    5.49
  -7 -10   9    8.64    6.23
  -7  10   9   -6.85    5.70
   7 -10  -9   15.83   10.67
  -6 -10   9   71.44   17.80
  -6  10   9   72.14   17.50
  -5 -10   9    2.51    3.52
  -5  10   9    5.54    6.15
  -4  10   9   51.03   13.56
  -4  10   9   39.01   14.75
  -4 -10   9   32.12   11.79
  -3  10   9    5.21    6.39
  -3 -10   9   19.29    9.90
  -2  10   9    7.45    7.83
  -2 -10   9    8.85    7.25
  -1  10   9   18.85   13.21
  -1 -10   9   32.55   14.52
  -8  11   9   16.07    9.31
  -7  11   9  -14.11    8.31
  -6  11   9   32.42   12.06
  -5  11   9   60.57   15.89
  -4  11   9   -2.77    3.67
  -3  11   9   -8.11    7.90
  -3 -11   9    2.33    3.72
  -3  11   9   -5.75    5.06
  -2  11   9    2.47    4.94
  -2 -11   9  -20.22   10.98
  -6  12   9   10.76    7.45
  -5  12   9    7.39    5.98
  -4  12   9   -1.18    2.57
  -3  12   9   -1.28    3.23
  11   0 -10   24.84   15.64
  10   0 -10   -1.72    5.01
   9   0 -10  -14.24   12.29
   9   0 -10    4.92    6.06
   8   0 -10   71.72   27.23
   8   0 -10  140.57   29.26
   7   0 -10   94.00   30.22
   7   0 -10   91.53   22.54
   6   0 -10  743.19   80.78
   6   0 -10  757.88   63.80
   5   0 -10   23.34   13.39
   5   0 -10   21.55   11.63
   4   0 -10  153.01   32.70
   4   0 -10  144.79   26.36
   3   0 -10    4.34    4.46
   2   0 -10   64.64   17.30
   1   0 -10  109.22   22.91
   0   0 -10    4.89    5.03
  11  -1 -10   14.43   12.06
  11  -1 -10    9.39    9.07
  10   1 -10   74.98   26.45
  10  -1 -10   83.23   29.27
  10  -1 -10   73.84   23.55
   9   1 -10   21.32   16.20
   9  -1 -10    5.38    7.83
   9  -1 -10   22.75   13.80
   8   1 -10   11.96   11.25
   8  -1 -10    0.87    3.66
   8   1 -10    7.50    7.01
   8  -1 -10   -7.50    6.99
   7   1 -10   -2.33    5.15
   7  -1 -10   11.66   13.15
   7   1 -10    1.64    6.58
   7  -1 -10   18.06    9.53
   6   1 -10    1.77    4.51
   6  -1 -10   32.72   16.95
   6   1 -10   14.92   10.74
   6  -1 -10   27.26   13.64
   5   1 -10    5.48    4.94
   5  -1 -10    8.54    8.28
   5   1 -10   17.78    9.83
   5  -1 -10    0.69    2.29
   4   1 -10   -2.01    3.75
   4   1 -10   -2.58    3.66
   4  -1 -10    6.29    5.43
   3   1 -10   42.99   15.27
   3   1 -10   34.50   12.39
   3  -1 -10   48.31   14.87
   2   1 -10  141.20   25.64
   2  -1 -10  135.45   25.24
   1   1 -10   -1.57    3.02
   1  -1 -10    9.38    6.74
   0  -1  10  102.66   27.69
   0   1 -10   95.01   22.07
   0  -1 -10  102.16   23.31
  11  -2 -10   39.29   18.09
  10   2 -10    8.18    9.67
  10  -2 -10   23.47   13.83
   9   2 -10   21.73   15.47
   9  -2 -10   11.24    6.92
   8   2 -10  -10.56   10.89
   8  -2 -10   -1.70    4.93
   8  -2 -10    1.67    3.58
   7   2 -10   -3.22    6.13
   7   2 -10    3.72    5.70
   7  -2 -10    5.08    7.64
   6   2 -10   12.12   10.59
   6   2 -10   10.99    7.61
   6  -2 -10   12.11    8.60
   5   2 -10   29.63   16.09
   5   2 -10   30.92   12.33
   5  -2 -10   14.63    7.72
   4   2 -10   10.01    8.27
   4   2 -10   17.21    9.08
   4  -2 -10    7.31    5.97
   3   2 -10   62.14   19.10
   3   2 -10   35.83   12.92
   3  -2 -10   44.91   14.57
   2   2 -10    6.25    5.81
   2   2 -10   23.77   10.34
   2  -2 -10   28.06   11.52
   1   2 -10   30.26   12.21
   1  -2 -10   26.73   11.53
  -1   2  10   43.88   18.36
   0   2  10   10.21    9.46
   0  -2  10   -0.63    2.56
   0   2 -10    3.06    3.95
  11  -3 -10   14.17   10.36
  10   3 -10   27.25   17.22
  10  -3 -10   26.51   14.44
   9   3 -10   23.60   17.37
   9  -3 -10   21.00   12.59
   8   3 -10   -9.30   10.21
   8  -3 -10    5.22    5.99
   7   3 -10  114.05   35.00
  -7  -3  10  117.45   18.82
   7  -3 -10  136.46   28.68
   6   3 -10    6.37    7.90
   6   3 -10   16.78    9.35
   6  -3 -10   16.84    8.83
   5   3 -10  184.17   39.25
   5   3 -10  134.07   25.80
   5  -3 -10  142.48   26.84
   4   3 -10   -0.25    1.76
   4   3 -10    0.71    1.95
   4  -3 -10   -1.90    3.29
   3   3 -10    1.74    3.41
   3   3 -10    0.43    1.79
   3  -3 -10    9.24    6.75
   2   3 -10   85.62   21.40
   2   3 -10  112.32   22.35
   2  -3 -10   83.30   20.88
  -2   3  10   91.31   25.52
  -1   3  10    7.28    7.78
   1   3 -10    6.08    5.49
  -1  -3  10    2.91    4.66
   1   3 -10   11.25    7.30
   1  -3 -10    2.68    3.85
   0   3 -10  101.35   22.59
  11  -4 -10   10.61    8.03
  10  -4 -10   21.73   13.17
   9   4 -10    8.43   10.08
   9  -4 -10   37.76   17.27
   8   4 -10  -13.64   12.44
  -8  -4  10   -0.61    1.65
   8  -4 -10   -3.85    5.31
   7   4 -10   44.87   22.32
  -7  -4  10   85.11   16.50
   7  -4 -10   84.88   22.74
   6   4 -10  240.66   48.18
  -6  -4  10  232.43   27.58
   6   4 -10  196.62   32.34
   6  -4 -10  195.06   32.46
   5   4 -10   31.04   16.17
   5   4 -10   34.53   13.49
   5  -4 -10   11.57    8.90
   4   4 -10   15.15   10.64
   4   4 -10    5.47    5.21
   4  -4 -10    0.94    2.53
   3   4 -10    2.69    4.24
   3   4 -10   -0.22    1.40
   3  -4 -10    4.94    3.06
  -2   4  10   72.85   22.69
   2   4 -10   86.08   21.52
   2   4 -10   87.93   20.14
   2  -4 -10   87.13   21.16
  -1   4  10   42.63   18.60
   1   4 -10   49.53   15.31
  -1  -4  10   43.40   17.50
   1   4 -10   40.14   13.66
   1  -4 -10   43.18   15.35
   0   4 -10    0.77    2.11
  10  -5 -10    2.98    5.38
   9  -5 -10   90.43   26.05
   9   5 -10  161.89   43.11
  -8  -5  10   18.75    7.91
   8  -5 -10    9.34    8.04
   8   5 -10   17.41   14.09
  -7  -5  10   48.84   12.98
   7  -5 -10   44.39   16.20
   7   5 -10   55.61   24.24
  -6  -5  10   -3.95    3.84
   6  -5 -10    3.20    5.64
   5   5 -10   35.19   18.11
   5   5 -10   32.87   13.02
   5  -5 -10   43.49   15.23
   4   5 -10   93.53   26.75
   4   5 -10   56.33   16.28
   4  -5 -10   57.79   17.48
  -4   5  10   44.26   15.24
   3   5 -10  222.55   38.83
   3   5 -10  175.28   28.96
   3  -5 -10  185.79   31.37
  -3   5  10  187.97   34.97
  -2   5  10   31.90   15.36
   2   5 -10   -3.19    4.37
  -2  -5  10    8.65    7.28
   2   5 -10   10.90    7.22
   2  -5 -10   19.91   10.35
   1   5 -10   -3.70    4.30
  -1  -5  10    1.79    3.91
   1   5 -10   -4.77    4.71
  10  -6 -10   26.91   13.03
  -9  -6  10   43.37   13.20
   9  -6 -10   44.11   17.78
  -8  -6  10   13.24    7.10
   8  -6 -10   17.65   10.88
  -7  -6  10   -0.23    1.63
   7  -6 -10   14.81    9.80
  -6  -6  10   -2.87    3.45
   6  -6 -10  -12.71    8.71
  -5  -6  10   83.38   17.80
   5   6 -10  115.55   24.43
   5  -6 -10   91.28   22.81
   5   6 -10   90.87   28.39
  -4   6  10   11.68    8.21
   4   6 -10   21.03   12.75
   4   6 -10   15.41    8.58
   4  -6 -10   12.63   10.76
  -3   6  10   75.75   22.30
   3   6 -10  111.71   27.79
   3   6 -10  130.40   25.15
   3  -6 -10   99.70   23.79
  -2   6  10    7.50    7.64
   2   6 -10   15.43    9.56
  -2  -6  10   23.26   11.94
   2   6 -10   11.95    7.57
  -1   6  10   52.83   21.21
   1   6 -10   52.85   16.39
  -1  -6  10   27.52   13.85
   1   6 -10   60.82   17.09
  -9  -7  10   16.79    8.48
   9  -7 -10   -0.02    5.73
  -8  -7  10   10.75    6.70
   8  -7 -10   12.36    9.41
  -7  -7  10   23.65    9.83
   7  -7 -10   11.76    8.89
  -6  -7  10   -0.34    1.70
   6  -7 -10   -4.85    5.62
  -5  -7  10   22.93    9.71
   5  -7 -10   46.84   16.57
  -5   7  10   32.99   12.73
  -4   7  10   21.98   10.95
   4   7 -10   24.65   10.89
   4  -7 -10   21.93   11.31
   3   7 -10    9.16    7.98
  -3   7  10   15.36   10.30
   3   7 -10   15.22    8.57
   3  -7 -10    4.22    2.66
  -2   7  10    6.27    7.11
   2   7 -10    6.51    6.34
  -2  -7  10    6.92    7.82
   2   7 -10   -9.11    6.68
  -9  -8  10   15.99    8.50
   9  -8 -10  -21.65   13.06
  -8  -8  10   70.51   17.72
   8  -8 -10   89.62   25.45
  -7  -8  10   24.50   10.78
   7  -8 -10   45.18   16.15
  -6  -8  10   -0.97    2.19
   6  -8 -10    1.48    3.49
  -5   8  10   10.42    7.34
  -5  -8  10   15.85    8.33
   5  -8 -10   22.84   12.04
  -4   8  10   18.98   10.94
   4   8 -10   36.28   13.35
   4  -8 -10   25.70   12.38
  -3   8  10   32.02   15.60
  -3  -8  10   34.09   14.08
   3   8 -10   23.86   10.75
   2   8 -10   45.84   17.05
  -2   8  10   49.49   20.10
  -2  -8  10   48.02   17.52
   2   8 -10   42.91   14.25
   8  -9 -10    5.00    6.40
  -7  -9  10   -6.93    5.73
   7  -9 -10   -2.94    5.09
  -6  -9  10    3.94    4.36
   6  -9 -10   11.41    9.04
  -5  -9  10    6.01    5.42
   5  -9 -10    4.52    2.43
  -4   9  10   90.79   23.83
   4   9 -10   93.83   22.17
  -3   9  10   71.44   23.36
  -3  -9  10   67.33   20.02
   3   9 -10   72.90   19.08
   2   9 -10   -2.86    4.37
   8 -10 -10   -6.83    7.56
   7 -10 -10   19.93   14.09
   4  10 -10    1.80    3.03
  -3  10  10   10.12    8.92
  -3 -10  10    8.66    7.36
   8   0 -11   18.53   14.50
   8   0 -11  -11.22    8.91
   7   0 -11   14.24   12.28
   7   0 -11   -0.43    2.13
   6   0 -11   -7.91    8.73
   6   0 -11    0.91    2.64
   5   0 -11   -0.35    1.84
   5   0 -11   -2.37    3.87
   4   0 -11    8.68    6.77
   3   0 -11    4.04    4.67
   2   0 -11    0.99    2.33
   8   1 -11   13.36   12.50
   8  -1 -11   33.80   21.39
   8   1 -11   21.05   11.99
   8  -1 -11   17.33    9.88
   7   1 -11    6.72    8.52
   7  -1 -11   14.40   13.76
   7   1 -11   -6.07    6.42
   7  -1 -11    7.52    7.10
   6   1 -11   60.04   23.29
   6   1 -11   46.20   17.22
   6  -1 -11   61.82   19.17
   5   1 -11    2.32    4.47
   5   1 -11   10.18    7.63
   4   1 -11   91.48   25.88
   4   1 -11   80.53   20.67
   4  -1 -11   88.57   21.78
   3   1 -11   16.38    9.15
   3  -1 -11    1.78    3.22
   2   1 -11    4.34    4.84
   2  -1 -11    3.90    4.65
   1   1 -11   56.80   17.10
   9  -2 -11   -0.95    3.34
   8   2 -11   -3.89    6.98
   8   2 -11    3.88    5.40
   8  -2 -11    0.66    3.11
   7   2 -11   64.85   27.38
   7   2 -11   31.04   14.21
   7  -2 -11   64.18   20.39
   6   2 -11    5.78    4.96
   6   2 -11   16.45   10.09
   6  -2 -11   -0.02    5.01
   5   2 -11  175.52   38.75
   5   2 -11  164.12   30.54
   5  -2 -11  210.66   34.14
   4   2 -11  236.30   41.75
   4   2 -11  160.25   29.78
   4  -2 -11  174.61   31.13
   3   2 -11   -1.94    3.68
   3   2 -11    1.79    3.15
   3  -2 -11    4.04    4.75
   2   2 -11   12.17    8.04
   1   2 -11    6.10    5.81
   9  -3 -11   10.22    9.12
   8  -3 -11   89.34   25.09
   7   3 -11   66.66   27.00
   7   3 -11  103.99   25.48
   7  -3 -11   94.38   24.82
   6   3 -11   -0.74    2.23
   6  -3 -11   -4.13    5.08
   5   3 -11   41.15   18.36
   5   3 -11   17.28   10.64
   5  -3 -11   14.73    9.92
   4   3 -11    5.47    6.37
   4   3 -11    1.65    3.15
   4  -3 -11    4.13    4.97
   3   3 -11   -1.03    2.71
   3   3 -11    5.24    5.17
   3  -3 -11   -1.48    2.91
   2   3 -11   14.79    9.31
   2   3 -11   12.19    7.99
   1   3 -11   43.32   15.29
   8  -4 -11   30.53   14.05
   7   4 -11   10.71   11.07
   7   4 -11   -0.67    2.26
   7  -4 -11    7.73    7.23
   6   4 -11   17.12   13.15
   6   4 -11   13.84    8.96
   6  -4 -11    2.39    2.09
   5   4 -11   15.96   11.93
   5   4 -11   24.89   11.79
   5  -4 -11    9.66    7.61
   4   4 -11    9.41    8.44
   4   4 -11   -0.90    2.29
   4  -4 -11   11.19    7.20
   3   4 -11   87.76   23.90
   3   4 -11   76.29   20.33
   2   4 -11    8.35    6.98
   2   4 -11    2.15    3.49
   1   4 -11   76.80   20.32
   8  -5 -11   -9.11    8.23
   7  -5 -11   15.54   13.07
   6   5 -11   55.82   23.90
   6   5 -11   38.65   14.98
   6  -5 -11   43.77   16.19
   5   5 -11   -3.05    5.38
   5   5 -11   11.46    7.99
   5  -5 -11   13.18    8.92
   4   5 -11   44.69   18.72
   4   5 -11   33.38   13.45
   3   5 -11   37.08   15.80
   3   5 -11   28.58   12.36
  -3   5  11   16.19   11.02
   2   5 -11  -10.01    7.73
   2   5 -11    0.54    1.85
  -7  -6  11   -0.29    1.82
   5   6 -11   27.12   12.82
   4   6 -11   37.38   17.42
   4   6 -11   23.68   11.40
  -4   6  11   25.48   13.19
  -3   6  11    6.98    7.45
   3   6 -11    4.25    4.90
   2   6 -11   14.18    9.33
   2   6 -11   -5.86    5.55
  -8  -7  11   74.98   18.29
  -7  -7  11   85.03   19.42
  -6  -7  11    3.91    4.42
  -4   7  11    8.62    7.76
   4   7 -11   15.49    9.33
   3   7 -11   10.58    7.64
  -7  -8  11   -4.25    4.75
  -6  -8  11   -6.81    5.95
  -4   8  11   10.69    8.87
   3   8 -11   16.06    9.41
   0   0   0    0.00    0.00
;
_shelx_hkl_checksum              31067
_shelx_res_file
;
TITL SS in P2(1)/c
CELL 0.71073   9.3455  13.1854   9.2185  90.000 118.466  90.000
ZERR    4.00   0.0009   0.0010   0.0008   0.000   0.011   0.000
LATT 1
SYMM -X, 0.5+Y, 0.5-Z
SFAC C  F  I
UNIT 24 12 12
L.S. 8
ACTA 50.50
BOND
FMAP 2
PLAN 20
WGHT    0.076900    0.071200
FVAR       0.20331
F1    2    0.370559    0.887951    0.154990    11.00000    0.03435    0.06897 =
         0.03347    0.00754    0.01103    0.00025
F3    2    0.512019    0.841810    0.711152    11.00000    0.04608    0.06120 =
         0.03493    0.00765    0.02422    0.00068
F5    2    0.918127    0.903090    0.559016    11.00000    0.02833    0.07836 =
         0.03564   -0.00184    0.01672   -0.00468
I2    3    0.193580    0.835695    0.365971    11.00000    0.03231    0.06926 =
         0.04823    0.00702    0.01594   -0.01179
I4    3    0.896558    0.867277    0.886921    11.00000    0.03570    0.05747 =
         0.02850   -0.00484    0.01326    0.00213
I6    3    0.713801    0.924513    0.172473    11.00000    0.04506    0.07625 =
         0.03692    0.01398    0.02523    0.00892
C1    1    0.484825    0.883763    0.312690    11.00000    0.02531    0.02910 =
         0.02166    0.00384    0.00055    0.00628
C2    1    0.435249    0.862877    0.430736    11.00000    0.02396    0.03661 =
         0.02857    0.00605    0.00895   -0.00283
C3    1    0.558183    0.861077    0.595561    11.00000    0.03811    0.03594 =
         0.03067    0.00329    0.02123    0.00460
C4    1    0.719861    0.872124    0.640257    11.00000    0.02996    0.03211 =
         0.02142    0.00238    0.00825    0.00030
C5    1    0.758693    0.891648    0.517110    11.00000    0.03769    0.02674 =
         0.03946   -0.00688    0.01968    0.00130
C6    1    0.647195    0.897716    0.354897    11.00000    0.03751    0.05029 =
         0.02522   -0.00575    0.01693   -0.01136
HKLF 4
REM  SS in P2(1)/c
REM R1 =  0.0538 for    1610 Fo > 4sig(Fo)  and  0.0868 for all    2404 data
REM    109 parameters refined using      0 restraints
END
WGHT      0.0757      0.0000
REM Highest difference peak  1.264,  deepest hole -1.885,  1-sigma level  0.308
Q1    1   0.6949  0.8166  0.1442  11.00000  0.05    1.26
Q2    1   0.7267  0.7459  0.6720  11.00000  0.05    1.16
Q3    1   1.0029  0.9044  0.9069  11.00000  0.05    1.16
Q4    1   0.1850  0.8308  0.4399  11.00000  0.05    1.15
Q5    1   0.0785  0.7879  0.3467  11.00000  0.05    1.08
Q6    1   0.8675  0.7614  0.8188  11.00000  0.05    1.06
Q7    1   0.7232  0.9963  0.1981  11.00000  0.05    1.05
Q8    1   0.8838  0.7468  0.7542  11.00000  0.05    1.05
Q9    1   0.0884  0.8615  0.2977  11.00000  0.05    1.05
Q10   1   0.9061  0.9641  0.9537  11.00000  0.05    1.03
Q11   1   0.7799  0.9236  0.8624  11.00000  0.05    1.03
Q12   1   0.9058  0.7614  0.9281  11.00000  0.05    1.02
Q13   1   0.6860  0.8731  0.7617  11.00000  0.05    1.02
Q14   1   0.3574  0.7845  0.0712  11.00000  0.05    1.02
Q15   1   0.6832  0.9135  0.2779  11.00000  0.05    1.00
Q16   1   0.7978  0.8302  0.8614  11.00000  0.05    0.99
Q17   1   0.9795  0.9289  0.6474  11.00000  0.05    0.99
Q18   1   0.5968  0.9746  0.1542  11.00000  0.05    0.97
Q19   1   0.3164  0.9510  0.3114  11.00000  0.05    0.93
Q20   1   0.3084  0.8854  0.3595  11.00000  0.05    0.93
;
_shelx_res_checksum              66460
_shelxl_version_number           2014/6
loop_
_space_group_symop_operation_xyz
'x, y, z'
'-x, y+1/2, -z+1/2'
'-x, -y, -z'
'x, -y-1/2, z-1/2'
loop_
_atom_site_type_symbol
_atom_site_label
_atom_site_fract_x
_atom_site_fract_y
_atom_site_fract_z
_atom_site_U_iso_or_equiv
_atom_site_adp_type
_atom_site_calc_flag
_atom_site_occupancy
F F1 0.3706(9) 0.8880(5) 0.1550(8) 0.0477(17) Uani d 1
F F3 0.5120(9) 0.8418(5) 0.7112(8) 0.0454(16) Uani d 1
F F5 0.9181(8) 0.9031(6) 0.5590(8) 0.0468(17) Uani d 1
I I2 0.19358(10) 0.83570(7) 0.36597(10) 0.0513(3) Uani d 1
I I4 0.89656(9) 0.86728(6) 0.88692(8) 0.0414(3) Uani d 1
I I6 0.71380(11) 0.92451(7) 0.17247(9) 0.0504(3) Uani d 1
C C1 0.4848(13) 0.8838(7) 0.3127(12) 0.030(2) Uani d 1
C C2 0.4352(13) 0.8629(7) 0.4307(13) 0.031(2) Uani d 1
C C3 0.5582(15) 0.8611(7) 0.5956(13) 0.033(2) Uani d 1
C C4 0.7199(13) 0.8721(7) 0.6403(11) 0.029(2) Uani d 1
C C5 0.7587(15) 0.8916(7) 0.5171(13) 0.034(2) Uani d 1
C C6 0.6472(15) 0.8977(9) 0.3549(13) 0.037(3) Uani d 1
loop_
_atom_site_aniso_label
_atom_site_aniso_U_11
_atom_site_aniso_U_22
_atom_site_aniso_U_33
_atom_site_aniso_U_12
_atom_site_aniso_U_13
_atom_site_aniso_U_23
F1 0.034(4) 0.069(5) 0.033(3) 0.000(3) 0.011(3) 0.008(3)
F3 0.046(4) 0.061(4) 0.035(3) 0.001(3) 0.024(3) 0.008(3)
F5 0.028(4) 0.078(5) 0.036(3) -0.005(3) 0.017(3) -0.002(3)
I2 0.0323(5) 0.0693(6) 0.0482(5) -0.0118(4) 0.0159(4) 0.0070(4)
I4 0.0357(5) 0.0575(5) 0.0285(4) 0.0021(4) 0.0133(4) -0.0048(3)
I6 0.0451(6) 0.0762(6) 0.0369(5) 0.0089(4) 0.0252(4) 0.0140(4)
C1 0.025(6) 0.029(5) 0.022(5) 0.006(5) 0.001(4) 0.004(4)
C2 0.024(5) 0.037(5) 0.029(5) -0.003(5) 0.009(5) 0.006(4)
C3 0.038(6) 0.036(6) 0.031(5) 0.005(5) 0.021(5) 0.003(4)
C4 0.030(6) 0.032(5) 0.021(5) 0.000(5) 0.008(4) 0.002(4)
C5 0.038(6) 0.027(5) 0.039(6) 0.001(5) 0.020(5) -0.007(4)
C6 0.038(7) 0.050(6) 0.025(5) -0.011(5) 0.017(5) -0.006(4)
loop_
_atom_type_symbol
_atom_type_description
_atom_type_scat_dispersion_real
_atom_type_scat_dispersion_imag
_atom_type_scat_source
C C 0.0033 0.0016 'International Tables Vol C Tables 4.2.6.8 and 6.1.1.4'
F F 0.0171 0.0103 'International Tables Vol C Tables 4.2.6.8 and 6.1.1.4'
I I -0.4742 1.8119 'International Tables Vol C Tables 4.2.6.8 and 6.1.1.4'
loop_
_geom_angle_atom_site_label_1
_geom_angle_atom_site_label_2
_geom_angle_atom_site_label_3
_geom_angle
F1 C1 C2 117.8(10)
F1 C1 C6 120.1(9)
C2 C1 C6 122.1(9)
C1 C2 C3 116.3(10)
C1 C2 I2 122.0(8)
C3 C2 I2 121.8(7)
F3 C3 C4 120.2(10)
F3 C3 C2 117.0(10)
C4 C3 C2 122.7(9)
C5 C4 C3 117.4(10)
C5 C4 I4 121.7(8)
C3 C4 I4 120.8(7)
C6 C5 C4 123.8(11)
C6 C5 F5 118.0(9)
C4 C5 F5 118.2(10)
C5 C6 C1 117.6(9)
C5 C6 I6 122.1(9)
C1 C6 I6 120.3(8)
loop_
_geom_bond_atom_site_label_1
_geom_bond_atom_site_label_2
_geom_bond_distance
F1 C1 1.333(11)
F3 C3 1.351(11)
F5 C5 1.358(14)
I2 C2 2.074(11)
I4 C4 2.079(10)
I6 C6 2.083(10)
C1 C2 1.398(14)
C1 C6 1.387(15)
C2 C3 1.402(14)
C3 C4 1.371(15)
C4 C5 1.371(14)
C5 C6 1.358(15)

_cod_database_fobs_code 2020842
