#------------------------------------------------------------------------------
#$Date: 2017-02-04 05:55:42 +0200 (Sat, 04 Feb 2017) $
#$Revision: 191418 $
#$URL: file:///home/coder/svn-repositories/cod/cif/2/02/06/2020689.cif $
#------------------------------------------------------------------------------
#
# This file is available in the Crystallography Open Database (COD),
# http://www.crystallography.net/. The original data for this entry
# were provided by IUCr Journals, http://journals.iucr.org/.
#
# The file may be used within the scientific community so long as
# proper attribution is given to the journal article from which the
# data were obtained.
#
data_2020689
loop_
_publ_author_name
'Ardan, Bohdan'
'Kinzhybalo, Vasyl'
'Slyvka, Yurii'
'Shyyka, Olga'
'Luk`yanov, Mykhaylo'
'Lis, Tadeusz'
'Mys`kiv, Marian'
_publ_section_title
;
 Ligand-forced dimerization of copper(I)--olefin complexes bearing a
 1,3,4-thiadiazole core
;
_journal_issue                   1
_journal_name_full               'Acta Crystallographica Section C'
_journal_page_first              36
_journal_page_last               46
_journal_paper_doi               10.1107/S2053229616018751
_journal_volume                  73
_journal_year                    2017
_chemical_formula_iupac          'C6 H9 N3 S'
_chemical_formula_moiety         'C6 H9 N3 S'
_chemical_formula_sum            'C6 H9 N3 S'
_chemical_formula_weight         155.22
_chemical_name_systematic
;
5-Methyl-<i>N</i>-(prop-2-en-1-yl)-1,3,4-thiadiazol-2-amine
;
_space_group_crystal_system      orthorhombic
_space_group_IT_number           33
_space_group_name_Hall           'P 2c -2n'
_space_group_name_H-M_alt        'P n a 21'
_symmetry_space_group_name_Hall  'P 2c -2n'
_symmetry_space_group_name_H-M   'P n a 21'
_atom_sites_solution_hydrogens   mixed
_atom_sites_solution_primary     direct
_audit_creation_method
;
Olex2 1.2
(compiled 2015.01.26 svn.r3150 for OlexSys, GUI svn.r4998)
;
_cell_angle_alpha                90
_cell_angle_beta                 90
_cell_angle_gamma                90
_cell_formula_units_Z            4
_cell_length_a                   8.843(3)
_cell_length_b                   17.485(5)
_cell_length_c                   5.041(3)
_cell_measurement_reflns_used    5973
_cell_measurement_temperature    120(2)
_cell_measurement_theta_max      36.3230
_cell_measurement_theta_min      3.2660
_cell_volume                     779.4(6)
_computing_cell_refinement
;
CrysAlis PRO (Rigaku OD, 2015)
;
_computing_data_collection
;
CrysAlis PRO (Rigaku OD, 2015)
;
_computing_data_reduction
;
CrysAlis PRO (Rigaku OD, 2015)
;
_computing_molecular_graphics
;
OLEX2 (Dolomanov <i>et al.</i>,  2009)
;
_computing_publication_material
;
OLEX2 (Dolomanov <i>et al.</i>,  2009)
;
_computing_structure_refinement
;
SHELXL2014 (Sheldrick, 2015b)
;
_computing_structure_solution
;
SHELXT (Sheldrick, 2015a)
;
_diffrn_ambient_temperature      120(2)
_diffrn_detector_area_resol_mean 8.3359
_diffrn_measured_fraction_theta_full 0.998
_diffrn_measured_fraction_theta_max 0.896
_diffrn_measurement_device       'four-circle diffractometer'
_diffrn_measurement_device_type  'Kuma KM-4-CCD'
_diffrn_measurement_method       '\w scans'
_diffrn_radiation_monochromator  graphite
_diffrn_radiation_type           MoK\a
_diffrn_radiation_wavelength     0.71073
_diffrn_reflns_av_R_equivalents  0.0505
_diffrn_reflns_limit_h_max       11
_diffrn_reflns_limit_h_min       -14
_diffrn_reflns_limit_k_max       26
_diffrn_reflns_limit_k_min       -27
_diffrn_reflns_limit_l_max       8
_diffrn_reflns_limit_l_min       -7
_diffrn_reflns_number            11519
_diffrn_reflns_theta_full        26.000
_diffrn_reflns_theta_max         36.801
_diffrn_reflns_theta_min         3.277
_exptl_absorpt_coefficient_mu    0.341
_exptl_absorpt_correction_T_max  0.964
_exptl_absorpt_correction_T_min  0.801
_exptl_absorpt_correction_type   analytical
_exptl_absorpt_process_details
;
[CrysAlis PRO (Rigaku OD, 2015), based on expressions
derived by Clark & Reid (1995)]
;
_exptl_crystal_colour            'clear light colourless'
_exptl_crystal_density_diffrn    1.323
_exptl_crystal_description       plate
_exptl_crystal_F_000             328
_exptl_crystal_size_max          0.983
_exptl_crystal_size_mid          0.417
_exptl_crystal_size_min          0.113
_refine_diff_density_max         0.309
_refine_diff_density_min         -0.310
_refine_ls_abs_structure_details
;
Refined as an inversion twin
;
_refine_ls_abs_structure_Flack   0.27(11)
_refine_ls_extinction_method     none
_refine_ls_goodness_of_fit_ref   1.061
_refine_ls_hydrogen_treatment    mixed
_refine_ls_matrix_type           full
_refine_ls_number_parameters     124
_refine_ls_number_reflns         3214
_refine_ls_number_restraints     1
_refine_ls_restrained_S_all      1.061
_refine_ls_R_factor_all          0.0492
_refine_ls_R_factor_gt           0.0420
_refine_ls_shift/su_max          0.000
_refine_ls_shift/su_mean         0.000
_refine_ls_structure_factor_coef Fsqd
_refine_ls_weighting_details
'w=1/[\s^2^(Fo^2^)+(0.0610P)^2^] where P=(Fo^2^+2Fc^2^)/3'
_refine_ls_weighting_scheme      calc
_refine_ls_wR_factor_gt          0.0994
_refine_ls_wR_factor_ref         0.1045
_reflns_number_gt                2812
_reflns_number_total             3214
_reflns_threshold_expression     'I > 2\s(I)'
_cod_data_source_file            fn3225sup1.cif
_cod_data_source_block           mepeta
_cod_depositor_comments
'Adding full bibliography for 2020689--2020694.cif.'
_cod_database_code               2020689
_cod_database_fobs_code          2020689
_shelx_space_group_comment
;
The symmetry employed for this shelxl refinement is uniquely defined
by the following loop, which should always be used as a source of
symmetry information in preference to the above space-group names.
They are only intended as comments.
;
_shelx_hkl_file
;
   0  -3   0-24.5573 36.2198   4
   0  -3   0-43.9522 41.0088   1
   0  -4   0 97003.8 914.504   4
   0  -4   0 92632.0 883.187   1
   0  -5   0 53.0711 55.1164   4
   0  -5   0 105.757 68.0320   1
   0  -6   0 80868.2 1003.10   1
   0  -6   0 80570.4 1010.87   4
   0  -7   0-19.8734 25.1771   2
   0  -7   0 7.32403 52.6371   1
   0  -8   0 36958.5 778.198   1
   0  -8   0 35569.9 427.242   2
   0  -8   0 37429.1 818.033   4
   0  -9   0 118.648 114.935   4
   0  -9   0 38.4060 32.3389   2
   0  -9   0 10.0160 60.1421   1
   0 -10   0 24732.8 741.650   4
   0 -10   0 24214.4 725.205   1
   0 -11   0-46.8384 92.6859   4
   0 -11   0 6.63118 86.9926   1
   0 -12   0 4873.74 373.602   1
   0 -12   0 4049.86 211.470   5
   0 -13   0 66.9848 58.9424   5
   0 -13   0 6.30411 94.9560   4
   0 -13   0 193.659 115.146   1
   0 -14   0 26.6941 92.2119   4
   0 -14   0 69.8163 81.5870   5
   0 -14   0 66.9994 115.982   1
   0 -15   0-2.35841 52.2831   5
   0 -15   0 34.1121 112.145   1
   0 -15   0 84.4247 110.125   4
   0 -16   0-76.3841 115.173   4
   0 -16   0 9.47499 54.5957   5
   0  16   0 276.417 130.092   3
   0 -16   0-5.90159 101.609   1
   0 -17   0-30.2990 109.840   4
   0 -17   0 20.6134 58.1829   5
   0  17   0-7.96747 95.2486   3
   0 -17   0-92.4953 139.528   1
   0 -18   0 29181.5 716.474   5
   0 -18   0 30093.0 1184.53   1
   0 -19   0 170.268 115.959   1
   0 -20   0-80.2899 170.238   1
   0 -21   0 200.501 153.936   1
   0 -22   0 2793.28 413.357   1
  -1  -2   0 145605. 875.880   1
  -1   2   0 142706. 899.772   3
   1  -2   0 146195. 909.520   1
  -1  -3   0 49428.2 457.894   3
  -1  -3   0 45418.6 483.290   2
  -1   3   0 48186.8 591.594   3
   1  -3   0 51355.0 517.568   4
  -1  -3   0 52645.0 614.191   1
  -1  -3   0 50765.5 631.740   4
   1  -3   0 47788.7 575.622   1
  -1  -4   0 69192.7 616.976   3
  -1  -4   0 59101.8 743.999   1
   1  -4   0 70412.2 776.983   1
  -1   4   0 65575.6 760.120   3
  -1  -4   0 57350.7 756.725   4
   1  -4   0 68672.7 702.386   4
  -1  -4   0 68226.2 619.758   2
   1  -5   0 161.997 71.8777   1
   1  -5   0 128.977 48.7230   4
  -1  -5   0 90.7471 42.1560   1
  -1  -5   0 32.1366 27.5218   2
  -1   5   0 43.9026 68.2338   3
  -1  -6   0 12764.4 423.902   4
  -1   6   0 12841.3 388.940   3
  -1  -6   0 12887.8 406.274   1
   1  -6   0 12902.6 404.511   1
   1  -6   0 12761.4 383.126   4
   1  -7   0 322.320 83.4883   4
   1  -7   0 213.778 79.0894   1
  -1  -7   0 118.468 65.0418   4
  -1  -7   0 124.776 71.4351   1
  -1  -7   0 77.0464 31.1924   2
  -1  -8   0 88460.9 1251.92   1
   1  -8   0 84209.2 1273.56   1
   1  -8   0 86770.0 669.295   2
   1  -8   0 83399.2 1163.24   4
   1  -9   0 7292.64 392.430   1
  -1  -9   0 6630.04 373.185   1
   1  -9   0 7257.70 197.052   2
   1  -9   0 7110.32 372.203   4
  -1  -9   0 7676.45 405.005   4
  -1 -10   0 55301.8 1128.85   1
   1 -10   0 53825.3 1109.11   1
  -1  10   0 52627.7 983.329   3
  -1 -10   0 52394.3 1116.80   4
  -1 -10   0 50442.6 681.529   2
   1 -10   0 54471.6 1074.45   4
   1 -11   0 10101.5 488.998   4
   1 -11   0 10039.3 502.683   1
  -1 -11   0 10667.3 519.633   1
  -1 -11   0 10363.3 517.634   4
  -1  11   0 9128.81 435.058   3
   1 -12   0 555.357 160.829   1
   1 -12   0 325.694 127.373   4
   1 -12   0 339.262 75.0627   5
  -1 -12   0 290.972 101.174   1
  -1 -12   0 329.213 74.3865   5
  -1  12   0 636.708 158.670   3
  -1 -12   0 197.005 117.214   4
   1 -13   0 122.320 95.3099   4
  -1  13   0 347.206 137.335   3
   1 -13   0 264.024 144.780   1
  -1 -13   0 100.347 60.8551   5
  -1 -13   0-78.7714 89.2936   1
   1 -13   0-29.4232 70.1058   5
  -1 -13   0 156.374 115.394   4
  -1 -14   0 24070.8 899.655   4
   1 -14   0 23471.0 854.208   4
   1 -14   0 24671.5 584.776   5
  -1  14   0 22505.2 768.536   3
  -1 -14   0 24351.8 884.295   1
   1 -14   0 23896.3 880.394   1
   1 -15   0 15364.7 717.743   4
  -1 -15   0 16046.2 743.611   1
  -1  15   0 14567.6 630.539   3
  -1 -15   0 15139.8 745.973   4
   1 -15   0 15994.7 763.381   1
   1 -15   0 16932.5 499.565   5
  -1 -16   0 2738.72 337.899   4
  -1 -16   0 2104.71 185.495   5
  -1 -16   0 2545.00 324.693   1
  -1  16   0 2191.64 264.301   3
   1 -16   0 3577.71 241.502   5
   1 -16   0 3001.65 347.431   1
   1 -16   0 2795.09 333.249   4
  -1 -17   0 3857.03 261.498   5
   1 -17   0 5274.77 461.557   4
  -1 -17   0 4316.34 437.758   4
   1 -17   0 5756.86 506.137   1
  -1 -17   0 4227.59 416.532   1
  -1  17   0 4194.65 375.568   3
   1 -17   0 5144.58 300.039   5
  -1 -18   0 6339.13 531.057   1
  -1  18   0 4881.79 428.041   3
   1 -18   0 6434.74 574.539   1
  -1 -18   0 6578.16 348.453   5
  -1 -18   0 5963.28 534.819   4
  -1 -19   0 163.587 129.426   1
   1 -19   0-111.878 131.719   1
  -1 -20   0 30298.3 1251.74   1
   1 -20   0 31330.0 1285.37   1
   1 -21   0-30.5999 154.045   1
  -1 -21   0 63.1653 145.439   1
   1 -22   0 10136.0 808.456   1
  -1 -22   0 11164.7 841.254   1
  -2   0   0 52143.5 624.834   3
  -2   0   0 55119.8 644.096   2
  -2   1   0 412625. 1884.73   3
  -2  -1   0 423596. 1661.98   3
  -2  -1   0 472158. 1967.19   2
  -2  -2   0 83186.4 742.775   4
  -2  -2   0 77422.7 844.636   1
  -2   2   0 73018.3 725.941   2
  -2  -2   0 71408.3 797.050   2
  -2  -2   0 74529.6 685.418   3
  -2   2   0 79031.3 848.671   3
  -2   3   0 50240.6 723.610   3
   2  -3   0 48471.9 722.967   1
  -2  -3   0 46142.0 635.558   4
  -2  -3   0 48073.8 671.192   2
  -2   3   0 49080.5 596.986   2
  -2  -3   0 49118.8 681.372   1
  -2  -3   0 45419.4 522.842   3
  -2  -4   0 12372.6 355.214   2
  -2  -4   0 10705.1 275.987   3
   2  -4   0 15674.4 306.226   4
  -2  -4   0 15217.0 400.324   1
  -2   4   0 15392.4 424.253   3
  -2  -4   0 14600.5 399.258   4
  -2   4   0 10838.5 276.356   2
   2  -4   0 15386.7 426.398   1
  -2  -5   0 117103. 1230.48   4
  -2   5   0 124627. 1264.91   3
   2  -5   0 121944. 1236.47   1
  -2  -5   0 121668. 1126.80   2
  -2  -5   0 130714. 1260.21   1
   2  -6   0 10788.0 338.495   4
  -2   6   0 14179.7 462.371   3
  -2  -6   0 13996.9 463.974   4
  -2  -6   0 9709.05 295.773   3
   2  -6   0 14914.2 465.048   1
  -2  -6   0 15670.3 476.980   1
  -2  -6   0 12757.6 372.981   2
  -2  -7   0 1405.97 125.881   3
   2  -7   0 2078.35 164.666   4
  -2  -7   0 2018.91 152.303   2
  -2  -7   0 2298.46 198.354   1
  -2   7   0 2029.59 195.648   3
  -2  -7   0 2056.04 201.411   4
   2  -7   0 2216.49 204.439   1
  -2  -8   0 1108.14 123.509   2
  -2   8   0 1521.09 175.444   3
  -2  -8   0 1774.96 196.755   1
   2  -8   0 1599.86 170.263   4
   2  -8   0 1471.29 176.323   1
  -2  -8   0 1706.67 198.283   4
  -2   9   0 4512.60 300.830   3
   2  -9   0 4635.26 321.021   1
  -2  -9   0 4867.42 322.800   1
   2  -9   0 4750.80 292.946   4
  -2  -9   0 4622.71 329.462   4
  -2  10   0 39566.3 914.458   3
   2 -10   0 40399.0 903.045   4
   2 -10   0 39917.9 972.305   1
  -2 -10   0 41768.1 972.008   1
  -2 -10   0 40886.2 1007.86   4
   2 -11   0 34451.4 966.519   1
   2 -11   0 36448.5 892.328   4
  -2 -11   0 36271.7 641.231   5
  -2 -11   0 33972.6 969.422   4
  -2 -11   0 33808.0 690.370   2
  -2 -11   0 36307.8 954.292   1
  -2  11   0 32392.2 861.940   3
  -2 -12   0 78208.9 1481.94   1
  -2 -12   0 80256.8 1559.78   4
  -2 -12   0 80537.3 989.754   5
   2 -12   0 84212.7 1451.28   4
   2 -12   0 84660.4 1611.36   1
  -2  12   0 78533.9 1381.50   3
   2 -12   0 83240.3 1062.49   5
  -2 -13   0 33595.1 1015.69   1
   2 -13   0 33403.0 1043.77   1
   2 -13   0 35552.8 971.095   4
   2 -13   0 34407.3 707.846   5
  -2 -13   0 34168.6 1053.99   4
  -2  13   0 31731.8 920.777   3
  -2 -14   0 2710.29 203.011   5
   2 -14   0 3937.50 353.650   4
  -2 -14   0 3262.51 351.133   4
  -2 -14   0 3758.04 374.035   1
   2 -14   0 3771.10 371.971   1
  -2  14   0 3730.97 336.767   3
   2 -14   0 3985.94 259.172   5
  -2  15   0 15730.6 698.302   3
  -2 -15   0 14919.4 748.105   4
   2 -15   0 15648.8 769.224   1
  -2 -15   0 16092.7 758.394   1
   2 -15   0 16318.0 727.428   4
   2 -15   0 13821.0 474.903   5
   2 -16   0 25296.8 658.615   5
  -2  16   0 23527.1 878.546   3
  -2 -16   0 26526.6 1011.39   1
   2 -16   0 23526.5 971.041   1
   2 -16   0 24186.4 933.209   4
  -2 -16   0 22511.9 953.288   4
  -2 -17   0 471.327 112.027   5
   2 -17   0 618.746 112.725   5
  -2 -17   0 516.034 176.458   4
  -2 -17   0 464.681 184.677   1
   2 -17   0 645.721 197.583   1
  -2  17   0 463.662 153.873   3
  -2 -18   0 32310.3 782.598   5
  -2  18   0 27118.2 1003.89   3
  -2 -18   0 28940.5 1170.04   4
   2 -18   0 30652.8 1184.84   1
  -2 -18   0 31054.7 1194.13   1
   2 -19   0 772.619 238.681   1
  -2 -19   0 940.835 258.884   1
  -2  19   0 591.613 193.624   3
  -2  20   0 4248.19 425.443   3
  -2 -20   0 4891.56 524.734   1
   2 -20   0 4627.48 523.689   1
  -2 -21   0 552.026 202.361   1
   2 -21   0 1018.57 288.475   1
  -2 -22   0 1744.98 357.351   1
   2 -22   0 1255.88 328.810   1
  -3   0   0 20.0174 51.3187   3
  -3   0   0-13.8423 39.6790   2
  -3  -1   0 77935.2 970.848   2
  -3   1   0 80810.7 974.469   3
  -3  -1   0 77103.8 964.701   1
  -3  -1   0 76072.7 861.921   3
  -3   1   0 79235.6 949.948   2
  -3  -1   0 79913.9 681.469   4
  -3  -2   0 93289.6 1080.15   1
  -3  -2   0 92004.8 1063.00   2
  -3   2   0 93708.1 1011.31   2
  -3   2   0 95496.3 1127.38   3
  -3   3   0 208134. 1704.69   3
  -3   3   0 214529. 1510.93   2
  -3  -3   0 210520. 1677.94   1
  -3  -3   0 205898. 1634.63   2
  -3   4   0 73505.0 1047.26   3
  -3  -4   0 71762.7 991.972   2
  -3  -4   0 74427.0 1018.54   1
   3  -5   0 41247.1 529.736   4
  -3  -5   0 39239.2 759.278   1
  -3  -5   0 38424.3 749.813   2
   3  -5   0 39622.5 815.543   1
  -3   5   0 40844.6 662.246   2
  -3  -5   0 36975.0 739.341   4
  -3   5   0 39267.3 794.595   3
  -3   6   0 6525.08 345.022   3
   3  -6   0 7058.14 359.321   1
  -3  -6   0 6761.04 326.771   2
   3  -6   0 5497.00 227.804   4
  -3  -6   0 6286.94 333.210   4
  -3   6   0 7562.06 294.704   2
  -3  -6   0 6794.64 328.107   1
   3  -7   0 15767.7 540.956   1
  -3   7   0 12331.1 377.808   2
  -3  -7   0 14842.1 537.634   4
  -3  -7   0 15154.6 492.558   2
  -3  -7   0 10043.4 334.320   3
  -3  -7   0 15328.1 520.577   1
  -3   7   0 15338.3 543.549   3
   3  -7   0 10527.3 346.000   4
  -3   8   0 110260. 1498.00   3
   3  -8   0 112159. 1504.96   1
   3  -8   0 114147. 1233.41   4
  -3  -8   0 113405. 1497.98   1
  -3  -8   0 113219. 1370.01   2
   3  -9   0 41829.1 812.311   4
  -3   9   0 38906.9 919.060   3
  -3  -9   0 41556.9 952.782   1
  -3  -9   0 40782.3 989.849   4
  -3  -9   0 41621.9 624.991   5
  -3  -9   0 41290.2 840.434   2
   3  -9   0 39690.3 939.055   1
  -3 -10   0 59072.7 1231.28   1
   3 -10   0 54429.2 1169.91   1
  -3 -10   0 55648.6 1218.16   4
  -3  10   0 54318.6 1135.66   3
  -3 -10   0 55946.8 752.511   5
   3 -10   0 58903.1 1029.53   4
   3 -11   0 966.899 188.747   1
   3 -11   0 720.302 138.777   4
  -3 -11   0 570.718 86.6966   5
  -3 -11   0 763.829 174.487   4
  -3 -11   0 499.069 105.046   2
  -3  11   0 827.551 170.603   3
  -3 -11   0 875.887 173.283   1
   3 -12   0 1487.23 226.134   1
  -3  12   0 1397.41 215.762   3
  -3 -12   0 921.164 112.541   5
   3 -12   0 1197.99 175.755   4
  -3 -12   0 1662.17 246.226   1
  -3 -12   0 1386.68 227.003   4
   3 -13   0 71.7176 111.943   1
  -3  13   0-127.299 100.808   3
  -3 -13   0 81.7639 52.0933   5
  -3 -13   0 83.0832 95.9954   1
   3 -13   0 40.3165 78.1909   4
   3 -13   0 256.488 108.283   5
  -3 -13   0 123.413 114.843   4
   3 -14   0 8806.42 397.826   5
   3 -14   0 13330.6 709.695   1
  -3 -14   0 12399.5 668.490   4
  -3  14   0 11582.7 611.979   3
  -3 -14   0 12742.9 666.628   1
  -3 -14   0 8558.29 347.866   5
  -3  15   0 88.1770 100.565   3
  -3 -15   0 13.9628 46.6749   5
  -3 -15   0-21.2845 104.192   4
  -3 -15   0 78.7859 96.7052   1
   3 -15   0-106.023 147.006   1
   3 -15   0 61.6471 70.9597   5
   3 -16   0 4566.69 452.216   1
  -3  16   0 4213.62 389.538   3
  -3 -16   0 4383.32 440.097   4
   3 -16   0 5002.91 314.844   5
  -3 -16   0 4724.23 447.115   1
  -3 -16   0 3199.38 230.684   5
   3 -17   0 128.577 131.534   1
  -3 -17   0 135.305 112.980   4
  -3 -17   0-40.0003 126.697   1
   3 -17   0 377.094 120.606   5
  -3  17   0-138.491 123.713   3
  -3 -17   0 125.451 71.3094   5
  -3 -18   0 4619.81 297.418   5
   3 -18   0 4725.61 503.399   1
  -3 -18   0 4728.88 476.456   1
  -3  18   0 3568.66 385.514   3
  -3 -18   0 5099.72 514.737   4
   3 -19   0 859.416 242.034   1
  -3  19   0 744.094 195.001   3
  -3 -19   0 684.384 211.877   1
  -3 -19   0 1026.92 153.237   5
   3 -20   0 5471.06 552.176   1
  -3 -20   0 5382.79 560.609   1
  -3  20   0 4154.40 439.593   3
   3 -21   0 3483.62 477.059   1
  -3  21   0 2691.30 372.056   3
  -4   0   0 26581.1 642.692   3
  -4   0   0 27082.4 650.721   2
  -4  -1   0 6809.79 336.339   2
  -4  -1   0 6498.15 298.612   3
  -4   1   0 7484.75 356.111   3
  -4   1   0 7177.24 334.925   2
  -4  -2   0 164109. 1648.55   2
  -4  -2   0 161613. 1641.33   1
  -4  -2   0 164881. 1497.57   3
  -4  -3   0 27022.6 597.470   3
  -4   3   0 29288.9 745.862   3
  -4   3   0 28541.9 650.314   2
  -4  -3   0 26513.5 677.627   2
  -4  -3   0 27790.4 685.749   1
  -4  -4   0 8273.53 325.622   3
  -4  -4   0 8621.73 389.431   1
  -4   4   0 8954.62 378.636   2
  -4  -4   0 7926.69 382.628   2
  -4   4   0 8792.56 409.329   3
  -4  -4   0 7366.21 319.808   4
  -4  -5   0 51805.7 1007.67   1
  -4  -5   0 48505.2 884.141   4
  -4   5   0 51958.6 1020.88   3
  -4  -5   0 50876.8 970.723   2
   4  -5   0 51661.4 1019.66   1
  -4  -6   0 118066. 1540.52   1
  -4   6   0 116530. 1576.52   3
  -4   6   0 125447. 1344.96   2
  -4  -6   0 115246. 1488.18   2
   4  -6   0 121194. 1605.64   1
  -4  -6   0 112491. 1443.58   4
  -4   7   0 32991.2 712.515   2
  -4  -7   0 29835.4 801.589   1
   4  -7   0 30929.5 841.776   1
  -4   7   0 30457.3 829.627   3
  -4  -7   0 27974.2 751.689   2
  -4  -7   0 30607.1 557.919   5
  -4  -7   0 27830.6 765.326   4
  -4  -8   0 590.875 98.7948   3
  -4   8   0 708.968 139.967   3
  -4  -8   0 1086.12 170.833   4
  -4   8   0 1179.44 143.431   2
  -4  -8   0 943.036 160.936   1
  -4  -8   0 879.965 151.751   2
   4  -8   0 972.618 175.242   1
  -4  -8   0 857.211 95.6642   5
  -4   9   0 3589.14 310.247   3
  -4  -9   0 2686.59 176.484   5
  -4  -9   0 2660.22 201.569   3
  -4  -9   0 3489.68 295.195   1
   4  -9   0 3546.01 310.251   1
  -4  -9   0 3592.06 280.005   2
  -4  -9   0 3855.50 319.524   4
  -4  10   0 21964.8 784.057   3
  -4 -10   0 22190.7 756.042   1
  -4 -10   0 22605.3 599.423   3
  -4 -10   0 23696.8 817.443   4
  -4 -10   0 16663.6 450.102   5
   4 -10   0 21429.7 767.635   1
  -4 -10   0 16268.6 606.303   2
  -4 -11   0 2510.26 182.853   5
  -4  11   0 3306.90 322.882   3
  -4 -11   0 2655.90 251.023   2
  -4 -11   0 3531.46 318.280   1
   4 -11   0 3558.79 336.086   1
  -4 -11   0 3519.67 341.408   4
  -4 -12   0 52420.2 1099.50   2
   4 -12   0 49230.3 1260.40   1
  -4 -12   0 52220.3 1265.14   1
  -4  12   0 48962.2 1225.41   3
  -4 -12   0 51763.7 1311.66   4
  -4  13   0 10499.3 589.872   3
   4 -13   0 11044.6 631.722   1
  -4 -13   0 11600.4 419.682   5
  -4 -13   0 11153.2 631.504   4
  -4 -13   0 11844.3 621.349   1
   4 -14   0 285.687 156.162   1
  -4  14   0 309.909 124.056   3
  -4 -14   0 214.513 72.9081   5
  -4 -14   0 219.266 113.534   1
  -4 -14   0 484.972 172.954   4
   4 -15   0 3703.71 400.045   1
   4 -15   0 3204.26 266.597   5
  -4 -15   0 3766.54 406.936   4
  -4 -15   0 3987.62 398.168   1
  -4  15   0 4124.10 395.496   3
  -4 -15   0 2736.61 222.739   5
   4 -16   0 19683.7 975.523   1
  -4 -16   0 18601.3 870.861   1
  -4  16   0 17699.2 823.072   3
  -4 -16   0 18295.8 910.802   4
   4 -16   0 20459.5 675.531   5
   4 -17   0 2072.05 231.090   5
  -4 -17   0 2012.54 309.820   1
  -4 -17   0 2080.89 337.379   4
  -4 -17   0 1557.10 177.910   5
  -4  17   0 1630.49 280.233   3
   4 -17   0 2241.72 359.745   1
   4 -18   0 143.347 137.649   1
  -4 -18   0 335.435 100.283   5
  -4  18   0-73.0104 115.849   3
  -4 -18   0 289.389 127.467   1
  -4 -19   0 1226.44 289.476   1
   4 -19   0 1248.96 289.298   1
  -4  19   0 902.407 223.845   3
  -4 -19   0 1402.17 177.791   5
  -4 -20   0 88.0718 137.892   1
   4 -20   0 92.8954 128.732   1
  -4  20   0-88.2340 143.488   3
  -4  21   0 1396.34 287.509   3
   4 -21   0 1861.00 358.486   1
  -4 -21   0 1688.17 322.238   1
  -4  22   0 674.074 229.364   3
  -5   0   0 22.4758 49.1895   5
  -5   0   0 14.3628 59.6516   3
  -5   0   0-0.12570 44.0219   6
  -5   0   0-37.3520 72.0331   2
  -5  -1   0 553.367 120.154   2
  -5   1   0 570.740 119.983   2
  -5   1   0 658.579 89.4489   6
  -5   1   0 765.432 106.563   5
  -5  -1   0 763.072 101.737   6
  -5  -1   0 585.854 88.6538   5
  -5  -1   0 629.475 115.791   3
  -5   1   0 695.028 120.535   3
  -5   2   0 25749.0 529.515   6
  -5  -2   0 23078.3 694.511   2
  -5   2   0 24871.2 551.264   5
  -5   2   0 25612.2 752.940   3
  -5  -2   0 23710.9 650.434   3
  -5  -2   0 25543.5 546.713   5
  -5   2   0 24067.4 691.879   2
  -5   3   0 2937.79 182.119   6
  -5   3   0 2764.89 190.967   5
  -5  -3   0 2843.38 229.234   3
  -5  -3   0 2642.06 177.182   5
  -5  -3   0 2630.90 246.667   2
  -5  -3   0 2530.86 243.386   1
  -5   3   0 2532.11 241.606   3
  -5   3   0 3065.39 245.969   2
  -5  -4   0 22078.4 691.705   1
  -5  -4   0 21386.6 690.920   2
  -5   4   0 24139.3 548.207   5
  -5  -4   0 22227.0 605.919   3
  -5   4   0 23280.2 750.719   3
  -5  -4   0 23239.6 508.467   5
  -5   4   0 23164.0 503.480   6
  -5   4   0 25657.0 726.090   2
  -5   5   0 855.062 143.501   2
  -5  -5   0 790.424 142.391   1
  -5   5   0 859.316 102.941   6
  -5  -5   0 509.126 97.9923   3
  -5   5   0 850.774 162.084   3
  -5  -5   0 687.499 120.346   4
  -5  -5   0 876.656 166.261   2
  -5   5   0 1090.97 139.977   5
  -5  -5   0 940.968 115.523   5
  -5   6   0 37.2359 47.0487   6
  -5  -6   0 30.5136 43.5794   5
   5  -6   0-26.5949 91.6621   1
  -5  -6   0-20.2864 58.3238   4
  -5   6   0 128.964 75.4419   2
  -5   6   0 38.4801 90.6293   3
  -5  -6   0 153.197 99.6482   1
  -5  -6   0 45.4182 71.5120   2
  -5  -6   0 35.1562 54.7598   3
  -5  -7   0 6022.45 365.449   4
  -5   7   0 5842.58 404.062   3
  -5  -7   0 4200.44 233.421   5
  -5  -7   0 4027.57 266.473   3
  -5   7   0 6068.04 338.700   2
  -5   7   0 5805.72 254.554   6
  -5  -7   0 5888.13 400.845   1
   5  -7   0 5874.66 405.180   1
  -5  -7   0 5591.07 375.150   2
  -5  -8   0 50360.8 1120.49   2
  -5   8   0 50674.8 1196.29   3
   5  -8   0 51836.9 1199.30   1
  -5   8   0 51243.5 752.485   6
  -5  -8   0 54439.3 1230.24   1
  -5  -8   0 52450.5 941.634   3
  -5  -8   0 48540.6 1082.01   4
  -5   9   0 11753.0 363.827   6
   5  -9   0 12330.5 604.968   1
  -5  -9   0 11124.8 545.498   4
  -5  -9   0 12040.5 577.983   1
  -5   9   0 10974.2 582.380   3
  -5  -9   0 11758.7 556.234   2
  -5   9   0 13236.2 509.241   2
  -5  -9   0 12346.7 408.850   5
  -5  10   0 42665.6 1176.46   3
  -5 -10   0 41780.6 1105.57   4
  -5  10   0 44290.5 704.781   6
  -5 -10   0 46392.2 808.926   5
   5 -10   0 44917.9 1173.48   1
  -5 -10   0 46917.6 1111.67   2
  -5 -10   0 46594.0 1176.33   1
  -5 -11   0 325.449 89.6477   5
  -5  11   0 605.862 201.308   3
  -5 -11   0 239.552 114.778   1
  -5 -11   0 414.242 135.137   4
  -5 -11   0 286.634 113.458   2
   5 -11   0 217.256 113.891   1
  -5 -12   0 2357.89 197.682   5
  -5 -12   0 1826.20 267.865   4
  -5 -12   0 2243.57 283.325   1
  -5  12   0 2216.83 290.747   3
   5 -12   0 2483.17 309.896   1
  -5 -12   0 2102.13 257.179   2
  -5 -13   0 15116.0 760.027   4
  -5 -13   0 16629.4 519.891   5
  -5  13   0 14999.0 744.847   3
  -5 -13   0 16584.2 763.250   1
   5 -13   0 16056.5 783.021   1
  -5 -14   0 1094.03 218.764   1
  -5 -14   0 803.153 124.806   5
   5 -14   0 1044.84 243.657   1
  -5 -14   0 803.518 202.643   4
  -5  14   0 681.151 195.699   3
  -5  15   0 22800.1 962.179   3
   5 -15   0 24591.2 1031.90   1
  -5 -15   0 25184.8 676.081   5
  -5 -15   0 24206.6 983.298   1
  -5 -15   0 25706.1 1062.71   4
  -5  16   0 976.593 230.379   3
  -5 -16   0 661.801 122.238   5
  -5 -16   0 967.307 219.531   1
   5 -16   0 861.423 238.835   1
  -5  17   0 10201.4 694.930   3
   5 -17   0 10301.5 740.125   1
  -5 -17   0 10501.5 688.841   1
   5 -18   0 746.760 230.128   1
  -5  18   0 822.668 231.434   3
  -5 -18   0 613.574 204.720   1
  -5 -18   0 606.978 132.545   5
  -5  19   0 708.948 243.955   3
   5 -19   0 112.369 168.827   1
  -5 -19   0 420.513 117.103   5
  -5 -19   0 351.861 163.496   1
  -5 -20   0 465.529 186.787   1
   5 -20   0 349.416 224.846   1
  -5  20   0 866.148 240.900   3
  -5  21   0 6961.00 629.727   3
  -6   0   0 1001.06 173.655   3
  -6   0   0 650.405 143.027   2
  -6   0   0 841.526 122.755   5
  -6   0   0 968.353 125.440   6
  -6   1   0 36550.9 700.882   6
  -6   1   0 31244.5 679.266   5
  -6   1   0 38629.8 989.884   3
  -6  -1   0 35952.5 913.827   3
  -6  -1   0 35445.1 699.747   5
  -6  -1   0 34932.7 943.677   2
  -6  -1   0 28439.6 621.248   6
  -6   1   0 34516.7 922.702   2
  -6  -2   0 2242.79 180.098   6
  -6   2   0 3026.49 285.889   3
  -6   2   0 2817.62 200.815   6
  -6  -2   0 2791.86 271.949   2
  -6   2   0 3172.67 285.374   2
  -6  -2   0 2835.82 256.650   3
  -6  -2   0 2771.64 201.331   5
  -6   2   0 2210.35 186.374   5
  -6  -3   0 41639.7 934.123   3
  -6   3   0 42050.7 998.491   2
  -6  -3   0 31362.9 686.631   5
  -6   3   0 30918.9 644.203   6
  -6   3   0 30513.8 668.275   5
  -6  -3   0 38752.6 1019.10   2
  -6  -3   0 32118.5 659.162   6
  -6   3   0 44401.9 1109.26   3
  -6   4   0 11379.5 541.891   2
  -6  -4   0 9817.59 516.016   2
  -6  -4   0 7465.89 320.445   6
  -6  -4   0 9263.80 503.975   1
  -6   4   0 7366.34 316.898   6
  -6   4   0 7842.00 341.652   5
  -6  -4   0 6797.08 377.062   3
  -6   4   0 10392.5 543.937   3
  -6  -4   0 8303.92 346.917   5
  -6   5   0 29927.8 675.535   5
  -6   5   0 28117.4 615.517   6
  -6  -5   0 25292.3 712.463   3
  -6  -5   0 27704.4 609.248   6
  -6  -5   0 36923.4 1006.97   2
  -6  -5   0 36538.5 992.556   1
  -6  -5   0 39774.9 730.820   5
  -6   5   0 38355.7 1047.52   3
  -6   5   0 40874.0 1007.88   2
  -6   6   0 1333.34 201.807   2
  -6  -6   0 1354.17 207.549   2
  -6  -6   0 1177.61 130.794   6
  -6  -6   0 1168.23 159.563   3
  -6  -6   0 1480.14 212.297   1
  -6   6   0 1456.88 236.091   3
  -6  -6   0 1535.83 154.513   5
  -6   6   0 1153.23 133.335   6
  -6  -7   0 38287.7 1052.29   2
   6  -7   0 40760.3 1152.91   1
  -6   7   0 40742.7 742.625   6
  -6   7   0 42250.3 988.793   2
  -6  -7   0 40675.5 1101.89   1
  -6  -7   0 39601.3 885.436   3
  -6   7   0 40393.3 1178.79   3
  -6  -7   0 40290.2 765.523   5
  -6  -8   0 70.1130 57.0647   6
  -6   8   0 146.151 99.5059   2
  -6  -8   0 159.127 118.544   1
  -6  -8   0 191.114 75.9381   5
  -6  -8   0 79.4013 119.793   2
  -6   8   0-60.2658 63.9963   6
  -6  -8   0 199.487 110.679   4
   6  -8   0 416.714 155.720   1
  -6   8   0 172.334 133.192   3
  -6  -9   0-71.9130 86.6185   2
  -6  -9   0 53.0255 99.2240   1
  -6  -9   0-53.9031 80.6484   6
  -6   9   0-35.5868 47.3145   6
   6  -9   0 42.7379 122.987   1
  -6   9   0-27.0751 105.763   3
  -6  -9   0 77.6358 73.5368   5
  -6  -9   0-1.02785 84.3084   4
  -6  10   0 8661.57 569.637   3
  -6 -10   0 10368.8 615.829   1
   6 -10   0 8909.65 569.183   1
  -6 -10   0 9019.49 538.883   4
  -6 -10   0 9366.06 402.573   5
  -6  10   0 9689.67 365.673   6
  -6 -10   0 8915.13 542.032   2
  -6 -11   0 12693.5 685.464   1
  -6 -11   0 12055.9 465.641   5
  -6 -11   0 11608.1 617.169   2
   6 -11   0 12074.9 668.999   1
  -6  11   0 12062.4 412.791   6
  -6  11   0 10733.3 641.291   3
  -6 -12   0 19473.1 855.386   1
   6 -12   0 18731.9 844.531   1
  -6 -12   0 18941.1 798.269   2
  -6  12   0 18938.4 870.447   3
  -6 -12   0 19562.4 613.541   5
  -6 -13   0 1141.37 233.081   1
   6 -13   0 1259.73 259.189   1
  -6 -13   0 1606.23 250.523   2
  -6 -13   0 1580.95 183.184   5
  -6  13   0 938.201 239.420   3
  -6 -14   0 9506.40 636.353   1
  -6  14   0 9529.66 651.795   3
  -6 -14   0 10268.2 459.444   5
   6 -14   0 8915.28 628.769   1
   6 -15   0 1850.49 331.102   1
  -6  15   0 2170.81 334.731   3
  -6 -15   0 1795.71 206.902   5
  -6 -15   0 1446.87 264.682   1
  -6 -16   0 589.786 133.506   5
   6 -16   0 476.480 181.354   1
  -6 -16   0 493.991 181.511   1
  -6  16   0 735.539 229.683   3
  -6 -17   0 6185.88 571.015   1
   6 -17   0 5433.71 552.339   1
  -6  17   0 5679.13 544.556   3
  -6 -17   0 6286.50 386.379   5
  -6 -18   0 10429.3 505.474   5
   6 -18   0 6062.35 598.925   1
  -6  18   0 6660.69 601.077   3
  -6 -18   0 10423.4 732.844   1
  -6 -19   0 3178.16 433.533   1
  -6  19   0 3390.78 450.081   3
  -6 -19   0 3416.57 305.404   5
   6 -19   0 3166.98 487.599   1
  -6 -20   0 83.7180 90.3340   5
  -7   0   0 32.5882 78.3613   3
  -7   0   0 32.5007 77.1010   5
  -7   0   0 66.5971 65.7747   6
  -7   0   0-71.9344 113.949   2
  -7  -1   0 27545.0 674.650   5
  -7  -1   0 24776.8 868.523   2
  -7   1   0 27838.3 680.823   5
  -7   1   0 28634.3 676.903   6
  -7   1   0 27252.9 894.104   3
  -7   1   0 25890.4 879.235   2
  -7  -1   0 27763.4 867.173   3
  -7  -1   0 28198.8 679.995   6
  -7   2   0 11626.8 446.054   5
  -7   2   0 11017.9 423.924   6
  -7  -2   0 10916.2 423.602   6
  -7   2   0 10696.2 558.277   2
  -7  -2   0 11131.0 426.401   5
  -7  -2   0 10042.2 567.327   2
  -7   2   0 10699.8 582.593   3
  -7  -3   0 104243. 1316.59   5
  -7   3   0 101863. 1272.21   6
  -7   3   0 104882. 1831.98   3
  -7  -3   0 102153. 1271.43   6
  -7   3   0 107512. 1371.20   5
  -7   3   0 101760. 1732.29   2
  -7  -4   0 10.6225 69.7018   6
  -7   4   0 36.0391 80.2900   5
  -7  -4   0 34.8839 85.2025   3
  -7   4   0 53.1733 104.251   2
  -7   4   0 134.780 85.8781   6
  -7  -4   0 104.607 75.8922   5
  -7   4   0 228.633 95.4339   3
  -7  -4   0 97.5104 95.4394   2
  -7  -5   0 18009.9 766.884   1
  -7  -5   0 19238.3 558.674   6
  -7   5   0 19608.2 562.479   6
  -7   5   0 19417.7 601.713   5
  -7   5   0 19230.4 826.408   3
  -7  -5   0 18844.8 676.484   3
  -7  -5   0 19072.3 582.652   5
  -7  -5   0 17487.6 763.670   2
  -7   5   0 19515.9 767.856   2
  -7  -6   0 21891.9 870.694   2
  -7   6   0 24674.3 851.873   2
  -7  -6   0 23936.6 650.313   5
  -7  -6   0 22545.5 864.525   1
  -7   6   0 24127.6 627.783   6
  -7  -6   0 23751.3 620.472   6
  -7   6   0 24679.7 936.581   3
  -7  -7   0 2594.46 214.482   6
   7  -7   0 3409.97 376.709   1
  -7   7   0 3572.81 329.033   2
  -7  -7   0 3584.18 253.300   5
  -7  -7   0 3497.15 355.218   2
  -7   7   0 3664.45 249.827   6
  -7   7   0 3419.45 363.165   3
  -7  -7   0 3895.16 371.145   1
  -7   8   0 19472.3 566.562   6
  -7   8   0 21434.5 785.358   2
  -7  -8   0 18362.4 806.270   2
  -7  -8   0 19942.9 849.682   1
  -7   8   0 18495.4 842.544   3
   7  -8   0 18922.7 840.279   1
  -7  -8   0 19559.2 591.335   5
  -7  -9   0 2350.06 216.618   5
  -7   9   0 2134.31 194.869   6
  -7  -9   0 2360.11 200.120   6
  -7   9   0 2304.46 317.228   3
  -7  -9   0 2780.26 336.563   1
  -7  -9   0 2076.57 285.270   2
   7  -9   0 2091.54 302.007   1
   7 -10   0 992.560 228.681   1
  -7 -10   0 1079.29 239.365   1
  -7 -10   0 1181.32 159.398   5
  -7  10   0 1242.01 237.055   3
  -7  10   0 1320.96 161.123   6
  -7 -10   0 903.956 193.401   2
  -7  11   0 165.740 61.5490   6
  -7 -11   0 51.5414 92.1331   2
   7 -11   0 304.361 162.386   1
  -7 -11   0 190.883 142.577   1
  -7 -11   0 164.554 90.5333   5
  -7  11   0 287.219 155.146   3
  -7 -12   0 3632.78 280.096   5
   7 -12   0 2615.10 350.322   1
  -7  12   0 2980.93 384.803   3
  -7 -12   0 3024.38 374.043   1
  -7 -13   0 7912.85 570.887   2
  -7 -13   0 10196.3 477.546   5
  -7 -13   0 9523.46 660.612   1
   7 -13   0 8235.10 614.178   1
  -7  13   0 8829.59 659.343   3
  -7 -14   0 3111.60 276.447   5
  -7  14   0 2307.87 361.999   3
  -7 -14   0 2821.08 380.852   1
   7 -14   0 2741.88 378.087   1
  -7 -15   0 9770.63 724.142   1
  -7  15   0 8367.18 664.097   3
  -7 -15   0 9707.15 486.359   5
   7 -15   0 8395.88 659.530   1
  -7 -16   0 324.189 142.266   1
  -7 -16   0 342.999 117.837   5
  -7  16   0 373.209 173.802   3
   7 -16   0 477.388 194.373   1
   7 -17   0 164.008 132.374   1
  -7 -17   0 539.161 192.381   1
  -7  17   0 167.488 149.902   3
  -7 -17   0 527.435 138.477   5
   7 -18   0 294.023 169.782   1
  -7  18   0-106.739 129.957   3
  -7 -18   0-98.8338 98.8154   5
  -7 -18   0 182.934 138.305   1
  -7 -19   0 1299.31 214.313   5
  -7 -20   0 1200.56 212.344   5
  -8   0   0 43340.1 907.558   6
  -8   0   0 43841.5 927.124   5
  -8   0   0 42218.0 1183.61   3
  -8   1   0 18853.0 780.357   3
  -8   1   0 20346.1 622.949   6
  -8  -1   0 20530.9 637.404   5
  -8  -1   0 19570.9 797.263   3
  -8   1   0 17689.9 784.927   2
  -8  -1   0 19035.7 599.157   6
  -8   1   0 20021.7 631.746   5
  -8  -1   0 18227.6 818.423   2
  -8   2   0 583.839 139.427   5
  -8  -2   0 315.526 94.5202   5
  -8   2   0 479.089 153.194   3
  -8  -2   0 551.639 115.326   6
  -8  -2   0 400.909 140.560   3
  -8   2   0 514.010 105.259   6
  -8  -2   0 297.813 112.683   2
  -8   2   0 353.026 120.060   2
  -8  -3   0 3635.11 275.053   5
  -8  -3   0 3935.56 277.697   6
  -8   3   0 4219.66 289.801   6
  -8   3   0 3923.60 295.718   5
  -8   3   0 3723.40 381.369   2
  -8   3   0 4264.96 407.706   3
  -8  -3   0 3504.92 336.241   3
  -8  -3   0 3263.65 359.208   2
  -8   4   0 7157.38 510.218   2
  -8   4   0 7247.57 380.935   6
  -8   4   0 6762.61 384.731   5
  -8  -4   0 6773.19 366.645   5
  -8  -4   0 5881.90 475.367   2
  -8  -4   0 6727.10 362.862   6
  -8   4   0 5835.42 484.247   3
  -8  -4   0 5959.56 422.988   3
  -8   5   0 23149.3 691.325   5
  -8  -5   0 22977.5 692.413   5
  -8   5   0 21533.0 943.376   3
  -8   5   0 22637.0 899.324   2
  -8   5   0 22152.8 650.299   6
  -8  -5   0 21309.0 910.049   2
  -8  -5   0 21581.5 641.549   6
  -8  -6   0 6568.41 360.591   6
  -8  -6   0 6540.48 520.917   2
  -8   6   0 6046.01 459.103   2
  -8   6   0 6491.77 358.954   6
  -8  -6   0 6814.40 382.061   5
  -8   6   0 6670.19 540.522   3
  -8  -7   0 40683.2 891.519   6
  -8   7   0 42629.7 1372.96   3
  -8   7   0 43288.2 1197.11   2
  -8  -7   0 39451.2 1247.03   1
   8  -7   0 39173.0 1272.51   1
  -8   7   0 42740.7 906.195   6
  -8  -7   0 44197.6 972.877   5
  -8  -7   0 40936.8 1283.79   2
   8  -8   0 3098.51 369.929   1
  -8   8   0 3418.48 352.167   2
  -8  -8   0 3390.37 379.903   1
  -8   8   0 3037.99 385.102   3
  -8   8   0 3346.86 260.618   6
  -8  -8   0 2482.36 229.897   6
  -8  -8   0 3844.48 304.252   5
  -8  -8   0 2855.52 350.496   2
  -8  -9   0 5115.37 468.270   1
  -8   9   0 4946.66 485.365   3
  -8  -9   0 4961.10 336.156   5
   8  -9   0 4074.94 432.541   1
  -8   9   0 5225.00 320.409   6
  -8  -9   0 3786.18 276.888   6
  -8  -9   0 4914.34 465.618   2
  -8  10   0 2371.42 218.378   6
  -8 -10   0 2245.16 324.384   1
  -8  10   0 2087.24 311.720   3
  -8 -10   0 2174.53 230.408   5
   8 -10   0 2052.32 327.220   1
  -8 -10   0 1889.75 304.359   2
  -8 -11   0 4649.91 332.648   5
   8 -11   0 4038.67 462.800   1
  -8 -11   0 4778.31 481.230   1
  -8  11   0 4858.04 314.602   6
  -8 -11   0 4464.57 462.378   2
  -8  11   0 4040.29 445.167   3
  -8 -12   0 90.6609 78.3058   5
  -8 -12   0-19.8450 96.7703   1
  -8  12   0 48.5528 109.346   3
   8 -12   0 44.1156 133.663   1
  -8 -12   0 90.8468 102.707   2
  -8 -13   0 2459.55 361.504   1
  -8  13   0 2430.43 378.998   3
   8 -13   0 2385.21 368.781   1
  -8 -13   0 1703.88 299.045   2
  -8 -13   0 2994.57 278.280   5
  -8 -14   0 26.2200 81.9503   5
   8 -14   0 175.203 140.824   1
  -8  14   0 116.375 146.390   3
  -8 -14   0-111.420 120.325   1
  -8  15   0 2097.09 366.258   3
   8 -15   0 1908.40 345.213   1
  -8 -15   0 2731.28 393.020   1
  -8 -16   0 72.8162 86.7522   5
  -8 -16   0 279.053 165.934   1
   8 -16   0 392.976 215.261   1
  -8  16   0 128.400 143.974   3
  -8 -17   0 4416.97 360.167   5
  -8 -18   0 40.1055 90.9820   5
  -8 -19   0 383.724 141.166   5
  -8 -20   0 1843.50 261.693   5
  -9   0   0 79.0261 84.5245   3
  -9   0   0 34.2436 90.8850   5
  -9   0   0-56.3371 82.6972   6
  -9   0   0-82.3187 117.054   2
  -9  -1   0 1487.39 192.459   6
  -9   1   0 1395.51 196.516   5
  -9  -1   0 888.919 191.666   3
  -9   1   0 1057.27 225.350   3
  -9  -1   0 1356.78 249.484   2
  -9   1   0 1444.96 187.880   6
  -9  -1   0 1157.07 189.210   5
  -9   1   0 1458.94 265.193   2
  -9  -2   0 1818.43 303.886   2
  -9   2   0 1767.31 272.926   3
  -9   2   0 1875.18 208.573   6
  -9   2   0 1946.68 229.641   5
  -9  -2   0 1805.39 291.656   3
  -9   2   0 1380.43 252.047   2
  -9  -2   0 1645.66 201.853   6
  -9  -2   0 1875.78 224.489   5
  -9   3   0 13274.3 741.587   3
  -9   3   0 15482.3 610.510   5
  -9  -3   0 13743.6 772.022   2
  -9   3   0 14935.5 577.776   6
  -9  -3   0 14582.6 566.787   6
  -9   3   0 14270.7 784.738   2
  -9  -3   0 14689.4 579.019   5
  -9   4   0 2397.45 241.030   6
  -9   4   0 2402.50 252.580   5
  -9   4   0 2342.30 342.620   3
  -9  -4   0 2242.06 239.296   5
  -9  -4   0 2329.59 241.325   6
  -9  -4   0 2134.91 324.162   2
  -9   4   0 2295.76 337.787   2
  -9  -5   0 16640.1 871.288   2
  -9   5   0 17404.8 900.905   3
  -9   5   0 18657.4 676.646   5
  -9  -5   0 18590.6 647.237   6
  -9   5   0 17990.4 865.865   2
  -9  -5   0 18442.6 655.811   5
  -9   5   0 18968.4 653.874   6
  -9   6   0 88.3587 86.7828   6
  -9  -6   0 17.3742 76.0393   5
  -9  -6   0-4.00445 81.3972   6
  -9  -6   0-115.652 174.178   2
  -9   6   0 169.148 132.631   2
  -9   6   0-63.1272 154.274   3
  -9  -7   0 112.553 97.7299   6
  -9   7   0 14.0363 121.175   3
  -9  -7   0-18.6373 106.247   5
  -9   7   0 85.2592 100.254   6
   9  -7   0 1.62886 122.337   1
  -9   7   0-27.6718 117.323   2
  -9  -7   0 96.5493 129.172   2
  -9  -8   0 509.806 176.472   2
  -9   8   0 192.778 153.835   3
  -9  -8   0 516.333 114.585   6
   9  -8   0 505.359 208.633   1
  -9  -8   0 568.887 154.840   5
  -9   8   0 570.125 130.511   6
  -9   9   0 8093.90 430.823   6
  -9  -9   0 7024.67 590.529   2
  -9  -9   0 7998.32 429.788   6
  -9   9   0 7693.50 641.863   3
  -9  -9   0 8315.35 480.438   5
   9  -9   0 6801.19 584.057   1
  -9  -9   0 6947.29 578.195   1
   9 -10   0 58.5540 120.550   1
  -9  10   0 353.635 121.751   6
  -9 -10   0 272.133 141.706   2
  -9 -10   0 247.243 107.064   5
  -9  10   0 287.961 165.037   3
  -9 -10   0 209.985 149.550   1
  -9  11   0 438.156 119.450   6
  -9 -11   0 398.582 129.255   5
  -9 -11   0 621.147 206.732   1
  -9  11   0 393.758 174.559   3
   9 -11   0 322.838 139.797   1
  -9 -11   0 143.550 138.343   2
   9 -12   0-40.4169 110.640   1
  -9 -12   0 43.1796 83.6266   5
  -9  12   0 43.8858 103.149   6
  -9 -12   0 148.972 159.548   1
  -9  12   0 42.4889 150.096   3
  -9 -12   0-140.028 125.928   2
  -9 -13   0 11805.2 571.884   5
  -9 -13   0 11265.9 767.881   1
  -9  13   0 10559.7 784.268   3
  -9 -13   0 10191.4 748.186   2
  -9 -14   0 56.4777 98.6682   5
  -9 -14   0 19.6042 122.639   1
   9 -14   0-10.6694 134.200   1
  -9 -15   0 19708.1 761.756   5
  -9 -16   0 246.785 124.429   5
  -9 -17   0 788.076 181.710   5
  -9 -18   0 253.335 109.458   5
  -9 -19   0 1833.62 262.478   5
  -9 -20   0 795.941 186.960   5
 -10   0   0 4291.47 471.042   2
 -10   0   0 4598.01 350.875   6
 -10   0   0 4620.99 365.912   5
 -10   0   0 3640.17 412.357   3
 -10  -1   0 6096.67 411.292   5
 -10   1   0 5498.19 532.141   2
 -10  -1   0 6064.15 398.661   6
 -10   1   0 6185.68 410.125   5
 -10  -1   0 6185.67 576.825   2
 -10   1   0 5965.72 396.586   6
 -10  -2   0 65.4301 87.0119   5
 -10   2   0-18.6398 116.089   5
 -10   2   0 43.3432 84.2594   6
 -10  -2   0 86.7507 129.461   2
 -10   2   0 86.0365 132.612   2
 -10  -2   0 3.29713 92.6853   6
 -10   2   0-20.7510 105.032   3
 -10   3   0 829.721 180.866   5
 -10  -3   0 677.205 141.818   6
 -10  -3   0 644.103 152.021   5
 -10   3   0 686.358 162.545   6
 -10   3   0 652.026 198.631   2
 -10  -3   0 446.580 166.900   2
 -10   3   0 523.752 185.911   3
 -10   4   0 1826.85 230.918   6
 -10   4   0 1951.95 254.246   5
 -10   4   0 1775.46 302.493   3
 -10  -4   0 1680.17 304.285   2
 -10   4   0 2091.53 332.136   2
 -10  -4   0 1749.57 242.032   6
 -10  -4   0 1839.03 246.734   5
 -10   5   0 26537.2 859.835   5
 -10  -5   0 22978.1 1092.91   2
 -10  -5   0 27964.5 859.370   6
 -10   5   0 25109.4 1132.84   3
 -10  -5   0 26547.7 839.096   5
 -10   5   0 24278.5 785.168   6
 -10  -6   0 5.08951 83.2961   5
 -10   6   0 100.455 93.1629   6
 -10  -6   0 81.0898 105.487   6
 -10  -6   0-69.3745 128.215   2
 -10   6   0-75.2135 143.186   3
 -10   6   0 74.6079 124.435   2
 -10   7   0 3794.95 472.751   3
 -10  -7   0 4332.71 350.390   5
 -10  -7   0 2898.05 405.361   2
 -10  -7   0 4330.72 350.341   6
  10  -7   0 4301.33 492.146   1
 -10   7   0 4592.14 341.800   6
 -10  -8   0-13.6712 125.215   2
 -10   8   0 280.147 177.472   3
 -10   8   0 176.968 108.805   6
 -10  -8   0 22.4429 87.5554   5
 -10  -8   0 136.328 90.7894   6
  10  -8   0 295.159 187.799   1
 -10  -9   0 2041.54 359.981   2
 -10   9   0 2105.75 236.689   6
  10  -9   0 1212.89 266.082   1
 -10  -9   0 1999.27 248.093   6
 -10   9   0 2048.60 372.468   3
 -10  -9   0 1863.96 239.341   5
 -10  10   0-18.1982 85.9676   6
  10 -10   0 49.8422 145.077   1
 -10 -10   0 33.2786 129.030   2
 -10  10   0-4.22866 161.759   3
 -10 -10   0 34.8923 118.438   5
 -10 -11   0 8909.12 539.304   5
 -10  11   0 6714.18 663.936   3
 -10  11   0 8306.22 465.368   6
 -10 -11   0 6932.20 627.150   1
 -10 -11   0 7081.88 649.680   2
  10 -11   0 7999.85 690.154   1
 -10  12   0 46.4121 97.6194   6
 -10 -12   0 66.0173 118.447   2
 -10 -12   0-37.3082 112.322   5
 -10 -13   0 2779.22 319.674   5
 -10 -14   0 1125.30 223.100   5
 -10 -15   0 2562.92 311.832   5
 -10 -16   0 1572.20 272.731   5
 -10 -17   0 4809.85 432.026   5
 -10 -18   0-90.9057 94.6663   5
 -10 -19   0 1773.76 279.255   5
 -10 -20   0-71.3450 121.065   5
 -11   0   0 55.3590 96.1172   5
 -11   0   0 71.5716 119.901   2
 -11   0   0-7.86916 103.303   6
 -11   1   0 2911.90 417.353   2
 -11   1   0 4720.48 376.748   6
 -11   1   0 4750.00 391.532   5
 -11  -1   0 4909.57 393.059   5
 -11  -1   0 4713.10 375.166   6
 -11  -1   0 2662.95 400.598   2
 -11   2   0 845.208 194.138   5
 -11  -2   0 717.294 167.774   6
 -11   2   0 799.771 165.920   6
 -11  -2   0 917.981 272.434   2
 -11   2   0 616.889 227.798   2
 -11  -2   0 848.879 200.343   5
 -11   2   0 598.691 220.884   3
 -11   3   0 18072.0 753.829   5
 -11   3   0 17185.6 709.331   6
 -11  -3   0 18074.9 1040.95   2
 -11  -3   0 17299.8 732.424   5
 -11   3   0 16351.6 936.503   3
 -11  -3   0 17123.0 710.347   6
 -11   3   0 16652.6 953.439   2
 -11   4   0 204.100 138.491   5
 -11   4   0 129.867 130.756   6
 -11   4   0 118.644 157.101   3
 -11  -4   0 157.343 125.739   5
 -11   4   0-98.6146 133.266   2
 -11  -4   0 185.242 170.364   2
 -11  -4   0 193.532 144.610   6
 -11  -5   0 7084.83 479.319   5
 -11   5   0 6722.45 442.907   6
 -11   5   0 5739.03 550.048   2
 -11  -5   0 7180.50 473.478   6
 -11  -5   0 6241.35 640.506   2
 -11   5   0 5724.86 578.457   3
  11  -6   0 44.6077 131.663   1
 -11   6   0-101.083 114.196   2
 -11  -6   0 178.826 133.257   5
 -11  -6   0 223.051 107.130   6
 -11  -6   0 74.9347 168.495   2
 -11   6   0 155.777 123.328   6
 -11   6   0 241.941 117.591   3
  11  -7   0 956.107 258.921   1
 -11   7   0 891.927 187.499   6
 -11  -7   0 625.431 166.472   6
 -11   7   0 747.229 230.692   3
 -11  -7   0 912.906 203.291   5
 -11  -8   0 61.5957 99.2573   5
 -11   8   0 60.0191 101.335   6
 -11  -8   0-14.0889 110.826   6
 -11  -9   0 6520.59 469.302   5
 -11   9   0 6674.57 443.433   6
 -11  -9   0 7318.91 473.822   6
 -11  10   0 1487.91 230.430   6
 -11 -10   0 1543.69 250.051   5
 -11 -11   0 35.2842 97.1125   5
 -11  11   0 30.4076 94.4880   6
 -11 -12   0 3687.44 365.311   5
 -11  12   0 3983.54 347.759   6
 -11 -13   0 4143.71 404.138   5
 -11 -14   0 1752.61 274.006   5
 -11 -15   0 2553.11 326.650   5
 -11 -16   0 75.5016 108.852   5
 -11 -17   0 12.5157 83.3545   5
 -11 -18   0 1099.91 241.058   5
 -11 -19   0 251.161 144.806   5
 -12   0   0 147.543 142.802   6
 -12   0   0 8.45623 129.149   5
 -12  -1   0 5158.82 425.743   6
 -12  -1   0 4527.48 406.917   5
 -12   1   0 4431.33 393.041   6
 -12   1   0 5036.26 435.461   5
 -12   2   0 108.683 131.170   5
 -12   2   0 122.639 105.075   6
 -12  -2   0 267.630 134.297   5
 -12  -2   0 259.895 152.581   6
 -12  -3   0 777.440 197.847   6
 -12   3   0 906.675 194.974   6
 -12  -3   0 842.873 206.435   5
 -12   3   0 952.642 224.723   5
 -12  -4   0 171.920 162.271   6
 -12  -4   0 31.2331 113.451   5
 -12   4   0 244.319 128.216   6
 -12  -5   0 6506.27 483.761   5
 -12   5   0 6335.59 453.996   6
 -12  -5   0 6525.81 479.667   6
 -12   6   0 24.0236 109.951   6
 -12  -6   0-107.277 146.750   6
 -12  -6   0 195.259 128.411   5
 -12   7   0 3602.73 356.680   6
 -12  -7   0 3888.73 367.845   6
 -12  -7   0 4436.19 410.825   5
 -12   8   0 904.900 198.701   6
 -12  -8   0 720.169 198.472   5
 -12  -8   0 548.388 159.565   6
 -12  -9   0 244.470 150.263   5
 -12   9   0 366.455 142.600   6
 -12  -9   0 144.793 125.712   6
 -12  10   0 453.509 153.070   6
 -12 -10   0 355.414 141.073   5
 -12  11   0 661.522 173.782   6
 -12 -11   0 952.997 214.920   5
 -12 -12   0 1842.80 291.867   5
 -12 -13   0 1358.37 247.462   5
 -12 -14   0 1573.14 264.461   5
 -12 -15   0 41.5206 87.3872   5
 -12 -16   0 62.4529 95.8189   5
 -12 -17   0 1072.58 230.781   5
 -13   0   0 195.792 147.440   5
 -13   0   0 10.7092 112.008   6
 -13   1   0 1096.23 222.183   6
 -13   1   0 1053.34 248.113   5
 -13  -1   0 1134.39 237.215   5
 -13  -1   0 1236.91 237.635   6
 -13   2   0 664.472 191.343   6
 -13  -2   0 594.023 189.386   6
 -13   2   0 564.650 203.987   5
 -13  -2   0 309.166 150.704   5
 -13  -3   0 2761.42 352.747   5
 -13   3   0 2938.57 356.748   5
 -13  -3   0 2805.08 348.205   6
 -13   3   0 2942.40 347.501   6
 -13   4   0 109.820 111.450   6
 -13  -4   0-105.412 160.911   6
 -13  -4   0 138.979 159.033   5
 -13  -5   0-21.2956 154.721   6
 -13   5   0-54.6429 107.812   6
 -13  -5   0 70.8584 116.719   5
 -13  -6   0 2392.42 310.190   6
 -13   6   0 2396.11 310.198   6
 -13  -6   0 2581.36 343.856   5
 -13  -7   0 1447.16 271.208   5
 -13   7   0 1595.92 261.262   6
 -13  -7   0 1435.88 254.898   6
 -13   8   0 2651.99 327.915   6
 -13  -8   0 3361.12 376.610   5
 -13  -9   0 1773.19 292.700   5
 -13   9   0 1616.12 258.227   6
 -13 -10   0 735.955 205.340   5
 -13  10   0 661.133 183.056   6
 -13  11   0 438.196 162.666   6
 -13 -11   0 492.462 183.608   5
 -13 -12   0 99.7509 143.788   5
 -13 -13   0 546.621 185.689   5
 -13 -14   0 109.823 120.139   5
 -14   0   0 1440.11 259.952   6
 -14   0   0 1298.50 258.161   5
 -14  -1   0-123.511 149.983   6
 -14  -1   0 60.0928 132.824   5
 -14   1   0 129.675 146.589   5
 -14   1   0 61.8646 126.110   6
 -14   2   0 1319.44 265.275   6
 -14  -2   0 1116.98 255.396   5
 -14  -2   0 1136.70 241.336   6
 -14  -3   0 955.960 224.393   6
 -14   3   0 1257.15 253.593   6
 -14  -3   0 1300.05 259.255   5
 -14  -4   0 34.3409 129.232   5
 -14   4   0 116.656 114.870   6
 -14  -4   0 113.527 130.890   6
 -14   5   0 1345.22 245.131   6
 -14  -5   0 2216.14 328.836   5
 -14  -5   0 1953.70 294.792   6
 -14  -6   0 942.027 241.280   5
 -14  -6   0 798.769 190.215   6
 -14   6   0 579.395 163.566   6
 -14   7   0 460.213 152.934   6
 -14  -7   0 672.488 180.078   6
 -14  -7   0 719.917 211.037   5
 -14  -8   0 441.114 179.451   6
 -14   8   0 718.683 222.364   6
 -14  -8   0 874.237 229.671   5
 -14   9   0 1386.11 249.113   6
 -14  -9   0 1221.86 258.726   5
   0   0  -1 46.2161 35.6026   3
   0   0  -1 48.2713 48.9410   4
   0   1  -1 127273. 727.467   3
   0   1  -1 126851. 1012.10   4
   0  -1  -1 123784. 995.573   4
   0  -2   1 102.943 86.8793   2
   0  -2  -1 74.1969 64.0706   3
   0  -2  -1 113.583 59.8559   4
   0  -2   1 193.233 44.7459   1
   0   2  -1 53.1415 27.2821   3
   0   3  -1 560315. 1524.87   3
   0  -3  -1 518730. 1789.78   1
   0  -3  -1 572495. 2316.26   4
   0  -3  -1 549882. 2221.90   3
   0   4  -1 87.8031 34.2218   3
   0  -4   1 243.470 86.4656   2
   0  -4   1 87.8639 46.7829   1
   0  -4  -1 146.647 55.0976   1
   0  -4  -1 105.531 63.8351   4
   0  -5   1 691559. 2793.02   2
   0  -5  -1 683125. 3011.53   4
   0  -5   1 685185. 2704.39   1
   0  -6  -1-15.7546 52.7010   4
   0  -6   1 106.368 65.2360   1
   0  -6   1 30.4356 64.8800   2
   0  -6  -1 69.5671 51.7307   1
   0   6  -1 84.8780 43.4846   3
   0  -7  -1 55490.4 923.855   1
   0  -7  -1 57100.8 985.896   4
   0  -7   1 58271.5 846.235   2
   0  -8  -1 44.9379 62.1148   1
   0   8  -1-0.23922 38.7606   3
   0  -8  -1-17.9057 55.3332   4
   0  -8   1 44.8531 62.4483   1
   0  -8   1-39.5440 64.8177   2
   0  -9   1 33286.0 828.136   1
   0   9  -1 28335.4 571.237   3
   0  -9  -1 29518.8 758.128   1
   0  -9  -1 32078.1 834.293   4
   0  10  -1-85.9794 48.3124   3
   0 -10   1-54.7638 59.2175   5
   0 -10   1 139.052 61.5973   2
   0 -10  -1 110.600 78.1899   4
   0 -10   1 245.433 95.2490   1
   0 -10  -1 39.0210 69.5826   1
   0 -11  -1 44179.7 1062.80   4
   0 -11   1 34309.8 652.542   5
   0 -11   1 45653.1 1051.52   1
   0 -11   1 33102.2 683.073   2
   0 -11  -1 44238.6 1025.80   1
   0  11  -1 39483.0 761.129   3
   0 -12   1-65.8319 115.274   1
   0 -12  -1 63.3622 95.6855   1
   0 -12   1-107.098 81.2778   5
   0 -12  -1-15.1639 96.6027   4
   0  12  -1 15.6461 60.2810   3
   0 -13  -1 12079.6 614.912   1
   0 -13   1 12045.5 612.156   1
   0 -13   1 11567.7 414.457   5
   0 -13  -1 10974.8 593.582   4
   0  13  -1 10553.9 437.099   3
   0 -14  -1-84.6051 125.250   4
   0 -14  -1 52.9760 103.447   1
   0 -14   1-61.7432 123.860   1
   0 -14   1 186.756 109.060   5
   0 -15  -1 33020.9 1122.89   4
   0 -15   1 34852.7 1121.75   1
   0 -15   1 34636.4 764.512   5
   0 -16  -1 38.4110 121.024   1
   0 -16   1-1.80495 93.7254   1
   0 -16   1 7.95265 89.9595   5
   0 -16  -1 30.6660 119.654   4
   0 -17  -1 12878.5 759.269   1
   0 -17   1 11533.8 694.411   1
   0 -17   1 11828.8 481.374   5
   0 -17  -1 10429.7 679.946   4
   0 -18   1 7.79573 77.8906   5
   0 -18  -1 54.3794 144.736   4
   0 -18   1-16.9423 109.003   1
   0 -18  -1-57.7150 129.470   1
   0 -19  -1 2568.77 378.935   4
   0 -19   1 2527.89 356.772   1
   0 -19  -1 2933.72 409.567   1
   0 -19   1 2570.57 246.693   5
   0 -20   1-162.683 143.604   1
   0 -20   1 66.1251 79.6901   5
   0 -20  -1-25.1722 155.404   1
   0 -20  -1-48.5861 118.483   4
   0 -21  -1 1076.09 274.121   4
   0 -21   1 660.189 199.988   1
   0 -21  -1 552.166 222.328   1
   0 -21   1 1068.63 180.676   5
   0 -22  -1 125.247 131.148   4
   0 -22   1-83.1162 115.735   5
   0 -22   1 48.7336 150.378   1
   0 -22  -1 0.69629 144.684   1
   0 -23   1 10783.9 557.414   5
  -1   0  -1-33.2061 47.6237   3
   1   0  -1 38.1622 48.8501   4
  -1   0  -1 58.5982 44.2148   4
  -1  -1   1 214132. 1216.64   1
  -1  -1  -1 207144. 1270.38   3
  -1  -1   1 211063. 1308.93   2
   1   1  -1 208457. 1323.13   4
   1  -1  -1 208155. 1249.11   4
  -1   1  -1 212804. 1250.35   3
  -1   1   1 205551. 1155.49   2
  -1  -2   1 174425. 1145.44   1
   1  -2  -1 183271. 1244.27   4
  -1   2  -1 182159. 1176.07   3
  -1  -2  -1 179917. 1272.64   4
  -1   2  -1 188617. 1232.29   4
  -1  -3  -1 416584. 2190.72   4
   1  -3  -1 354285. 1759.51   4
  -1  -3  -1 379141. 1891.93   3
   1  -3  -1 384502. 1848.35   1
  -1   3  -1 371099. 1735.88   3
   1  -3   1 344884. 1512.10   1
  -1  -3   1 366117. 1743.92   1
  -1  -3  -1 395249. 1719.15   2
  -1  -3   1 374213. 1899.13   2
  -1  -4   1 127286. 1113.19   2
  -1  -4   1 105275. 1051.03   1
   1  -4  -1 105033. 1100.38   4
  -1  -4  -1 125009. 1197.08   4
   1  -4   1 97427.6 952.564   1
  -1  -4  -1 124920. 1121.19   3
   1  -4  -1 121526. 1092.42   1
  -1   4  -1 98900.6 964.507   3
  -1  -4  -1 105270. 943.916   1
  -1  -4  -1 103021. 884.745   2
  -1   4   1 119480. 670.401   2
   1  -5  -1 82257.7 987.700   4
  -1  -5   1 87486.1 1042.61   1
  -1  -5  -1 82163.3 1062.46   4
  -1  -5   1 79507.5 927.273   2
  -1  -5  -1 81222.4 990.384   3
   1  -5   1 81850.6 953.754   1
   1  -5  -1 78667.3 968.093   1
  -1  -5  -1 86109.8 942.492   1
   1  -6   1 76690.6 1011.97   1
   1  -6  -1 77756.8 1030.20   1
   1   6  -1 76106.3 583.945   3
  -1   6  -1 78699.7 920.085   3
  -1  -6  -1 77252.8 1014.49   3
  -1  -6   1 85341.4 1088.39   1
   1  -6  -1 79297.5 1035.33   4
  -1  -6  -1 71174.8 716.469   2
  -1  -6  -1 78467.3 997.827   1
  -1  -6  -1 79871.4 1126.58   4
  -1  -6   1 75781.6 947.124   2
  -1  -7   1 14613.2 425.495   2
  -1  -7  -1 14555.9 322.692   2
  -1  -7  -1 14065.1 516.044   4
   1  -7   1 14666.8 473.679   1
  -1  -7   1 15823.0 498.181   1
   1  -7  -1 14788.6 489.443   4
   1  -7  -1 14463.4 478.153   1
   1   7  -1 13414.4 287.112   3
  -1  -7  -1 14773.7 480.804   1
  -1   7  -1 14396.4 418.293   3
   1  -8  -1 7937.17 376.486   1
   1   8  -1 7223.09 238.408   3
  -1  -8  -1 7760.10 403.848   4
  -1  -8  -1 8023.01 242.199   2
  -1   8  -1 7692.00 321.871   3
   1  -8  -1 8240.97 392.579   4
  -1  -8   1 8590.61 394.222   1
   1  -8   1 7845.56 372.475   1
  -1  -8   1 7326.59 307.616   2
  -1  -8  -1 8086.62 385.390   1
   1  -9  -1 17443.6 613.856   4
   1   9  -1 15695.2 380.439   3
  -1  -9   1 17615.4 598.502   1
   1  -9   1 18191.8 594.307   1
  -1  -9  -1 17017.1 352.150   2
  -1   9  -1 16577.0 492.723   3
   1  -9  -1 16843.2 595.107   1
  -1  -9  -1 17881.3 655.398   4
  -1  -9   1 15118.3 436.525   2
  -1  -9  -1 17876.5 600.859   1
   1  10  -1 22845.8 497.018   3
   1 -10   1 25702.5 743.571   1
   1 -10  -1 25867.8 765.583   4
  -1 -10   1 26242.4 765.207   1
  -1 -10   1 26246.5 540.590   5
   1 -10   1 18751.9 535.233   2
  -1  10  -1 24061.7 625.386   3
  -1 -10  -1 25695.6 816.252   4
   1 -10   1 26380.7 583.155   5
  -1 -10  -1 26797.8 771.474   1
  -1 -10   1 17509.8 509.043   2
   1 -10  -1 25785.4 807.825   1
   1 -11   1 1038.40 129.530   2
  -1  11  -1 548.891 114.636   3
   1  11  -1 839.340 112.515   3
   1 -11  -1 744.925 160.017   1
   1 -11   1 807.005 160.371   1
  -1 -11   1 415.803 81.2428   2
  -1 -11  -1 694.548 158.497   4
  -1 -11   1 739.559 102.887   5
  -1 -11   1 705.340 152.685   1
   1 -11  -1 813.733 155.904   4
  -1 -11  -1 920.176 157.053   1
   1 -11   1 600.440 101.811   5
   1 -12  -1 2113.43 255.622   4
  -1 -12  -1 1498.88 233.728   4
   1 -12   1 1594.21 157.009   5
  -1 -12  -1 2451.89 263.687   1
  -1 -12   1 1541.87 151.621   5
   1 -12  -1 1911.74 245.696   1
  -1 -12   1 1583.41 162.495   2
  -1 -12   1 2266.41 251.605   1
   1 -12   1 2275.60 260.332   1
  -1  12  -1 1759.39 196.214   3
   1 -13  -1 9327.36 537.646   4
   1 -13   1 10774.2 581.821   1
  -1 -13  -1 11651.1 601.568   1
  -1 -13   1 9539.78 538.734   1
  -1  13  -1 8382.84 425.014   3
   1 -13   1 10274.8 396.331   5
   1 -13  -1 9511.78 554.727   1
  -1 -13   1 10541.5 387.098   5
  -1 -13  -1 8903.44 551.669   4
   1 -14   1 15919.8 509.242   5
  -1 -14   1 15630.7 496.692   5
  -1 -14  -1 15334.8 756.626   4
  -1  14  -1 13477.7 552.198   3
   1 -14  -1 15143.4 727.106   4
  -1 -14   1 15680.0 707.380   1
   1 -14   1 17723.8 793.613   1
   1 -14  -1 16480.0 748.457   1
  -1 -14  -1 17220.0 759.429   1
   1 -15  -1 32504.7 1092.01   1
  -1 -15  -1 34880.9 1167.93   4
  -1 -15   1 33303.6 1095.45   1
   1 -15  -1 35148.8 1129.13   4
   1 -15   1 37836.4 1200.73   1
   1 -15   1 35515.7 789.100   5
  -1 -15  -1 37619.3 1178.18   1
  -1 -15   1 35401.8 766.523   5
  -1  15  -1 30598.2 863.040   3
   1 -16  -1 4650.19 432.960   1
   1 -16  -1 4276.09 413.358   4
  -1 -16  -1 4260.83 415.370   1
  -1 -16  -1 3468.94 392.396   4
   1 -16   1 4304.94 283.612   5
  -1 -16   1 4343.93 286.615   5
   1 -16   1 4705.45 456.618   1
  -1 -16   1 4365.74 428.918   1
  -1 -17  -1 10081.3 676.564   4
  -1 -17   1 10351.6 656.315   1
   1 -17  -1 10228.7 682.117   1
  -1 -17   1 10826.3 464.268   5
   1 -17  -1 10326.0 659.115   4
   1 -17   1 10989.1 692.380   1
  -1 -17  -1 10275.5 655.708   1
   1 -17   1 11103.1 466.693   5
   1 -18  -1 2160.55 336.429   4
   1 -18   1 1552.56 279.088   1
   1 -18   1 2045.69 222.565   5
  -1 -18  -1 1310.84 262.807   4
   1 -18  -1 1794.31 305.826   1
  -1 -18   1 2208.88 224.126   5
  -1 -18   1 1749.03 301.698   1
  -1 -18  -1 2003.51 312.282   1
   1 -19   1 4530.95 480.228   1
   1 -19  -1 5288.83 548.159   1
   1 -19   1 3723.77 295.809   5
  -1 -19  -1 4482.87 461.167   1
   1 -19  -1 5069.24 507.318   4
  -1 -19  -1 3883.86 456.363   4
  -1 -19   1 4793.25 330.769   5
  -1  19   1 4088.10 432.911   3
  -1 -19   1 5214.53 521.036   1
   1 -20   1 1352.34 201.135   5
   1 -20  -1 1903.95 369.147   1
  -1 -20   1 1641.94 314.303   1
  -1 -20  -1 1252.27 310.949   4
  -1  20   1 925.557 231.595   3
  -1 -20  -1 1180.36 266.270   1
   1 -20   1 1279.92 295.925   1
   1 -20  -1 849.744 234.126   4
  -1 -20   1 834.314 151.429   5
  -1 -21  -1 2589.53 401.211   4
  -1 -21   1 3876.32 477.215   1
  -1 -21  -1 4628.37 513.293   1
   1 -21   1 4737.06 349.056   5
   1 -21  -1 2512.16 385.148   4
  -1  21   1 4062.67 452.734   3
   1 -21  -1 4851.55 550.561   1
  -1 -21   1 4743.16 352.633   5
   1 -21   1 3297.32 434.394   1
   1 -22  -1 915.734 279.093   4
   1 -22   1 1010.78 189.676   5
  -1 -22  -1 1505.49 327.104   1
  -1 -22   1 794.485 257.184   1
  -1 -22  -1 891.969 272.691   4
  -1 -22   1 793.030 162.793   5
   1 -22   1 988.092 254.114   1
   1 -22  -1 751.522 247.242   1
  -1 -23   1 894.844 173.846   5
   1 -23  -1 931.120 279.507   4
   1 -23   1 1016.23 190.745   5
  -2   0  -1 388460. 2106.09   2
  -2   0  -1 351728. 1934.03   3
  -2  -1  -1 7313.74 291.515   2
  -2  -1   1 6609.27 255.414   2
  -2  -1  -1 6536.50 268.161   3
  -2  -1   1 4846.80 232.437   1
  -2   1  -1 6546.05 274.805   3
  -2   1   1 4903.76 212.475   2
  -2  -1  -1 4700.36 201.599   4
  -2  -1   1 7292.99 196.402   3
  -2   1  -1 7037.80 290.330   2
   2  -1  -1 4793.36 193.968   4
  -2   1  -1 4548.60 190.260   4
  -2  -1  -1 6025.74 194.357   1
  -2   2  -1 99893.8 918.276   4
  -2  -2  -1 97723.0 848.678   1
  -2  -2   1 130684. 1155.35   2
   2  -2   1 101606. 881.211   1
  -2  -2   1 120989. 1160.17   1
  -2   2  -1 132875. 1197.11   3
  -2  -2  -1 126109. 1141.50   3
   2  -2  -1 99220.5 916.144   4
  -2  -2  -1 105926. 1074.89   4
  -2   2   1 100051. 934.882   2
  -2  -3  -1 13671.3 388.995   4
   2  -3  -1 9428.53 279.689   4
  -2   3  -1 9579.15 288.135   4
  -2   3   1 9671.39 272.953   2
  -2  -3  -1 9563.31 274.190   1
  -2   3  -1 15534.5 433.913   3
   2  -3   1 10169.8 295.207   1
  -2  -3  -1 15023.7 422.331   3
  -2  -3  -1 14519.3 395.965   2
  -2  -3   1 12975.0 380.605   2
  -2  -3   1 14591.5 418.287   1
   2  -4  -1 17997.4 432.847   4
  -2   4  -1 25478.3 579.972   3
   2  -4   1 23070.8 477.974   1
  -2   4   1 16344.9 339.351   2
  -2  -4  -1 24030.2 547.435   3
  -2  -4  -1 23058.1 548.890   4
   2  -4  -1 24835.9 588.750   1
  -2  -4  -1 22087.6 490.388   2
  -2  -4   1 21095.3 501.081   2
  -2  -4   1 23623.1 540.520   1
  -2  -4  -1 15702.8 395.534   1
  -2   5   1 93319.3 746.368   2
   2  -5  -1 91580.8 990.108   4
  -2  -5  -1 96177.8 1217.12   4
  -2  -5  -1 89577.5 993.743   2
  -2  -5  -1 92912.2 1108.51   3
   2  -5  -1 96246.2 1189.27   1
  -2  -5   1 89949.4 1059.79   2
  -2   5  -1 95918.2 1142.91   3
   2  -5   1 95239.3 1061.89   1
  -2  -5   1 96890.9 1139.86   1
  -2  -5  -1 99503.8 1086.09   1
  -2  -6  -1 7670.24 372.513   4
   2  -6  -1 8038.45 318.829   4
  -2  -6  -1 8341.68 341.212   1
   2  -6  -1 7800.85 351.314   1
  -2   6   1 8102.54 211.998   2
  -2  -6   1 8851.82 367.249   1
  -2  -6  -1 7614.64 333.406   3
  -2  -6   1 7615.15 329.302   2
   2  -6   1 8086.25 336.765   1
  -2   6  -1 8537.49 370.358   3
  -2  -7  -1 112664. 1483.08   4
   2  -7   1 116687. 1345.49   1
  -2  -7   1 109863. 1267.25   2
   2  -7  -1 119354. 1330.31   4
  -2   7   1 114323. 727.295   2
  -2  -7  -1 122766. 1368.48   1
  -2   7  -1 114999. 1322.74   3
  -2  -7  -1 112143. 1308.27   3
   2  -7  -1 115229. 1427.98   1
  -2  -7   1 118526. 1421.61   1
   2  -8  -1 30964.7 728.381   4
   2  -8  -1 29289.1 750.512   1
  -2  -8  -1 28750.9 697.626   3
  -2   8  -1 29786.4 710.896   3
  -2  -8  -1 30742.1 835.968   4
  -2  -8  -1 30003.7 735.754   1
   2  -8   1 30710.0 750.577   1
  -2  -8   1 29670.9 687.185   2
   2  -9   1 15324.4 580.440   1
  -2  -9   1 15197.3 405.920   5
  -2  -9   1 14452.3 491.522   2
   2  -9  -1 14294.4 536.825   4
  -2  -9  -1 15044.2 558.477   1
  -2  -9   1 14988.3 571.799   1
  -2   9  -1 13713.3 501.171   3
  -2  -9  -1 13883.7 584.007   4
   2  -9  -1 13623.5 551.361   1
  -2  -9  -1 13754.8 406.104   2
   2 -10  -1 15626.1 586.015   4
   2 -10  -1 15247.9 612.365   1
  -2 -10   1 16480.7 632.621   1
   2 -10   1 11781.3 417.222   5
  -2 -10  -1 14849.9 424.610   2
   2 -10   1 16188.9 630.612   1
  -2 -10   1 14550.8 510.850   2
  -2 -10  -1 15370.6 642.459   4
  -2  10  -1 14755.6 541.254   3
  -2 -10   1 11375.8 374.854   5
  -2 -10  -1 15504.9 590.701   1
  -2 -11   1 33473.3 942.192   1
  -2  11  -1 30882.4 810.748   3
  -2 -11  -1 31115.3 945.069   4
   2 -11  -1 32250.1 874.660   4
  -2 -11   1 23211.3 666.819   2
  -2 -11  -1 33571.2 913.205   1
   2 -11   1 34139.3 793.807   2
  -2 -11   1 24527.5 565.736   5
   2 -11  -1 31241.1 917.558   1
   2 -11   1 24295.7 623.870   5
   2 -11   1 32501.4 920.270   1
  -2 -12   1 3996.53 289.399   2
   2 -12   1 4623.76 368.198   1
  -2 -12   1 5299.28 278.469   5
  -2 -12   1 4920.16 384.730   1
   2 -12  -1 4389.73 350.711   4
  -2 -12  -1 4831.67 367.579   1
   2 -12   1 5044.43 291.503   5
   2 -12  -1 4613.20 380.870   1
  -2  12  -1 4599.75 324.597   3
  -2 -12  -1 4591.41 388.458   4
   2 -13  -1 32967.5 1092.54   1
  -2  13  -1 28634.6 845.580   3
   2 -13   1 31243.1 978.930   1
  -2 -13  -1 32836.1 993.395   1
  -2 -13  -1 31781.3 1052.07   4
   2 -13   1 31785.4 744.098   5
   2 -13  -1 32542.8 982.906   4
  -2 -13   1 33474.7 709.748   5
  -2 -13   1 31847.0 1011.21   1
   2 -14   1 4532.78 293.915   5
  -2  14  -1 3381.67 303.985   3
   2 -14  -1 3849.42 362.177   4
  -2 -14  -1 4235.59 383.977   1
   2 -14   1 4092.82 372.883   1
  -2 -14  -1 3903.12 403.876   4
  -2 -14   1 3742.08 365.962   1
   2 -14  -1 4294.27 409.824   1
  -2 -14   1 4022.46 262.724   5
  -2 -15   1 816.538 190.743   1
  -2 -15   1 573.610 106.679   5
  -2  15  -1 654.758 154.161   3
   2 -15  -1 753.235 193.583   4
  -2 -15  -1 1229.75 230.828   1
   2 -15  -1 895.363 212.415   1
  -2 -15  -1 775.373 201.328   4
   2 -15   1 683.492 135.242   5
   2 -15   1 681.926 191.960   1
   2 -16   1 11552.2 672.378   1
  -2 -16  -1 12021.3 701.415   1
   2 -16  -1 10890.5 681.595   1
  -2  16  -1 10082.2 554.591   3
  -2  16   1 11099.0 646.441   3
  -2 -16  -1 10600.2 679.634   4
  -2 -16   1 11518.4 675.730   1
   2 -16  -1 11289.9 647.353   4
  -2 -16   1 12185.2 477.346   5
   2 -16   1 12114.6 495.409   5
   2 -17   1 27445.0 1085.54   1
   2 -17  -1 26559.5 1087.70   1
  -2 -17   1 26052.3 1065.42   1
   2 -17   1 26897.5 746.969   5
  -2 -17   1 27901.6 749.823   5
   2 -17  -1 26240.1 1044.70   4
  -2 -17  -1 29066.4 1129.92   1
  -2 -17  -1 26477.8 1106.20   4
  -2  17   1 24538.0 979.413   3
  -2 -18  -1 1389.94 273.602   4
  -2 -18   1 1634.27 186.023   5
  -2  18   1 1613.81 278.855   3
   2 -18  -1 1430.86 294.659   1
   2 -18   1 1735.83 312.247   1
  -2 -18   1 2328.69 353.071   1
  -2 -18  -1 1767.47 302.765   1
   2 -18   1 1727.65 200.746   5
   2 -18  -1 1294.01 255.592   4
   2 -19   1 11938.4 838.826   1
  -2 -19  -1 10336.5 754.707   4
   2 -19  -1 7120.99 587.483   4
  -2 -19   1 10972.2 739.975   1
  -2  19   1 9212.61 648.790   3
   2 -19  -1 9814.56 707.989   1
   2 -19   1 8219.67 441.754   5
  -2 -19   1 10674.2 502.454   5
  -2 -19  -1 11814.8 763.703   1
   2 -20   1 872.473 248.136   1
  -2 -20   1 725.659 146.329   5
   2 -20  -1 847.674 248.015   1
  -2 -20  -1 563.796 201.493   4
  -2 -20  -1 982.950 252.759   1
   2 -20  -1 1130.00 267.241   4
  -2  20   1 749.897 211.517   3
  -2 -20   1 1041.82 273.215   1
   2 -20   1 1181.00 187.381   5
  -2 -21  -1 2497.68 410.880   4
  -2 -21  -1 2983.78 420.248   1
   2 -21  -1 2563.21 420.982   1
  -2  21   1 2383.06 371.929   3
  -2 -21   1 2985.87 287.699   5
   2 -21   1 1651.57 316.750   1
   2 -21   1 2576.89 268.689   5
   2 -21  -1 2581.48 382.687   4
  -2 -21   1 2283.55 377.395   1
  -2 -22   1 26.4803 129.426   1
   2 -22   1 250.933 142.605   5
  -2 -22  -1-118.603 161.138   1
   2 -22  -1 120.234 158.514   1
  -2 -22   1-13.4823 96.2153   5
   2 -22   1-49.7697 130.800   1
  -2 -22  -1-53.7955 127.173   4
  -2  22   1 183.017 166.054   3
  -2 -23   1 8628.57 509.504   5
  -3   0   1-68.9955 58.1915   2
   3   0  -1 47.9798 37.5220   4
  -3   0  -1 24.4283 61.8071   2
  -3   0   1-15.5050 34.2943   3
  -3   0  -1 21.3426 50.4154   3
  -3   0  -1 84.7577 42.2326   4
  -3  -1   1 2102.40 177.339   2
   3  -1  -1 1638.71 117.679   4
  -3   1   1 2444.92 167.488   3
  -3   1   1 2605.39 182.436   2
  -3  -1   1 2239.87 188.667   1
  -3   1  -1 2739.40 210.674   2
  -3   1  -1 2194.69 183.890   3
  -3  -1  -1 2462.64 191.658   2
  -3  -1   1 1526.73 118.876   3
  -3  -1  -1 1728.82 133.258   4
  -3   1  -1 1647.12 118.384   4
  -3  -1  -1 2106.04 182.866   3
  -3   2  -1 37940.3 755.782   2
  -3  -2  -1 23470.1 501.441   1
  -3  -2  -1 24239.4 511.346   4
  -3   2   1 36688.1 685.914   3
  -3  -2  -1 35314.0 705.328   3
  -3  -2   1 36356.0 714.206   2
  -3   2  -1 36461.6 733.704   3
  -3   2  -1 33840.8 493.736   4
  -3   2   1 36145.4 641.138   2
  -3  -2   1 34181.9 499.442   3
  -3  -2   1 35606.3 725.690   1
   3  -2  -1 25086.8 444.477   4
  -3  -2  -1 35919.8 716.227   2
  -3  -3  -1 52827.3 806.523   4
  -3  -3  -1 53572.8 785.398   1
  -3  -3  -1 56224.7 916.547   2
  -3   3   1 56893.6 903.564   3
  -3   3  -1 58208.6 969.325   3
  -3   3  -1 60895.7 961.675   2
   3  -3   1 56047.0 819.328   1
  -3  -3   1 56720.9 924.650   2
  -3  -3   1 59711.9 975.042   1
  -3   3   1 54905.2 768.929   2
  -3  -3  -1 53586.0 862.041   3
  -3   3  -1 54107.9 672.443   4
  -3  -3   1 54160.0 554.789   3
  -3   4   1 25122.2 522.796   2
  -3  -4  -1 22634.5 527.527   1
  -3  -4  -1 23525.6 581.801   4
  -3   4  -1 15465.2 381.370   4
  -3   4  -1 24915.8 668.525   3
  -3   4   1 23874.2 615.185   3
   3  -4  -1 17645.0 410.505   4
  -3  -4   1 26507.6 666.623   1
  -3  -4   1 23725.4 614.192   2
  -3  -4   1 23004.3 333.776   3
   3  -4   1 23446.5 550.628   1
  -3  -4  -1 23333.8 600.218   2
  -3  -4  -1 23984.0 595.513   3
   3  -5  -1 67522.6 1118.50   1
  -3  -5  -1 65247.6 1044.60   4
  -3   5   1 69178.7 834.141   2
  -3  -5   1 64605.9 1048.29   2
  -3  -5   1 69500.2 1079.35   1
  -3  -5  -1 62713.4 987.367   2
  -3   5   1 64395.1 1050.18   3
  -3  -5  -1 62470.1 907.242   1
  -3   5  -1 71197.6 1149.45   3
   3  -5   1 67929.1 979.562   1
  -3  -5  -1 65607.1 1021.17   3
  -3  -6  -1 10586.7 406.692   2
  -3  -6  -1 10889.0 423.230   3
   3  -6  -1 10903.9 472.035   1
  -3   6  -1 11133.9 462.979   3
  -3   6   1 10136.3 448.734   3
   3  -6   1 10994.8 415.521   1
  -3  -6  -1 10938.1 455.358   4
  -3  -6   1 11066.3 450.244   1
   3  -6  -1 11367.3 368.378   4
  -3  -6   1 10607.5 429.654   2
  -3  -6  -1 10752.9 396.451   1
  -3   7   1 22316.5 442.489   2
   3  -7  -1 23064.3 573.178   4
  -3  -7  -1 22648.0 607.318   2
  -3  -7  -1 21079.4 601.075   3
   3  -7   1 21267.5 602.112   1
  -3   7  -1 23774.2 705.353   3
  -3  -7  -1 21801.4 605.794   1
  -3  -7  -1 22596.4 696.659   4
  -3   7   1 20897.0 665.462   3
  -3  -7   1 23316.1 473.090   5
  -3  -7   1 22141.8 662.779   1
   3  -7  -1 23100.1 719.567   1
  -3  -7   1 20543.5 619.536   2
   3  -8  -1 38048.4 927.112   1
  -3  -8   1 38212.0 853.635   2
  -3  -8  -1 39327.8 856.516   1
  -3  -8   1 40811.3 654.224   5
  -3   8   1 37131.4 925.307   3
   3  -8  -1 40425.1 801.231   4
   3  -8   1 38808.0 865.716   1
  -3   8   1 41723.9 582.237   2
  -3   8  -1 41298.1 937.854   3
  -3  -8  -1 36005.2 791.641   3
  -3  -8  -1 38218.9 952.457   4
  -3  -8   1 37304.6 877.896   1
  -3  -9  -1 72261.0 1252.21   1
   3  -9  -1 69055.7 1129.78   4
   3  -9  -1 63494.2 1240.49   1
  -3  -9   1 66359.5 1153.40   2
  -3   9   1 63324.5 1252.33   3
  -3  -9   1 65834.9 1238.95   1
  -3  -9  -1 65826.6 1132.56   3
   3  -9   1 67175.0 1202.96   1
  -3  -9  -1 67000.7 1307.16   4
  -3  -9   1 61490.8 849.913   5
  -3   9  -1 66642.2 1195.18   3
  -3 -10  -1 10526.3 543.891   4
  -3 -10  -1 8293.22 381.995   2
  -3 -10  -1 13092.9 586.645   1
   3 -10  -1 11637.0 556.656   1
  -3 -10  -1 11340.7 483.372   3
   3 -10  -1 11265.5 483.291   4
  -3 -10   1 11781.2 544.418   1
  -3  10  -1 11827.8 521.779   3
   3 -10   1 11435.4 524.952   1
  -3  10   1 11266.3 563.382   3
  -3 -10   1 9124.35 348.039   5
  -3 -10   1 11159.8 482.820   2
  -3 -11   1 308.285 93.5776   5
  -3  11  -1 384.294 143.212   3
  -3  11   1 462.563 160.941   3
  -3 -11  -1 150.797 121.774   4
   3 -11  -1 327.074 140.832   1
  -3 -11  -1 207.444 91.4726   1
  -3 -11   1 118.122 72.3364   2
   3 -11  -1 134.181 102.281   4
  -3 -11   1 134.513 88.9393   1
   3 -11   1 121.518 101.909   1
   3 -12  -1 3638.52 351.162   1
  -3 -12  -1 4147.52 352.581   1
  -3 -12   1 3559.30 332.609   1
   3 -12  -1 4138.72 337.856   4
  -3 -12   1 4296.53 260.182   5
  -3 -12  -1 3822.67 206.187   5
   3 -12   1 3990.91 371.612   1
  -3 -12  -1 3635.87 371.143   4
  -3  12  -1 4021.69 333.953   3
  -3  12   1 3699.29 363.710   3
  -3 -12   1 3297.31 291.826   2
   3 -13  -1 64944.7 1371.66   4
  -3 -13  -1 62311.1 1519.36   4
  -3 -13   1 58280.6 1366.45   1
   3 -13  -1 59734.3 1440.99   1
   3 -13   1 60758.6 1088.24   5
  -3  13  -1 57280.5 1258.68   3
  -3  13   1 54086.2 1314.21   3
  -3 -13   1 64835.1 1261.25   2
  -3 -13   1 61807.9 992.317   5
  -3 -13  -1 64151.8 1422.15   1
  -3 -13  -1 57890.8 819.795   5
   3 -13   1 61657.2 1455.79   1
   3 -14  -1 5791.56 419.220   4
   3 -14  -1 5607.22 468.444   1
   3 -14   1 5742.01 347.595   5
  -3 -14  -1 5553.93 482.358   4
  -3 -14   1 5652.09 455.006   1
  -3  14  -1 5184.60 396.721   3
  -3 -14   1 5762.80 318.168   5
  -3  14   1 5173.21 431.474   3
   3 -14   1 5647.88 448.524   1
  -3 -14  -1 6163.06 469.332   1
   3 -15  -1 26184.9 1054.33   1
  -3 -15   1 24593.9 987.367   1
   3 -15   1 24994.1 976.529   1
   3 -15   1 24608.7 723.368   5
  -3 -15  -1 25707.8 1031.69   4
  -3  15   1 23529.3 937.133   3
  -3 -15  -1 25500.0 976.777   1
   3 -15  -1 24273.7 895.526   4
  -3  15  -1 23685.4 861.021   3
  -3 -15   1 26590.0 697.666   5
  -3  16  -1 150.999 127.620   3
  -3 -16  -1 181.415 135.958   1
  -3 -16   1 201.663 95.4879   5
  -3  16   1-9.91975 136.409   3
   3 -16   1 95.6547 109.482   5
   3 -16  -1 1.27447 111.566   4
  -3 -16   1 117.712 114.840   1
   3 -16   1 94.9914 132.620   1
   3 -16  -1 65.9201 132.085   1
  -3 -16  -1 72.6828 131.950   4
  -3 -17  -1 401.072 174.042   4
  -3 -17   1 466.873 124.772   5
  -3 -17  -1 274.969 139.979   1
  -3 -17   1 242.929 134.551   1
   3 -17  -1 52.9493 147.676   1
  -3  17   1 174.869 136.465   3
   3 -17   1-26.6598 111.297   5
  -3  17  -1 509.765 151.628   3
   3 -17   1 372.349 174.836   1
   3 -18  -1 945.243 224.493   1
  -3 -18   1 1567.79 199.495   5
  -3  18  -1 1112.50 229.589   3
  -3 -18   1 1661.78 306.316   1
  -3 -18  -1 1058.97 269.543   4
   3 -18   1 1127.63 249.335   1
  -3  18   1 857.927 240.372   3
  -3 -18  -1 1665.22 305.734   1
   3 -18   1 977.228 170.370   5
   3 -19  -1 2150.85 377.608   1
  -3 -19  -1 2385.13 382.288   4
   3 -19   1 2633.60 374.699   1
   3 -19   1 1569.18 203.845   5
  -3 -19   1 1879.02 321.261   1
  -3  19   1 1695.16 315.390   3
  -3 -19   1 2337.96 246.330   5
  -3 -19  -1 2472.01 363.000   1
  -3 -20  -1 1022.23 272.593   1
  -3 -20  -1 894.508 250.575   4
   3 -20  -1 865.839 249.818   1
  -3  20   1 1210.97 280.572   3
   3 -20   1 1111.17 269.015   1
  -3 -20   1 1351.87 304.210   1
   3 -20   1 896.623 183.119   5
  -3 -20   1 1117.50 180.954   5
  -3  21   1 2459.85 378.235   3
   3 -21  -1 3182.97 452.747   1
  -3 -21   1 2779.16 408.624   1
   3 -21   1 2512.13 417.639   1
  -3 -21  -1 2451.66 423.828   4
  -3 -21   1 3472.36 307.263   5
  -3 -21  -1 2398.40 392.801   1
   3 -21   1 3453.97 315.505   5
  -3  22   1 1077.20 253.244   3
  -3 -22   1 1854.07 240.116   5
  -3 -22  -1 1571.78 327.433   1
   3 -22   1 1428.56 222.061   5
  -3 -23   1 86.5021 97.9092   5
  -3 -24   1 1498.35 236.676   5
  -4   0  -1 32728.6 762.114   2
  -4   0   1 33382.9 731.980   2
  -4   0  -1 31897.3 759.125   3
  -4   0   1 33961.5 679.568   3
  -4   1  -1 185794. 1808.06   2
  -4  -1   1 187005. 1789.36   2
  -4   1  -1 176383. 1151.17   4
  -4  -1  -1 182926. 1809.95   3
  -4  -1  -1 183247. 1825.93   2
  -4   1  -1 184373. 1845.55   3
  -4   1   1 187268. 1697.10   2
   4  -1  -1 181384. 1206.15   4
  -4   1   1 183517. 1631.86   3
  -4  -2   1 27541.0 727.424   1
  -4   2   1 26932.3 653.953   3
  -4   2  -1 24398.2 401.307   4
  -4  -2   1 20001.2 480.777   3
  -4  -2   1 27891.1 710.339   2
  -4   2   1 28257.6 674.422   2
  -4  -2  -1 27439.3 727.787   2
   4  -2  -1 27098.1 449.425   4
  -4   2  -1 26105.3 699.221   3
  -4  -2  -1 17555.3 465.482   4
  -4  -2  -1 25298.7 599.056   1
  -4   2  -1 30537.7 758.560   2
  -4  -2  -1 26043.7 678.029   3
  -4   3  -1 27697.3 438.747   4
  -4   3  -1 31407.2 775.628   2
  -4  -3   1 28946.5 749.383   1
   4  -3  -1 27930.8 439.701   4
  -4   3   1 30379.0 683.786   2
  -4  -3  -1 20612.7 539.042   4
  -4  -3  -1 28402.6 747.064   2
  -4  -3   1 29021.4 739.499   2
  -4  -3   1 21917.0 464.042   3
  -4  -3  -1 28544.1 710.864   3
  -4  -3  -1 27343.8 629.116   1
  -4   3  -1 30562.1 790.883   3
  -4   3   1 29744.7 725.821   3
  -4  -4  -1 10429.5 405.868   4
  -4   4   1 10697.8 457.756   3
  -4   4  -1 11331.8 470.036   2
  -4  -4   1 10273.1 300.148   3
  -4  -4  -1 10145.9 448.570   2
   4  -4   1 10732.0 421.504   1
  -4   4  -1 11066.7 488.588   3
  -4  -4  -1 10668.1 417.783   1
   4  -4  -1 11045.1 300.481   4
  -4  -4   1 9800.89 438.883   2
  -4   4   1 11084.3 403.071   2
  -4  -4  -1 9267.03 400.297   3
  -4   4  -1 9935.63 279.639   4
  -4  -4   1 10353.4 469.509   1
  -4   5   1 102523. 1448.45   3
   4  -5  -1 102599. 961.555   4
  -4  -5  -1 100528. 1348.16   4
  -4  -5  -1 100046. 1357.85   3
  -4   5  -1 111042. 1460.31   2
  -4   5  -1 108745. 1560.62   3
   4  -5   1 106269. 1365.25   1
  -4  -5   1 99322.2 879.082   3
  -4  -5   1 104383. 1018.60   5
  -4  -5  -1 104513. 1352.23   1
  -4   5  -1 100331. 962.129   4
  -4   5   1 106722. 1219.44   2
  -4  -5   1 107121. 1512.28   1
  -4  -5   1 102223. 1451.91   2
  -4  -5  -1 104249. 1450.71   2
  -4   6  -1 24328.1 508.689   4
  -4   6   1 27056.9 599.332   2
  -4  -6   1 27521.3 812.461   1
   4  -6   1 27922.7 736.074   1
   4  -6  -1 26475.6 806.656   1
   4  -6  -1 26596.2 534.754   4
  -4  -6  -1 25116.5 719.484   4
  -4  -6   1 25811.5 748.590   2
  -4  -6  -1 25783.7 674.125   1
  -4  -6  -1 26538.2 740.940   2
  -4   6   1 25457.2 756.577   3
  -4  -6  -1 26243.7 712.459   3
  -4  -6   1 25808.0 531.166   5
  -4   6  -1 28771.4 824.292   3
  -4   7   1 97797.6 1536.33   3
  -4  -7  -1 97568.0 1481.50   4
  -4  -7  -1 99080.6 1416.66   2
  -4   7   1 105725. 1041.55   6
   4  -7  -1 103345. 1139.53   4
  -4  -7  -1 102068. 1418.67   3
  -4  -7   1 102393. 1553.79   1
  -4  -7   1 105970. 1096.19   5
   4  -7   1 99821.5 1404.81   1
  -4   7   1 104691. 1160.92   2
   4  -7  -1 100513. 1592.36   1
  -4  -7  -1 101573. 1424.80   1
  -4  -7   1 99915.6 1500.19   2
  -4   7  -1 99355.5 1525.91   3
  -4  -8  -1 3958.92 317.474   4
  -4   8   1 3941.95 333.504   3
  -4  -8  -1 4020.87 288.119   3
  -4   8   1 3746.49 202.137   6
  -4   8  -1 4117.22 332.495   3
   4  -8  -1 4179.27 250.499   4
  -4  -8   1 3219.82 198.505   5
  -4  -8  -1 3689.39 279.562   2
  -4  -8  -1 4114.61 296.920   1
  -4  -8   1 3854.24 312.210   1
  -4  -8   1 3678.60 299.803   2
   4  -8   1 4153.29 303.419   1
   4  -8  -1 3887.90 343.922   1
  -4   8   1 4290.79 231.669   2
  -4  -9  -1 1141.01 177.901   3
   4  -9  -1 1132.40 147.354   4
  -4   9   1 1174.90 204.931   3
  -4  -9  -1 949.936 158.959   1
  -4  -9   1 1137.71 180.969   2
  -4   9   1 964.796 102.851   6
  -4  -9   1 1112.11 187.144   1
  -4  -9  -1 981.171 181.541   4
   4  -9  -1 1035.95 199.795   1
  -4  -9  -1 672.702 126.669   2
  -4  -9  -1 1046.47 114.660   5
   4  -9   1 1178.29 182.660   1
  -4   9  -1 1140.86 194.961   3
  -4  -9   1 942.129 112.505   5
  -4 -10   1 6922.23 414.107   2
  -4 -10  -1 4801.58 330.967   3
  -4  10   1 6494.61 452.171   3
  -4 -10  -1 6371.87 391.132   1
  -4  10  -1 6487.91 435.419   3
   4 -10   1 6554.74 428.118   1
   4 -10  -1 6623.48 457.805   1
  -4  10   1 5961.66 258.167   6
  -4 -10  -1 4093.65 302.942   2
  -4 -10  -1 6732.06 455.338   4
  -4 -10  -1 6676.80 281.914   5
  -4 -10   1 6923.98 301.905   5
  -4 -10   1 6414.28 421.797   1
   4 -11   1 25613.9 854.159   1
  -4 -11  -1 25879.5 844.173   1
  -4 -11  -1 25259.3 550.603   5
  -4 -11  -1 27652.9 952.571   4
  -4 -11   1 24977.4 853.411   1
  -4  11  -1 26104.5 869.415   3
   4 -11  -1 25454.2 901.489   1
  -4 -11   1 25863.9 599.835   5
  -4  11   1 25294.4 531.612   6
  -4 -11   1 22515.8 770.672   2
  -4 -11  -1 27431.4 792.426   2
  -4  11   1 23254.7 855.249   3
   4 -12   1 15036.9 687.453   1
  -4  12  -1 14938.9 687.341   3
  -4 -12  -1 16245.8 636.290   3
  -4  12   1 14432.1 708.040   3
  -4 -12   1 15379.8 641.966   2
  -4 -12  -1 15968.0 683.384   1
  -4 -12   1 15924.0 487.874   5
  -4 -12   1 15708.6 697.884   1
   4 -12  -1 16223.9 748.855   1
  -4 -12  -1 15833.3 763.686   4
  -4 -12  -1 15230.5 439.657   5
   4 -13   1 3856.24 374.595   1
   4 -13  -1 3304.30 356.258   1
  -4 -13   1 4072.74 258.359   5
  -4 -13  -1 3793.61 396.192   4
  -4 -13  -1 3593.17 225.007   5
  -4 -13   1 4037.65 339.383   2
  -4  13   1 3259.97 370.020   3
  -4 -13  -1 3562.56 345.208   1
  -4  13  -1 3498.46 343.973   3
  -4 -13   1 3430.35 342.633   1
  -4  14  -1 2690.37 307.696   3
  -4 -14  -1 2540.00 304.553   1
   4 -14   1 2621.21 322.191   1
  -4 -14   1 2673.93 215.385   5
  -4 -14   1 2659.43 306.047   1
   4 -14  -1 2424.50 331.238   1
  -4  14   1 2235.71 314.329   3
  -4 -14  -1 2410.18 326.455   4
  -4 -15  -1 9480.32 650.882   4
   4 -15   1 9956.13 654.583   1
  -4  15   1 9806.15 637.605   3
  -4 -15  -1 8815.02 578.117   1
   4 -15  -1 9294.56 643.700   1
  -4 -15   1 9097.83 590.983   1
   4 -15   1 10391.6 503.674   5
  -4  15  -1 8374.59 548.767   3
  -4 -15   1 9088.70 406.819   5
  -4  16   1 2504.62 347.155   3
   4 -16   1 3542.86 319.888   5
   4 -16  -1 2733.79 380.640   1
  -4 -16  -1 2637.69 368.414   4
   4 -16   1 2456.50 337.944   1
  -4 -16   1 2549.04 339.418   1
  -4 -16  -1 2537.79 323.592   1
  -4  16  -1 2464.39 321.461   3
  -4 -16   1 2701.40 237.280   5
  -4  17   1 3720.33 433.584   3
  -4 -17  -1 4125.32 420.051   1
   4 -17   1 3747.56 416.047   1
  -4 -17  -1 3958.32 459.135   4
  -4 -17   1 3699.06 414.162   1
   4 -17   1 4401.08 343.293   5
   4 -17  -1 4216.15 478.925   1
  -4 -17   1 4205.91 296.827   5
  -4  17  -1 3890.46 403.910   3
  -4 -18  -1 4090.32 491.590   4
   4 -18  -1 4346.32 513.526   1
  -4 -18  -1 4513.25 460.425   1
  -4  18   1 4401.60 468.466   3
  -4  18  -1 3332.34 380.628   3
   4 -18   1 3652.58 319.334   5
   4 -18   1 4535.75 487.032   1
  -4 -18   1 4305.88 453.268   1
  -4 -18   1 4719.23 330.899   5
  -4 -19   1 4.17308 114.052   1
  -4 -19   1 97.1861 96.5540   5
  -4 -19  -1 235.931 203.504   4
  -4  19  -1 385.174 164.891   3
   4 -19  -1 233.385 153.568   1
  -4  19   1 173.160 165.007   3
   4 -19   1 470.637 155.294   5
   4 -19   1 199.664 161.083   1
  -4 -19  -1 294.705 157.491   1
   4 -20   1 1276.91 210.629   5
  -4  20   1 750.844 237.436   3
   4 -20   1 791.389 229.602   1
  -4 -20  -1 748.622 224.831   1
  -4 -20   1 866.796 238.519   1
   4 -20  -1 989.913 262.941   1
  -4 -20  -1 854.874 247.969   4
  -4 -20   1 1361.23 202.517   5
   4 -21   1 2819.11 428.400   1
  -4 -21  -1 2962.26 419.427   1
  -4  21   1 2182.25 374.992   3
   4 -21   1 3023.79 309.940   5
  -4 -21   1 3211.48 300.486   5
  -4 -22   1 253.879 109.782   5
   4 -22   1-53.8004 130.286   5
  -4 -23   1 566.451 136.139   5
  -4 -24   1 927.968 188.132   5
  -5   0  -1 74.0073 66.9543   5
  -5   0  -1-8.59620 69.6057   3
  -5   0   1 26.5152 50.4743   3
  -5   0  -1 12.4862 53.8793   6
  -5   0   1 153.252 60.0171   6
  -5   0  -1 7.90021 35.5110   4
   5   0  -1 10.9248 41.2021   4
  -5   0  -1 56.6909 79.0771   2
  -5   0   1 105.708 83.8577   2
  -5   0   1-50.3101 50.1182   5
  -5  -1  -1 5264.99 358.687   2
  -5   1  -1 5187.44 344.953   2
  -5   1   1 5919.53 359.159   2
  -5  -1  -1 4754.49 230.509   4
  -5   1   1 5266.64 320.952   3
  -5  -1   1 5451.46 245.618   5
  -5  -1   1 5807.35 259.864   6
  -5  -1  -1 5084.97 339.537   3
  -5   1   1 5477.05 254.774   6
  -5   1  -1 5804.75 271.339   5
  -5   1  -1 5698.56 258.295   6
  -5  -1   1 5179.87 349.643   2
   5   1  -1 5135.06 239.499   4
  -5  -1  -1 5627.06 257.905   6
  -5  -1  -1 5458.96 255.550   5
  -5   1  -1 5166.21 347.458   3
   5  -1  -1 5171.58 202.244   4
  -5   2  -1 45686.9 713.433   6
  -5   2   1 44174.9 937.616   3
  -5   2  -1 44552.4 993.037   2
  -5  -2   1 43412.6 982.440   2
  -5  -2  -1 42257.4 744.736   4
  -5  -2  -1 44788.1 983.940   3
  -5   2  -1 46632.0 757.918   5
  -5  -2  -1 44556.2 1029.63   2
  -5   2   1 44315.4 709.108   6
  -5  -2   1 46155.7 722.356   5
  -5  -2  -1 46401.8 729.025   6
  -5   2   1 45660.3 960.821   2
  -5  -2  -1 44828.8 724.835   5
  -5   2  -1 41340.8 967.081   3
  -5  -2   1 48272.1 745.631   6
  -5  -3  -1 15810.6 491.082   4
  -5   3   1 24707.8 697.275   2
  -5  -3  -1 25677.5 541.614   6
  -5  -3  -1 22498.7 649.870   1
  -5  -3   1 22898.8 743.731   1
  -5   3   1 24457.5 531.450   6
  -5  -3  -1 24022.1 762.462   2
  -5  -3  -1 24637.0 530.244   5
  -5  -3  -1 23499.1 709.453   3
  -5  -3   1 23104.8 739.071   2
  -5  -3   1 25176.3 548.569   5
  -5   3  -1 24426.9 781.215   3
  -5   3  -1 25735.6 786.784   2
  -5   3  -1 24318.1 517.773   6
  -5   3   1 25014.8 733.113   3
  -5  -3   1 26571.9 546.960   6
  -5   3  -1 26359.3 585.743   5
  -5  -3   1 16426.8 477.553   3
  -5   4   1 9579.56 475.465   3
  -5  -4   1 8897.61 460.038   2
  -5  -4  -1 9244.13 327.972   5
  -5  -4  -1 7664.22 303.417   6
  -5   4  -1 9669.45 480.820   2
  -5  -4   1 9734.72 490.052   1
  -5  -4  -1 9385.01 451.940   3
  -5   4  -1 9209.54 322.008   6
  -5  -4   1 9235.92 345.400   3
  -5   4   1 9736.43 342.719   6
  -5   4  -1 9233.16 485.954   3
  -5  -4   1 9980.56 335.991   6
  -5  -4  -1 9093.72 472.664   2
  -5   4   1 9545.55 427.897   2
  -5  -4   1 8908.88 337.669   5
  -5  -4  -1 8262.28 404.439   1
  -5   5   1 7187.14 416.661   3
  -5  -5  -1 5153.73 319.514   4
  -5  -5   1 7433.34 445.834   1
  -5  -5  -1 7011.32 426.760   2
  -5   5  -1 7543.57 288.945   6
   5  -5   1 7705.19 416.187   1
  -5  -5  -1 7234.45 392.671   1
  -5  -5   1 6835.16 406.936   2
  -5   5   1 7285.65 366.986   2
  -5   5  -1 7205.04 447.917   3
  -5  -5  -1 5173.91 250.472   6
  -5  -5   1 7435.23 310.689   5
  -5  -5  -1 6651.41 375.930   3
  -5  -5  -1 6530.25 284.171   5
  -5   5  -1 7490.82 428.684   2
  -5   5   1 5365.70 256.440   6
  -5  -6   1 527.182 131.962   2
  -5  -6   1 726.521 104.025   5
  -5  -6   1 821.942 161.946   1
  -5   6  -1 525.489 147.855   3
  -5   6  -1 908.565 178.073   2
  -5  -6  -1 478.885 83.8365   5
  -5  -6  -1 566.623 128.837   1
  -5  -6  -1 543.931 96.3864   6
  -5   6   1 991.003 122.012   5
  -5  -6  -1 602.444 120.797   4
  -5   6   1 542.288 101.474   6
  -5   6  -1 740.536 102.992   7
  -5   6  -1 818.879 105.123   6
  -5  -6  -1 632.679 142.878   3
  -5  -6  -1 625.110 153.290   2
  -5   6   1 230.846 114.625   3
  -5   6   1 726.640 126.266   2
   5  -6   1 939.147 161.301   1
  -5  -7   1 7799.97 474.428   1
   5  -7   1 7719.81 444.011   1
  -5   7   1 5592.73 264.743   6
  -5   7   1 8005.45 374.774   2
  -5  -7   1 5833.22 282.052   5
  -5  -7  -1 7138.98 413.704   4
  -5   7  -1 7856.47 291.347   6
  -5  -7  -1 7570.09 436.782   2
  -5   7   1 7683.03 464.183   3
   5  -7  -1 7545.69 493.635   1
  -5  -7  -1 5006.44 247.747   5
  -5  -7   1 7459.04 451.589   2
  -5  -7  -1 8412.34 452.355   1
  -5  -7  -1 7801.24 426.730   3
  -5  -7  -1 6385.83 282.841   6
  -5   7  -1 5526.46 272.616   7
  -5   7  -1 7935.47 488.925   3
  -5   8   1 11317.1 579.944   3
  -5  -8   1 12067.0 582.862   2
  -5  -8  -1 11456.5 553.194   4
  -5  -8   1 11309.4 396.885   5
  -5  -8  -1 11491.6 541.444   2
  -5  -8  -1 11966.3 379.969   6
   5  -8   1 10939.9 522.271   1
  -5  -8   1 12808.4 633.216   1
   5  -8  -1 11283.0 597.086   1
  -5  -8  -1 11876.2 554.879   1
  -5   8   1 8233.92 324.489   6
  -5  -8  -1 11781.1 525.687   3
  -5   8  -1 12325.8 364.531   6
  -5   8  -1 8252.34 345.514   7
  -5   8   1 11096.5 433.092   2
  -5   8  -1 11859.1 602.422   3
  -5  -8  -1 7524.76 313.656   5
  -5  -9   1 13541.4 659.330   1
  -5   9  -1 14083.9 390.340   6
  -5  -9  -1 13670.4 635.573   4
  -5  -9  -1 9521.44 479.316   3
  -5   9   1 9969.48 357.161   6
   5  -9   1 14079.4 621.173   1
  -5  -9  -1 10824.1 532.152   2
  -5   9   1 12769.8 633.253   3
  -5  -9  -1 14172.0 607.818   1
  -5  -9   1 13943.0 448.218   5
  -5  -9  -1 14146.1 413.372   6
  -5  -9  -1 8974.42 344.983   5
  -5  -9   1 13186.8 607.119   2
   5  -9  -1 14443.8 693.885   1
  -5   9  -1 13767.5 652.210   3
  -5 -10   1 15687.8 677.706   2
  -5 -10  -1 16193.4 724.165   4
  -5 -10  -1 16532.3 661.169   2
  -5 -10  -1 17195.3 711.884   1
  -5 -10  -1 16780.1 637.811   3
  -5 -10  -1 16949.5 455.278   6
  -5 -10   1 16748.0 510.430   5
   5 -10  -1 16408.7 736.444   1
  -5 -10   1 16514.3 719.989   1
  -5  10   1 14798.3 703.258   3
   5 -10   1 16644.0 689.075   1
  -5 -10  -1 10672.7 382.632   5
  -5  10   1 12326.2 405.109   6
  -5  10  -1 16619.5 731.945   3
  -5 -11  -1 4190.51 352.583   1
  -5 -11  -1 2891.82 204.332   5
  -5 -11  -1 4472.16 404.492   4
  -5 -11  -1 4006.36 335.431   2
  -5 -11   1 4547.93 397.090   1
  -5  11   1 4300.13 241.887   6
   5 -11   1 3788.23 363.555   1
   5 -11  -1 3624.44 373.791   1
  -5  11   1 3546.46 361.757   3
  -5  11  -1 4122.94 387.327   3
  -5 -11  -1 4338.86 333.023   3
  -5 -11   1 4686.46 279.625   5
  -5 -11   1 4744.03 395.044   2
   5 -12  -1 10513.8 634.077   1
  -5  12   1 10744.6 376.450   6
  -5 -12  -1 11379.8 554.833   3
  -5 -12   1 11084.4 442.225   5
  -5  12  -1 11384.8 657.055   3
  -5 -12  -1 10528.6 580.931   1
  -5 -12  -1 10732.8 633.403   4
  -5  12   1 10390.9 621.498   3
   5 -12   1 11500.7 616.391   1
  -5 -12   1 11168.2 634.056   1
  -5 -12   1 10995.7 589.351   2
  -5 -13   1 12703.8 692.430   1
   5 -13  -1 13254.8 728.104   1
  -5 -13  -1 12747.4 713.421   4
  -5 -13  -1 13263.4 668.234   1
  -5 -13   1 14101.9 695.401   2
  -5  13   1 11795.7 686.862   3
  -5 -13  -1 13777.0 467.606   5
   5 -13   1 13710.7 702.505   1
  -5 -13   1 12642.5 486.386   5
  -5  13  -1 13251.5 717.203   3
   5 -14  -1 6288.58 530.938   1
  -5 -14  -1 5990.28 465.903   1
  -5 -14  -1 6541.95 540.506   4
   5 -14   1 6058.30 485.018   1
  -5 -14   1 5752.10 475.596   1
  -5 -14  -1 6545.89 336.689   5
  -5 -14   1 6245.17 352.593   5
  -5  14   1 5177.02 469.407   3
  -5  14  -1 6168.57 492.178   3
  -5 -15   1 14971.6 792.327   1
   5 -15   1 14346.1 784.966   1
  -5 -15  -1 14817.4 754.508   1
  -5 -15  -1 14510.2 826.790   4
  -5  15   1 13664.4 771.751   3
   5 -15  -1 13628.6 793.843   1
  -5 -15   1 15428.6 571.150   5
  -5  15  -1 13750.7 761.425   3
   5 -16   1 14117.3 829.772   1
  -5 -16  -1 14754.8 850.587   4
  -5  16   1 13255.0 779.349   3
   5 -16  -1 13429.8 821.882   1
  -5 -16  -1 13731.7 748.204   1
  -5 -16   1 14334.1 797.031   1
  -5 -16   1 14317.5 562.961   5
  -5  16  -1 13533.4 767.561   3
   5 -17  -1 549.722 205.938   1
  -5  17  -1 627.216 178.962   3
   5 -17   1 706.521 183.226   5
  -5 -17   1 734.010 205.912   1
  -5 -17  -1 757.837 197.925   1
  -5  17   1 446.014 176.106   3
  -5 -17  -1 250.625 145.759   4
   5 -17   1 555.389 199.333   1
  -5 -17   1 778.314 152.008   5
  -5 -18  -1 1.97468 144.732   4
  -5 -18   1-131.329 147.699   1
  -5 -18  -1-48.8092 109.193   1
  -5 -18   1 47.0733 76.6287   5
  -5  18  -1 9.86219 89.3607   3
  -5  18   1 71.4079 113.346   3
   5 -18   1 465.069 156.943   5
   5 -18  -1 0.68482 142.027   1
   5 -18   1-3.13466 134.200   1
  -5  19   1 1355.33 285.451   3
   5 -19  -1 1784.99 356.514   1
  -5 -19   1 1914.75 324.729   1
   5 -19   1 2053.02 277.673   5
  -5 -19  -1 1818.84 367.716   4
   5 -19   1 1061.18 249.368   1
  -5 -19  -1 986.480 236.264   1
  -5 -19   1 2020.10 242.469   5
  -5  19  -1 1755.08 308.868   3
  -5  20   1 7906.28 658.306   3
   5 -20   1 8370.62 522.233   5
  -5 -20  -1 6897.43 661.674   4
   5 -20   1 8806.46 717.258   1
   5 -20  -1 7844.39 739.750   1
  -5 -20   1 8771.10 490.963   5
  -5 -20   1 7493.16 673.845   1
  -5  20  -1 7651.43 646.845   3
  -5 -20  -1 8033.49 650.273   1
  -5 -21   1 2147.44 265.293   5
   5 -21   1 2088.26 279.016   5
  -5 -22   1 1978.82 259.919   5
  -5 -23   1 315.309 121.355   5
  -5 -24   1 421.984 138.298   5
  -6   0  -1 82579.6 1059.32   6
  -6   0   1 65300.9 960.959   5
  -6   0   1 66401.0 962.717   6
  -6   0  -1 81513.8 1481.24   2
  -6   0  -1 83815.1 1501.51   3
  -6   0   1 65808.4 1215.23   3
  -6   0   1 86738.6 1489.34   2
  -6   0  -1 64124.0 958.530   5
  -6   1   1 14676.3 608.229   2
  -6   1   1 14827.1 577.908   3
  -6  -1   1 11401.6 402.799   5
  -6   1  -1 13770.6 608.626   2
  -6  -1  -1 14400.8 642.429   2
  -6   1  -1 14427.2 634.695   3
  -6  -1   1 15623.0 644.088   2
  -6  -1  -1 11171.5 397.351   6
  -6  -1   1 11381.0 400.218   6
  -6   1   1 11540.9 408.471   6
  -6   1  -1 11164.8 404.377   5
  -6   1   1 10740.9 381.154   5
  -6  -1  -1 13829.1 607.502   3
  -6  -1  -1 10894.5 395.045   5
  -6   1  -1 10347.2 378.526   6
  -6  -1   1 10596.6 471.719   3
  -6   2  -1 17421.0 516.739   5
  -6  -2   1 22076.6 796.189   2
  -6  -2  -1 17250.6 501.657   5
  -6   2   1 16472.5 482.698   5
  -6   2  -1 21705.2 764.716   2
  -6  -2  -1 21965.4 795.934   2
  -6   2  -1 22220.0 790.504   3
  -6   2   1 19195.2 543.354   6
  -6   2  -1 16610.3 472.985   6
  -6  -2   1 17161.9 486.468   6
  -6  -2   1 17100.7 485.679   5
  -6   2   1 22532.4 741.379   2
  -6  -2   1 15063.2 535.970   3
  -6  -2  -1 17770.6 501.659   6
  -6  -2  -1 22159.7 755.382   3
  -6   2   1 23289.6 759.325   3
  -6   3   1 1798.17 171.205   6
  -6   3  -1 2063.86 194.050   5
  -6   3  -1 1593.40 156.045   6
  -6  -3  -1 1452.85 150.919   5
  -6   3  -1 2334.41 266.419   2
  -6  -3  -1 2174.82 266.134   2
  -6  -3   1 1552.06 152.212   6
  -6  -3   1 2199.63 260.996   2
  -6  -3  -1 1843.02 159.581   6
  -6  -3   1 2187.40 205.167   3
  -6   3   1 2344.63 247.978   2
  -6  -3  -1 2123.10 242.310   3
  -6   3   1 1690.78 163.875   5
  -6   3  -1 2158.85 249.410   3
  -6  -3   1 1723.10 161.818   5
  -6   3   1 2365.23 257.637   3
  -6   4  -1 9323.68 357.541   6
  -6  -4   1 8817.39 349.865   6
  -6  -4   1 12638.5 612.950   2
  -6   4   1 12649.2 542.575   2
  -6  -4  -1 11665.9 535.307   1
  -6   4   1 11064.7 404.905   6
  -6  -4  -1 12794.0 423.052   6
  -6  -4  -1 12188.7 595.696   2
  -6  -4   1 11802.3 593.798   1
  -6   4  -1 13844.7 628.921   2
  -6   4   1 12692.1 580.818   3
  -6   4   1 9487.29 365.724   5
  -6  -4   1 12754.7 430.541   5
  -6  -4  -1 10025.7 375.668   5
  -6   4  -1 12904.8 628.050   3
  -6  -4  -1 12935.7 571.797   3
  -6   5  -1 8495.95 338.516   6
  -6  -5  -1 9708.50 372.273   6
  -6  -5  -1 8136.62 341.730   5
  -6   5  -1 10834.5 556.771   2
  -6  -5  -1 8356.95 415.963   4
  -6  -5   1 8654.53 513.165   1
  -6  -5  -1 9494.78 541.403   2
  -6  -5  -1 9024.52 477.820   3
  -6  -5  -1 9380.98 487.993   1
  -6  -5   1 6507.54 300.332   6
  -6   5  -1 9585.69 552.691   3
  -6  -5   1 9283.95 539.579   2
  -6   5  -1 9285.63 352.761   7
  -6  -5   1 9486.74 379.953   5
  -6   5   1 7481.81 333.137   5
  -6   5   1 9802.65 478.650   2
  -6   5   1 9743.34 533.757   3
  -6   5   1 9591.48 378.218   6
   6  -5   1 9302.44 490.812   1
  -6  -6  -1 19596.2 696.222   3
  -6  -6   1 16284.2 473.481   6
  -6   6   1 20394.4 547.175   6
  -6  -6  -1 21391.3 815.805   2
  -6   6  -1 19943.8 812.706   3
  -6   6  -1 20940.7 765.512   2
  -6  -6  -1 18953.2 668.848   4
  -6  -6   1 19348.5 765.201   1
  -6  -6  -1 19883.1 725.464   1
  -6   6   1 19901.4 671.637   2
  -6   6   1 19846.1 772.761   3
  -6   6   1 15213.1 476.654   5
  -6   6  -1 20480.5 535.617   7
  -6  -6  -1 19964.5 549.549   5
  -6   6  -1 19748.3 510.386   6
  -6  -6   1 20488.1 563.708   5
  -6  -6  -1 18242.8 514.582   6
   6  -6   1 21544.6 782.791   1
  -6  -6   1 20209.5 793.827   2
  -6   7  -1 9203.59 371.887   7
  -6   7   1 10302.8 393.471   6
  -6  -7  -1 10158.2 393.566   5
  -6  -7   1 10347.0 584.280   1
  -6   7  -1 11288.9 568.419   2
  -6  -7  -1 10141.9 520.257   4
   6  -7   1 9774.94 527.767   1
  -6  -7   1 10879.2 597.144   2
  -6  -7  -1 10744.2 589.041   2
  -6  -7  -1 10821.7 553.970   1
  -6   7  -1 7696.80 322.514   6
  -6   7   1 10931.9 495.017   2
  -6  -7  -1 8056.18 349.314   6
  -6  -7   1 10825.0 389.340   6
  -6  -7  -1 11147.8 552.549   3
   6  -7  -1 9975.62 598.624   1
  -6   7   1 10068.2 573.462   3
  -6  -7   1 10923.4 421.954   5
  -6   7  -1 10527.6 600.799   3
  -6   8  -1 3417.00 233.645   7
  -6   8   1 4736.92 269.876   6
  -6  -8  -1 4471.40 364.053   4
  -6  -8  -1 5098.21 419.882   2
  -6  -8   1 5001.01 425.309   1
  -6  -8  -1 4973.86 380.676   1
  -6   8  -1 3847.67 229.197   6
  -6  -8  -1 3693.72 236.839   6
  -6   8   1 5192.65 430.781   3
   6  -8  -1 4595.19 415.098   1
  -6  -8   1 5286.31 301.000   5
   6  -8   1 5584.17 417.686   1
  -6  -8  -1 4806.98 358.794   3
  -6  -8   1 5287.18 270.627   6
  -6  -8   1 5887.00 450.120   2
  -6   8  -1 5284.48 432.869   3
  -6  -8  -1 3958.86 246.656   5
  -6   9  -1 3276.60 211.667   6
  -6   9   1 2615.12 310.231   3
  -6  -9  -1 2220.11 183.967   6
  -6  -9  -1 2757.77 298.844   4
  -6  -9  -1 3275.98 341.154   2
  -6  -9  -1 2201.50 185.934   5
  -6  -9  -1 3116.47 317.668   1
  -6  -9  -1 3060.06 295.907   3
   6  -9   1 3128.73 315.269   1
  -6  -9   1 3055.99 332.322   2
  -6   9  -1 2197.83 195.598   7
   6  -9  -1 2900.70 353.043   1
  -6  -9   1 2574.92 313.982   1
  -6  -9   1 3063.37 232.212   5
  -6   9   1 3228.53 232.529   6
  -6   9  -1 2804.63 331.568   3
  -6  10   1 9582.97 596.518   3
  -6  10  -1 7613.88 364.937   7
  -6 -10  -1 10212.6 529.141   3
  -6  10  -1 10298.4 372.850   6
  -6 -10   1 10853.5 445.284   5
  -6  10  -1 10855.0 639.078   3
  -6 -10  -1 9773.77 566.574   4
  -6  10   1 10951.3 417.218   6
   6 -10   1 10086.4 569.737   1
  -6 -10   1 10597.0 630.813   1
  -6 -10  -1 11688.7 630.821   1
  -6 -10   1 11473.9 642.182   2
  -6 -10  -1 10573.3 599.831   2
   6 -10  -1 10629.6 650.644   1
  -6 -10  -1 7413.78 343.772   5
  -6 -10  -1 10806.7 395.225   6
  -6  11   1 10216.5 630.903   3
   6 -11  -1 10654.1 645.315   1
  -6  11  -1 8276.15 401.722   7
  -6 -11  -1 10977.1 634.003   4
  -6 -11  -1 11483.0 571.313   3
  -6  11   1 11225.1 427.028   6
   6 -11   1 10363.8 592.214   1
  -6 -11  -1 12887.7 674.021   1
  -6 -11  -1 12249.7 651.858   2
  -6 -11   1 12388.8 709.925   1
  -6 -11   1 11396.7 459.513   5
  -6  11  -1 10480.0 628.478   3
  -6 -11   1 11622.0 652.912   2
  -6 -11  -1 8065.23 365.410   5
  -6  12   1 15933.3 808.213   3
   6 -12  -1 16993.0 848.547   1
  -6 -12   1 19229.5 863.249   2
  -6 -12  -1 16929.8 812.542   4
  -6 -12  -1 17786.8 798.883   1
  -6 -12  -1 18338.6 802.306   2
  -6  12   1 18275.3 553.317   6
  -6 -12   1 17814.1 590.889   5
  -6  12  -1 16396.5 807.816   3
   6 -12   1 16869.0 790.267   1
  -6 -12   1 17999.7 867.248   1
  -6  13   1 7607.25 586.789   3
   6 -13   1 8392.96 575.201   1
  -6 -13  -1 8036.96 597.145   4
  -6 -13  -1 5874.27 329.745   5
  -6 -13   1 8907.70 617.040   1
  -6 -13   1 8434.96 413.201   5
  -6 -13   1 6610.86 521.519   2
  -6 -13  -1 8647.67 568.711   1
   6 -13  -1 7716.99 593.014   1
  -6  13  -1 8663.42 607.523   3
  -6 -14   1 931.293 209.693   2
  -6 -14   1 922.345 219.172   1
  -6 -14  -1 877.665 135.909   5
  -6  14  -1 700.716 206.758   3
  -6 -14  -1 724.525 195.991   4
  -6  14   1 618.375 187.085   3
   6 -14  -1 845.039 248.640   1
  -6 -14  -1 1133.32 228.838   1
   6 -14   1 1231.04 256.011   1
  -6 -14   1 870.427 154.331   5
   6 -15   1 667.280 200.086   1
  -6 -15   1 748.562 205.165   1
  -6 -15  -1 1046.34 244.290   4
  -6 -15   1 656.372 131.991   5
  -6  15   1 565.426 198.020   3
  -6 -15  -1 891.815 213.737   1
   6 -15  -1 1004.48 268.268   1
  -6  15  -1 723.360 207.756   3
  -6  16   1 6833.10 591.562   3
   6 -16   1 7805.20 621.863   1
   6 -16  -1 7713.86 644.932   1
  -6 -16   1 8320.15 646.122   1
  -6 -16   1 8166.87 441.058   5
  -6 -16  -1 7059.41 619.035   4
  -6  16  -1 7654.11 613.280   3
  -6 -16  -1 7655.19 593.486   1
   6 -17  -1 3801.98 480.819   1
   6 -17   1 4080.45 471.478   1
  -6 -17  -1 3711.74 472.685   4
  -6 -17   1 4326.27 329.548   5
  -6 -17  -1 2914.91 378.997   1
  -6 -17   1 4158.84 472.105   1
  -6  17  -1 4451.88 491.110   3
  -6  18   1 4072.27 483.270   3
   6 -18   1 6800.33 485.081   5
  -6 -18  -1 4257.06 509.383   4
   6 -18  -1 6633.08 637.301   1
  -6 -18   1 6058.32 578.120   1
   6 -18   1 4776.65 534.617   1
  -6 -18  -1 4028.06 451.513   1
  -6  18  -1 3896.17 464.523   3
  -6 -18   1 6540.41 416.128   5
   6 -19   1 1260.86 243.421   5
  -6  19  -1 895.756 256.391   3
  -6  19   1 962.682 252.255   3
  -6 -19  -1 1153.87 259.491   1
  -6 -19  -1 1346.42 315.807   4
   6 -19   1 789.860 245.976   1
  -6 -19   1 1048.69 188.393   5
   6 -20   1 1713.49 267.332   5
  -6 -20   1 2412.19 274.129   5
   6 -21   1 783.309 198.782   5
  -6 -21   1 647.893 165.955   5
  -6 -22   1 656.168 152.208   5
  -6 -23   1 1303.54 216.902   5
  -6 -24   1 1487.60 235.958   5
  -7   0  -1 85.2832 111.127   2
  -7   0   1-50.4228 94.3143   3
  -7   0   1-69.6337 80.1198   5
  -7   0  -1 80.3821 98.3571   3
  -7   0  -1-54.1953 81.7333   6
  -7   0   1-28.7623 70.4626   6
  -7   0   1 2.18054 101.569   2
  -7   0  -1 0.77447 63.4694   5
  -7   1   1 13942.4 636.257   3
  -7  -1   1 16591.2 523.789   6
  -7  -1  -1 17249.4 533.626   6
  -7   1  -1 15268.1 694.187   2
  -7  -1  -1 15439.0 722.035   2
  -7  -1   1 16348.1 714.463   2
  -7   1   1 17095.8 532.340   6
  -7   1  -1 16917.1 525.676   6
  -7  -1   1 16932.6 647.321   3
  -7   1   1 16498.3 703.081   2
  -7   1   1 17166.7 536.410   5
  -7   1  -1 16527.5 541.148   5
  -7  -1   1 17705.4 557.460   5
  -7   1  -1 16381.7 729.876   3
  -7  -1  -1 16359.3 527.182   5
  -7  -1  -1 16768.0 726.058   3
  -7  -2  -1 52124.1 1328.57   2
  -7   2   1 54786.0 958.603   6
  -7  -2   1 54649.1 949.584   6
  -7   2  -1 55020.3 940.434   6
  -7  -2  -1 53515.0 1274.12   3
  -7  -2   1 52731.7 1309.92   2
  -7   2  -1 52944.2 1314.92   3
  -7  -2  -1 53193.5 955.339   5
  -7   2   1 51673.6 1233.12   2
  -7  -2  -1 54830.8 960.245   6
  -7   2   1 57620.2 1324.17   3
  -7   2  -1 56085.4 993.789   5
  -7  -2   1 58182.0 1015.00   5
  -7   2   1 59188.8 987.333   5
  -7   2  -1 50903.4 1251.75   2
  -7  -2   1 53372.7 1115.17   3
  -7  -3  -1 27550.6 678.333   6
  -7   3   1 30552.8 711.337   5
  -7  -3   1 26811.4 953.202   2
  -7   3  -1 26280.7 905.727   2
  -7  -3  -1 27283.1 694.677   5
  -7  -3  -1 26920.9 969.183   2
  -7  -3  -1 27805.5 919.620   3
  -7  -3   1 29816.2 724.390   5
  -7   3   1 28970.9 703.077   6
  -7   3   1 28046.1 896.209   2
  -7   3  -1 28620.4 724.082   5
  -7   3  -1 28226.4 675.555   6
  -7   3  -1 28389.6 978.310   3
  -7   3   1 28296.8 917.482   3
  -7  -3   1 28597.2 690.832   6
  -7   4   1 48636.5 892.226   5
  -7   4  -1 44736.1 848.093   6
  -7   4  -1 46070.6 1242.58   2
  -7  -4  -1 43659.3 1236.76   2
  -7   4   1 46200.7 1144.37   2
  -7  -4   1 45111.9 871.986   5
  -7  -4   1 42517.1 1212.69   2
  -7  -4  -1 44714.1 1146.57   3
  -7   4   1 46818.1 1231.63   3
  -7  -4  -1 43382.8 853.597   6
  -7  -4   1 46024.6 877.077   6
  -7   4   1 44912.4 878.896   6
  -7   4  -1 42860.6 1210.11   3
  -7  -4  -1 44141.3 860.676   5
  -7  -5   1 759.482 175.448   2
  -7  -5  -1 798.603 130.576   5
  -7  -5   1 768.855 189.265   1
  -7   5   1 814.664 166.284   2
  -7  -5  -1 964.770 191.958   3
  -7   5  -1 921.351 198.898   3
  -7   5   1 928.154 194.174   3
  -7   5  -1 1036.99 131.752   6
  -7  -5   1 906.927 129.516   6
  -7  -5  -1 959.634 129.133   6
  -7  -5  -1 778.365 193.933   2
  -7   5   1 1185.75 152.539   5
  -7  -5   1 1044.38 144.375   5
  -7   5   1 931.837 138.183   6
  -7   5  -1 795.387 186.346   2
  -7  -6   1 7054.84 345.481   6
  -7   6   1 9945.68 527.177   2
  -7  -6  -1 9185.32 530.094   1
  -7   6  -1 9612.98 611.926   3
  -7   6   1 10265.8 436.791   5
  -7   6  -1 10271.2 582.324   2
  -7  -6   1 9174.40 582.027   1
  -7  -6  -1 9751.32 592.983   2
  -7  -6   1 9090.10 580.923   2
  -7   6  -1 9817.93 398.594   6
  -7  -6  -1 9481.68 402.895   6
  -7   6  -1 10095.2 401.955   7
  -7   6   1 10132.6 604.131   3
  -7  -6  -1 9081.06 399.207   5
  -7  -6   1 10460.3 432.298   5
  -7   6   1 9647.83 415.507   6
  -7  -6  -1 9245.98 515.499   3
   7  -6   1 9425.34 551.666   1
   7  -7  -1 9117.75 600.623   1
  -7  -7  -1 9909.91 419.253   6
  -7   7  -1 10663.1 608.073   2
  -7  -7   1 8533.92 561.297   1
  -7   7  -1 9861.30 621.231   3
   7  -7   1 9884.37 568.280   1
  -7  -7  -1 9850.21 594.490   2
  -7   7  -1 9675.86 399.144   7
  -7   7   1 9589.02 512.135   2
  -7  -7  -1 10173.1 435.864   5
  -7   7  -1 8998.79 384.179   6
  -7  -7  -1 10361.0 558.937   3
  -7   7   1 9685.17 417.340   6
  -7  -7   1 9423.34 590.082   2
  -7  -7  -1 9023.46 528.819   1
  -7  -7   1 10136.6 432.383   5
  -7   7   1 9726.52 595.853   3
  -7  -8  -1 39606.1 1122.84   3
  -7   8  -1 39814.3 1140.86   2
  -7  -8   1 35988.1 1153.51   1
  -7  -8  -1 38926.0 1132.33   1
  -7  -8  -1 39384.9 1223.79   2
  -7   8  -1 36971.3 767.712   6
  -7   8   1 36016.9 1165.29   3
  -7  -8   1 40240.5 806.417   6
   7  -8   1 36631.5 1110.78   1
  -7   8   1 37214.8 815.915   6
  -7  -8   1 37863.2 1195.62   2
   7  -8  -1 38507.2 1280.36   1
  -7  -8   1 38852.8 859.953   5
  -7   8  -1 38752.0 825.024   7
  -7   8  -1 37363.1 1237.87   3
  -7  -8  -1 38059.4 841.322   5
  -7   9  -1 4291.90 285.137   7
  -7   9  -1 4240.84 263.227   6
  -7  -9   1 3659.81 389.640   1
  -7  -9  -1 4447.78 425.019   2
  -7  -9  -1 3999.11 381.851   1
   7  -9   1 3803.43 369.932   1
  -7  -9   1 3918.91 401.430   2
  -7   9  -1 4036.25 423.727   3
  -7   9   1 4129.93 429.935   3
  -7   9   1 4149.73 278.504   6
  -7  -9   1 4321.96 304.076   5
  -7  -9  -1 4147.53 363.560   3
  -7  -9  -1 2945.61 235.247   6
  -7  -9  -1 4633.46 302.726   5
   7  -9  -1 3722.33 409.396   1
  -7 -10  -1 12879.9 469.771   6
  -7 -10   1 18376.3 863.455   2
  -7 -10  -1 20221.6 900.379   2
  -7 -10   1 18287.1 875.708   1
  -7 -10  -1 18559.5 830.421   1
  -7  10  -1 18562.3 542.525   6
   7 -10   1 18122.3 800.276   1
  -7  10  -1 12982.7 502.708   7
   7 -10  -1 17906.7 892.361   1
  -7 -10  -1 18850.4 611.967   5
  -7  10   1 17121.8 850.933   3
  -7 -10   1 18302.4 626.457   5
  -7  10  -1 16973.7 866.662   3
  -7  10   1 18859.4 584.672   6
  -7 -11   1 629.770 187.629   2
  -7 -11   1 582.109 124.863   5
   7 -11   1 571.617 177.361   1
  -7 -11   1 494.458 173.365   1
  -7 -11  -1 578.805 174.949   1
  -7  11   1 446.127 190.026   3
   7 -11  -1 288.816 157.104   1
  -7 -11  -1 296.799 85.0118   5
  -7  11  -1 346.633 98.5195   7
  -7  11   1 381.225 106.578   6
  -7  11  -1 338.791 155.756   3
  -7 -11  -1 478.043 151.176   2
  -7 -12   1 257.213 156.099   2
  -7 -12  -1 170.966 73.0133   5
  -7  12  -1 384.953 177.572   3
  -7 -12   1 224.898 141.182   1
  -7  12   1 614.068 219.606   3
  -7 -12  -1 449.534 170.000   4
   7 -12   1 336.072 182.701   1
  -7  12  -1 358.359 109.115   7
  -7 -12   1 260.158 96.4873   5
  -7  12   1 228.110 90.4711   6
   7 -12  -1 202.178 160.786   1
  -7 -12  -1 203.438 133.812   2
  -7 -12  -1 276.733 127.315   1
  -7 -13   1 436.469 122.903   5
  -7  13  -1 382.791 171.700   3
  -7  13   1 524.177 216.142   3
  -7 -13   1 860.470 233.527   1
  -7 -13  -1 702.814 200.250   1
   7 -13  -1 758.093 232.530   1
  -7 -13  -1 381.924 152.973   4
  -7 -13  -1 262.278 83.3634   5
   7 -13   1 581.666 188.282   1
  -7  13  -1 469.998 117.737   7
  -7 -13   1 245.324 139.374   2
  -7  14   1 2815.81 395.434   3
  -7 -14   1 2387.26 353.905   1
  -7 -14  -1 1804.17 303.377   4
  -7 -14  -1 2979.37 376.787   1
   7 -14   1 2380.26 337.840   1
  -7 -14   1 1710.67 293.445   2
   7 -14  -1 1823.34 325.811   1
  -7  14  -1 2372.06 247.695   7
  -7 -14   1 2980.84 277.029   5
  -7  14  -1 2191.13 349.589   3
  -7 -14  -1 2737.82 245.820   5
  -7  15   1 2802.46 408.661   3
  -7 -15  -1 2713.27 250.402   5
  -7 -15  -1 1899.51 334.735   4
  -7  15  -1 2900.25 282.126   7
   7 -15   1 2705.75 372.616   1
   7 -15  -1 2601.37 400.289   1
  -7 -15  -1 1699.00 297.831   1
  -7 -15   1 2051.22 354.563   1
  -7 -15   1 2922.01 283.630   5
  -7  15  -1 2773.92 386.631   3
  -7 -16   1 422.091 136.557   5
  -7  16  -1 65.8973 138.945   3
  -7  16   1 689.141 246.306   3
  -7 -16   1 381.021 198.855   1
  -7 -16  -1 285.255 149.860   1
   7 -16  -1 618.031 229.099   1
  -7  16  -1 450.661 138.930   7
   7 -16   1 313.405 171.090   1
  -7 -16  -1 350.877 169.307   4
  -7 -17  -1 555.547 208.659   1
  -7 -17   1 419.472 125.837   5
  -7  17  -1 278.284 169.043   3
  -7  17   1 570.071 232.049   3
  -7 -17   1 310.966 174.847   1
  -7  17  -1 398.007 156.067   7
  -7 -17  -1 127.625 112.064   4
   7 -17   1 259.090 178.307   1
   7 -17  -1 373.192 209.536   1
  -7  18  -1 1203.80 282.923   3
  -7 -18  -1 1421.64 298.009   1
  -7 -18  -1 1156.02 290.262   4
   7 -18   1 1455.52 326.572   1
  -7 -18   1 1204.86 205.371   5
  -7 -19   1 942.364 183.635   5
   7 -19   1 770.538 205.559   5
   7 -20   1 1257.19 240.416   5
  -7 -20   1 1740.94 247.388   5
  -7 -21   1 580.445 167.438   5
   7 -21   1 707.322 196.162   5
  -7 -22   1 503.876 160.840   5
  -7 -23   1 255.367 124.958   5
  -7 -24   1 44.4880 111.352   5
  -7  25  -1 370.590 158.651   7
  -8   0   1 54458.7 1017.28   5
  -8   0   1 47862.7 1315.34   2
  -8   0   1 51947.6 1007.32   6
  -8   0  -1 46748.5 1329.82   2
  -8   0  -1 51760.2 1004.52   6
  -8   0  -1 50978.4 1011.96   5
  -8   0   1 51308.1 1271.26   3
  -8   0  -1 50400.3 1365.10   3
  -8   1  -1 7730.21 388.286   6
  -8   1  -1 7022.98 513.849   2
  -8  -1  -1 7616.85 554.849   2
  -8  -1   1 8162.38 397.939   5
  -8   1  -1 8003.14 547.333   3
  -8  -1   1 7526.19 389.575   6
  -8  -1   1 7971.49 544.918   2
  -8  -1  -1 7720.74 394.716   6
  -8   1   1 7738.03 391.936   6
  -8  -1  -1 8006.99 405.181   5
  -8   1   1 7628.23 526.345   2
  -8   1  -1 7558.77 402.019   5
  -8   1   1 8375.02 415.539   5
  -8  -1  -1 7818.93 538.562   3
  -8   1   1 7784.41 508.049   3
  -8  -2  -1 13473.8 737.753   2
  -8   2  -1 13570.1 706.176   2
  -8  -2   1 14327.9 737.030   2
  -8  -2  -1 14588.9 540.508   5
  -8   2  -1 14620.1 529.108   6
  -8  -2   1 15309.6 551.163   6
  -8  -2   1 15811.7 558.224   5
  -8   2   1 15051.1 544.429   6
  -8  -2  -1 13992.5 713.147   3
  -8   2   1 16249.5 566.282   5
  -8   2   1 13815.8 701.981   2
  -8  -2  -1 14704.7 536.840   6
  -8   2  -1 14351.9 549.447   5
  -8   2  -1 14370.8 741.431   3
  -8   2   1 15575.7 748.309   3
  -8   3  -1 2053.58 289.611   2
  -8  -3  -1 2299.80 219.759   6
  -8   3   1 2192.87 208.020   6
  -8   3   1 2180.85 279.869   2
  -8  -3  -1 2357.49 229.138   5
  -8   3   1 2268.26 226.346   5
  -8  -3   1 2411.32 324.279   2
  -8  -3   1 2567.12 233.612   6
  -8   3  -1 2058.24 309.821   3
  -8   3  -1 2547.94 226.609   6
  -8   3  -1 2271.86 231.419   5
  -8  -3  -1 2083.48 273.588   3
  -8   3   1 2325.76 304.036   3
  -8  -3  -1 2099.81 305.641   2
  -8  -3   1 2589.96 242.727   5
  -8  -4   1 836.937 212.999   2
  -8  -4   1 769.458 133.843   5
  -8   4   1 1011.31 213.789   3
  -8   4  -1 814.183 141.112   6
  -8  -4  -1 849.360 157.625   5
  -8   4   1 817.230 150.510   5
  -8  -4   1 822.599 142.043   6
  -8  -4  -1 693.831 131.684   6
  -8   4  -1 855.215 203.093   2
  -8   4   1 824.485 140.386   6
  -8  -4  -1 705.173 172.428   3
  -8  -4  -1 805.068 200.469   2
  -8   4  -1 757.092 170.945   3
  -8   4   1 585.191 141.718   2
  -8   5   1 15907.3 735.626   2
  -8   5   1 16347.9 569.216   6
  -8   5   1 16028.2 783.843   3
  -8  -5  -1 16100.4 815.515   2
  -8   5  -1 16257.0 555.208   6
  -8  -5  -1 15357.2 555.159   5
  -8  -5   1 16681.2 572.500   6
  -8  -5   1 15420.7 798.548   2
  -8   5  -1 15918.7 806.267   3
  -8  -5  -1 15543.4 555.611   6
  -8   5  -1 16686.8 805.975   2
  -8   5   1 17799.4 608.269   5
  -8  -5  -1 16274.3 741.206   3
  -8  -5   1 16876.1 608.892   5
  -8   6  -1 12621.4 487.714   6
  -8  -6   1 11854.0 704.616   2
  -8  -6  -1 12688.7 504.276   6
  -8   6  -1 12553.1 694.680   2
  -8  -6  -1 11611.2 700.780   2
  -8   6   1 12719.9 643.611   2
  -8  -6   1 9714.25 443.803   6
  -8  -6  -1 12535.2 502.551   5
  -8   6   1 12168.4 502.506   6
  -8   6   1 13765.7 540.067   5
   8  -6   1 11859.3 659.835   1
  -8  -6  -1 8409.20 533.785   3
  -8  -6   1 12361.5 506.222   5
  -8   6  -1 10764.2 683.899   3
  -8   6   1 12362.9 704.904   3
  -8  -7   1 164.412 123.893   2
  -8  -7  -1 321.732 154.840   1
  -8  -7   1 199.667 92.0735   5
  -8  -7  -1 174.079 95.3742   6
   8  -7   1 95.7483 111.113   1
  -8   7  -1-18.0516 106.846   3
  -8  -7  -1 191.956 121.947   3
  -8   7   1 311.125 121.082   2
  -8  -7  -1 60.0602 95.4635   5
  -8   7  -1 261.538 94.5288   6
  -8  -7   1 107.427 74.9966   6
   8  -7  -1 45.4648 121.855   1
  -8   7  -1 256.135 169.007   2
  -8  -7   1 174.887 112.446   1
  -8   7   1 260.200 97.1848   6
  -8   7   1 241.222 148.437   3
  -8  -7  -1 160.048 125.370   2
  -8  -8   1 5862.81 510.019   2
  -8  -8   1 6945.73 392.174   5
  -8   8  -1 6980.60 529.860   2
  -8  -8  -1 6732.77 506.618   1
  -8  -8  -1 6444.34 528.113   2
  -8   8   1 6686.37 373.043   6
   8  -8  -1 6318.26 548.123   1
  -8  -8  -1 7770.50 410.288   6
  -8   8  -1 7013.43 364.881   6
  -8  -8   1 6079.22 520.816   1
   8  -8   1 6036.19 487.175   1
  -8  -8  -1 6683.10 380.367   5
  -8  -8   1 6818.89 370.283   6
  -8   8   1 6902.35 574.163   3
  -8   8  -1 6479.68 553.131   3
  -8   9   1 3860.85 290.749   6
   8  -9   1 4088.36 413.701   1
  -8  -9  -1 4233.70 415.025   1
  -8  -9   1 3778.04 425.111   1
  -8  -9  -1 3939.01 418.928   2
  -8   9  -1 4132.61 286.223   6
  -8  -9  -1 2846.52 247.757   6
  -8  -9   1 3369.72 393.895   2
   8  -9  -1 3312.99 408.941   1
  -8  -9   1 4118.70 314.994   5
  -8   9  -1 3524.07 425.551   3
  -8  -9  -1 4049.45 310.379   5
  -8   9   1 3817.80 429.866   3
  -8 -10   1 5490.12 510.337   1
  -8 -10  -1 4831.14 446.807   1
   8 -10  -1 5602.12 536.260   1
  -8 -10  -1 5499.22 510.343   2
  -8 -10  -1 5882.21 378.139   5
  -8  10  -1 4931.42 508.351   3
  -8  10  -1 5531.52 325.569   6
  -8  10   1 5913.08 355.224   6
  -8 -10   1 5830.34 371.834   5
   8 -10   1 4789.36 444.081   1
  -8 -10  -1 5014.32 328.361   6
  -8  10   1 5125.91 504.022   3
  -8 -10   1 5512.57 511.197   2
  -8 -11   1 761.648 219.435   2
  -8 -11   1 944.015 227.574   1
  -8 -11  -1 725.722 148.271   5
   8 -11  -1 777.571 240.731   1
  -8  11   1 1009.62 155.507   6
   8 -11   1 900.528 223.289   1
  -8 -11  -1 773.627 199.660   1
  -8  11  -1 892.914 237.796   3
  -8 -11   1 1048.64 176.874   5
  -8 -11  -1 597.334 177.175   2
  -8  11   1 919.092 256.961   3
  -8  12   1 13014.9 818.258   3
  -8 -12   1 15247.2 861.699   2
  -8 -12  -1 11270.8 527.579   5
  -8 -12   1 15691.3 895.456   1
  -8 -12  -1 9957.90 675.907   1
  -8  12   1 14393.1 553.239   6
   8 -12   1 13427.6 767.751   1
   8 -12  -1 13124.7 814.043   1
  -8 -12  -1 10096.9 699.767   2
  -8 -12   1 15053.2 617.449   5
  -8  12  -1 14515.5 871.177   3
  -8 -13   1 110.938 123.814   2
  -8 -13  -1 80.0235 82.1878   5
  -8 -13   1 123.108 111.328   5
  -8  13  -1-65.9496 145.076   3
  -8 -13  -1-27.3638 110.014   1
  -8  13   1 127.610 169.483   3
  -8 -13   1 397.367 200.502   1
   8 -13   1 446.204 196.992   1
   8 -13  -1 82.8693 165.619   1
  -8 -14   1 3303.13 315.681   5
  -8  14  -1 1897.82 330.324   3
  -8 -14   1 3053.66 408.688   2
  -8 -14   1 3218.36 435.173   1
  -8 -14  -1 2345.53 354.790   1
   8 -14  -1 2593.44 394.249   1
   8 -14   1 2210.31 334.591   1
  -8 -14  -1 2896.85 281.370   5
  -8  14   1 2627.95 411.854   3
  -8 -15  -1 1599.57 295.904   1
  -8 -15   1 1554.17 313.467   1
  -8  15  -1 1063.33 266.294   3
  -8  15   1 1241.20 291.000   3
   8 -15   1 992.074 265.544   1
   8 -15  -1 1689.27 356.166   1
  -8 -15   1 1281.92 202.528   5
  -8 -15  -1 1475.06 203.968   5
   8 -16   1 2442.17 383.777   1
  -8 -16   1 2740.75 291.608   5
  -8 -16  -1 2903.87 412.824   1
  -8 -17   1 1095.65 219.849   5
  -8 -17  -1 983.249 256.029   1
  -8 -18   1 7775.17 514.028   5
  -8 -19   1 495.465 149.925   5
  -8 -20   1 533.718 160.941   5
   8 -20   1 284.975 167.993   5
  -8 -21   1 253.894 140.660   5
  -8 -22   1 819.763 183.504   5
  -8 -23   1 567.922 177.861   5
  -8 -24   1 878.783 203.360   5
  -9   0   1-54.9773 70.1822   5
  -9   0  -1 27.3297 113.767   3
  -9   0  -1 97.0432 146.976   2
  -9   0  -1 89.1664 91.1906   6
  -9   0   1-89.3242 81.4073   6
  -9   0  -1 92.3210 80.2225   5
  -9   0   1-22.0551 116.031   2
  -9  -1   1 196.306 126.438   2
  -9  -1  -1 464.352 125.749   5
  -9  -1   1 245.626 111.316   5
  -9   1  -1 264.875 160.802   3
  -9   1   1 299.126 118.383   6
  -9   1   1 306.899 116.067   5
  -9   1  -1 193.698 112.831   5
  -9   1  -1 321.794 132.209   6
  -9  -1  -1 567.325 143.164   6
  -9  -1  -1 356.324 138.347   3
  -9   1   1 133.611 114.784   2
  -9  -1  -1 344.065 164.595   2
  -9  -1   1 310.687 103.632   6
  -9   1  -1 254.446 167.512   2
  -9   2   1 4868.21 338.081   6
  -9   2  -1 4676.21 453.893   2
  -9   2   1 4250.31 413.983   2
  -9  -2  -1 4825.60 343.040   5
  -9  -2   1 4370.97 443.894   2
  -9  -2  -1 4678.19 340.709   6
  -9   2  -1 4712.03 328.986   6
  -9  -2   1 4864.50 336.154   6
  -9   2   1 4595.52 436.127   3
  -9  -2  -1 4895.63 471.348   2
  -9   2   1 5141.16 350.831   5
  -9  -2  -1 4371.86 436.817   3
  -9   2  -1 4729.97 343.387   5
  -9  -2   1 4972.09 335.539   5
  -9   2  -1 4710.37 469.226   3
  -9  -3   1 1108.67 167.514   5
  -9   3  -1 1171.80 168.543   6
  -9  -3  -1 772.865 198.492   3
  -9   3   1 535.816 161.329   3
  -9  -3   1 897.617 153.394   6
  -9   3  -1 1015.73 237.719   3
  -9  -3  -1 1317.50 187.414   5
  -9  -3  -1 977.629 157.597   6
  -9   3   1 1057.07 178.515   5
  -9   3   1 953.936 162.898   6
  -9   3  -1 890.870 218.000   2
  -9  -3   1 1032.45 235.095   2
  -9  -3  -1 839.768 221.102   2
  -9   3   1 990.489 220.198   2
  -9   3  -1 1409.68 211.274   5
  -9  -4  -1 8036.29 619.428   2
  -9  -4   1 9326.19 472.886   6
  -9   4   1 8642.17 452.025   6
  -9  -4   1 7879.88 604.538   2
  -9   4  -1 9147.58 448.405   6
  -9  -4   1 9524.18 487.399   5
  -9  -4  -1 9087.95 470.949   5
  -9   4   1 9698.04 486.122   5
  -9   4  -1 8816.85 635.280   2
  -9   4  -1 8858.49 645.722   3
  -9   4   1 8831.60 596.669   2
  -9   4   1 9669.19 656.304   3
  -9  -4  -1 8238.71 432.293   6
  -9   5  -1 4242.29 450.485   2
  -9  -5  -1 4085.54 455.407   2
  -9   5   1 4362.25 421.038   2
  -9   5  -1 4477.96 319.001   6
  -9  -5   1 4155.34 315.929   6
  -9   5   1 3956.66 304.840   6
  -9  -5   1 4241.74 454.387   2
  -9  -5  -1 4145.46 314.584   6
  -9   5  -1 3360.57 413.072   3
  -9  -5  -1 2450.74 321.122   3
  -9   5   1 4392.96 330.428   5
  -9  -5  -1 4299.86 333.406   5
  -9   5   1 3504.63 402.676   3
  -9  -5   1 4595.29 350.361   5
  -9   6   1 35.4944 101.416   5
  -9  -6  -1 186.797 107.736   5
  -9   6   1-93.1871 136.567   3
  -9  -6   1 59.6058 90.1110   5
  -9  -6   1 98.9923 133.851   2
  -9   6   1-2.44912 83.8785   6
   9  -6   1 73.3275 137.651   1
  -9  -6   1 36.5580 71.3970   6
  -9   6  -1 80.9429 129.006   2
  -9   6  -1-72.2530 105.616   3
  -9   6  -1 240.224 100.379   6
  -9  -6  -1-63.6805 95.7714   6
  -9  -6  -1 98.7592 123.447   2
  -9   6   1-96.9687 100.962   2
  -9  -7   1 2775.61 387.813   2
   9  -7  -1 2840.13 383.741   1
  -9   7   1 3020.42 402.129   3
  -9  -7   1 2291.04 234.631   6
  -9   7  -1 3356.73 408.747   2
  -9  -7  -1 2935.95 395.864   2
  -9  -7  -1 2765.84 264.946   5
  -9   7  -1 3249.00 278.053   6
  -9   7   1 3019.93 271.461   6
  -9   7  -1 3198.33 408.745   3
   9  -7   1 2724.95 359.159   1
  -9  -7   1 3457.83 304.130   5
  -9  -7  -1 3287.00 289.391   6
  -9  -8  -1 16194.6 904.619   2
  -9   8  -1 15098.9 823.818   2
  -9   8   1 17061.1 634.061   6
  -9   8  -1 17183.7 617.534   6
  -9  -8   1 18265.9 647.443   6
  -9   8  -1 16306.2 912.504   3
  -9  -8   1 16142.7 900.079   2
  -9  -8  -1 18257.8 670.771   6
   9  -8   1 15431.9 815.074   1
  -9  -8  -1 16984.0 635.832   5
  -9  -8   1 16504.8 654.740   5
   9  -8  -1 15762.9 917.184   1
  -9   8   1 17131.5 905.614   3
  -9  -9   1 1263.34 277.023   2
  -9  -9   1 1265.94 291.531   1
  -9  -9  -1 1083.20 173.353   6
  -9  -9  -1 1135.06 281.142   2
  -9   9  -1 1311.30 288.997   3
  -9   9   1 1010.50 252.600   3
  -9   9   1 1459.86 201.474   6
   9  -9  -1 1244.52 285.775   1
  -9  -9  -1 703.546 197.390   1
   9  -9   1 969.432 231.287   1
  -9   9  -1 1331.11 188.087   6
  -9  -9  -1 1153.04 186.892   5
  -9  -9   1 1356.07 204.347   5
  -9 -10  -1 12036.3 739.542   1
  -9 -10  -1 19923.4 1021.20   2
   9 -10  -1 15060.0 903.386   1
  -9  10   1 20853.4 707.782   6
  -9 -10   1 18962.1 986.492   1
  -9  10  -1 21040.1 679.341   6
  -9  10   1 20625.6 1054.07   3
  -9  10  -1 19921.0 1044.15   3
  -9 -10  -1 21016.7 704.755   6
   9 -10   1 12319.7 751.361   1
  -9 -10   1 18833.2 999.202   2
  -9 -10  -1 20719.5 725.147   5
  -9 -10   1 19418.3 717.044   5
  -9 -11   1 52.8620 123.152   2
  -9 -11  -1-3.50345 99.5223   5
  -9 -11  -1 22.5699 101.457   1
  -9  11  -1 139.177 131.309   3
  -9 -11  -1 126.331 115.248   2
  -9 -11   1-17.1204 81.2136   5
   9 -11   1 52.9285 117.767   1
   9 -11  -1 10.6167 141.877   1
  -9  11   1 226.680 170.134   3
  -9  11   1-105.502 104.225   6
  -9 -11   1 64.7766 150.374   1
  -9 -12   1 1062.46 257.923   2
  -9 -12  -1 1076.81 272.020   2
  -9 -12   1 1337.28 296.157   1
   9 -12  -1 1893.66 360.150   1
  -9  12  -1 1208.30 288.371   3
  -9  12   1 1589.18 204.867   6
  -9  12   1 1535.52 337.906   3
  -9 -12   1 1927.24 250.355   5
  -9 -12  -1 1605.07 223.212   5
   9 -12   1 1305.40 259.862   1
  -9 -12  -1 1194.22 257.477   1
  -9 -13  -1 769.027 176.267   5
  -9 -13   1 1138.47 204.104   5
  -9 -13   1 836.878 241.633   1
  -9 -13  -1 823.894 222.754   1
   9 -13   1 1311.01 291.508   1
  -9  13  -1 708.799 245.621   3
  -9  13   1 843.910 276.247   3
  -9 -13   1 874.941 247.323   2
  -9  13   1 970.175 159.193   6
   9 -13  -1 661.680 242.586   1
  -9 -14  -1 6965.15 613.511   1
   9 -14   1 7540.76 641.908   1
  -9 -14   1 8468.14 703.695   2
  -9 -14  -1 8431.48 508.195   5
  -9 -14   1 8025.48 502.731   5
  -9 -15   1 788.697 182.630   5
  -9 -15  -1 673.682 154.756   5
  -9 -15  -1 652.174 225.142   1
  -9 -16   1 1703.57 248.367   5
  -9 -17   1 340.923 129.916   5
  -9 -18   1 1022.21 199.152   5
  -9 -19   1 268.939 127.584   5
   9 -20   1 4120.95 454.388   5
  -9 -20   1 4389.74 419.973   5
  -9 -21   1 176.636 114.999   5
  -9 -22   1 2032.31 293.625   5
  -9 -23   1 211.435 121.558   5
 -10   0   1 25873.5 831.758   5
 -10   0  -1 24171.7 809.969   5
 -10   0   1 23579.1 1072.05   2
 -10   0  -1 23567.2 786.362   6
 -10   0   1 24357.9 806.257   6
 -10   0  -1 23558.5 1060.52   3
 -10   0  -1 21237.5 1029.15   2
 -10   1  -1 337.107 140.416   5
 -10   1   1 376.337 136.032   5
 -10  -1   1 174.462 110.307   5
 -10   1  -1 364.990 159.262   3
 -10  -1   1 274.058 115.862   6
 -10  -1  -1 203.991 112.935   5
 -10   1  -1 359.946 146.300   6
 -10   1   1 216.619 106.070   6
 -10  -1  -1 3.96406 98.4954   6
 -10  -1  -1 255.064 150.781   3
 -10  -1   1 127.828 109.251   2
 -10   1  -1 237.492 168.212   2
 -10  -1  -1 177.292 147.811   2
 -10   1   1 230.128 123.153   2
 -10   2   1 7680.81 452.407   6
 -10   2  -1 7275.27 614.685   2
 -10  -2  -1 6282.96 570.440   2
 -10   2   1 7564.58 613.981   2
 -10  -2   1 7161.12 604.696   2
 -10  -2   1 8670.51 487.052   6
 -10  -2  -1 7472.33 441.566   6
 -10   2  -1 7672.09 444.648   6
 -10  -2   1 8086.93 467.195   5
 -10  -2  -1 7409.59 452.322   5
 -10   2   1 8129.76 466.914   5
 -10   2  -1 7621.43 464.313   5
 -10   2  -1 7883.05 641.400   3
 -10   3   1 307.174 126.821   5
 -10  -3  -1 303.388 126.537   5
 -10  -3   1 355.000 114.115   5
 -10   3  -1 729.435 225.035   3
 -10  -3   1 120.173 94.6223   6
 -10  -3  -1 285.542 120.224   3
 -10   3  -1 330.490 211.038   2
 -10  -3  -1 248.543 121.196   6
 -10   3  -1 204.830 116.970   6
 -10   3   1 185.597 120.424   6
 -10   3  -1 391.588 132.699   5
 -10  -3  -1 354.920 172.641   2
 -10   3   1 389.061 151.653   2
 -10  -3   1 239.210 167.245   2
 -10   4   1 1084.98 191.132   6
 -10  -4  -1 1081.16 188.329   5
 -10  -4   1 978.655 179.688   5
 -10   4  -1 1300.70 288.692   2
 -10  -4  -1 908.116 236.110   3
 -10   4  -1 1117.78 266.982   3
 -10  -4   1 1200.67 196.197   6
 -10   4   1 500.113 196.362   3
 -10   4  -1 880.329 158.392   6
 -10   4   1 989.968 180.200   5
 -10  -4  -1 1175.74 195.506   6
 -10  -4  -1 798.022 223.427   2
 -10   4   1 474.231 150.868   2
 -10  -4   1 758.677 219.281   2
 -10  -5   1 1312.17 199.356   5
 -10   5  -1 859.988 234.830   3
 -10   5   1 569.526 191.487   3
 -10   5  -1 1561.72 209.542   6
 -10  -5   1 1263.00 199.412   6
 -10  -5  -1 1263.64 199.505   6
 -10  -5  -1 1142.22 197.384   5
 -10   5   1 1494.39 218.007   5
 -10   5  -1 1115.20 281.554   2
 -10   5   1 799.015 226.453   2
 -10   5   1 1190.61 203.227   6
 -10  -5  -1 1588.96 317.570   2
 -10  -5   1 1201.38 275.770   2
 -10   6   1 8074.88 659.370   3
 -10  -6   1 12883.9 617.232   5
 -10   6   1 13598.4 618.881   5
 -10   6  -1 8388.46 654.343   2
 -10  -6  -1 12125.2 828.172   2
 -10  -6  -1 13159.9 604.138   5
 -10   6   1 12710.6 583.587   6
 -10  -6  -1 13306.3 597.925   6
 -10   6  -1 12537.0 569.456   6
  10  -6   1 7792.12 615.685   1
 -10  -6   1 11019.7 784.406   2
 -10   6  -1 11718.8 801.484   3
 -10  -6   1 13209.1 595.873   6
 -10  -7  -1 496.063 151.867   5
 -10  -7   1 421.266 126.831   5
  10  -7   1 193.925 124.235   1
 -10   7  -1 645.329 153.558   6
 -10   7  -1 456.702 175.025   3
 -10   7   1 296.686 133.969   3
  10  -7  -1 297.624 178.109   1
 -10  -7  -1 470.389 135.024   6
 -10   7   1 485.379 146.222   6
 -10  -7   1 492.077 139.936   6
 -10  -7   1 479.678 182.467   2
 -10   7  -1 662.648 222.691   2
 -10  -7  -1 289.544 206.249   2
 -10   8   1 2569.20 268.952   6
 -10  -8  -1 2647.93 280.665   6
 -10   8   1 1603.87 312.437   3
 -10  -8   1 2384.74 278.979   5
 -10  -8  -1 2303.60 275.268   5
 -10   8  -1 2497.52 261.054   6
 -10  -8   1 2680.21 282.153   6
 -10   8  -1 2061.21 354.635   3
 -10  -8   1 2122.12 365.559   2
  10  -8   1 2150.27 332.752   1
 -10  -8  -1 2346.78 389.656   2
  10  -8  -1 1832.90 355.572   1
 -10  -9   1 71.5233 159.265   2
 -10  -9  -1-68.7066 88.0548   5
 -10  -9   1-21.5033 121.689   5
 -10  -9  -1 34.4428 114.265   6
 -10   9  -1 138.808 157.772   3
 -10   9   1-29.4880 140.603   3
  10  -9  -1 14.5433 146.505   1
 -10  -9  -1 170.346 148.965   2
 -10   9   1 71.8567 99.3873   6
  10  -9   1-259.700 188.284   1
 -10   9  -1-34.7218 97.3742   6
 -10  10   1 9702.57 521.564   6
 -10 -10  -1 9247.35 503.639   6
 -10  10  -1 9682.46 501.315   6
  10 -10   1 7948.76 639.142   1
 -10 -10   1 9378.89 759.105   2
 -10 -10  -1 10131.2 542.814   5
  10 -10  -1 9262.32 749.450   1
 -10 -10   1 9754.99 559.591   5
 -10  10  -1 8848.66 728.820   3
 -10  10   1 8612.88 718.837   3
 -10 -11   1 361.656 183.835   2
 -10 -11  -1 162.043 114.468   5
 -10 -11   1 248.615 130.812   5
 -10  11   1 407.549 218.423   3
 -10  11  -1 270.584 128.145   6
 -10  11   1 376.607 145.077   6
 -10 -11  -1 175.351 159.121   2
  10 -11   1 338.115 164.843   1
 -10  12   1 9490.54 513.374   6
 -10 -12  -1 9502.57 771.134   2
 -10 -12   1 9670.90 562.207   5
  10 -12   1 8067.69 666.714   1
 -10 -12  -1 9479.70 538.566   5
 -10 -13  -1 544.786 157.032   5
 -10 -13   1 394.078 148.479   5
 -10  13   1 660.215 161.579   6
 -10 -14  -1 8.72010 80.2920   5
 -10 -14   1 69.6857 96.4927   5
 -10 -15   1 492.332 150.346   5
 -10 -15  -1 271.117 133.798   5
 -10 -16   1 2837.78 326.272   5
 -10 -17   1 827.496 205.586   5
 -10 -18   1 2496.37 321.936   5
 -10 -19   1 279.634 138.258   5
 -10 -20   1-13.1155 95.8981   5
 -10 -21   1 404.813 167.048   5
 -11   0   1-87.3852 124.865   2
 -11   0  -1 4.85136 123.459   6
 -11   0  -1-164.817 116.050   5
 -11   0  -1 5.14805 121.762   3
 -11   0   1 163.912 111.969   5
 -11   0  -1-19.4028 124.848   2
 -11   0   1-154.281 132.977   6
 -11   1  -1 372.789 161.496   5
 -11  -1   1 320.718 148.810   5
 -11  -1  -1 40.8953 113.728   3
 -11   1  -1 117.981 123.883   3
 -11  -1   1-7.84546 98.4586   6
 -11  -1  -1 84.4348 102.659   5
 -11   1  -1 98.9513 110.330   6
 -11   1   1 179.315 122.488   6
 -11  -1  -1-106.223 109.777   6
 -11   1   1 187.464 127.025   5
 -11   1  -1 91.3512 132.375   2
 -11  -1  -1 102.254 140.184   2
 -11   1   1 52.3261 122.644   2
 -11  -1   1 173.063 156.324   2
 -11   2  -1 14747.9 675.192   5
 -11  -2  -1 13918.0 906.110   2
 -11   2   1 14701.0 883.743   2
 -11  -2   1 15250.2 940.470   2
 -11  -2   1 16081.7 707.817   5
 -11  -2   1 15699.4 692.112   6
 -11  -2  -1 15467.4 673.720   6
 -11   2  -1 15397.3 667.000   6
 -11   2   1 15574.5 687.421   6
 -11  -2  -1 14943.7 687.130   5
 -11   2  -1 10176.4 793.487   2
 -11   2   1 17177.1 729.644   5
 -11   2  -1 10528.0 773.222   3
 -11   3   1 333.157 132.571   5
 -11  -3  -1 371.877 154.325   5
 -11  -3  -1 128.776 137.190   6
 -11   3  -1 229.312 174.237   3
 -11   3   1-11.5986 101.969   6
 -11   3  -1 133.070 139.988   2
 -11   3  -1 397.741 159.813   6
 -11  -3   1 241.021 140.747   5
 -11  -3   1 157.594 171.126   2
 -11  -3   1 37.6286 98.5800   6
 -11  -3  -1 178.630 164.707   2
 -11   3   1 103.453 120.521   2
 -11  -4   1 7388.34 479.072   6
 -11   4   1 7074.65 474.056   5
 -11   4  -1 7174.48 655.886   2
 -11  -4  -1 6862.71 651.284   2
 -11   4   1 7388.34 650.180   2
 -11  -4   1 7070.00 651.654   2
 -11   4  -1 6178.57 599.633   3
 -11  -4  -1 7756.61 501.021   5
 -11  -4  -1 7464.90 480.221   6
 -11   4  -1 7059.74 461.956   6
 -11   4   1 6735.51 463.949   6
 -11  -4   1 8028.31 501.440   5
 -11   5   1 436.209 177.524   5
 -11  -5   1 344.148 102.139   5
 -11  -5  -1 297.374 128.658   6
 -11   5  -1 487.655 240.865   3
 -11  -5  -1 581.468 186.359   5
 -11  -5   1 424.333 158.273   6
 -11   5   1 490.912 156.005   6
 -11   5  -1 391.480 169.455   6
  11  -5   1 329.753 177.984   1
 -11   5   1 374.835 178.832   2
 -11   5  -1 428.550 215.870   2
 -11  -5  -1 493.821 220.688   2
 -11  -5   1 189.294 161.748   2
 -11   6  -1 2357.78 401.430   2
 -11   6  -1 2909.18 303.085   6
 -11  -6  -1 2583.14 289.300   6
 -11  -6   1 2901.22 305.099   6
 -11   6   1 2488.22 284.204   6
 -11  -6  -1 2792.41 305.645   5
 -11  -6   1 2487.19 295.456   5
 -11   6  -1 2439.64 409.414   3
 -11   6   1 2483.13 410.001   3
  11  -6   1 2461.73 381.783   1
 -11  -7   1 457.206 150.535   5
 -11   7   1 463.928 141.982   6
  11  -7   1 327.842 186.180   1
 -11  -7  -1 246.859 125.522   6
 -11  -7   1 539.279 151.953   6
 -11   7  -1 522.517 150.941   6
 -11  -7  -1 441.901 152.800   5
 -11   7   1 231.358 137.146   3
 -11   7  -1 352.675 233.594   2
 -11   8  -1 9235.92 527.758   6
 -11  -8   1 9457.24 543.745   6
 -11   8   1 8874.72 523.259   6
 -11  -8  -1 9640.24 559.683   5
 -11  -8   1 9155.31 549.798   5
  11  -8   1 8347.30 673.769   1
 -11  -8  -1 9933.05 563.130   6
 -11  -9  -1 1541.66 239.931   5
 -11  -9   1 1399.57 236.940   5
 -11   9   1 1538.84 236.852   6
 -11  -9  -1 1101.45 187.665   6
 -11   9  -1 2000.79 251.294   6
 -11  10  -1 3042.54 305.987   6
 -11  10   1 2962.99 317.614   6
 -11 -10  -1 3432.08 353.682   5
 -11 -10   1 2955.96 336.159   5
 -11 -10  -1 3445.82 336.236   6
 -11 -11  -1 1981.78 276.098   5
 -11  11  -1 2119.36 252.969   6
 -11  11   1 2384.91 292.162   6
 -11 -11   1 2033.99 293.569   5
 -11 -12  -1 107.786 109.796   5
 -11 -12   1 97.0719 105.558   5
 -11  12   1-106.854 112.574   6
 -11 -13  -1 850.793 188.769   5
 -11 -13   1 935.513 213.811   5
 -11  13   1 1067.33 213.966   6
 -11 -14  -1 1050.38 207.801   5
 -11 -14   1 1386.69 253.713   5
 -11 -15   1 508.665 186.901   5
 -11 -15  -1 240.890 118.702   5
 -11 -16   1 625.786 199.162   5
 -11 -17   1 1110.41 250.281   5
 -11 -18   1 439.039 183.795   5
 -11 -19   1 84.4785 127.791   5
 -12   0  -1 8108.09 536.074   5
 -12   0  -1 7316.03 490.788   6
 -12   0   1 7612.04 512.266   6
 -12   0   1 7545.77 515.255   5
 -12   1  -1 388.545 194.108   5
 -12  -1  -1 239.881 144.755   5
 -12  -1   1 499.265 160.391   6
 -12   1   1 324.297 150.067   5
 -12   1   1 335.731 140.421   6
 -12  -1   1 610.245 198.011   5
 -12   1  -1 180.017 124.244   6
 -12  -1  -1 88.5724 117.707   6
 -12  -2   1 2934.15 329.487   6
 -12  -2  -1 2609.17 325.598   5
 -12  -2  -1 2542.67 311.819   6
 -12   2  -1 2650.79 305.406   6
 -12   2   1 3128.85 344.592   5
 -12  -2   1 3226.53 343.917   5
 -12   2   1 2868.76 321.832   6
 -12   3   1 243.078 164.822   5
 -12  -3   1 241.445 131.271   5
 -12  -3  -1 62.0098 138.006   5
 -12   3   1 125.095 120.471   6
 -12  -3  -1 128.006 112.143   6
 -12  -3   1 141.838 142.484   6
 -12   3  -1 48.2556 125.338   6
 -12   4   1 612.049 189.263   6
 -12   4  -1 526.303 142.100   6
 -12  -4  -1 611.934 186.026   6
 -12  -4   1 605.839 190.694   6
 -12   4   1 904.207 213.375   5
 -12  -4  -1 469.242 169.310   5
 -12  -4   1 720.301 194.785   5
 -12   5   1 978.817 226.843   5
 -12  -5  -1 1001.70 216.303   5
 -12  -5   1 733.914 175.936   5
 -12  -5   1 1066.29 212.194   6
 -12   5   1 998.814 223.792   6
 -12   5  -1 498.047 161.957   6
 -12  -5  -1 703.458 160.345   6
 -12  -6  -1 4125.73 389.599   6
 -12   6  -1 3858.65 358.897   6
 -12  -6   1 4366.59 400.521   6
 -12   6   1 3912.71 376.255   6
 -12  -6  -1 4108.02 394.223   5
 -12  -6   1 3917.94 384.890   5
 -12  -7   1 221.258 147.549   5
 -12   7   1 49.4566 116.948   6
 -12  -7   1 236.776 138.001   6
 -12  -7  -1 116.921 115.451   5
 -12  -7  -1 270.783 140.597   6
 -12   7  -1 166.049 107.091   6
 -12  -8  -1 980.466 215.003   5
 -12  -8   1 1378.24 243.183   5
 -12  -8  -1 1362.44 235.876   6
 -12   8  -1 1250.03 213.901   6
 -12   8   1 1172.87 229.319   6
 -12  -8   1 1522.71 243.213   6
 -12  -9   1 575.482 163.832   5
 -12   9   1 724.495 191.290   6
 -12  -9  -1 509.544 179.470   5
 -12  -9  -1 365.290 144.024   6
 -12   9  -1 421.495 121.299   6
 -12 -10  -1 1362.20 257.166   5
 -12 -10   1 1375.83 253.199   5
 -12  10   1 1582.14 252.011   6
 -12  10  -1 750.901 167.811   6
 -12 -10  -1 1344.57 231.211   6
 -12 -11   1 397.556 152.010   5
 -12 -11  -1 533.473 172.480   5
 -12  11   1 137.645 129.386   6
 -12  12   1 3033.33 334.252   6
 -12 -12  -1 2966.17 353.501   5
 -12 -12   1 2493.74 330.240   5
 -12 -13  -1 1061.57 229.129   5
 -12 -13   1 1398.42 260.466   5
 -12 -14  -1 294.411 152.123   5
 -12 -14   1 726.518 200.252   5
 -12 -15  -1 658.967 190.809   5
 -12 -15   1 850.246 223.709   5
 -12 -16   1 501.023 183.969   5
 -13   0  -1 121.627 154.292   5
 -13   0   1 59.0578 169.881   5
 -13   0  -1-38.3269 125.549   6
 -13   0   1 78.0038 118.896   6
 -13  -1  -1 546.123 197.201   5
 -13   1   1 201.270 123.462   5
 -13   1  -1 55.2654 113.444   6
 -13  -1   1 314.591 150.925   5
 -13   1   1 104.685 122.967   6
 -13  -1   1 174.313 139.844   6
 -13  -1  -1 169.344 145.026   6
 -13  -2   1 1810.16 286.879   6
 -13   2  -1 1528.17 260.605   6
 -13  -2  -1 1739.43 290.305   5
 -13   2   1 1954.37 299.426   5
 -13  -2  -1 1763.19 273.777   6
 -13   2   1 1507.58 268.604   6
 -13  -2   1 1991.27 304.379   5
 -13  -3  -1 1389.31 265.141   5
 -13  -3   1 1433.18 268.091   5
 -13   3   1 1137.21 245.727   6
 -13   3  -1 684.112 171.760   6
 -13   3   1 1340.76 256.283   5
 -13  -3  -1 1060.27 218.161   6
 -13  -3   1 1201.16 224.433   6
 -13   4   1 1479.04 270.322   5
 -13  -4   1 1075.28 239.067   5
 -13  -4  -1 675.421 187.443   5
 -13   4   1 1146.87 238.713   6
 -13  -4  -1 1094.57 235.962   6
 -13   4  -1 793.656 188.337   6
 -13  -4   1 1027.59 223.870   6
 -13  -5  -1 1079.37 230.023   5
 -13  -5   1 1263.23 244.041   5
 -13  -5  -1 1086.53 236.138   6
 -13   5  -1 1159.60 222.953   6
 -13  -5   1 1478.33 262.469   6
 -13   5   1 1262.77 242.651   6
 -13  -6  -1 498.796 195.224   5
 -13  -6   1 218.001 128.908   5
 -13   6   1 391.391 158.112   6
 -13  -6  -1 498.547 175.018   6
 -13  -6   1 148.052 115.541   6
 -13   6  -1 9.86868 132.279   6
 -13  -7  -1 769.129 213.861   5
 -13  -7   1 796.662 215.640   5
 -13   7  -1 805.737 200.882   6
 -13  -7  -1 699.981 183.198   6
 -13  -7   1 790.330 202.018   6
 -13   7   1 638.087 190.362   6
 -13   8  -1 2214.99 291.535   6
 -13   8   1 2664.11 328.713   6
 -13  -8  -1 1893.28 279.387   6
 -13  -8  -1 2687.84 349.593   5
 -13  -8   1 3217.73 373.362   5
 -13  -9  -1 1635.13 278.302   6
 -13   9  -1 1064.33 203.494   6
 -13  -9   1 1893.97 308.953   5
 -13   9   1 1436.57 259.059   6
 -13  -9  -1 1811.01 303.834   5
 -13  10  -1 1450.52 244.973   6
 -13  10   1 1029.07 218.163   6
 -13 -10  -1 1631.06 274.274   5
 -13 -10   1 1887.48 300.718   5
 -13 -11  -1 302.980 152.980   5
 -13 -11   1 143.138 132.527   5
 -13  11   1 290.704 139.878   6
 -13 -12   1-153.149 145.947   5
 -13 -12  -1 50.4733 103.741   5
 -13  12   1 159.456 124.636   6
 -13 -13   1 591.019 203.953   5
 -13 -13  -1 359.204 170.429   5
 -13 -14  -1 1085.83 238.490   5
 -14   0  -1 5587.44 490.210   6
 -14   0   1 5688.53 494.616   6
 -14   0   1 5465.96 489.926   5
 -14   1   1 1007.12 226.071   5
 -14  -1   1 566.449 177.240   5
 -14   1  -1 745.069 215.017   6
 -14  -1   1 621.301 202.225   6
 -14   1   1 699.235 200.448   6
 -14  -1  -1 591.274 194.880   5
 -14  -1  -1 571.973 186.119   6
 -14  -2   1 1060.05 229.037   5
 -14  -2  -1 1198.24 257.389   6
 -14   2  -1 1390.95 268.718   6
 -14  -2   1 1243.49 250.671   6
 -14   2   1 1375.24 261.320   6
 -14   2   1 1612.58 285.837   5
 -14  -2  -1 1743.88 296.594   5
 -14   3   1 278.384 160.312   5
 -14  -3  -1 298.835 171.941   5
 -14  -3   1 222.343 145.218   6
 -14  -3   1 161.736 129.942   5
 -14  -3  -1-196.261 176.504   6
 -14   3  -1 34.8349 112.830   6
 -14   3   1-14.8361 114.285   6
 -14  -4  -1 2064.85 321.003   6
 -14   4  -1 1136.21 228.506   6
 -14  -4   1 1390.60 262.276   6
 -14  -4  -1 2130.35 317.033   5
 -14   4   1 2222.80 327.759   6
 -14  -4   1 1403.01 266.434   5
 -14  -5  -1 1045.28 247.216   5
 -14  -5   1 1025.31 241.358   5
 -14  -5  -1 959.069 234.703   6
 -14   5  -1 712.670 181.735   6
 -14   5   1 612.724 185.948   6
 -14  -5   1 880.117 217.391   6
 -14  -6  -1 1176.87 258.105   5
 -14  -6   1 1501.93 291.163   5
 -14   6   1 1117.11 244.414   6
 -14   6  -1 854.566 202.672   6
 -14  -6  -1 878.402 208.405   6
 -14  -6   1 1376.34 264.809   6
 -14  -7  -1 827.439 222.844   5
 -14  -7   1 963.606 238.445   5
 -14   7   1 1157.73 257.168   6
 -14   7  -1 1088.84 232.144   6
 -14  -7   1 1094.52 237.336   6
 -14  -7  -1 842.617 203.977   6
 -14  -8  -1 787.258 222.214   5
 -14  -8   1 632.525 204.523   5
 -14  -8  -1 703.005 215.655   6
 -14   8  -1 215.999 130.497   6
 -14   8   1 615.910 182.755   6
 -14   9  -1 163.985 102.380   6
 -14  -9  -1 140.577 131.272   6
   0   0  -2 152939. 1553.53   4
   0   0  -2 148670. 1227.60   3
   0   0   2 151700. 1567.50   2
   0   1  -2 76.6652 43.4542   3
   0  -1   2 32.4926 19.2740   1
   0  -1  -2-39.6387 58.5722   4
   0  -1   2 51.1561 106.091   2
   0   1  -2-30.3561 64.6990   4
   0  -1  -2 105.692 64.4770   3
   0  -2   2 39278.8 841.060   2
   0   2  -2 38540.1 814.149   4
   0  -2  -2 37569.5 441.934   1
   0  -2   2 36771.8 473.593   1
   0  -2  -2 37772.3 689.412   3
   0  -3  -2-1.48468 57.2671   3
   0   3  -2 6.61928 28.5761   3
   0  -3  -2 4.78293 56.4122   4
   0  -3   2-36.8091 92.7706   2
   0  -3  -2 142.502 47.7207   1
   0  -3   2 19.3442 24.2978   1
   0   3  -2 37.3255 69.3986   4
   0  -4  -2 249661. 1951.53   3
   0  -4  -2 240802. 2017.32   4
   0   4  -2 242656. 2052.85   4
   0  -4   2 218735. 1508.88   1
   0  -4   2 244217. 2130.92   2
   0   5  -2-40.2052 33.0060   3
   0  -5   2 82.8314 97.9584   2
   0  -5  -2 29.6725 67.4958   4
   0  -5   2 43.8246 44.1629   1
   0  -5  -2 48.4315 41.8621   1
   0  -6   2 146740. 1731.39   2
   0   6  -2 143904. 1121.67   3
   0   7  -2 22.9776 32.5798   3
   0  -7   2 1.21550 88.3977   2
   0  -7  -2 87.3734 89.9830   4
   0  -7   2 105.576 80.1456   1
   0  -7  -2 41.9435 56.7561   1
   0   8  -2 103803. 1015.69   3
   0  -8  -2 109688. 1410.86   1
   0  -8  -2 110701. 1650.44   4
   0   8   2 103753. 1015.48   2
   0  -8   2 110062. 1529.54   2
   0  -8   2 112597. 1420.23   1
   0  -8   2 111759. 1142.44   5
   0   9  -2 70.8173 41.2802   3
   0  -9   2-37.3605 76.1362   5
   0  -9  -2 0.30383 89.6584   4
   0  -9  -2 16.4810 81.3109   1
   0  -9   2 81.2760 90.1053   2
   0  -9   2 25.3379 63.0024   1
   0 -10  -2 37154.5 911.844   1
   0 -10  -2 39321.3 1069.04   4
   0 -10   2 40443.5 969.008   2
   0 -10   2 37590.4 913.384   1
   0 -10   2 39038.0 728.216   5
   0 -11   2-93.1595 131.068   2
   0 -11  -2-1.48345 93.1783   4
   0 -11   2-109.463 108.086   5
   0 -11  -2 118.690 101.404   1
   0 -11   2-5.78734 71.7610   1
   0 -12  -2 65233.4 1342.47   1
   0 -12   2 62356.5 1302.67   1
   0 -12  -2 65346.0 1474.78   4
   0 -12   2 59545.2 1202.51   2
   0 -12   2 68008.7 1022.78   5
   0 -13  -2 144.048 130.762   1
   0 -13  -2-18.4883 121.215   4
   0 -13   2 32.0685 84.4859   1
   0 -13   2 99.8217 96.1847   2
   0 -14  -2 11976.7 688.599   4
   0 -14   2 12714.7 638.592   1
   0 -14  -2 13643.1 684.261   1
   0 -14   2 13120.2 489.144   5
   0 -15   2 121.707 122.361   5
   0 -15  -2 20.0149 108.953   4
   0 -15   2-36.7485 87.7097   1
   0 -15  -2-169.339 132.204   1
   0 -16  -2 7322.53 572.385   4
   0 -16   2 8266.08 420.199   5
   0 -16   2 7495.10 544.718   1
   0 -17   2 121.983 98.6532   5
   0 -17   2 161.291 135.029   1
   0 -17  -2-173.289 148.514   4
   0 -17  -2-50.2791 114.195   1
   0 -18  -2 5118.51 528.393   4
   0 -18  -2 5902.02 540.273   1
   0 -18   2 5907.78 530.374   1
   0 -18   2 6323.78 388.202   5
   0 -19  -2-7.13208 113.245   1
   0 -19   2 210.286 112.077   5
   0 -19  -2-143.099 155.494   4
   0 -19   2 165.758 153.784   1
   0 -20  -2 4769.38 550.914   4
   0 -20   2 5522.77 537.425   1
   0 -20   2 5955.90 401.449   5
   0 -21   2-99.7549 103.117   5
   0 -21  -2 90.8474 141.245   4
   0 -21   2-48.2741 97.7743   1
   0 -21  -2 148.462 147.040   1
   0 -22   2 2500.46 295.241   5
   0 -22  -2 2288.46 392.999   1
   0 -23   2-85.6250 119.801   5
   0 -24   2 851.675 187.299   5
   0 -25   2-91.3249 112.830   5
   0 -26   2 734.046 178.592   5
   0 -27   2-106.743 138.274   5
  -1   0  -2 20.0439 57.8281   3
  -1   0  -2 54.7078 54.9339   4
   1   0  -2-51.9077 59.8305   4
   1   1  -2 6545.24 336.644   4
   1  -1  -2 5922.72 312.519   4
  -1  -1   2 4154.62 194.660   1
  -1   1  -2 6263.39 327.388   4
  -1   1   2 6051.60 289.857   2
  -1  -1  -2 6493.81 335.712   4
  -1  -1  -2 6460.24 297.191   3
  -1   1  -2 6067.45 267.518   3
   1   1  -2 4181.73 185.392   3
  -1  -1   2 6039.32 308.860   2
  -1  -2  -2 66361.6 1064.37   4
  -1   2  -2 66309.8 1073.60   4
   1  -2  -2 67551.2 1053.45   4
  -1  -2  -2 64604.3 949.122   3
   1   2  -2 66333.6 1068.39   4
  -1  -2   2 65408.5 1032.63   2
  -1   2   2 62588.6 898.209   2
  -1   2  -2 63458.0 853.107   3
  -1  -3  -2 8290.86 205.967   1
  -1  -3   2 7723.67 286.882   1
  -1  -3  -2 7539.75 364.364   4
  -1  -3   2 7914.87 368.205   2
  -1   3  -2 7534.93 296.253   3
  -1   3  -2 7499.34 364.287   4
   1   3  -2 7500.02 200.701   3
  -1  -3  -2 8000.46 351.146   3
   1  -3  -2 7933.42 376.963   4
   1   3  -2 7912.28 373.845   4
  -1   3   2 8004.09 313.030   2
   1  -3   2 7818.08 220.437   1
   1   4  -2 37691.8 421.124   3
  -1  -4  -2 37793.9 835.631   4
   1  -4  -2 37312.6 786.497   4
  -1  -4   2 39722.6 857.118   2
  -1  -4   2 37457.1 654.604   1
  -1  -4  -2 37125.7 767.952   3
   1  -4  -2 26405.0 573.535   1
  -1   4  -2 37022.2 794.544   4
   1  -4   2 28043.5 504.228   1
  -1   4   2 38344.7 660.662   2
  -1   4  -2 37722.1 668.940   3
  -1  -4  -2 38694.2 537.666   1
  -1   5  -2 56451.2 819.670   3
  -1  -5  -2 59745.1 1103.94   4
   1  -5  -2 59240.2 1046.59   4
   1   5  -2 58963.6 505.038   3
  -1   5  -2 57198.8 1014.43   4
  -1  -5   2 55913.0 839.068   1
  -1  -5  -2 55887.8 998.402   3
  -1  -5   2 59703.8 1068.34   2
   1  -5  -2 55519.9 853.908   1
   1  -5   2 60130.8 800.959   1
  -1  -6  -2 37365.6 891.562   4
   1  -6  -2 40748.6 944.812   4
  -1  -6   2 38548.8 876.180   2
  -1  -6   2 37398.5 742.195   1
   1  -6  -2 34956.7 712.214   1
  -1   6   2 37262.4 595.559   2
  -1   6  -2 36216.6 670.911   3
   1  -6   2 38866.8 726.749   1
  -1  -6  -2 36000.7 824.730   3
  -1  -7   2 46574.0 983.901   2
  -1  -7  -2 42052.2 943.551   3
  -1  -7  -2 41060.6 959.279   4
   1  -7  -2 46093.0 984.983   4
   1  -7  -2 43651.4 852.752   1
   1  -7   2 45416.9 744.985   5
   1   7  -2 41888.7 442.428   3
  -1   7   2 43570.1 595.390   2
  -1  -7   2 45366.4 690.406   5
  -1  -7   2 48303.0 917.651   1
   1  -7   2 43053.2 1001.65   2
  -1   7  -2 43505.5 745.874   3
   1  -7   2 46417.9 856.939   1
   1  -8   2 104809. 1177.87   5
   1  -8   2 106110. 1587.16   2
   1  -8  -2 106421. 1426.01   1
  -1  -8  -2 108384. 1643.25   4
   1  -8  -2 108227. 1571.77   4
  -1  -8   2 114972. 1490.88   1
  -1   8  -2 107416. 1242.36   3
  -1  -8   2 111455. 1526.51   2
  -1  -8   2 108377. 1117.70   5
   1  -8   2 112275. 1430.52   1
   1  -9   2 881.452 145.012   1
  -1  -9  -2 717.001 144.554   1
  -1  -9   2 858.197 146.818   1
   1  -9   2 701.136 121.105   5
  -1  -9   2 1048.70 131.938   5
   1  -9  -2 762.683 158.963   4
  -1   9  -2 799.040 126.345   3
   1  -9   2 901.889 176.362   2
  -1  -9  -2 663.606 154.873   4
  -1  -9   2 784.485 169.953   2
   1  -9  -2 861.358 150.352   1
   1 -10   2 44842.0 824.194   5
   1 -10  -2 45884.4 1078.51   1
  -1 -10  -2 43360.2 1133.03   4
   1 -10  -2 44863.4 1117.79   4
  -1 -10   2 44185.4 1028.73   1
  -1 -10   2 44185.3 974.774   2
   1 -10   2 45375.0 1054.22   2
  -1  10  -2 43598.1 849.414   3
   1 -10   2 48230.5 1055.96   1
  -1 -10   2 45107.5 782.676   5
  -1 -10  -2 41187.6 970.739   1
  -1 -11   2 10768.8 533.501   1
  -1 -11  -2 10455.7 589.439   4
   1 -11  -2 9736.27 546.475   4
   1 -11   2 11504.1 434.834   5
   1 -11  -2 10826.8 567.445   1
  -1 -11   2 7734.07 423.763   2
  -1 -11  -2 8170.35 461.037   1
   1 -11   2 8682.66 469.897   2
  -1  11  -2 10852.2 445.988   3
   1 -11   2 10923.9 519.107   1
  -1 -11   2 11307.0 406.115   5
   1 -12  -2 10892.4 592.955   1
  -1 -12  -2 10395.3 527.734   1
  -1 -12  -2 10366.8 603.659   4
   1 -12  -2 9578.74 564.235   4
  -1 -12   2 10761.6 560.045   1
   1 -12   2 11244.3 524.124   2
   1 -12   2 10184.8 531.513   1
  -1 -12   2 10782.9 411.371   5
   1 -12   2 10555.5 424.229   5
   1 -13  -2 7129.25 498.951   1
  -1 -13   2 6783.34 472.123   1
  -1 -13  -2 6996.98 512.452   4
   1 -13  -2 6848.31 505.438   4
  -1 -13   2 7458.66 417.596   2
  -1 -13  -2 8002.91 486.359   1
   1 -13   2 7126.17 477.099   1
  -1 -13   2 7285.79 354.525   5
   1 -13   2 7554.17 371.109   5
   1 -14  -2 31627.7 1081.23   1
  -1 -14  -2 33022.5 1155.04   4
   1 -14  -2 33084.1 1122.06   4
  -1 -14   2 31670.1 1044.23   1
  -1 -14   2 33802.1 785.193   5
   1 -14   2 34805.8 1094.03   1
   1 -14   2 32960.0 787.332   5
   1 -15  -2 383.275 162.444   4
  -1 -15   2 346.640 151.889   1
  -1 -15   2 347.089 102.551   5
   1 -15   2 422.768 106.846   5
  -1 -15  -2 318.914 171.542   4
   1 -15  -2 329.748 149.603   1
   1 -15   2 146.077 99.1955   1
  -1 -15  -2 458.422 164.420   1
  -1 -16  -2 8326.76 629.723   4
   1 -16  -2 8635.23 597.416   1
   1 -16  -2 7963.60 587.176   4
   1 -16   2 8221.57 559.385   1
  -1 -16  -2 9718.94 628.912   1
   1 -16   2 9115.27 442.030   5
  -1 -16   2 8033.90 564.904   1
  -1 -16   2 9491.88 442.941   5
   1 -17  -2 1348.15 263.987   1
  -1 -17  -2 1560.64 316.951   4
   1 -17  -2 1508.53 283.367   4
  -1 -17   2 1265.95 243.321   1
   1 -17   2 1363.15 249.857   1
  -1 -17  -2 1697.42 285.633   1
  -1 -17   2 1463.50 198.065   5
   1 -17   2 1526.09 202.348   5
  -1 -18   2 698.765 150.241   5
   1 -18   2 475.068 143.447   5
   1 -18  -2 341.909 175.898   1
   1 -18  -2 478.372 177.750   4
   1 -18   2 392.952 155.564   1
  -1 -18  -2 347.227 171.794   4
  -1 -18  -2 346.416 150.549   1
  -1 -18   2 396.811 158.452   1
   1 -19  -2 1283.98 301.667   1
  -1 -19  -2 810.735 221.521   1
   1 -19  -2 1019.79 252.585   4
  -1 -19  -2 1464.26 298.876   4
  -1 -19   2 1432.74 216.244   5
  -1 -19   2 1475.75 293.865   1
   1 -19   2 1106.12 253.777   1
   1 -19   2 1318.01 213.327   5
   1 -20  -2 3248.91 438.333   4
  -1 -20  -2 2406.63 400.042   4
   1 -20  -2 4507.59 546.558   1
  -1 -20  -2 2907.42 389.995   1
  -1 -20   2 5163.73 533.963   1
   1 -20   2 4074.55 455.518   1
  -1 -20   2 4973.92 369.172   5
   1 -20   2 5381.34 396.016   5
   1 -21  -2 470.595 193.902   1
  -1 -21   2 516.992 149.122   5
   1 -21   2 906.578 194.247   5
  -1 -21  -2 838.803 230.298   1
  -1 -21   2 679.299 225.398   1
   1 -21   2 383.892 170.094   1
   1 -21  -2 631.936 224.241   4
  -1 -21  -2 644.027 240.823   4
   1 -22  -2 1874.81 372.101   1
  -1 -22  -2 2086.17 377.070   1
   1 -22  -2 1864.35 370.010   4
  -1 -22   2 2317.65 284.341   5
   1 -22   2 2244.55 278.025   5
  -1 -23   2 486.364 159.187   5
   1 -23   2 369.385 158.619   5
  -1 -24   2 576.790 168.118   5
   1 -24   2 421.294 150.048   5
  -1 -25   2 316.298 145.851   5
   1 -25   2 474.493 156.760   5
  -1 -26   2 1692.47 257.501   5
   1 -26   2 1810.32 276.936   5
  -1 -27   2 287.806 159.731   5
   1 -27   2-227.187 143.567   5
  -2   0  -2 96636.5 1262.08   4
   2   0  -2 98401.7 1263.30   4
  -2   0   2 95120.1 1166.80   2
  -2   0  -2 94349.1 1187.14   3
  -2   1   2 28502.9 627.780   2
  -2  -1   2 28053.8 656.097   2
   2  -1  -2 29470.0 686.793   4
  -2  -1  -2 30188.8 720.330   4
   2   1  -2 30909.7 725.839   4
  -2  -1  -2 28929.6 682.490   3
  -2   1  -2 29465.6 682.493   4
  -2   1  -2 29926.2 674.008   3
  -2  -2   2 55475.9 945.764   2
  -2   2  -2 57967.3 964.167   4
   2  -2   2 57132.5 542.923   1
  -2  -2   2 57546.3 874.728   1
  -2  -2  -2 54193.6 943.939   4
   2   2  -2 59708.9 1020.62   4
  -2   2  -2 58238.9 928.926   3
  -2  -2  -2 60514.1 1032.92   3
   2  -2  -2 58065.1 953.644   4
  -2   2   2 57039.4 862.055   2
   2  -3   2 1999.36 121.118   1
   2   3  -2 1972.15 199.453   4
  -2  -3  -2 2062.41 199.550   3
  -2  -3  -2 1719.04 196.963   4
  -2  -3   2 1947.28 173.490   1
  -2   3  -2 1914.11 190.015   4
   2  -3  -2 1941.19 192.179   4
  -2   3   2 2014.43 160.516   2
  -2  -3   2 2173.81 198.491   2
  -2   3  -2 2568.22 202.291   3
  -2  -3  -2 1811.89 106.908   1
   2  -4  -2 21310.8 584.410   1
  -2  -4   2 23248.1 612.421   1
  -2   4  -2 21182.3 611.055   4
  -2  -4  -2 21378.5 656.733   4
  -2  -4  -2 20898.6 611.655   3
  -2   4   2 19460.7 460.302   2
   2  -4  -2 20849.0 589.468   4
  -2  -4   2 19386.7 593.523   2
  -2  -4  -2 20108.6 389.404   1
  -2   4  -2 21692.2 583.777   3
  -2   5  -2 21025.8 624.304   4
  -2   5   2 19709.6 445.125   2
   2  -5   2 20622.4 488.341   1
  -2  -5  -2 22178.8 701.124   4
   2  -5  -2 21596.7 626.892   4
   2  -5  -2 21602.7 607.994   1
  -2  -5   2 21997.8 593.641   1
  -2  -5   2 20179.1 624.543   2
  -2  -5  -2 21029.9 630.202   3
  -2   5  -2 21487.5 580.919   3
  -2   6   2 48982.5 689.036   2
  -2  -6  -2 50077.3 1043.10   4
   2  -6  -2 54134.7 1029.50   4
   2  -6   2 49429.7 825.753   1
  -2  -6   2 51711.1 937.061   1
  -2   6  -2 53315.8 777.057   7
  -2   6  -2 49081.4 872.632   3
  -2   6  -2 50143.9 981.814   4
   2  -6  -2 52578.2 1002.67   1
  -2  -6   2 51264.2 1002.74   2
  -2  -6  -2 49979.0 994.701   3
   2  -7   2 55273.4 936.647   1
  -2   7  -2 59020.1 843.868   7
  -2   7   2 54034.7 692.504   2
  -2  -7   2 56950.3 1017.81   1
  -2  -7  -2 57043.7 1194.55   4
   2  -7  -2 58135.4 1086.61   4
   2  -7  -2 54941.1 1041.63   1
  -2  -7  -2 56265.9 1095.17   3
  -2  -7   2 54022.6 1044.02   2
  -2   7  -2 56390.1 986.028   3
  -2  -7   2 58963.4 813.815   5
   2  -8   2 47666.7 919.091   1
   2  -8  -2 45001.5 982.398   1
  -2  -8  -2 46692.6 1096.21   4
   2  -8  -2 48627.7 1032.36   4
  -2  -8   2 46673.3 965.519   1
  -2  -8   2 49154.6 772.661   5
  -2   8  -2 50049.6 796.702   7
  -2  -8  -2 46447.1 1041.00   3
  -2  -8   2 45706.8 965.099   2
  -2   8  -2 48076.9 948.850   3
   2  -9   2 8550.24 384.780   5
   2  -9   2 8126.12 403.890   1
  -2  -9   2 8128.60 427.009   1
  -2  -9  -2 7892.22 484.838   4
   2  -9  -2 7459.86 435.122   4
  -2  -9  -2 7773.90 442.186   3
  -2  -9   2 7483.46 394.193   2
   2  -9  -2 7533.46 433.652   1
  -2  -9  -2 8455.78 303.988   6
  -2   9  -2 7685.85 390.718   3
  -2  -9   2 7951.09 322.912   5
   2 -10   2 3897.87 275.877   5
   2 -10   2 4143.62 302.330   1
  -2 -10  -2 4575.09 228.334   6
  -2 -10  -2 3809.64 349.674   4
   2 -10  -2 4327.70 345.223   4
  -2 -10  -2 3209.73 269.255   1
   2 -10  -2 4029.01 330.142   1
  -2 -10   2 4040.28 300.755   2
  -2 -10   2 4027.10 322.139   1
  -2  10  -2 3964.82 297.587   3
  -2 -10   2 3632.53 233.192   5
   2 -11   2 9240.78 407.703   5
   2 -11   2 9423.28 484.114   1
   2 -11  -2 8912.84 516.104   1
  -2 -11  -2 8428.98 545.123   4
   2 -11  -2 8388.91 501.117   4
   2 -11   2 6164.37 424.600   2
  -2 -11  -2 9554.10 335.636   6
  -2 -11   2 8887.02 468.690   2
  -2 -11  -2 6573.96 402.591   1
  -2 -11   2 8856.22 489.322   1
  -2  11  -2 9128.94 456.726   3
  -2 -11   2 9493.13 382.156   5
   2 -12   2 38960.5 850.588   5
   2 -12   2 40776.3 1061.69   1
   2 -12  -2 38539.6 1119.54   1
  -2 -12  -2 39472.1 1205.07   4
   2 -12  -2 40650.0 1126.87   4
  -2 -12  -2 35308.1 977.035   1
  -2 -12   2 37349.4 978.412   2
  -2 -12   2 38934.5 1098.75   1
   2 -12   2 40464.2 1041.84   2
  -2  12  -2 39064.9 966.580   3
  -2 -12   2 39964.8 805.636   5
   2 -13   2 8458.27 410.016   5
   2 -13   2 9484.35 544.894   1
   2 -13  -2 8489.80 562.903   1
  -2 -13  -2 8269.08 588.941   4
   2 -13  -2 8556.22 546.545   4
  -2 -13  -2 8757.94 516.766   1
  -2 -13   2 8069.36 457.165   2
  -2 -13   2 8184.08 525.963   1
  -2  13  -2 8010.67 442.715   3
  -2 -13   2 8524.02 386.384   5
   2 -14   2 7265.07 401.276   5
   2 -14   2 7995.68 536.154   1
   2 -14  -2 6962.40 538.028   1
  -2 -14  -2 7113.82 557.062   4
   2 -14  -2 6878.58 511.122   4
  -2 -14   2 6750.10 434.993   2
  -2 -14   2 7497.46 538.893   1
  -2 -14  -2 7184.69 490.030   1
  -2 -14   2 7309.33 374.848   5
   2 -15   2 3160.16 265.434   5
   2 -15  -2 3173.96 381.443   1
  -2 -15  -2 2872.60 369.752   4
   2 -15  -2 2626.42 336.176   4
   2 -15   2 3840.37 412.399   1
  -2 -15   2 3464.35 388.735   1
  -2 -15  -2 3253.89 348.330   1
  -2 -15   2 3828.35 284.434   5
   2 -16  -2 4817.18 469.776   1
  -2 -16  -2 4313.83 467.172   4
   2 -16  -2 4545.93 440.755   4
  -2 -16  -2 5435.70 469.989   1
  -2 -16   2 4879.42 477.864   1
  -2 -16   2 5199.03 338.133   5
   2 -16   2 5029.86 461.734   1
   2 -16   2 5209.57 348.516   5
   2 -17  -2 3877.01 429.326   4
   2 -17  -2 3363.20 422.063   1
  -2 -17   2 3520.05 417.868   1
  -2 -17  -2 3460.90 437.957   4
  -2 -17  -2 3959.47 421.180   1
  -2 -17   2 3874.81 302.265   5
   2 -17   2 3445.14 391.234   1
   2 -17   2 3600.74 298.722   5
  -2 -18  -2 6975.28 634.132   4
   2 -18  -2 7489.35 619.352   1
  -2 -18   2 7653.01 626.720   1
   2 -18   2 7678.64 441.160   5
  -2 -18  -2 5969.03 536.942   1
   2 -18  -2 7539.10 609.337   4
   2 -18   2 7631.49 590.818   1
  -2 -18   2 7770.08 438.546   5
   2 -19  -2 1717.01 321.038   1
   2 -19  -2 1542.53 311.551   4
  -2 -19  -2 1761.91 349.239   4
  -2 -19   2 1880.27 343.474   1
  -2 -19  -2 1421.76 275.019   1
  -2 -19   2 2089.26 235.353   5
   2 -19   2 1747.89 307.390   1
   2 -19   2 2513.12 269.470   5
  -2 -20   2-91.9371 132.696   5
   2 -20   2-7.07584 96.3733   5
   2 -20  -2-67.0644 146.199   1
  -2  20   2 456.277 221.436   3
  -2 -20   2-14.0931 117.348   1
  -2 -20  -2 118.934 160.023   4
  -2 -20  -2 73.5976 132.303   1
   2 -20   2 96.0107 145.004   1
   2 -20  -2 183.627 191.018   4
  -2 -21   2 359.089 124.703   5
   2 -21   2 601.508 181.902   5
   2 -21  -2 267.729 206.449   1
  -2  21   2 810.216 275.710   3
  -2 -21   2 295.810 183.717   1
   2 -21  -2 984.631 260.366   4
  -2 -21  -2 291.994 200.421   4
  -2 -21  -2 520.564 209.520   1
   2 -21   2 301.005 181.359   1
  -2 -22  -2 4485.77 535.040   1
  -2 -22   2 5033.34 405.252   5
   2 -22   2 5263.41 418.450   5
  -2 -23   2 956.694 207.648   5
   2 -23   2 1336.41 251.797   5
  -2 -24   2 3131.29 347.444   5
   2 -24   2 2503.44 299.307   5
   2 -25   2 1274.06 234.106   5
  -2 -25   2 1950.66 286.065   5
   2 -26   2 163.931 131.475   5
  -2 -26   2 199.313 128.683   5
  -2 -27   2 418.003 158.389   5
  -3   0   2-176.599 82.3341   2
  -3   0  -2 228.647 76.6176   3
   3   0  -2-29.2270 64.9649   4
  -3   0  -2 170.497 78.3337   4
  -3  -1  -2 27434.3 667.249   4
  -3  -1   2 27140.4 686.344   2
  -3   1   2 26389.6 633.848   2
  -3  -1  -2 27287.5 711.123   3
  -3   1  -2 26769.8 660.928   4
  -3   1  -2 27330.3 713.704   3
   3   1  -2 28931.6 705.078   4
   3  -1  -2 28337.6 677.156   4
   3  -1   2 26863.2 447.402   1
  -3  -2   2 164197. 1137.31   3
  -3  -2   2 163250. 1686.85   1
  -3  -2  -2 151348. 1640.92   4
  -3   2  -2 155494. 1563.19   4
   3   2  -2 165214. 1710.42   4
  -3  -2   2 154516. 1687.33   2
   3  -2   2 159840. 1149.23   1
  -3   2   2 160584. 1556.65   2
  -3  -2  -2 157197. 1705.53   3
   3  -2  -2 158868. 1564.42   4
  -3   2  -2 163044. 1748.63   3
  -3  -3   2 49138.1 534.467   3
  -3  -3   2 51942.6 960.318   1
  -3  -3  -2 47648.1 664.379   1
   3  -3  -2 54621.2 954.899   4
  -3  -3  -2 51415.3 998.085   4
  -3  -3  -2 51544.8 1017.43   3
   3   3  -2 50630.3 962.078   4
  -3  -3   2 49553.2 977.373   2
  -3   3   2 52618.2 880.200   2
  -3   3  -2 50834.2 907.490   4
  -3   3  -2 53751.7 1010.47   3
   3  -3   2 48120.1 670.187   1
  -3  -4  -2 66970.8 1187.81   4
  -3  -4   2 70232.0 1168.47   1
  -3   4   2 68102.8 979.471   2
  -3  -4  -2 68627.9 866.326   1
  -3   4  -2 67638.8 1083.20   4
  -3  -4   2 62535.2 1120.60   2
  -3   4  -2 73381.6 925.645   7
   3  -4  -2 67149.8 1046.09   4
  -3  -4  -2 66605.3 1180.66   3
  -3   4  -2 67689.8 1134.94   3
   3  -4   2 58805.7 801.463   1
  -3   5   2 2545.79 194.192   2
  -3  -5  -2 3133.47 192.465   6
  -3  -5   2 2724.00 163.589   5
  -3  -5  -2 1606.13 141.055   1
  -3  -5  -2 2099.61 217.057   3
  -3  -5  -2 2268.95 232.459   4
   3  -5   2 2783.87 189.697   1
   3  -5  -2 2313.93 205.507   4
  -3   5  -2 2838.01 189.908   7
  -3  -5   2 2093.95 212.324   2
   3  -5  -2 2361.37 235.443   1
  -3  -5   2 2642.05 236.671   1
  -3   5  -2 2329.48 209.675   4
  -3   5  -2 2543.47 229.973   3
   3  -6   2 152.680 75.3931   1
  -3  -6  -2 24.5915 76.6236   3
  -3  -6   2-94.6038 98.8576   2
  -3   6  -2-4.31578 56.5171   3
   3  -6  -2 14.5690 74.8571   1
  -3  -6   2 44.6304 62.9012   1
  -3   6   2 123.420 60.1087   2
  -3  -6  -2 55.8351 34.2213   1
  -3  -6  -2 58.3493 87.0148   4
  -3   6  -2 115.401 77.9185   4
   3  -6  -2 131.279 79.3365   4
  -3  -6  -2 110.374 57.2932   6
  -3   6  -2 142.222 68.5745   7
  -3  -6   2 181.850 72.4768   5
  -3  -6  -2 144.363 102.106   2
  -3   7  -2 9229.17 430.743   4
   3  -7   2 13123.2 466.725   1
  -3  -7  -2 10874.3 455.436   2
  -3  -7  -2 13224.5 591.894   4
   3  -7  -2 13269.4 516.193   4
  -3  -7  -2 15145.1 435.742   6
  -3  -7   2 12677.7 533.716   1
  -3  -7  -2 12508.3 538.741   3
  -3  -7  -2 8606.92 361.276   1
  -3   7   2 12822.7 391.449   2
  -3  -7   2 12443.6 526.101   2
   3  -7  -2 12403.3 556.813   1
  -3   7  -2 13328.9 421.343   7
  -3   7  -2 13434.8 540.348   3
  -3  -7   2 10822.3 366.782   5
  -3   8  -2 27886.2 629.042   7
   3  -8   2 37006.7 849.232   1
  -3  -8  -2 26033.9 697.275   2
  -3  -8  -2 37758.3 1037.49   4
   3  -8  -2 38089.8 896.658   4
  -3  -8   2 34311.9 897.439   2
  -3  -8   2 37320.9 933.947   1
  -3  -8  -2 24970.9 658.929   1
  -3   8   2 28034.5 614.734   6
   3  -8  -2 34788.9 934.953   1
  -3  -8  -2 34327.2 893.120   3
  -3  -8  -2 40130.9 679.873   6
  -3   8  -2 39662.7 942.313   3
  -3  -8   2 28879.2 620.795   5
  -3   9  -2 6559.33 402.029   3
  -3  -9  -2 6531.02 278.568   6
   3  -9  -2 6071.43 415.182   1
   3  -9   2 6571.38 387.443   1
  -3  -9  -2 6087.34 341.801   2
  -3  -9  -2 5749.92 427.598   4
   3  -9  -2 6662.77 400.578   4
  -3  -9   2 6165.35 391.453   1
  -3   9  -2 6408.09 321.012   7
  -3   9   2 5178.33 274.598   6
  -3  -9   2 6150.98 392.802   2
  -3  -9  -2 6158.78 397.203   3
  -3  -9  -2 4548.75 310.596   1
  -3  -9   2 6314.14 307.093   5
  -3 -10  -2 29496.4 992.105   4
   3 -10  -2 32141.0 910.219   4
  -3 -10   2 29366.9 876.451   1
  -3 -10  -2 29613.4 898.689   3
  -3 -10  -2 31935.7 615.044   6
  -3 -10   2 32493.3 933.917   2
   3 -10   2 30330.7 859.446   1
  -3 -10  -2 25013.0 781.511   1
  -3  10   2 22867.3 567.206   6
   3 -10  -2 29814.7 928.954   1
  -3  10  -2 30823.7 876.327   3
  -3 -10   2 34388.5 724.058   5
   3 -11  -2 3499.44 354.832   1
   3 -11   2 2623.03 257.631   1
  -3  11   2 4303.21 261.079   6
  -3 -11  -2 2992.10 339.104   4
   3 -11  -2 3255.96 314.119   4
  -3 -11   2 2986.71 297.565   1
  -3 -11   2 3538.68 324.353   2
  -3 -11  -2 3333.05 328.858   3
  -3 -11  -2 3434.01 295.165   1
  -3 -11  -2 3750.77 222.285   6
  -3  11  -2 3208.12 303.828   3
  -3 -11   2 3362.48 241.888   5
  -3 -12   2 104.418 98.5371   2
  -3  12   2 251.713 101.094   6
  -3  12  -2 13.6188 79.4437   3
   3 -12   2 127.732 115.951   5
   3 -12  -2-34.7225 136.236   1
  -3 -12   2 20.0119 80.4382   1
   3 -12   2-5.50428 110.888   1
  -3 -12  -2-201.172 147.810   4
   3 -12  -2 106.000 96.0235   4
  -3 -12  -2-79.8122 86.0057   1
  -3 -12   2-266.296 111.273   5
   3 -13   2 20150.8 668.574   5
   3 -13   2 20312.5 791.830   1
  -3 -13   2 18476.0 781.902   1
  -3 -13  -2 19880.9 913.307   4
   3 -13  -2 22024.0 858.327   4
   3 -13  -2 20122.8 867.262   1
  -3  13   2 20180.1 541.278   6
  -3 -13   2 21869.5 823.310   2
  -3 -13  -2 20940.3 801.892   1
  -3  13  -2 20504.3 777.640   3
  -3 -13   2 20716.9 622.763   5
   3 -14   2 6385.14 393.116   5
   3 -14   2 5811.00 444.609   1
  -3 -14   2 5668.28 457.699   1
   3 -14  -2 6000.42 496.728   1
  -3 -14  -2 6517.63 546.051   4
   3 -14  -2 6517.45 487.407   4
  -3 -14   2 6595.65 479.445   2
  -3 -14  -2 6004.91 454.946   1
  -3  14  -2 5821.25 416.709   3
  -3 -14   2 6737.14 371.542   5
   3 -15   2 6730.58 410.998   5
   3 -15   2 7025.53 509.639   1
   3 -15  -2 6245.26 536.444   1
   3 -15  -2 6751.01 508.696   4
  -3 -15   2 5774.22 475.152   1
  -3 -15  -2 6354.98 554.335   4
  -3 -15   2 7146.08 399.563   5
   3 -16   2 7435.84 439.744   5
   3 -16   2 7168.10 542.023   1
  -3 -16   2 6192.81 511.527   1
  -3 -16  -2 6899.96 604.465   4
   3 -16  -2 6638.05 533.928   4
   3 -16  -2 7723.63 633.813   1
  -3 -16   2 7377.98 416.264   5
   3 -17   2 58.5928 143.303   1
   3 -17   2 145.680 118.588   5
  -3  17   2 249.537 190.281   3
  -3 -17   2 51.5655 81.9683   5
  -3 -17  -2 6.96169 123.906   4
  -3 -17   2-64.4482 117.411   1
   3 -17  -2-56.7811 167.285   1
  -3 -17  -2-16.3111 91.8470   1
   3 -18   2 1917.24 235.931   5
   3 -18   2 1737.64 324.153   1
  -3  18   2 1653.09 323.324   3
   3 -18  -2 1724.73 313.981   1
  -3 -18  -2 1679.33 326.285   4
  -3 -18  -2 1216.96 252.839   1
  -3 -18   2 1616.01 291.855   1
  -3 -18   2 2237.62 257.897   5
  -3  19   2 1695.11 326.020   3
   3 -19   2 960.014 250.787   1
   3 -19   2 1497.91 217.890   5
  -3 -19  -2 1653.06 330.871   4
   3 -19  -2 1560.15 337.470   1
  -3 -19   2 1683.91 233.657   5
  -3 -19   2 1208.87 262.368   1
  -3 -19  -2 1130.21 254.350   1
  -3  20   2 3867.91 468.225   3
  -3 -20   2 4143.59 476.106   1
  -3 -20  -2 6701.74 663.077   4
  -3 -20  -2 6592.27 603.705   1
   3 -20  -2 5965.99 618.699   1
  -3 -20   2 7168.11 458.162   5
   3 -20   2 6608.64 607.944   1
   3 -20   2 6581.09 439.421   5
   3 -21   2 1761.70 337.587   1
   3 -21   2 1845.52 254.062   5
   3 -21  -2 1524.01 337.948   1
  -3 -21  -2 1657.57 313.534   1
  -3 -21   2 1947.68 263.209   5
   3 -22   2 439.349 156.134   5
  -3 -22   2 273.235 147.456   5
  -3 -23   2 968.633 201.414   5
   3 -23   2 1274.46 235.887   5
  -3 -24   2 1139.25 213.194   5
   3 -24   2 991.438 228.212   5
  -3 -25   2 559.272 171.006   5
   3 -25   2 437.866 164.056   5
  -3 -26   2 484.337 148.513   5
   3 -26   2 707.843 194.175   5
  -3 -27   2-78.7049 108.217   5
   4   0  -2 100299. 1311.72   4
  -4   0   2 104615. 1489.31   2
  -4   0  -2 96995.1 1006.58   6
  -4   0   2 102637. 1060.01   6
  -4   0  -2 93468.3 1449.15   3
  -4  -1   2 36756.1 671.227   3
  -4   1   2 26955.1 659.276   3
   4  -1  -2 37741.5 784.921   4
  -4  -1  -2 38007.1 935.497   2
  -4  -1  -2 29181.6 706.153   4
  -4  -1   2 40520.8 661.423   6
  -4  -1   2 38441.1 931.620   2
   4   1  -2 38745.0 827.841   4
  -4   1  -2 25939.1 647.425   4
  -4   1   2 39053.1 669.888   6
  -4   1  -2 36267.9 612.859   6
  -4  -1  -2 36397.1 901.742   3
  -4   1   2 38279.9 870.484   2
  -4   1  -2 36706.1 908.716   3
  -4  -1  -2 37492.9 631.142   6
   4  -2   2 2703.74 183.959   1
  -4   2   2 2858.14 231.410   3
   4   2  -2 3012.90 240.758   4
  -4   2   2 2835.69 236.183   2
   4  -2  -2 2466.52 200.079   4
  -4  -2  -2 2752.70 269.506   2
  -4  -2   2 2919.07 270.434   2
  -4  -2  -2 2358.52 223.988   4
  -4   2  -2 1902.79 183.239   4
  -4   2  -2 2752.34 171.064   6
  -4   2   2 2915.28 196.646   6
  -4  -2  -2 2521.92 244.721   3
  -4   2  -2 2916.38 271.157   3
  -4  -2  -2 2515.34 174.380   6
  -4  -2   2 2594.83 170.063   3
  -4   3   2 4214.94 290.628   3
  -4  -3  -2 4709.43 232.715   6
  -4   3   2 4374.66 284.202   2
  -4  -3  -2 3925.66 222.339   1
  -4  -3  -2 4671.07 340.016   2
  -4  -3  -2 3986.75 285.296   4
   4  -3   2 4154.82 233.222   1
   4   3  -2 4218.43 288.344   4
  -4  -3   2 4613.01 336.549   2
  -4   3   2 4932.22 254.789   6
   4  -3  -2 4160.01 268.700   4
  -4  -3   2 4083.28 312.277   1
  -4  -3  -2 3989.76 306.199   3
  -4   3  -2 4316.63 212.611   6
  -4   3  -2 4331.64 323.794   3
  -4  -3   2 4251.52 206.841   5
  -4   4   2 31325.1 819.854   3
  -4  -4  -2 31612.4 863.210   3
   4  -4   2 30069.3 646.238   1
  -4  -4  -2 32605.1 889.797   2
  -4  -4   2 30956.0 842.376   1
  -4  -4  -2 26208.1 595.037   1
  -4  -4  -2 29590.4 773.536   4
  -4   4  -2 21021.7 591.997   4
   4  -4  -2 30532.4 693.440   4
  -4  -4  -2 25525.4 550.504   6
  -4  -4   2 30968.2 870.291   2
  -4   4   2 31751.1 753.626   2
  -4   4   2 31602.3 633.535   6
  -4   4  -2 30930.0 553.658   6
  -4   4  -2 29988.7 846.766   3
  -4  -4   2 30824.1 572.659   5
  -4   4  -2 25111.6 596.009   7
  -4   5   2 21679.3 717.278   3
  -4  -5  -2 22357.7 718.243   2
  -4  -5  -2 21142.2 703.801   4
  -4  -5   2 23300.7 755.637   1
   4  -5  -2 23097.1 620.996   4
  -4  -5  -2 14612.1 467.870   1
  -4  -5   2 22958.3 767.531   2
  -4   5  -2 16223.3 476.993   7
  -4   5   2 15910.2 458.695   6
  -4  -5  -2 17262.2 462.196   6
  -4   5   2 22650.8 612.121   2
   4  -5   2 21791.3 572.373   1
  -4   5  -2 14773.3 503.757   4
  -4  -5  -2 22670.9 765.548   3
  -4   5  -2 22166.7 464.861   6
  -4   5  -2 22556.6 739.065   3
  -4  -5   2 15888.1 425.760   5
  -4   6   2 26191.5 816.243   3
  -4  -6  -2 21697.4 531.718   6
  -4   6   2 26218.2 638.467   2
  -4  -6  -2 18308.7 551.181   1
  -4  -6  -2 26885.4 788.182   2
   4  -6  -2 26254.5 845.750   1
  -4  -6  -2 26038.7 802.703   4
   4  -6  -2 29473.4 753.381   4
  -4  -6   2 26644.4 825.247   1
  -4  -6   2 27280.3 846.737   2
  -4   6   2 19548.2 519.823   6
   4  -6   2 25467.8 642.330   1
  -4  -6  -2 26402.8 813.130   3
  -4   6  -2 25899.4 780.003   3
  -4  -6   2 19414.2 481.306   5
  -4   6  -2 24095.8 667.398   4
  -4   6  -2 20869.7 560.513   7
  -4   7   2 5324.83 386.694   3
  -4   7  -2 5085.20 367.368   3
  -4  -7   2 4980.49 383.718   2
  -4   7  -2 4519.15 270.115   7
  -4  -7  -2 5581.84 374.492   2
  -4  -7  -2 4910.21 378.408   4
   4  -7  -2 4971.13 310.220   4
   4  -7   2 5653.43 327.133   1
  -4   7  -2 5563.85 333.367   4
  -4   7   2 3793.36 236.483   6
  -4  -7  -2 3947.96 232.889   6
   4  -7  -2 5038.26 392.876   1
  -4   7   2 5028.95 277.731   2
  -4  -7  -2 5044.33 365.876   3
  -4  -7  -2 3327.82 242.536   1
  -4  -7   2 5777.35 398.230   1
  -4  -7   2 3831.53 217.673   5
  -4  -8  -2 7320.40 448.328   3
  -4   8   2 7696.31 479.721   3
  -4  -8   2 7790.86 474.650   1
  -4  -8  -2 5293.33 360.857   2
  -4  -8  -2 7668.23 483.369   4
   4  -8   2 7552.08 398.514   1
   4  -8  -2 8014.56 413.000   4
  -4   8  -2 7676.92 349.640   7
  -4  -8  -2 5106.07 315.200   1
  -4  -8  -2 5533.33 279.583   6
  -4   8   2 5934.55 298.292   6
   4  -8  -2 7619.46 490.576   1
  -4  -8   2 8267.01 506.049   2
  -4   8  -2 7356.15 393.835   4
  -4   8  -2 7613.10 458.333   3
  -4  -8   2 7707.73 315.875   5
   4  -9   2 432.363 128.207   1
  -4  -9   2 436.835 160.609   2
  -4  -9  -2 372.854 148.014   3
  -4  -9   2 503.880 100.569   5
   4  -9  -2 368.576 161.976   1
  -4   9  -2 511.421 172.035   3
  -4   9   2 516.165 197.198   3
  -4  -9   2 352.999 109.823   1
  -4  -9  -2 286.045 105.238   1
  -4  -9  -2 386.993 155.342   4
   4  -9  -2 315.361 88.4114   4
  -4   9   2 838.244 133.596   6
  -4  -9  -2 196.641 70.2907   6
  -4   9  -2 552.844 135.221   7
  -4  -9  -2 292.655 115.680   2
  -4 -10  -2 60724.3 1168.08   1
  -4  10   2 56595.1 1373.20   3
  -4 -10   2 67132.1 1450.12   2
   4 -10   2 61462.1 1252.96   1
  -4 -10  -2 62256.4 1204.59   2
  -4 -10  -2 63638.4 1468.64   4
   4 -10  -2 64599.8 1252.85   4
  -4  10  -2 63822.9 1048.75   7
   4 -10  -2 61418.5 1425.67   1
  -4 -10   2 60461.5 1351.41   1
  -4  10   2 60535.7 924.060   6
  -4 -10  -2 62693.9 1328.39   3
  -4  10  -2 63459.7 1351.50   3
  -4 -10   2 61173.3 957.904   5
  -4 -11   2 4859.89 407.097   2
  -4  11   2 4135.77 410.960   3
  -4 -11   2 4547.61 393.430   1
  -4  11   2 3392.37 228.076   6
   4 -11   2 4280.65 350.903   1
  -4  11  -2 4761.86 311.036   7
  -4 -11  -2 5089.86 270.206   6
  -4 -11  -2 4082.52 419.459   4
   4 -11  -2 4450.98 402.982   1
  -4 -11  -2 4418.47 334.934   1
  -4 -11  -2 4582.04 390.107   3
  -4  11  -2 4385.92 374.311   3
  -4 -11   2 4629.68 279.727   5
  -4  12   2 14845.6 756.182   3
   4 -12   2 16071.9 722.905   1
  -4 -12  -2 14546.9 775.260   4
  -4 -12  -2 15287.4 650.504   1
   4 -12  -2 15513.8 759.531   1
  -4 -12   2 17093.0 758.549   2
  -4 -12   2 14549.3 702.271   1
  -4  12   2 14826.5 464.823   6
  -4 -12  -2 14810.2 682.002   3
  -4  12  -2 15763.3 713.763   3
  -4 -12   2 15673.6 518.679   5
  -4  13   2 3990.04 414.297   3
   4 -13   2 4187.53 380.074   1
  -4 -13  -2 4237.13 442.049   4
  -4 -13   2 3697.43 377.687   1
  -4 -13  -2 4484.20 405.678   3
  -4 -13  -2 4286.54 364.300   1
  -4 -13   2 4954.62 414.060   2
  -4  13   2 4268.50 256.242   6
  -4 -13   2 4036.22 278.895   5
  -4  13  -2 4333.35 387.461   3
   4 -13  -2 4665.25 444.152   1
   4 -14   2 3060.01 300.580   5
  -4  14   2 2791.15 370.518   3
   4 -14   2 2869.73 323.514   1
  -4 -14   2 2476.85 322.035   1
  -4 -14  -2 2594.73 361.049   4
   4 -14  -2 3254.11 395.960   1
  -4 -14   2 2929.85 329.374   2
  -4 -14  -2 3165.08 331.081   1
  -4 -14   2 3021.78 253.413   5
  -4  14  -2 2356.90 303.787   3
   4 -15  -2-14.7646 131.373   1
  -4 -15   2 64.8956 94.1693   5
  -4  15  -2 93.1981 99.9868   3
  -4 -15  -2 74.2522 97.5340   1
   4 -15   2 156.161 116.553   5
  -4  15   2 98.8860 146.785   3
  -4 -15   2 91.4325 122.550   1
  -4 -15  -2-21.0877 121.402   4
   4 -15   2 334.539 174.261   1
   4 -16   2 10519.5 538.693   5
  -4 -16  -2 9944.50 622.874   1
  -4  16   2 9006.72 650.729   3
   4 -16   2 9859.84 646.132   1
  -4 -16   2 9577.57 641.778   1
   4 -16  -2 9784.38 699.670   1
  -4 -16  -2 10297.5 745.721   4
  -4 -16   2 9961.64 478.362   5
  -4  16  -2 9148.53 606.614   3
   4 -17   2 6953.36 455.229   5
  -4  17   2 6313.20 571.344   3
  -4 -17   2 6011.77 526.378   1
   4 -17  -2 6482.37 610.818   1
  -4 -17  -2 7197.77 650.258   4
  -4 -17   2 6729.88 396.781   5
   4 -17   2 6270.44 525.507   1
  -4 -17  -2 6810.22 540.044   1
   4 -18   2 10395.8 558.620   5
   4 -18   2 6334.07 555.054   1
  -4  18   2 6560.65 600.813   3
   4 -18  -2 9097.28 754.198   1
  -4 -18  -2 9192.73 762.723   4
  -4 -18  -2 8900.05 639.640   1
  -4 -18   2 9977.42 500.545   5
  -4 -18   2 8789.94 653.936   1
   4 -19   2 5626.42 425.976   5
   4 -19   2 5265.53 529.016   1
  -4  19   2 3495.23 460.469   3
   4 -19  -2 5232.18 584.643   1
  -4 -19  -2 5421.92 581.660   4
  -4 -19   2 3319.10 422.135   1
  -4 -19   2 5713.84 392.018   5
  -4 -20   2 416.364 142.861   5
   4 -20   2 499.597 226.515   1
   4 -20   2 292.576 153.158   5
  -4  20   2 433.043 219.704   3
  -4 -20   2 363.941 165.112   1
  -4 -20  -2 212.293 183.823   4
   4 -20  -2 457.426 198.450   1
  -4 -21   2 146.959 102.031   5
   4 -21   2-80.0897 133.106   5
  -4 -22   2 1157.42 205.622   5
   4 -22   2 1125.30 224.344   5
   4 -23   2 1461.94 250.463   5
  -4 -23   2 1642.34 244.044   5
  -4 -24   2 1276.11 222.237   5
   4 -24   2 946.944 211.376   5
  -4 -25   2 468.350 147.708   5
   4 -25   2 583.295 178.569   5
  -4 -26   2 784.434 193.448   5
   4 -26   2 1164.04 255.397   5
  -4 -27   2 166.042 138.513   5
  -5   0  -2 62.2694 63.0201   5
   5   0  -2 73.5927 61.4303   4
  -5   0   2-16.9842 74.6667   2
  -5   0   2-8.53579 45.3446   5
  -5   0  -2 20.4873 57.0174   4
  -5   0  -2 47.5263 85.3314   3
  -5   0   2 95.8534 71.9568   3
  -5   0  -2-2.37966 46.0971   6
  -5   0   2-71.5781 77.1250   6
  -5   0  -2 275.494 138.382   2
  -5   1   2 4322.95 289.260   3
  -5   1  -2 5639.06 413.273   2
  -5  -1  -2 6731.30 445.566   2
  -5  -1  -2 4509.32 295.647   4
  -5   1  -2 5570.38 294.275   4
  -5   1  -2 5712.48 396.423   3
  -5   1  -2 4181.78 232.994   6
  -5  -1  -2 5639.17 269.345   6
  -5   1   2 6649.27 400.263   2
   5   1  -2 6170.09 340.177   4
  -5  -1   2 6166.27 396.716   2
  -5  -1   2 4489.85 245.135   6
  -5  -1  -2 4549.57 245.700   5
  -5  -1  -2 5953.45 399.645   3
  -5   1   2 6979.86 287.436   5
  -5  -1   2 5981.88 268.815   5
  -5   1   2 4638.12 256.572   6
   5  -1  -2 6070.61 320.243   4
  -5  -1   2 6256.23 315.180   3
  -5   2   2 10990.2 478.842   3
  -5   2  -2 11467.2 380.843   6
  -5  -2  -2 15098.0 437.696   6
  -5  -2   2 15614.5 637.979   2
  -5  -2  -2 16475.1 674.614   2
  -5  -2  -2 10065.2 433.203   4
  -5  -2   2 11495.3 385.212   6
   5  -2  -2 15134.4 483.899   4
   5   2  -2 15720.5 551.292   4
  -5   2   2 15241.4 586.484   2
  -5   2   2 11633.6 411.082   6
  -5  -2  -2 15980.9 658.347   3
  -5  -2  -2 15458.8 441.199   5
  -5   2  -2 15248.5 647.611   3
  -5  -2   2 11194.8 370.606   5
  -5   3   2 24572.0 739.531   3
  -5  -3   2 17681.9 477.010   5
  -5  -3  -2 23903.9 808.875   2
  -5  -3  -2 15665.0 572.762   4
  -5  -3  -2 23292.7 778.881   3
  -5  -3  -2 17919.3 482.913   6
  -5  -3   2 16767.0 463.877   6
   5   3  -2 23300.5 683.039   4
  -5   3   2 25244.6 744.764   2
  -5  -3   2 23188.1 781.643   2
  -5   3   2 21592.1 558.568   6
  -5   3  -2 18005.9 483.258   6
   5  -3  -2 25178.3 640.200   4
  -5  -3  -2 23192.4 526.139   5
  -5   3  -2 23609.9 808.320   3
   5  -3   2 24929.6 652.755   1
  -5   4   2 21547.3 718.076   3
  -5   4   2 17083.8 503.169   6
  -5  -4  -2 19818.3 574.313   1
  -5  -4  -2 21347.7 761.962   2
  -5  -4   2 20285.9 751.901   1
  -5  -4  -2 14863.4 574.784   4
  -5   4  -2 20668.3 764.833   3
  -5  -4   2 17374.2 467.667   6
  -5   4   2 20935.0 658.906   2
  -5  -4   2 20847.8 759.143   2
  -5   4  -2 15827.6 452.733   6
  -5  -4  -2 20089.6 512.461   6
  -5  -4   2 15762.5 447.048   5
  -5  -4  -2 20776.0 739.397   3
  -5  -4  -2 20375.3 493.271   5
   5  -4   2 20649.3 599.675   1
  -5   5   2 29237.9 869.293   3
  -5   5   2 26465.8 628.093   6
  -5  -5  -2 28460.9 893.236   3
  -5  -5  -2 28821.5 895.595   2
  -5  -5  -2 27163.8 687.974   1
  -5  -5   2 27842.5 885.982   1
  -5  -5  -2 20126.1 708.093   4
  -5  -5  -2 26677.7 564.049   5
  -5   5   2 29079.1 772.883   2
  -5  -5  -2 28792.9 621.296   6
  -5  -5   2 27857.1 885.220   2
  -5  -5   2 29389.2 595.604   6
  -5   5  -2 21375.1 520.418   6
  -5   5  -2 21797.9 591.492   7
   5  -5   2 29167.8 751.035   1
  -5   5  -2 28153.0 901.002   3
  -5  -5   2 23630.6 561.902   5
  -5   6   2 1515.85 221.235   3
  -5  -6   2 1204.97 212.328   2
  -5   6  -2 1064.16 122.213   6
  -5  -6  -2 968.527 177.080   4
  -5  -6  -2 1607.55 229.294   2
  -5  -6   2 1313.60 217.019   1
  -5  -6  -2 1526.07 176.614   1
  -5  -6   2 1457.52 144.536   6
  -5   6   2 1376.81 147.794   6
  -5   6   2 1478.12 180.458   2
  -5  -6  -2 1694.74 175.255   6
  -5  -6  -2 1236.67 192.621   3
   5  -6   2 1586.52 182.653   1
  -5  -6  -2 1361.29 136.162   5
  -5   6  -2 1398.55 213.371   3
  -5  -6   2 1319.02 138.374   5
  -5   6  -2 1701.59 177.423   7
  -5   7   2 1665.85 246.528   3
  -5  -7  -2 1701.92 228.451   3
  -5  -7  -2 1408.03 216.044   2
  -5  -7  -2 1411.03 215.249   4
  -5  -7   2 1393.58 223.627   2
  -5  -7  -2 1380.90 132.076   5
  -5  -7   2 1489.92 218.660   1
  -5  -7  -2 1561.95 155.736   6
  -5   7  -2 1783.51 236.982   3
   5  -7   2 1746.44 204.344   1
  -5   7  -2 1945.38 158.252   6
  -5  -7   2 1877.38 164.657   6
  -5  -7   2 1651.82 161.980   5
  -5  -7  -2 1431.17 184.567   1
  -5   7  -2 1803.22 177.655   7
  -5   7   2 1412.41 154.972   6
   5  -7  -2 1918.05 279.362   1
  -5   8   2 8562.74 529.074   3
  -5  -8  -2 8511.48 369.048   6
  -5  -8  -2 9732.37 527.744   2
  -5  -8  -2 10174.6 567.169   4
  -5  -8   2 9619.94 562.820   1
  -5  -8  -2 9162.81 523.143   3
  -5  -8   2 9433.24 549.157   2
  -5   8  -2 9445.60 413.562   7
  -5   8  -2 9526.72 345.565   6
  -5  -8  -2 9456.90 485.055   1
  -5  -8  -2 8497.47 323.126   5
   5  -8   2 8968.09 449.458   1
   5  -8  -2 9149.08 577.775   1
  -5   8  -2 9414.23 553.736   3
  -5  -8   2 9672.28 387.322   5
  -5   8   2 8931.87 378.100   6
  -5   9   2 14657.7 709.537   3
  -5  -9  -2 15140.5 612.551   1
  -5  -9   2 16360.1 746.095   2
  -5  -9  -2 16000.8 677.599   2
  -5  -9  -2 15575.6 731.536   4
   5  -9   2 14493.5 605.740   1
  -5   9  -2 16085.0 548.419   7
  -5   9   2 15833.6 508.054   6
   5  -9  -2 15616.0 750.288   1
  -5  -9  -2 16199.1 699.735   3
  -5  -9   2 16139.5 737.332   1
  -5   9  -2 15717.8 729.043   3
  -5  -9   2 15871.1 515.778   5
  -5  10   2 6364.56 491.957   3
  -5 -10  -2 5661.27 306.754   6
   5 -10  -2 7888.36 549.008   1
  -5 -10   2 7354.60 530.776   1
  -5 -10  -2 7462.10 441.704   1
  -5 -10  -2 7028.29 458.055   2
  -5 -10  -2 7113.45 516.862   4
   5 -10   2 7369.53 453.527   1
  -5  10   2 7299.81 351.238   6
  -5 -10   2 7620.15 362.682   5
  -5  10  -2 7540.46 384.269   7
  -5 -10   2 7907.71 525.618   2
  -5 -10  -2 6989.50 478.417   3
  -5  10  -2 7030.25 491.099   3
  -5  11   2 6340.00 506.805   3
  -5  11   2 6911.13 344.747   6
   5 -11   2 6367.09 439.211   1
  -5 -11  -2 6792.51 520.181   4
  -5 -11  -2 5116.43 301.195   6
  -5  11  -2 6552.01 362.690   7
  -5 -11  -2 7196.17 458.970   1
  -5 -11   2 7594.00 536.243   2
  -5 -11   2 6336.22 494.238   1
   5 -11  -2 6364.08 501.143   1
  -5 -11  -2 6705.71 468.470   3
  -5 -11   2 6453.37 350.559   5
  -5  11  -2 6303.74 479.686   3
  -5  12   2 1582.00 292.970   3
  -5  12  -2 1743.35 203.374   7
   5 -12   2 1648.33 240.035   1
  -5 -12  -2 1677.44 298.377   4
  -5 -12  -2 2262.74 206.257   6
  -5 -12  -2 1909.66 248.576   1
   5 -12  -2 1564.16 276.664   1
  -5 -12   2 1510.89 257.238   2
  -5  12   2 1875.76 189.272   6
  -5 -12   2 1750.36 265.425   1
  -5 -12  -2 1892.43 278.773   3
  -5 -12   2 2079.63 208.266   5
  -5  12  -2 1445.33 248.232   3
  -5  13   2 3751.47 409.607   3
  -5 -13  -2 4244.72 395.792   3
  -5 -13  -2 4222.53 375.026   1
   5 -13   2 4297.95 395.605   1
  -5 -13  -2 3960.15 432.765   4
  -5  13   2 4120.56 270.716   6
   5 -13  -2 4525.78 457.960   1
  -5 -13   2 4767.38 435.727   2
  -5  13  -2 4355.15 320.427   7
  -5 -13   2 4070.26 407.923   1
  -5 -13   2 4108.72 283.652   5
  -5  13  -2 4479.91 421.790   3
  -5  14   2 12884.0 771.655   3
   5 -14   2 14768.2 773.676   1
  -5 -14  -2 13972.3 816.321   4
  -5  14  -2 13699.4 562.576   7
  -5 -14  -2 9390.26 606.045   3
  -5 -14   2 9181.93 607.136   2
  -5 -14   2 14308.4 780.042   1
   5 -14  -2 13784.9 808.542   1
  -5 -14   2 12514.6 513.201   5
  -5  14  -2 13588.4 739.391   3
  -5  15   2 7720.74 624.328   3
   5 -15   2 8427.29 599.639   1
  -5 -15  -2 9140.44 695.625   4
   5 -15  -2 8561.42 653.536   1
  -5  15  -2 8882.16 468.707   7
  -5 -15   2 8891.57 439.125   5
  -5  15  -2 8696.65 607.340   3
  -5 -15   2 9043.98 646.200   1
   5 -16   2 2927.66 321.643   5
  -5  16   2 1973.51 360.248   3
  -5 -16  -2 2751.65 415.897   4
   5 -16  -2 1843.53 345.642   1
   5 -16   2 1390.03 254.970   1
  -5 -16   2 1812.61 306.557   1
  -5 -16   2 2328.48 236.451   5
  -5  16  -2 1569.07 264.888   3
   5 -17  -2 453.195 197.897   1
  -5 -17   2 725.432 151.287   5
  -5  17  -2 795.402 208.430   3
   5 -17   2 844.959 196.850   5
  -5  17   2 638.357 225.089   3
  -5 -17   2 553.212 193.586   1
   5 -17   2 622.133 202.448   1
  -5 -17  -2 764.794 247.393   4
   5 -18   2 3140.68 331.748   5
  -5  18   2 2481.84 401.679   3
   5 -18   2 3422.10 421.463   1
   5 -18  -2 2579.67 420.199   1
  -5 -18  -2 2819.90 436.492   4
  -5 -18   2 1807.13 317.078   1
  -5 -18   2 3055.41 292.099   5
   5 -19   2 1922.88 275.759   5
  -5  19   2 1676.54 332.849   3
   5 -19   2 1773.81 319.767   1
  -5 -19   2 1835.33 343.821   1
  -5 -19  -2 2060.78 393.523   4
   5 -19  -2 1690.43 352.564   1
  -5 -19   2 1917.06 242.543   5
   5 -20   2 5805.93 460.419   5
   5 -20   2 5993.20 584.057   1
  -5 -20   2 6736.24 452.692   5
   5 -21   2 3296.91 351.071   5
  -5 -21   2 3262.06 333.364   5
  -5 -22   2 1900.95 273.851   5
   5 -22   2 2041.86 283.989   5
  -5 -23   2 230.257 134.660   5
   5 -23   2 301.827 138.976   5
  -5 -24   2 160.322 128.439   5
   5 -24   2 58.4192 102.107   5
  -5 -25   2 610.613 167.364   5
   5 -25   2 1025.17 225.787   5
  -5 -26   2 258.535 141.211   5
  -5  26  -2 203.039 162.247   7
  -6   0  -2 68722.5 1474.45   2
  -6   0  -2 73529.9 1056.45   6
  -6   0   2 72421.3 1051.63   6
  -6   0  -2 69434.3 1021.41   5
  -6   0  -2 69046.6 1467.77   3
  -6   0   2 69835.5 1393.72   2
  -6  -1  -2 46318.0 1203.45   3
  -6   1   2 46552.3 1125.71   2
  -6   1  -2 49636.2 1273.90   2
  -6  -1  -2 46677.9 1208.58   2
  -6   1   2 49620.5 876.587   6
  -6   1  -2 45886.9 1213.59   3
  -6  -1  -2 49250.4 872.150   6
  -6   1  -2 51184.5 895.358   6
  -6  -1   2 46172.5 1149.42   2
  -6  -1   2 49917.1 869.843   6
  -6  -1  -2 42826.9 795.332   5
  -6  -1   2 48006.1 814.437   5
  -6   1   2 47972.6 1041.35   3
  -6   2   2 28675.0 669.203   6
  -6   2  -2 28171.7 953.128   2
  -6  -2  -2 27766.6 931.583   2
  -6  -2  -2 28089.3 657.398   6
  -6   2  -2 29262.6 664.382   6
  -6  -2   2 27102.9 902.599   2
  -6   2   2 28363.3 880.317   2
  -6  -2   2 28592.6 654.932   6
  -6   2   2 29308.6 629.223   5
  -6   2  -2 26930.8 929.765   3
  -6  -2   2 29125.8 646.032   5
  -6  -2  -2 26970.4 908.070   3
  -6   3   2 1190.90 186.777   3
  -6  -3   2 1526.53 220.733   2
  -6  -3  -2 2101.14 278.736   2
  -6   3  -2 1905.82 172.735   6
  -6   3   2 2009.06 184.421   6
  -6   3   2 1921.11 241.690   2
  -6  -3  -2 1581.95 160.735   6
  -6  -3   2 1924.44 180.137   6
   6   3  -2 1885.79 203.884   4
  -6  -3  -2 1406.38 229.595   3
  -6  -3  -2 1193.23 144.713   5
  -6   3   2 1842.52 164.483   5
  -6   3  -2 1747.70 255.094   3
  -6  -3   2 2034.89 182.227   5
  -6   4   2 529.335 146.034   2
   6   4  -2 542.277 133.100   4
  -6  -4  -2 385.347 90.6793   5
  -6   4   2 764.122 115.037   5
  -6  -4   2 555.064 174.792   2
  -6  -4   2 729.088 123.446   5
  -6  -4  -2 634.085 167.497   3
  -6   4   2 464.574 89.7945   6
  -6   4  -2 533.350 173.464   3
  -6   4   2 369.762 114.642   3
  -6  -4  -2 700.740 125.815   6
  -6  -4  -2 521.460 170.110   2
  -6  -4   2 566.290 117.099   6
  -6   4  -2 620.747 112.627   6
   6  -4   2 579.651 129.651   1
  -6   5   2 56331.5 1286.60   3
  -6   5   2 56972.5 971.512   6
  -6  -5  -2 56136.4 936.497   6
  -6  -5   2 54677.0 1338.77   1
  -6  -5  -2 55569.6 1351.78   2
  -6  -5  -2 55489.4 1202.18   4
  -6  -5   2 40408.9 800.385   6
  -6  -5   2 55953.1 1350.93   2
  -6   5  -2 55680.9 896.814   6
  -6   5   2 61337.4 1267.99   2
  -6  -5  -2 56247.6 1322.15   3
   6  -5   2 55285.8 1116.70   1
  -6   5  -2 55902.7 1356.43   3
  -6  -5   2 60812.6 999.065   5
  -6   5   2 61339.8 918.888   5
  -6  -6   2 8054.21 349.196   6
  -6  -6  -2 7778.95 517.819   2
  -6  -6   2 7561.78 515.388   1
  -6   6   2 7440.02 491.546   3
  -6  -6  -2 7591.05 469.374   4
  -6   6  -2 8514.80 407.949   7
  -6  -6  -2 7967.91 358.266   6
  -6  -6   2 7498.97 507.718   2
  -6   6  -2 8316.24 349.770   6
  -6  -6   2 8598.48 380.388   5
  -6  -6  -2 8193.89 535.044   3
   6  -6   2 8010.25 445.346   1
  -6   6   2 7802.31 363.160   6
  -6   6   2 8739.31 465.543   2
  -6   6  -2 7373.69 500.820   3
  -6   7   2 17918.7 773.851   3
   6  -7  -2 17548.6 828.664   1
  -6  -7  -2 18167.7 546.503   6
  -6  -7  -2 18884.4 799.183   3
  -6  -7  -2 19313.6 810.879   2
  -6  -7  -2 18475.3 755.550   4
  -6  -7   2 18072.1 792.133   1
  -6   7  -2 19027.2 522.606   6
  -6  -7   2 18262.9 798.216   2
  -6  -7   2 19077.0 529.477   6
  -6   7   2 17807.2 552.244   6
   6  -7   2 17346.0 650.229   1
  -6   7  -2 20215.7 615.923   7
  -6   7  -2 17089.0 756.754   3
  -6  -7   2 18645.5 561.954   5
  -6  -7  -2 17064.9 500.335   5
  -6   8   2 2086.03 282.370   3
  -6   8  -2 2658.20 318.739   3
  -6   8  -2 2893.23 203.311   6
  -6  -8  -2 3246.58 345.656   3
  -6  -8  -2 2710.41 222.990   6
  -6  -8  -2 2501.25 312.843   2
  -6  -8  -2 2718.17 306.363   4
  -6  -8   2 2229.93 304.189   1
  -6  -8   2 2321.29 297.204   2
   6  -8   2 3100.84 290.807   1
  -6   8   2 2755.53 224.281   6
  -6   8  -2 2861.46 248.306   7
  -6  -8  -2 2385.85 194.477   5
  -6  -8   2 2649.64 224.012   5
   6  -8  -2 2375.20 330.943   1
  -6  -9   2 31.8433 90.9619   2
  -6  -9  -2 78.8082 57.6183   5
  -6  -9  -2 5.18722 115.159   3
  -6  -9   2 38.9786 64.0620   5
   6  -9   2 227.794 121.767   1
  -6   9  -2-22.8924 79.0477   7
  -6  -9   2 50.2145 85.8748   1
  -6   9  -2 50.1820 87.7030   3
  -6   9   2 70.3053 100.854   3
  -6  -9  -2-67.1349 107.827   4
   6  -9  -2-34.2621 106.695   1
  -6  -9  -2-57.4209 106.490   6
  -6   9  -2 35.5418 54.2935   6
  -6   9   2-128.884 110.897   6
  -6  -9  -2 88.7223 82.5800   2
  -6 -10   2 1199.74 230.019   2
  -6  10  -2 1261.01 232.132   3
  -6 -10   2 1156.65 234.223   1
  -6  10  -2 1397.40 189.213   7
  -6  10   2 1238.42 235.841   3
  -6 -10  -2 1341.64 233.408   2
  -6 -10  -2 1089.88 203.768   4
  -6  10   2 1361.62 170.891   6
   6 -10  -2 1364.12 272.538   1
  -6 -10  -2 1046.53 147.646   6
  -6 -10  -2 1368.96 242.213   3
   6 -10   2 1457.60 217.862   1
  -6 -10   2 1323.80 160.115   5
   6 -11  -2 7423.15 579.429   1
  -6 -11  -2 7463.71 554.483   4
   6 -11   2 7552.99 498.306   1
  -6  11  -2 7343.57 405.313   7
  -6 -11  -2 6434.77 356.030   6
  -6 -11   2 8065.82 574.107   2
  -6  11   2 6656.24 529.873   3
  -6  11   2 7835.59 382.418   6
  -6 -11   2 7978.97 583.606   1
  -6 -11  -2 7560.43 524.551   3
  -6 -11   2 7252.42 384.420   5
  -6  11  -2 7702.05 563.531   3
  -6 -12   2 1320.13 252.289   2
   6 -12   2 942.697 186.305   1
  -6  12  -2 1356.95 260.245   3
  -6  12   2 1115.37 242.557   3
  -6  12  -2 1479.14 206.189   7
  -6 -12  -2 1592.15 190.067   6
  -6 -12  -2 1190.11 266.438   4
  -6  12   2 1500.93 187.004   6
  -6 -12   2 1736.55 287.153   1
  -6 -12  -2 1231.80 237.705   3
   6 -12  -2 1069.64 257.032   1
  -6 -12   2 1495.90 186.004   5
  -6  13   2 7537.27 593.948   3
   6 -13   2 8883.45 583.865   1
  -6 -13  -2 8530.13 638.393   4
  -6  13  -2 8822.46 455.143   7
  -6 -13   2 9104.48 628.201   2
   6 -13  -2 8746.11 657.006   1
  -6  13   2 8693.80 407.813   6
  -6 -13   2 8991.38 654.698   1
  -6 -13   2 8877.49 449.705   5
  -6  13  -2 9140.86 630.029   3
  -6 -14   2 170.289 99.4084   2
  -6 -14   2 551.477 127.774   5
  -6  14  -2 669.245 200.863   3
  -6  14   2 353.808 179.480   3
  -6 -14   2 870.740 239.590   1
   6 -14  -2 431.449 212.562   1
  -6 -14  -2 516.801 181.200   4
  -6 -14  -2 461.429 172.896   3
  -6  14  -2 636.676 146.954   7
   6 -14   2 239.720 98.8078   1
  -6 -15   2 82.8611 110.764   2
  -6 -15   2 138.165 88.0074   5
  -6  15  -2 155.920 109.139   7
  -6  15  -2 82.0399 114.957   3
  -6  15   2 88.5763 140.019   3
  -6 -15   2 201.581 147.322   1
   6 -15  -2 79.1281 145.226   1
  -6 -15  -2-24.7041 130.729   4
   6 -15   2 126.782 134.827   1
  -6 -16   2 1742.51 315.141   1
  -6  16   2 1713.46 321.372   3
  -6 -16  -2 2307.03 375.582   4
   6 -16  -2 2477.26 404.106   1
  -6  16  -2 2397.39 272.394   7
   6 -16   2 1672.50 293.583   1
  -6  16  -2 1545.03 294.347   3
  -6 -16   2 2685.43 270.511   5
   6 -17   2 2008.53 314.446   5
   6 -17  -2 1400.55 308.825   1
  -6  17   2 1551.19 319.488   3
  -6 -17   2 1522.21 293.044   1
  -6  17  -2 1523.96 225.987   7
  -6 -17  -2 830.201 241.693   4
   6 -17   2 1445.57 288.414   1
  -6 -17   2 1727.48 227.562   5
  -6  17  -2 2205.66 349.116   3
   6 -18   2 4663.69 426.292   5
  -6 -18   2 4078.90 491.461   1
  -6 -18  -2 4667.04 557.014   4
   6 -18  -2 4146.83 524.668   1
  -6  18  -2 4009.89 362.093   7
   6 -18   2 4494.93 497.030   1
  -6 -18   2 4413.64 362.477   5
  -6  18  -2 4334.63 488.623   3
  -6 -19   2 506.495 158.444   5
   6 -19   2 680.381 220.828   1
   6 -19   2 947.915 225.662   5
  -6  19  -2 681.513 181.044   7
  -6 -20   2 32.2138 98.6898   5
   6 -20   2 27.3929 138.970   5
  -6  20  -2 138.446 121.071   7
  -6 -21   2 180.378 118.140   5
   6 -21   2-31.7350 134.230   5
  -6  21  -2 101.684 130.804   7
   6 -22   2 2156.76 320.563   5
  -6  22  -2 2206.04 300.961   7
  -6 -22   2 1985.02 274.166   5
  -6  23  -2 2283.32 316.629   7
   6 -23   2 1280.58 245.135   5
  -6 -23   2 1906.67 266.529   5
  -6 -24   2 698.680 185.680   5
   6 -24   2 415.434 170.703   5
  -6  24  -2 601.261 203.571   7
  -6 -25   2 36.7118 91.4428   5
   6 -25   2 121.254 134.864   5
  -6  25  -2 246.628 144.295   7
  -6 -26   2 321.085 157.254   5
  -7   0  -2 74.2035 85.1770   5
  -7   0   2-0.81615 97.4312   2
  -7   0   2-87.5624 83.8988   5
  -7   0  -2 4.24423 127.076   3
  -7   0   2 9.76709 69.0024   6
  -7   0  -2 14.2699 77.6007   6
  -7   0  -2 102.562 107.824   2
  -7   1  -2 14067.5 502.668   6
  -7   1  -2 12837.7 487.287   5
  -7   1  -2 12842.1 689.528   2
  -7  -1  -2 11753.7 663.355   2
  -7   1   2 13454.7 674.191   2
  -7  -1  -2 13814.7 510.717   6
  -7  -1   2 13293.0 492.817   6
  -7  -1   2 14281.4 708.159   2
  -7   1   2 13516.0 497.677   6
  -7  -1   2 15034.3 511.380   5
  -7  -1  -2 13080.3 485.250   5
  -7  -1  -2 12811.1 679.429   3
  -7   1  -2 12998.9 687.949   3
  -7   1   2 13872.0 485.058   5
  -7  -2   2 10674.7 614.310   2
  -7   2   2 9917.13 427.666   6
  -7   2  -2 10406.0 622.003   2
  -7  -2  -2 10079.0 621.521   2
  -7   2   2 10876.9 429.124   5
  -7  -2   2 10437.8 439.743   6
  -7   2  -2 9358.90 595.973   3
  -7  -2  -2 9882.18 421.209   5
  -7   2  -2 10356.9 425.995   6
  -7  -2   2 11071.5 439.448   5
  -7  -2  -2 10082.9 427.436   6
  -7  -2  -2 9842.27 595.685   3
  -7   2   2 10353.6 595.677   2
  -7   2   2 10743.4 563.934   3
  -7  -3  -2 27547.6 704.681   6
  -7   3  -2 28415.1 702.376   6
  -7  -3   2 27155.7 987.098   2
  -7   3  -2 27440.3 1007.98   2
  -7  -3  -2 26694.4 1004.20   2
  -7  -3   2 29681.6 748.316   6
  -7   3   2 26990.1 700.834   6
  -7   3   2 28481.8 952.729   2
  -7  -3  -2 26554.6 967.418   3
  -7  -3  -2 26520.3 680.313   5
  -7   3   2 30654.0 729.739   5
  -7   3  -2 27892.4 1039.54   3
  -7  -3   2 29218.0 706.728   5
  -7   3   2 29211.9 932.409   3
  -7  -4   2 15986.6 541.172   6
  -7   4  -2 15240.6 510.511   6
  -7  -4  -2 14940.6 518.497   6
  -7  -4  -2 15452.4 769.165   2
  -7  -4  -2 14183.2 694.605   3
  -7   4   2 16253.0 709.250   2
  -7  -4   2 15331.5 757.769   2
  -7   4   2 15459.4 537.598   6
  -7  -4  -2 15101.2 512.839   5
  -7   4   2 17768.1 541.809   5
  -7   4  -2 14512.1 744.110   3
  -7  -4   2 16392.8 537.348   5
  -7   4   2 15703.2 715.841   3
   7  -4   2 15092.0 635.845   1
  -7   5   2 136.859 76.8759   2
  -7   5   2 368.057 101.881   5
  -7  -5   2 214.416 142.676   2
  -7  -5  -2 132.244 75.4617   5
   7  -5   2 173.517 102.942   1
  -7  -5   2 159.119 74.7666   5
  -7  -5  -2 116.694 104.117   3
  -7  -5   2-41.7165 64.5641   6
  -7   5  -2 151.554 114.397   3
  -7   5   2 570.638 189.546   3
  -7  -5  -2 266.042 100.274   6
  -7   5  -2 95.6659 76.7395   6
  -7   5   2 189.209 85.8330   6
  -7  -5  -2-8.15157 98.2092   2
  -7   6   2 194.868 94.0991   2
  -7  -6   2 205.962 121.476   2
  -7  -6  -2 84.2457 62.8804   5
  -7  -6   2 104.276 110.886   1
  -7  -6   2 132.191 87.1485   5
  -7  -6  -2 92.8431 133.030   3
  -7   6  -2 68.9265 105.179   3
  -7   6   2 163.006 150.931   3
  -7  -6   2 115.636 68.4041   6
   7  -6   2 317.816 126.466   1
  -7  -6  -2 244.956 99.1621   6
  -7   6  -2 26.7348 67.5522   6
  -7   6   2 213.029 106.585   6
  -7  -6  -2 238.046 144.843   2
  -7   7   2 26142.8 988.845   3
   7  -7  -2 25922.2 1060.35   1
  -7  -7   2 24778.8 1001.29   1
  -7   7  -2 27296.1 677.857   6
  -7   7   2 26134.9 713.170   6
  -7  -7  -2 28060.8 1042.44   3
  -7  -7   2 23582.2 967.580   2
  -7  -7  -2 26384.8 696.312   6
   7  -7   2 24933.3 854.734   1
  -7  -7  -2 27771.9 1047.58   2
  -7  -7   2 28739.5 752.171   5
  -7   7  -2 24580.3 1000.13   3
  -7  -7   2 27687.6 694.317   6
  -7   8   2 2909.97 356.367   3
  -7  -8   2 2884.01 351.388   1
  -7  -8  -2 2885.15 349.817   2
  -7   8  -2 3233.19 240.010   6
  -7  -8  -2 3784.39 281.256   6
  -7   8   2 2755.28 246.875   6
   7  -8   2 2545.72 285.923   1
  -7  -8  -2 3079.68 345.616   3
  -7  -8   2 2671.53 346.812   2
  -7   8  -2 2372.10 244.840   7
  -7  -8  -2 2012.76 195.654   5
  -7  -8   2 3440.20 272.968   5
  -7   8  -2 2561.86 333.830   3
   7  -8  -2 3098.73 390.950   1
  -7   9   2 18382.8 869.927   3
  -7   9  -2 18471.3 630.025   7
  -7   9  -2 19848.6 573.984   6
  -7  -9  -2 19502.2 874.223   2
  -7  -9   2 17896.5 871.050   1
  -7   9   2 18931.4 617.388   6
  -7  -9   2 19786.6 911.338   2
   7  -9   2 18339.3 765.937   1
  -7  -9  -2 21457.3 653.266   6
  -7  -9  -2 19591.4 595.713   5
   7  -9  -2 18358.7 916.679   1
  -7  -9   2 20097.7 656.993   5
  -7   9  -2 18214.1 867.628   3
  -7  -9  -2 18761.3 847.667   3
  -7 -10   2 524.621 201.886   2
  -7 -10  -2 499.405 177.320   3
  -7 -10   2 418.781 113.436   5
   7 -10  -2 402.709 184.253   1
  -7 -10  -2 145.406 81.7827   6
  -7 -10   2 301.502 149.403   1
  -7  10  -2 297.056 133.364   3
  -7  10   2 277.964 156.205   3
   7 -10   2 568.695 174.278   1
  -7  10  -2 554.628 147.998   7
  -7 -10  -2 274.425 138.899   2
  -7  10   2 287.945 110.143   6
  -7 -11   2 788.830 223.785   2
  -7 -11  -2 411.540 150.783   3
  -7 -11   2 775.580 146.427   5
  -7  11  -2 562.139 141.380   7
  -7 -11   2 657.386 199.454   1
  -7  11  -2 629.837 184.202   3
  -7  11   2 608.995 208.471   3
   7 -11  -2 792.077 235.391   1
   7 -11   2 517.905 159.348   1
  -7 -11  -2 375.275 110.486   6
  -7  11   2 818.004 150.002   6
  -7 -11  -2 750.334 197.084   2
  -7  12   2 2352.33 362.855   3
  -7 -12   2 2690.02 372.736   2
   7 -12   2 2596.49 327.375   1
  -7 -12   2 2679.00 379.593   1
  -7  12  -2 2630.88 278.684   7
   7 -12  -2 2437.74 364.808   1
  -7  12   2 2806.63 250.233   6
  -7 -12  -2 1820.94 288.552   3
  -7 -12  -2 3483.83 287.534   6
  -7 -12   2 2976.10 271.884   5
  -7  12  -2 2784.08 379.894   3
  -7  13   2 3311.73 420.564   3
  -7 -13   2 4850.10 503.118   2
  -7 -13  -2 5555.50 528.842   4
   7 -13   2 4557.52 433.437   1
  -7 -13   2 5002.51 505.135   1
  -7 -13   2 4904.73 354.303   5
  -7  13   2 4850.32 328.134   6
   7 -13  -2 4622.73 514.646   1
  -7  13  -2 4965.38 367.669   7
  -7  13  -2 4454.61 475.011   3
  -7  14   2 2392.98 382.543   3
   7 -14  -2 3235.90 430.559   1
  -7 -14   2 2067.36 326.789   2
  -7  14  -2 3504.07 315.084   7
   7 -14   2 2857.21 351.100   1
  -7 -14  -2 3285.12 436.476   4
  -7 -14   2 2089.05 350.199   1
  -7 -14   2 3112.38 292.837   5
  -7  14  -2 3412.13 422.355   3
  -7  15   2 6212.17 600.274   3
  -7 -15   2 8539.91 684.351   2
  -7 -15  -2 7334.28 642.707   4
  -7 -15   2 7770.72 656.990   1
  -7  15  -2 7350.13 463.711   7
   7 -15  -2 7937.17 686.743   1
  -7 -15   2 8434.79 477.189   5
  -7  15  -2 7579.55 632.514   3
  -7 -16   2 394.947 135.078   5
  -7  16  -2 231.833 175.148   3
  -7  16   2 240.377 165.074   3
  -7 -16   2 242.321 174.535   1
   7 -16  -2 642.658 232.655   1
  -7 -16  -2 424.255 186.857   4
  -7  16  -2 237.510 110.491   7
  -7 -17  -2 2868.19 450.299   4
  -7  17  -2 3662.81 348.765   7
  -7 -17   2 3583.22 330.447   5
  -7  17  -2 2749.67 410.288   3
   7 -18   2 2560.40 333.979   5
  -7  18  -2 1788.20 253.523   7
  -7 -18   2 2237.64 272.362   5
  -7 -19   2 711.597 172.284   5
   7 -19   2 1227.51 244.716   5
  -7  19  -2 830.426 192.554   7
  -7 -20   2 1119.57 217.094   5
   7 -20   2 1210.29 256.476   5
  -7  20  -2 1373.04 239.091   7
  -7 -21   2 1534.10 245.895   5
   7 -21   2 1509.36 284.717   5
  -7  21  -2 1200.70 237.697   7
  -7 -22   2 159.846 122.040   5
   7 -22   2 202.794 134.662   5
  -7  22  -2 397.545 167.606   7
  -7 -23   2 86.7761 115.774   5
   7 -23   2-16.3218 101.020   5
  -7  23  -2 77.1381 136.953   7
  -7 -24   2-40.5850 87.5495   5
   7 -24   2 13.5734 131.003   5
  -7  24  -2 41.1664 107.335   7
  -8   0   2 7128.29 535.342   2
  -8   0  -2 6633.40 547.507   2
  -8   0   2 7325.53 406.686   6
  -8   0  -2 7194.68 551.591   3
  -8   0  -2 7576.60 403.131   6
  -8   0  -2 7331.35 395.426   5
  -8   0   2 7721.94 390.384   5
  -8  -1   2 10102.2 652.116   2
  -8   1   2 9659.74 611.279   2
  -8   1  -2 9880.70 656.035   2
  -8  -1  -2 9510.39 648.706   2
  -8  -1  -2 10157.6 469.962   6
  -8  -1   2 10184.3 475.419   6
  -8   1   2 10515.4 490.914   6
  -8   1  -2 10257.8 463.513   6
  -8   1  -2 10176.9 473.930   5
  -8  -1  -2 10272.4 458.834   5
  -8  -1  -2 9730.20 642.210   3
  -8   1  -2 9405.24 627.838   3
  -8   1   2 10306.5 449.498   5
  -8  -1   2 11399.5 487.934   5
  -8   2  -2 2034.98 325.722   2
  -8  -2  -2 2067.12 324.797   2
  -8   2   2 2720.92 241.345   5
  -8   2   2 2455.97 313.380   2
  -8   2   2 2706.02 262.862   6
  -8  -2  -2 2230.31 232.753   6
  -8   2  -2 2367.18 226.422   6
  -8  -2   2 2178.80 225.460   6
  -8  -2   2 2524.64 339.593   2
  -8  -2  -2 2097.04 305.760   3
  -8  -2  -2 2242.25 227.991   5
  -8   2  -2 1992.20 304.708   3
  -8  -2   2 2617.68 241.052   5
  -8  -3   2 3953.46 417.377   2
  -8   3  -2 3652.69 407.191   2
  -8  -3  -2 3117.98 375.110   2
  -8   3   2 3895.20 299.242   6
  -8   3  -2 3421.10 268.391   6
  -8  -3   2 3937.88 292.279   6
  -8   3   2 3780.04 375.419   2
  -8  -3  -2 3646.49 394.617   3
  -8   3   2 3845.52 284.351   5
  -8   3  -2 3730.25 413.030   3
  -8  -3   2 4127.83 309.229   5
  -8  -3  -2 3747.55 287.614   5
  -8  -3  -2 3546.37 274.338   6
  -8  -4  -2 5151.55 335.075   6
  -8  -4   2 5364.46 490.733   2
  -8   4   2 5502.63 448.212   2
  -8   4  -2 5466.31 493.227   2
  -8  -4  -2 5270.64 479.866   2
  -8   4  -2 5481.59 333.228   6
  -8  -4   2 5598.42 344.618   6
  -8   4   2 5565.23 354.289   6
  -8  -4  -2 5210.53 452.412   3
  -8  -4  -2 5675.89 345.090   5
  -8   4   2 5921.69 350.062   5
  -8   4  -2 5554.02 498.646   3
  -8  -4   2 5837.24 346.929   5
  -8   4   2 5743.36 481.209   3
  -8  -5   2 11309.5 722.649   2
  -8  -5   2 8961.47 432.018   6
  -8   5   2 11686.5 636.525   2
  -8  -5  -2 10769.1 701.255   2
  -8   5  -2 11157.8 472.080   6
  -8  -5  -2 11060.8 484.937   6
  -8   5   2 11217.0 507.256   6
  -8  -5  -2 11394.4 670.630   3
  -8   5   2 12884.1 507.559   5
  -8  -5  -2 11453.4 487.674   5
  -8  -5   2 12096.1 505.466   5
  -8   5  -2 10548.2 685.147   3
  -8   5   2 7760.87 549.690   3
  -8  -6   2 2241.25 225.585   6
  -8  -6  -2 3104.38 385.948   2
  -8  -6  -2 3140.75 269.620   6
  -8   6  -2 2670.56 232.519   6
  -8  -6   2 2906.70 381.845   2
  -8   6   2 2922.72 260.415   6
  -8  -6  -2 3046.19 370.348   3
  -8   6   2 3249.57 263.706   5
  -8  -6  -2 2282.27 226.088   5
  -8  -6   2 3367.48 281.088   5
  -8   6  -2 3045.90 381.521   3
  -8   6   2 3044.03 368.322   3
  -8  -7  -2 15925.2 585.879   6
  -8  -7  -2 15573.3 850.289   2
  -8  -7   2 16031.5 599.076   5
  -8   7   2 15666.0 596.836   6
  -8   7  -2 15253.1 546.116   6
  -8  -7   2 16736.0 595.859   6
  -8  -7   2 14939.4 844.752   2
  -8  -7  -2 16720.7 858.532   3
  -8   7  -2 13998.1 805.757   3
  -8   7   2 15461.6 809.478   3
  -8  -8   2 6643.20 561.152   1
  -8  -8  -2 7030.63 577.874   2
  -8  -8  -2 6995.48 391.142   6
  -8   8  -2 6998.79 366.938   6
  -8   8   2 7244.47 412.571   6
  -8  -8   2 7479.08 614.959   2
  -8  -8  -2 4680.48 324.560   5
  -8  -8   2 7396.48 420.822   5
  -8   8  -2 6527.63 562.425   3
  -8  -8  -2 7415.86 566.558   3
   8  -8  -2 6689.54 602.437   1
  -8   8   2 6532.11 551.243   3
  -8  -9   2 564.052 222.568   2
  -8  -9  -2 445.223 114.954   5
  -8  -9   2 602.304 210.515   1
  -8  -9   2 560.806 148.593   5
  -8  -9  -2 258.411 97.8091   3
   8  -9  -2 469.584 211.138   1
  -8   9  -2 365.783 173.157   3
  -8   9   2 493.666 203.967   3
  -8   9  -2 438.591 106.910   6
  -8  -9  -2 686.986 155.352   6
  -8   9   2 428.457 142.815   6
  -8  -9  -2 424.743 170.774   2
  -8 -10   2 2561.29 375.897   1
  -8 -10  -2 1865.99 307.610   2
  -8  10  -2 3424.14 314.539   7
  -8 -10  -2 2422.73 249.676   6
  -8  10   2 3089.26 281.381   6
  -8 -10  -2 1753.58 292.583   3
  -8 -10   2 3058.30 415.574   2
   8 -10  -2 3204.83 432.008   1
  -8 -10  -2 2878.83 254.584   5
  -8 -10   2 3449.21 302.060   5
  -8  10  -2 2715.27 376.200   3
  -8  10   2 2739.22 381.248   3
  -8  11   2 23338.3 1087.76   3
  -8 -11   2 26625.4 1189.15   2
  -8 -11  -2 25626.7 1113.84   2
  -8 -11   2 23537.3 1092.15   1
  -8  11  -2 26126.6 810.980   7
  -8  11   2 25337.7 778.730   6
   8 -11  -2 24872.0 1171.65   1
  -8 -11  -2 27343.4 816.787   6
  -8 -11   2 25486.6 815.142   5
  -8  11  -2 24555.0 1102.79   3
  -8 -12   2 1138.56 273.129   2
  -8 -12   2 1123.97 186.504   5
   8 -12  -2 1210.69 275.579   1
  -8 -12   2 913.909 245.919   1
  -8  12  -2 651.642 201.734   3
  -8  12   2 1238.44 302.047   3
  -8  12  -2 1259.58 218.221   7
  -8  12   2 1502.90 206.703   6
  -8  13   2 10274.2 763.789   3
   8 -13  -2 11325.9 807.503   1
  -8 -13   2 12222.1 832.888   1
  -8 -13   2 7696.87 669.711   2
  -8  13   2 12286.9 559.663   6
  -8  13  -2 12419.3 587.595   7
  -8 -13   2 12266.4 592.079   5
  -8  13  -2 7367.18 639.631   3
  -8 -14   2 792.611 253.491   2
  -8  14  -2 621.751 160.133   7
  -8 -14   2 815.615 186.094   5
  -8 -14   2 501.040 199.426   1
  -8  14  -2 476.275 192.821   3
  -8  14   2 710.865 273.447   3
   8 -14  -2 674.449 236.026   1
  -8  14   2 784.229 152.288   6
  -8 -15   2 109.978 165.467   2
  -8 -15   2 116.102 119.395   5
  -8  15  -2 126.029 120.754   3
  -8  15  -2 54.5013 110.074   7
  -8  16  -2 1494.19 237.970   7
  -8 -16   2 1766.24 255.840   5
  -8  17  -2 2979.79 325.716   7
  -8 -17   2 3678.35 359.330   5
  -8 -18   2 422.112 161.300   5
  -8  18  -2 211.913 138.116   7
  -8  19  -2 1126.00 230.436   7
  -8 -19   2 1594.14 260.182   5
  -8 -20   2 983.310 218.417   5
   8 -20   2 935.250 236.991   5
  -8  20  -2 540.954 171.550   7
  -8 -21   2 119.129 131.595   5
   8 -21   2 317.583 178.096   5
  -8  21  -2 219.409 124.644   7
  -8 -22   2 83.0664 101.191   5
   8 -22   2-190.808 145.168   5
  -8  22  -2 63.3047 130.879   7
   8 -23   2 747.253 225.725   5
  -8  23  -2 443.772 186.654   7
  -9   0   2 49.2238 128.623   2
  -9   0  -2 198.979 108.136   5
  -9   0   2-21.3132 90.0169   5
  -9   0   2-38.1332 94.8376   6
  -9   0  -2 157.550 175.434   3
  -9   0  -2-24.2653 101.761   6
  -9   0  -2 91.1223 162.218   2
  -9   1  -2 4416.01 481.089   2
  -9  -1  -2 4187.07 464.589   2
  -9  -1   2 4304.06 453.740   2
  -9   1  -2 4868.96 345.463   6
  -9  -1  -2 4448.01 337.823   6
  -9   1   2 4942.82 354.287   6
  -9   1   2 4353.76 454.231   2
  -9  -1  -2 4916.52 352.975   5
  -9   1  -2 4678.70 475.952   3
  -9   1   2 5807.25 376.865   5
  -9  -1   2 4844.18 341.011   5
  -9  -1   2 4767.06 349.310   6
  -9  -1  -2 4502.88 466.836   3
  -9   2   2 364.636 156.762   2
  -9  -2   2 108.799 133.836   2
  -9  -2  -2 306.601 119.574   5
  -9   2   2 354.088 124.142   5
  -9  -2   2 373.149 110.289   5
  -9  -2   2 363.655 111.454   6
  -9  -2  -2 495.183 193.291   3
  -9   2  -2 557.764 197.636   3
  -9   2   2 230.442 119.611   6
  -9  -2  -2 479.530 146.821   6
  -9   2  -2 203.407 119.775   6
  -9   2  -2 560.929 230.843   2
  -9  -2  -2 342.483 195.567   2
  -9  -3   2 14621.5 592.434   6
  -9   3  -2 12714.2 795.438   2
  -9  -3  -2 12525.2 793.496   2
  -9   3   2 15314.9 807.187   2
  -9  -3  -2 13911.4 584.104   6
  -9   3  -2 14450.1 574.494   6
  -9   3   2 14350.9 599.154   6
  -9  -3  -2 13999.1 800.927   3
  -9  -3  -2 14392.5 590.175   5
  -9   3   2 15704.9 601.104   5
  -9   3  -2 13754.3 819.258   3
  -9  -3   2 15717.3 636.347   5
  -9  -3   2 13908.9 827.162   2
  -9   4   2 901.189 218.995   2
  -9  -4   2 1118.92 179.542   5
  -9  -4  -2 1195.74 257.519   3
  -9   4  -2 988.476 255.648   3
  -9  -4   2 1591.63 303.594   2
  -9   4  -2 1516.59 312.169   2
  -9  -4  -2 1083.63 185.104   6
  -9  -4   2 1096.96 170.643   6
  -9   4  -2 1181.18 174.950   6
  -9   4   2 998.225 183.746   6
  -9  -4  -2 1255.70 192.075   5
  -9   4   2 1157.65 181.222   5
  -9  -4  -2 913.216 235.804   2
  -9  -5   2 4363.46 480.293   2
  -9  -5  -2 3417.19 423.212   2
  -9  -5  -2 4452.63 332.522   6
  -9   5  -2 3972.03 304.065   6
  -9  -5   2 3095.88 283.020   6
  -9   5   2 4529.14 341.903   6
  -9   5   2 3787.20 399.297   2
  -9  -5  -2 3728.44 416.966   3
  -9   5   2 5089.14 350.724   5
  -9  -5  -2 4028.98 319.641   5
  -9  -5   2 4558.54 348.651   5
  -9   5  -2 3466.79 428.157   3
  -9  -6  -2 1931.31 226.522   6
  -9  -6  -2 1930.33 339.525   2
  -9   6  -2 2143.89 235.153   6
  -9  -6   2 1863.19 225.506   6
  -9   6   2 2096.57 239.059   6
  -9  -6   2 1993.94 355.770   2
  -9  -6  -2 1965.70 320.228   3
  -9  -6  -2 1811.03 221.374   5
  -9  -6   2 2436.50 254.303   5
  -9   6  -2 1910.95 345.935   3
  -9   6   2 1490.81 284.600   3
  -9   7   2 3035.41 291.556   6
  -9  -7  -2 3008.38 416.472   2
  -9  -7   2 3526.31 452.374   2
  -9   7  -2 3168.27 270.034   6
  -9  -7   2 3187.27 289.311   6
  -9  -7  -2 3400.29 293.140   6
  -9  -7  -2 1961.07 308.967   3
  -9  -7  -2 2253.84 244.999   5
  -9  -7   2 3580.99 314.606   5
  -9   7  -2 3184.20 415.695   3
  -9   7   2 2137.82 341.197   3
  -9  -8   2 1012.58 263.438   2
  -9  -8  -2 1122.21 181.166   5
  -9  -8  -2 790.787 212.958   3
  -9   8  -2 1084.19 253.181   3
  -9   8   2 544.133 196.722   3
   9  -8  -2 957.047 265.533   1
  -9   8  -2 1422.01 189.730   6
  -9  -8  -2 1074.65 187.238   6
  -9   8   2 1100.35 193.161   6
  -9  -8   2 1269.39 197.111   5
  -9  -8  -2 1071.71 270.878   2
  -9  -9  -2 10973.8 771.953   2
  -9  -9   2 16042.3 954.705   2
  -9  -9  -2 15593.4 856.191   3
  -9   9  -2 17124.8 624.715   6
  -9   9   2 16882.9 667.599   6
  -9  -9  -2 16142.8 636.415   6
  -9  -9  -2 17080.8 656.176   5
  -9  -9   2 16371.5 672.608   5
  -9   9  -2 15327.5 919.549   3
   9  -9  -2 14273.4 910.960   1
  -9   9   2 10396.2 732.743   3
  -9 -10   2 378.841 204.813   2
  -9 -10  -2 410.111 136.744   5
  -9 -10  -2 878.312 176.561   6
  -9 -10   2 583.378 228.493   1
  -9 -10   2 386.161 130.844   5
  -9  10  -2 611.214 227.628   3
  -9  10   2 135.165 124.892   3
  -9  10   2 669.848 148.357   6
   9 -10  -2 457.051 227.058   1
  -9 -10  -2 386.624 193.713   2
  -9 -11   2 5409.96 569.548   1
  -9 -11  -2 5332.26 552.536   2
   9 -11  -2 5580.23 601.468   1
  -9  11   2 6022.00 408.524   6
  -9 -11   2 5526.32 580.622   2
  -9  11  -2 5049.56 533.723   3
  -9 -11  -2 5618.01 391.911   6
  -9 -11   2 6043.32 420.254   5
  -9 -12   2-37.1926 166.426   2
  -9 -12   2 84.3491 97.4446   5
  -9 -12   2 91.1636 146.449   1
  -9  12  -2-154.500 170.557   3
   9 -12  -2 84.5856 192.399   1
  -9  12   2 129.376 141.297   3
  -9  12   2 82.0578 102.422   6
  -9 -13   2 1334.16 305.026   2
  -9 -13   2 1291.51 221.491   5
  -9  13   2 1212.23 199.843   6
  -9 -14   2 662.450 165.307   5
  -9  14   2 550.496 146.005   6
  -9 -15   2 5104.42 416.138   5
  -9 -16   2 1007.82 213.847   5
  -9 -17   2 1316.54 237.417   5
  -9 -18   2 124.147 132.487   5
  -9 -19   2 1042.25 224.571   5
  -9 -20   2 519.243 174.351   5
   9 -20   2 495.737 229.801   5
  -9 -21   2 1092.53 235.636   5
   9 -21   2 903.164 243.770   5
  -9 -22   2 39.5245 123.009   5
   9 -22   2 308.858 185.554   5
 -10   0  -2 1611.54 310.716   3
 -10   0  -2 1800.80 233.894   6
 -10   0   2 1874.84 236.106   6
 -10   0   2 1851.60 319.947   2
 -10   0  -2 1966.46 255.145   5
 -10   0   2 2319.42 263.754   5
 -10   0  -2 1240.47 306.459   2
 -10  -1   2 13713.2 619.541   6
 -10  -1  -2 11617.6 805.184   2
 -10  -1   2 12230.0 809.174   2
 -10  -1  -2 13378.1 614.486   6
 -10   1  -2 11735.0 562.681   6
 -10   1   2 12577.7 794.190   2
 -10   1   2 12047.2 581.441   6
 -10  -1  -2 12455.3 589.847   5
 -10  -1  -2 12031.2 791.341   3
 -10   1   2 14154.0 621.391   5
 -10   1  -2 12331.8 819.509   3
 -10  -1   2 13010.0 598.969   5
 -10   2   2 426.407 164.385   2
 -10  -2   2 306.919 200.611   2
 -10  -2  -2 922.206 179.132   5
 -10   2   2 477.958 146.735   5
 -10  -2   2 121.346 82.9612   5
 -10  -2  -2 658.744 223.769   3
 -10   2  -2 377.760 185.817   3
 -10   2  -2 473.080 148.431   6
 -10  -2   2 473.821 144.028   6
 -10   2   2 328.491 128.085   6
 -10   2  -2 504.104 217.726   2
 -10  -2  -2 495.636 220.591   2
 -10  -2  -2 310.159 140.724   6
 -10  -3   2 632.744 219.715   2
 -10  -3  -2 850.715 177.570   5
 -10  -3   2 995.916 174.205   5
 -10  -3  -2 824.096 231.501   3
 -10   3  -2 828.394 224.677   3
 -10  -3  -2 1136.31 200.295   6
 -10  -3   2 1031.72 185.269   6
 -10   3  -2 969.732 177.334   6
 -10   3   2 661.957 166.780   6
 -10   3   2 1197.95 203.050   5
 -10   3  -2 1072.17 282.218   2
 -10  -3  -2 759.778 262.222   2
 -10   3   2 498.065 179.733   2
 -10  -4   2 378.993 162.912   2
 -10  -4  -2 639.897 158.794   5
 -10   4   2 546.243 151.804   5
 -10  -4   2 445.568 137.911   5
 -10  -4  -2 223.325 107.862   3
 -10   4  -2 555.112 228.136   3
 -10   4  -2 741.258 153.741   6
 -10   4   2 236.858 119.452   6
 -10  -4  -2 712.372 157.826   6
 -10   4  -2 866.332 255.408   2
 -10  -4  -2 843.190 270.081   2
 -10  -4   2 522.410 148.686   6
 -10   4   2 524.435 161.811   2
 -10  -5  -2 13821.1 893.124   2
 -10  -5   2 13880.2 888.771   2
 -10  -5  -2 14118.8 618.586   6
 -10   5  -2 14229.3 610.719   6
 -10  -5   2 15306.5 651.662   6
 -10   5   2 14168.3 636.190   6
 -10   5   2 16190.2 657.758   5
 -10  -5  -2 13904.9 625.219   5
 -10  -5   2 15737.7 694.941   5
 -10   5  -2 14411.6 907.379   3
 -10  -6   2 804.677 258.639   2
 -10  -6  -2 806.189 169.833   5
 -10  -6   2 698.762 158.313   5
 -10  -6  -2 607.068 190.007   3
 -10   6  -2 603.842 259.808   3
 -10  -6  -2 1022.99 210.620   6
 -10   6  -2 910.433 183.139   6
 -10   6   2 806.745 181.524   6
 -10  -6   2 673.423 173.025   6
 -10  -6  -2 589.299 212.180   2
  10  -7  -2 14117.9 928.389   1
 -10  -7  -2 14250.3 922.203   2
 -10  -7   2 14070.5 922.235   2
 -10  -7  -2 15167.0 650.098   6
 -10   7  -2 14593.6 616.878   6
 -10  -7   2 15669.0 668.799   6
 -10   7   2 13948.1 636.196   6
 -10  -7  -2 14173.4 887.035   3
 -10  -7  -2 14964.8 650.772   5
 -10  -7   2 16520.5 709.648   5
 -10   7  -2 14135.1 909.590   3
 -10  -8   2 826.634 230.205   2
 -10  -8  -2 921.744 183.789   5
 -10  -8   2 805.035 190.921   5
  10  -8  -2 927.580 266.597   1
 -10   8  -2 718.841 214.030   3
 -10   8   2 709.062 231.970   3
 -10  -8  -2 890.783 195.876   6
 -10   8  -2 689.288 157.321   6
 -10   8   2 843.424 176.403   6
 -10  -8  -2 696.472 241.751   2
 -10  -9  -2 1121.48 199.300   5
 -10   9   2 741.696 230.013   3
 -10  -9  -2 1536.09 224.595   6
 -10   9  -2 1200.21 193.866   6
 -10   9   2 1474.58 213.232   6
 -10  -9   2 1644.71 237.908   5
 -10  -9  -2 1005.78 286.989   2
 -10 -10  -2 658.971 176.100   5
 -10 -10   2 417.726 140.131   5
 -10 -10  -2 865.579 198.934   6
 -10  10   2 464.708 223.816   3
 -10  10   2 374.614 127.933   6
 -10 -10  -2 642.029 246.595   2
 -10 -11  -2 5979.93 423.024   6
 -10  11   2 5422.36 415.217   6
 -10 -11   2 4903.63 401.994   5
 -10 -12   2 727.942 185.114   5
 -10  12   2 886.805 180.505   6
 -10  13   2 2055.01 257.605   6
 -10 -13   2 2567.55 307.699   5
 -10 -14   2-73.3109 137.217   5
 -10  14   2-66.1221 102.471   6
 -10 -15   2-51.8433 111.120   5
 -10 -16   2 96.9141 128.333   5
 -10 -17   2 1079.33 229.371   5
 -10 -18   2 165.777 139.976   5
 -10 -19   2 546.113 176.005   5
 -10 -20   2 543.805 196.040   5
  10 -20   2 739.245 242.370   5
 -11   0   2-45.6831 93.7399   5
 -11   0  -2-91.5990 158.248   3
 -11   0   2 90.0406 138.066   6
 -11   0  -2 0.75084 105.595   6
 -11   0   2-121.041 138.597   2
 -11  -1   2 1884.26 348.190   2
 -11  -1  -2 1869.81 353.296   3
 -11   1  -2 1990.83 365.451   3
 -11  -1  -2 1726.59 255.660   6
 -11  -1   2 2087.02 270.026   6
 -11   1   2 2149.34 278.956   6
 -11   1  -2 1731.88 241.798   6
 -11  -1  -2 2104.78 274.479   5
 -11   1   2 1908.86 252.393   5
 -11  -1   2 2187.58 274.022   5
 -11   1   2 1762.38 331.799   2
 -11  -2  -2 268.903 157.485   5
 -11   2   2 141.565 135.064   5
 -11  -2   2 18.1195 94.7875   5
 -11  -2   2 301.029 149.763   6
 -11  -2  -2 156.330 176.887   3
 -11   2  -2 22.4803 138.897   3
 -11  -2  -2 6.59205 118.588   6
 -11   2  -2 121.807 110.283   6
 -11   2   2 151.600 126.892   6
 -11   2   2 71.0019 136.137   2
 -11   3  -2 8423.55 505.448   6
 -11   3   2 8007.75 662.608   2
 -11   3   2 8587.32 538.739   6
 -11  -3  -2 8240.29 509.137   6
 -11  -3   2 8527.43 531.476   6
 -11  -3  -2 8506.60 691.890   3
 -11  -3  -2 8649.97 524.280   5
 -11   3   2 9900.60 553.603   5
 -11  -3   2 9144.88 541.683   5
 -11  -4  -2 709.644 188.615   5
 -11   4   2 824.008 192.514   5
 -11  -4   2 653.381 167.012   5
 -11  -4  -2 770.730 246.198   3
 -11  -4   2 639.609 156.376   6
 -11   4  -2 618.613 159.663   6
 -11  -4  -2 798.647 182.543   6
 -11   4   2 266.055 135.746   6
 -11  -5  -2 1224.24 218.684   5
 -11  -5   2 1164.75 211.702   5
 -11  -5  -2 1237.88 271.537   3
 -11  -5   2 1450.34 232.820   6
 -11   5   2 899.408 186.008   6
 -11   5  -2 1022.63 197.386   6
 -11   5   2 1389.55 229.636   5
 -11  -5  -2 1065.98 211.221   6
 -11  -6  -2 751.321 191.872   5
 -11  -6   2 449.040 145.657   5
 -11   6   2 432.741 132.471   6
 -11  -6  -2 543.754 168.216   6
 -11   6  -2 754.321 169.991   6
 -11  -6   2 491.170 154.917   6
 -11   7  -2 4864.73 391.377   6
 -11   7   2 4624.35 396.791   6
 -11  -7   2 5248.30 412.448   6
 -11  -7  -2 4284.39 375.383   6
 -11  -7  -2 4841.09 403.900   5
 -11  -7   2 5192.93 435.765   5
 -11  -8  -2 610.791 181.067   5
 -11  -8   2 324.396 153.273   5
 -11  -8  -2 755.184 192.800   6
 -11   8  -2 524.823 157.768   6
 -11   8   2 380.323 155.968   6
 -11  -9  -2 7586.92 497.102   6
 -11   9   2 6963.79 484.766   6
 -11   9  -2 6913.93 454.047   6
 -11  -9   2 7870.38 541.183   5
 -11 -10  -2 319.275 135.575   5
 -11 -10   2 281.640 121.132   5
 -11 -10  -2 144.483 129.961   6
 -11  10   2 316.876 117.274   6
 -11 -11  -2 249.813 131.769   6
 -11 -11   2 321.191 158.433   5
 -11  11   2 319.971 136.862   6
 -11 -12   2-225.877 150.976   5
 -11  12   2 54.3537 124.714   6
 -11  13   2 3053.36 331.082   6
 -11 -13   2 4019.56 404.407   5
 -11 -14   2 439.803 169.405   5
 -11 -15   2 2252.47 312.169   5
 -11 -16   2 610.736 190.986   5
 -11 -17   2 137.678 131.445   5
 -11 -18   2 14.8743 111.649   5
 -12   0   2 918.943 203.621   5
 -12   0   2 671.017 180.686   6
 -12   0  -2 846.994 198.567   6
 -12   1  -2 1520.00 257.378   6
 -12  -1  -2 1571.82 251.727   6
 -12  -1   2 1660.65 262.605   6
 -12   1   2 1627.90 261.428   6
 -12   1   2 1803.85 266.299   5
 -12  -1   2 1764.13 270.092   5
 -12  -2  -2 1103.72 212.282   6
 -12  -2   2 1718.72 276.012   6
 -12   2   2 1683.16 263.674   6
 -12   2  -2 1525.04 258.991   6
 -12  -2  -2 1555.50 271.861   5
 -12   2   2 1642.39 262.350   5
 -12  -2   2 1630.67 263.235   5
 -12  -3  -2 630.816 187.350   5
 -12   3   2 408.855 167.813   5
 -12  -3   2 191.100 104.854   5
 -12   3   2 201.198 118.405   6
 -12  -3  -2 72.5351 135.739   6
 -12   3  -2 395.285 157.422   6
 -12  -3   2 128.445 133.784   6
 -12  -4  -2 143.903 107.754   5
 -12   4   2 427.599 159.215   5
 -12  -4   2 309.742 144.775   5
 -12  -4  -2 459.176 164.283   6
 -12   4  -2 329.959 160.107   6
 -12  -4   2 252.639 117.471   6
 -12   4   2 385.780 156.800   6
 -12  -5  -2 3240.14 345.367   6
 -12  -5   2 4459.62 401.178   6
 -12   5   2 3652.52 379.395   6
 -12   5  -2 4036.05 382.813   6
 -12  -5  -2 3911.55 387.614   5
 -12  -5   2 3868.25 381.433   5
 -12  -6  -2 762.501 197.449   5
 -12  -6   2 561.064 178.158   5
 -12  -6  -2 567.414 179.964   6
 -12   6  -2 596.113 177.250   6
 -12  -6   2 266.746 118.775   6
 -12   6   2 471.451 177.677   6
 -12  -7   2 1684.87 265.562   5
 -12   7  -2 2149.61 281.085   6
 -12   7   2 1383.55 246.244   6
 -12  -7  -2 2168.02 296.309   6
 -12  -7  -2 2026.23 287.745   5
 -12  -8  -2 1145.32 216.846   5
 -12  -8   2 1226.28 231.213   5
 -12  -8  -2 1202.05 233.693   6
 -12   8  -2 1180.66 228.041   6
 -12   8   2 1109.79 224.604   6
 -12  -9  -2 115.993 92.2679   5
 -12  -9   2-18.0611 124.562   5
 -12  -9  -2 341.512 173.844   6
 -12   9  -2 179.529 126.096   6
 -12   9   2 82.7049 112.019   6
 -12 -10  -2 273.747 142.308   5
 -12 -10   2 42.0702 139.190   5
 -12  10   2 453.034 178.350   6
 -12 -10  -2 334.082 129.480   6
 -12 -11  -2 2000.92 294.179   6
 -12  11   2 2308.64 305.407   6
 -12 -11   2 2151.66 313.635   5
 -12 -12   2 220.150 128.262   5
 -12  12   2 228.861 130.907   6
 -12 -13   2 1455.57 282.322   5
 -12  13   2 2162.30 302.191   6
 -12 -14   2 95.4070 120.108   5
 -12 -15   2 167.865 149.026   5
 -13   0   2 56.5213 97.0496   5
 -13   0  -2 134.439 128.039   6
 -13   0   2-28.3156 139.001   6
 -13   1   2 1033.76 221.639   5
 -13  -1   2 1199.36 249.053   5
 -13  -1  -2 1109.33 237.863   6
 -13   1  -2 737.982 210.097   6
 -13  -1   2 1078.98 236.239   6
 -13   1   2 1007.51 231.696   6
 -13  -2  -2 2600.42 331.409   6
 -13   2  -2 2574.62 313.139   6
 -13  -2   2 2817.18 349.109   6
 -13   2   2 3093.68 371.970   6
 -13   2   2 2276.89 304.923   5
 -13  -2   2 3178.26 372.362   5
 -13  -3  -2 4034.75 404.523   6
 -13   3  -2 4577.45 428.664   6
 -13  -3   2 3945.93 408.604   6
 -13   3   2 4574.74 446.792   6
 -13  -3  -2 4120.90 420.921   5
 -13   3   2 4740.36 430.803   5
 -13  -3   2 4313.97 424.766   5
 -13  -4  -2 2712.30 331.715   6
 -13   4  -2 2715.90 335.884   6
 -13  -4   2 2700.36 338.900   6
 -13   4   2 2585.02 349.489   6
 -13  -4  -2 2622.56 339.309   5
 -13   4   2 3519.35 377.050   5
 -13  -4   2 2802.07 346.455   5
 -13  -5  -2 1191.22 249.935   5
 -13  -5   2 1270.63 242.826   5
 -13   5   2 1307.13 249.173   6
 -13  -5  -2 1439.93 256.852   6
 -13   5  -2 1215.38 241.561   6
 -13  -5   2 818.102 195.390   6
 -13  -6  -2 834.270 205.764   5
 -13  -6   2 841.927 213.507   5
 -13   6   2 533.386 190.851   6
 -13  -6  -2 994.328 234.339   6
 -13  -6   2 788.515 216.527   6
 -13   6  -2 690.041 174.550   6
 -13  -7  -2 54.2432 102.019   5
 -13  -7   2 23.9796 112.573   5
 -13  -7  -2-92.7808 135.391   6
 -13   7  -2 45.9095 91.8683   6
 -13   7   2 12.1199 111.556   6
 -13  -8  -2 41.1125 93.0670   5
 -13  -8   2-110.518 100.217   5
 -13  -8  -2-7.27975 93.3334   6
 -13   8  -2-48.2710 110.143   6
 -13   8   2 47.6220 100.662   6
 -13  -9  -2 716.587 193.705   5
 -13  -9   2 499.478 175.170   5
 -13  -9  -2 652.613 189.427   6
 -13   9   2 495.700 163.682   6
 -13   9  -2 430.188 146.059   6
 -13 -10  -2 118.745 125.365   5
 -13 -10   2 340.978 118.350   5
 -13  10   2 218.490 129.861   6
 -13 -10  -2 422.812 172.098   6
 -13 -11   2 75.1666 121.780   5
 -13  11   2 13.1795 140.916   6
 -13  12   2 370.531 165.912   6
 -14   0  -2 1908.06 304.304   6
 -14   0   2 1858.23 297.908   6
 -14   0   2 2025.57 313.261   5
 -14  -1  -2 3152.78 379.472   6
 -14   1  -2 2899.27 357.683   6
 -14  -1   2 3287.52 398.703   6
 -14   1   2 3480.00 400.743   6
 -14   1   2 3423.13 388.687   5
 -14  -1   2 3781.07 414.424   5
 -14   2   2 533.044 194.564   5
 -14  -2   2 514.888 200.645   5
 -14  -2  -2 183.514 148.969   6
 -14   2  -2 273.293 148.474   6
 -14  -2   2 287.701 131.190   6
 -14   2   2 542.252 189.383   6
 -14   3   2 379.554 164.794   5
 -14  -3   2 325.114 193.678   5
 -14  -3  -2 320.861 184.245   6
 -14   3  -2 301.030 171.213   6
 -14  -3   2 219.641 146.268   6
 -14   3   2 372.236 192.289   6
 -14  -4   2 529.282 180.575   5
 -14   4  -2 676.982 191.085   6
 -14  -4   2 515.188 189.814   6
 -14   4   2 405.539 187.590   6
 -14  -4  -2 370.699 177.925   6
 -14  -5  -2 1698.59 292.210   5
 -14   5   2 1858.18 304.264   6
 -14  -5  -2 1489.86 276.717   6
 -14   5  -2 1470.38 262.809   6
 -14  -5   2 1825.53 285.957   6
 -14  -5   2 2116.39 326.643   5
 -14  -6  -2 1080.24 247.859   6
 -14  -6  -2 1120.70 257.306   5
 -14  -6   2 1038.25 239.171   5
 -14   6  -2 850.274 202.119   6
 -14  -6   2 1304.70 260.061   6
 -14  -7  -2 1516.88 285.047   5
   0   0  -3 124.717 72.3521   3
   0   0   3 189.942 148.181   2
   0   0  -3-52.3349 76.6136   4
   0   1  -3 78069.4 1390.61   4
   0  -1  -3 74685.0 1112.25   3
   0   1  -3 76924.1 1064.39   3
   0  -1  -3 76865.5 1364.90   4
   0  -1   3 75468.2 1380.88   2
   0   1   3 74569.4 1339.18   2
   0  -2  -3 36.6904 72.2136   3
   0   2  -3 71.2579 68.4458   3
   0  -2   3 106.531 130.176   2
   0   2   3 244.694 148.033   2
   0   2  -3 83.2503 102.990   4
   0  -2  -3 25.7277 88.9944   4
   0  -3   3 13510.4 359.513   1
   0   3  -3 16062.8 667.455   4
   0  -3  -3 15313.7 546.455   3
   0   3  -3 15540.1 458.801   3
   0  -3  -3 15873.0 663.931   4
   0  -3   3 14072.0 623.659   2
   0   3   3 14459.2 576.166   2
   0  -4  -3 6.52540 84.9482   3
   0   4  -3 16.0495 50.1252   3
   0  -4   3 122.486 151.270   2
   0   4   3 194.271 136.141   2
   0  -4   3-2.69570 33.9312   1
   0   4  -3-9.12999 90.9844   4
   0  -4  -3 6.70140 84.1869   4
   0  -5  -3 20883.2 740.725   4
   0  -5   3 19784.4 492.930   1
   0   5  -3 22611.0 538.098   3
   0   5  -3 21031.4 763.117   4
   0   5  -3 23211.4 536.531   7
   0  -5   3 21626.3 783.646   2
   0   5   3 21169.8 669.259   2
   0  -5   3 21618.0 482.994   5
   0  -6   3 314.597 150.857   2
   0  -6   3-54.5003 64.7323   5
   0   6   3 130.997 100.176   2
   0  -6  -3 31.0566 108.591   4
   0   6  -3 10.1601 50.8418   7
   0   6  -3 188.499 134.838   4
   0  -6   3 24.6588 43.7213   1
   0  -7  -3 42787.3 1159.91   4
   0   7  -3 42293.0 1101.57   4
   0   7  -3 31084.1 648.352   7
   0  -7   3 43818.4 834.024   1
   0  -7   3 43679.5 1126.67   2
   0   7   3 39980.5 853.616   2
   0  -7   3 30672.0 625.870   5
   0  -8   3-23.0555 61.3396   1
   0  -8   3 109.656 129.408   2
   0   8  -3 42.0414 58.6329   7
   0  -8   3-136.193 96.0999   5
   0  -8  -3 114.976 121.979   4
   0   8  -3-12.2841 100.403   4
   0  -9  -3 42309.1 1182.78   4
   0   9  -3 41097.8 760.050   7
   0  -9   3 41354.9 936.386   1
   0  -9   3 43899.8 1149.20   2
   0  -9   3 42924.5 794.459   5
   0 -10   3-201.272 152.050   2
   0 -10   3-290.126 118.244   5
   0 -10  -3 126.416 127.645   4
   0  10  -3 199.947 92.9225   7
   0 -10   3 141.481 90.5556   1
   0 -11   3 123558. 2028.20   2
   0 -11  -3 118235. 2109.99   4
   0  11  -3 115546. 1359.12   7
   0 -11   3 114138. 1747.94   1
   0 -11   3 120299. 1414.14   5
   0 -12   3-106.478 154.582   2
   0 -12   3 125.734 119.327   5
   0  12  -3 95.2754 85.5352   7
   0 -12   3 48.7975 95.4361   1
   0 -12  -3 112.159 129.351   4
   0 -13  -3 3165.20 395.859   4
   0 -13   3 3739.93 382.390   2
   0 -13   3 3021.08 320.636   1
   0 -13   3 3586.24 269.400   5
   0 -14   3 116.005 98.1056   1
   0 -14   3 142.221 154.299   2
   0 -14   3 84.0931 110.164   5
   0 -14  -3 194.585 171.465   4
   0 -15   3 1846.33 274.700   1
   0 -15  -3 1799.42 311.841   4
   0 -15   3 2033.43 224.430   5
   0 -16   3-2.49702 106.620   5
   0 -16  -3 258.218 168.150   4
   0 -16   3 57.3346 113.918   1
   0 -17  -3 9168.46 725.443   4
   0 -17   3 9777.59 495.976   5
   0 -18   3 67.3126 88.1147   5
   0 -18  -3 80.3683 183.289   4
   0 -18   3 209.289 137.028   1
   0 -19  -3 1963.73 359.080   4
   0 -19   3 2596.33 369.908   1
   0 -19   3 3021.76 295.239   5
   0 -20   3 351.712 147.783   5
   0 -20  -3 210.889 204.779   4
   0 -20   3 114.952 132.334   1
   0 -21   3 146.625 117.323   5
   0 -21   3 310.672 179.125   1
   0 -22   3 85.6456 129.936   5
   0 -23   3 558.590 152.983   5
   0 -24   3-27.0590 111.264   5
   0 -25   3 1594.31 269.471   5
   0 -26   3-158.815 145.677   5
   0 -27   3-111.040 145.446   5
   1   0  -3 26.9743 53.9044   3
  -1   0  -3-25.6061 66.5358   3
  -1   0   3 83.1525 84.6430   2
  -1   0  -3-32.5289 78.6174   4
   1   0  -3 35.1879 80.5028   4
  -1   0  -3 135.302 89.4100   6
   1   1  -3 12388.0 562.013   4
   1  -1  -3 12776.9 555.015   4
  -1   1  -3 12323.6 559.596   4
  -1  -1  -3 12698.1 383.955   6
  -1   1  -3 12200.4 361.017   6
  -1  -1  -3 13019.9 580.785   4
   1   1  -3 12647.0 411.881   3
  -1  -1  -3 12744.3 491.795   3
  -1   1  -3 13068.3 481.755   3
  -1  -1   3 11962.8 530.004   2
  -1   1   3 11745.3 503.784   2
   1  -2  -3 1486.44 219.915   4
  -1  -2  -3 2068.41 167.736   6
  -1   2  -3 1556.18 220.072   4
   1   2  -3 1575.80 224.610   4
  -1  -2  -3 1490.69 209.929   4
   1   2  -3 1774.87 151.780   3
  -1  -2  -3 1622.36 191.260   3
  -1   2  -3 1803.64 187.092   3
  -1  -2   3 1579.56 214.809   2
  -1   2   3 1612.46 194.941   2
  -1  -3  -3 44176.1 728.269   6
  -1  -3   3 41175.0 750.237   1
   1  -3  -3 46187.6 1111.60   4
  -1   3  -3 44790.6 1070.03   4
  -1  -3  -3 43123.3 1066.35   4
   1   3  -3 43325.3 691.162   3
  -1  -3  -3 43053.8 938.858   3
  -1   3  -3 44233.5 847.112   3
   1  -3  -3 42970.8 720.442   1
  -1  -3   3 42330.1 1029.61   2
  -1   3   3 42570.6 916.663   2
   1   3  -3 44837.9 1086.52   4
  -1   4  -3 13066.1 590.760   4
  -1  -4  -3 12222.6 570.613   4
  -1  -4   3 11976.2 412.995   1
   1  -4  -3 12165.4 568.670   4
  -1  -4  -3 12498.2 394.669   6
   1   4  -3 12348.6 583.322   4
   1  -4  -3 11947.0 389.018   1
   1   4  -3 11313.4 329.052   3
  -1  -4  -3 11559.5 503.034   3
  -1   4  -3 11752.3 425.263   3
  -1  -4   3 12416.0 569.883   2
  -1   4   3 11626.3 475.048   2
   1  -5   3 2971.68 194.477   5
   1   5  -3 2949.08 297.604   4
  -1  -5   3 2561.40 200.326   1
  -1  -5  -3 2376.41 277.766   4
   1  -5  -3 2522.84 267.884   4
  -1   5  -3 1997.44 172.251   7
  -1   5  -3 2811.83 295.188   4
   1  -5  -3 2655.87 196.133   1
  -1  -5  -3 2084.23 176.405   6
  -1  -5  -3 2945.24 274.243   3
  -1   5   3 2672.90 224.811   2
  -1  -5   3 2968.27 293.011   2
  -1   5  -3 2441.29 198.845   3
   1  -5   3 3005.16 331.050   2
  -1  -5   3 3024.35 184.958   5
   1  -6   3 8829.41 344.572   5
  -1  -6  -3 13205.3 643.066   4
   1  -6  -3 13830.5 623.826   4
  -1   6  -3 13280.8 627.025   4
  -1  -6   3 13220.8 471.230   1
  -1   6  -3 10077.6 374.666   7
   1  -6  -3 13170.3 461.948   1
   1   6  -3 12476.8 605.990   4
  -1  -6  -3 12899.9 576.658   3
  -1  -6   3 14139.2 642.109   2
  -1   6   3 13508.3 483.834   2
  -1   6  -3 13013.1 451.339   3
   1  -6   3 13369.3 657.704   2
  -1  -6   3 9229.08 327.816   5
   1  -7   3 21248.9 552.716   5
   1  -7  -3 31296.3 747.174   1
  -1  -7  -3 34215.8 1099.15   4
   1  -7  -3 31778.4 984.657   4
   1   7  -3 29282.8 927.044   4
  -1  -7   3 30114.9 732.806   1
   1   7  -3 31252.5 614.961   7
  -1  -7  -3 30573.4 908.186   3
  -1  -7   3 30697.2 950.190   2
   1  -7   3 31077.0 683.889   1
  -1   7   3 31774.2 722.179   2
  -1   7  -3 30312.6 921.484   4
  -1   7  -3 31242.2 700.837   3
   1  -7   3 29313.8 968.342   2
  -1  -7   3 20880.1 514.827   5
  -1   7  -3 23602.4 591.057   7
   1  -8   3 8001.48 356.679   5
  -1  -8   3 7021.22 365.711   1
   1  -8  -3 7301.48 386.277   1
  -1  -8  -3 7164.69 492.994   4
   1  -8  -3 8066.92 538.107   4
  -1   8  -3 7742.35 346.270   7
  -1   8  -3 6762.13 452.284   4
   1   8  -3 7233.87 299.512   7
  -1  -8   3 7654.21 490.654   2
   1  -8   3 7073.50 351.915   1
   1  -8   3 7869.37 507.810   2
  -1  -8   3 7823.89 330.004   5
   1  -9   3 78033.1 1120.29   5
   1  -9  -3 74324.7 1324.19   1
  -1  -9  -3 73869.4 1558.29   4
   1  -9  -3 76394.1 1558.92   4
  -1   9  -3 71592.1 1502.62   4
  -1  -9   3 71748.3 1247.77   1
  -1   9  -3 77700.5 1096.82   7
  -1  -9   3 79926.7 1563.14   2
   1   9  -3 73882.7 979.451   7
   1  -9   3 78630.3 1271.96   1
   1  -9   3 79901.4 1612.33   2
  -1  -9   3 76145.6 1051.48   5
   1 -10   3 3353.13 254.914   5
   1 -10  -3 3481.38 318.406   1
  -1 -10  -3 3151.89 357.972   4
   1 -10  -3 3395.44 360.655   4
  -1  10  -3 3620.42 251.817   7
  -1 -10   3 3143.17 280.911   1
   1  10  -3 2174.49 182.829   7
  -1 -10   3 4100.44 388.927   2
   1 -10   3 3572.84 292.778   1
   1 -10   3 3496.53 361.820   2
  -1 -10   3 3844.07 254.705   5
   1 -11  -3 19041.2 769.669   1
  -1 -11  -3 18528.7 855.018   4
   1 -11  -3 19188.3 847.133   4
   1  11  -3 19093.2 532.263   7
  -1  11  -3 19429.7 579.597   7
  -1 -11   3 20425.1 804.438   2
  -1 -11   3 18133.1 695.884   1
   1 -11   3 20661.3 838.733   2
   1 -11   3 18356.5 679.438   1
  -1 -11   3 18832.8 572.739   5
   1 -11   3 18952.5 589.965   5
   1 -12  -3 1496.24 229.304   1
  -1 -12  -3 1646.76 286.401   4
  -1  12  -3 1818.25 201.539   7
  -1 -12   3 1525.24 218.154   1
   1 -12  -3 1419.94 258.999   4
   1 -12   3 1604.18 260.473   2
   1 -12   3 1500.79 216.134   1
  -1 -12   3 1615.35 240.415   2
  -1 -12   3 1870.70 199.649   5
   1 -12   3 1483.34 178.751   5
   1 -13  -3 8949.37 559.414   1
  -1 -13  -3 8404.66 612.153   4
   1 -13  -3 8896.08 616.456   4
  -1  13  -3 8447.26 401.646   7
  -1 -13   3 8681.12 537.466   1
  -1 -13   3 9212.87 552.197   2
   1 -13   3 8874.56 553.886   2
   1 -13   3 8720.92 521.843   1
  -1 -13   3 9510.96 430.680   5
   1 -13   3 9040.44 426.912   5
  -1 -14   3-25.7161 88.8818   2
  -1 -14   3 105.142 89.2132   5
   1 -14   3 174.433 86.9681   5
   1 -14  -3 319.949 155.007   1
  -1 -14   3 68.0387 91.9361   1
  -1 -14  -3 345.993 175.375   4
   1 -14  -3 260.524 157.015   4
   1 -14   3 179.325 116.750   1
   1 -15  -3 13717.5 742.618   1
  -1 -15  -3 14432.4 863.706   4
   1 -15  -3 14814.4 841.377   4
  -1 -15   3 14516.8 746.603   1
   1 -15   3 14591.4 736.377   1
  -1 -15   3 13828.0 553.758   5
   1 -15   3 14012.0 564.314   5
  -1 -16  -3 241.712 161.733   4
  -1 -16   3 260.177 132.315   5
   1 -16   3 226.923 112.660   5
  -1 -16   3 207.989 131.101   1
   1 -16  -3 219.863 143.758   4
   1 -16   3 466.239 156.609   1
  -1 -17   3 915.886 157.559   5
   1 -17   3 1062.09 193.128   5
  -1 -17   3 479.165 170.741   1
  -1 -17  -3 1082.77 292.670   4
   1 -17  -3 1321.76 309.973   4
   1 -17   3 1229.91 251.701   1
  -1 -18   3 281.955 126.663   5
   1 -18   3 256.333 152.804   5
  -1 -18   3 71.1853 91.2501   1
  -1 -18  -3 34.3873 126.856   4
   1 -18  -3 102.009 163.242   4
   1 -18   3 266.271 133.840   1
  -1 -19  -3 2958.18 443.213   4
   1 -19  -3 3426.83 465.044   4
  -1 -19   3 3632.24 433.157   1
   1 -19   3 4033.53 446.334   1
  -1 -19   3 4372.94 361.086   5
   1 -19   3 4297.51 365.794   5
  -1 -20   3 888.691 184.223   5
   1 -20   3 1295.16 228.015   5
  -1 -20  -3 451.508 209.995   4
   1 -20  -3 774.914 258.745   4
   1 -20   3 821.194 227.238   1
  -1 -20   3 508.383 200.236   1
  -1 -21   3 4942.75 412.056   5
   1 -21   3 5028.14 412.589   5
  -1 -22   3 449.569 169.395   5
   1 -22   3 744.398 194.988   5
  -1 -23   3 44.8407 112.226   5
   1 -23   3-48.3295 122.645   5
  -1 -24   3 92.0664 135.861   5
   1 -24   3 74.7713 120.914   5
  -1 -25   3 460.299 154.475   5
   1 -25   3 659.207 188.238   5
  -1 -26   3 195.932 132.270   5
   1 -26   3 519.236 171.300   5
  -1 -27   3 364.426 159.860   5
   1 -27   3 355.253 144.728   5
   2   0  -3 34382.0 927.739   4
  -2   0  -3 31854.5 600.105   6
  -2   0   3 31251.0 843.203   2
  -2   0  -3 34273.6 870.067   3
  -2   0  -3 33725.2 931.628   4
  -2  -1  -3 77298.1 1439.19   4
  -2  -1  -3 75995.3 1290.27   3
  -2   1  -3 72039.0 889.265   6
  -2   1  -3 72777.8 1338.48   4
   2  -1  -3 75523.0 1365.36   4
  -2   1   3 71216.5 1236.77   2
  -2  -1   3 69523.9 1272.27   2
  -2   1  -3 73483.3 1227.73   3
   2   1  -3 78343.2 1403.96   4
  -2  -1  -3 74297.5 929.232   6
  -2  -2  -3 24551.3 545.302   6
   2   2  -3 27202.9 866.953   4
  -2   2  -3 25375.4 523.571   6
  -2  -2  -3 24963.9 815.810   4
   2  -2  -3 26453.9 812.563   4
  -2   2  -3 25028.4 799.245   4
  -2  -2  -3 25626.3 763.244   3
  -2   2   3 23558.6 693.809   2
  -2  -2   3 24030.2 768.905   2
  -2   2  -3 25024.3 691.017   3
  -2   3  -3 11598.8 548.962   4
  -2   3  -3 10723.4 340.276   6
  -2  -3   3 10233.6 425.927   1
  -2  -3  -3 10505.8 525.273   4
   2  -3  -3 11867.2 563.857   4
  -2  -3  -3 10650.2 369.060   6
   2   3  -3 11134.9 553.974   4
  -2  -3  -3 10620.3 495.541   3
  -2   3   3 10896.4 468.697   2
  -2  -3   3 11383.2 536.948   2
  -2   3  -3 10256.2 443.936   3
   2   4  -3 11661.7 568.116   4
  -2  -4  -3 9045.75 347.076   6
  -2  -4   3 12001.0 471.326   1
  -2  -4  -3 12027.7 573.879   4
  -2   4  -3 12756.4 578.529   4
  -2   4  -3 13078.7 367.851   6
   2  -4  -3 12774.7 582.744   4
  -2  -4  -3 11807.9 532.231   3
  -2   4   3 11156.4 444.241   2
  -2  -4   3 11753.8 553.163   2
  -2   4  -3 12164.3 482.742   3
   2  -4  -3 8560.72 412.795   1
  -2  -4   3 12998.1 365.333   5
   2   5  -3 25687.8 833.110   4
  -2   5  -3 27800.7 874.701   4
  -2  -5  -3 26577.0 874.728   4
  -2  -5   3 27554.4 726.552   1
   2  -5  -3 26946.0 828.962   4
  -2  -5  -3 20898.2 527.563   6
  -2  -5  -3 26189.8 818.301   3
  -2   5   3 25430.3 656.565   2
  -2  -5   3 26624.6 843.510   2
   2  -5  -3 18410.2 602.649   1
  -2   5  -3 21186.1 575.489   7
  -2   5  -3 27475.2 728.575   3
  -2  -5   3 28256.0 566.659   5
   2  -6   3 9445.35 380.815   5
  -2  -6   3 14257.4 557.454   1
  -2  -6  -3 12979.1 654.464   4
   2  -6  -3 12819.3 591.424   4
  -2   6  -3 9657.08 385.151   7
  -2  -6  -3 11099.8 392.742   6
  -2   6  -3 13228.4 610.541   4
   2   6  -3 12614.7 609.980   4
  -2  -6  -3 12476.2 563.944   3
  -2   6   3 11980.9 440.777   2
  -2  -6   3 12729.7 576.977   2
   2  -6  -3 8107.17 406.862   1
  -2   6  -3 12469.9 501.355   3
  -2  -6   3 9373.80 339.313   5
   2  -7   3 21796.6 593.357   5
  -2  -7   3 25354.2 730.711   1
  -2   7  -3 26172.9 875.672   4
  -2  -7  -3 26080.6 919.112   4
   2  -7  -3 27596.1 905.162   4
  -2  -7  -3 27187.9 614.463   6
  -2   7  -3 26398.4 649.490   7
   2   7  -3 24615.3 865.099   4
   2  -7  -3 17296.2 617.968   1
  -2  -7  -3 24926.0 836.717   3
  -2  -7   3 24389.7 832.712   2
  -2   7  -3 25521.3 712.020   3
  -2  -7   3 19757.6 512.620   5
   2  -8   3 1857.24 209.690   5
  -2  -8  -3 1718.19 260.504   4
   2  -8  -3 1924.86 282.588   4
   2  -8  -3 1377.08 205.526   1
  -2   8  -3 1739.94 255.745   4
  -2  -8   3 1839.62 211.502   1
  -2  -8  -3 2018.62 189.329   6
  -2  -8  -3 1962.18 259.210   3
  -2  -8   3 1931.53 253.135   2
  -2   8  -3 1870.55 205.922   7
   2   8  -3 1837.08 147.130   7
  -2   8  -3 2019.47 212.339   3
  -2  -8   3 1697.44 162.790   5
   2  -9   3 1646.95 192.431   5
   2  -9  -3 1581.36 230.569   1
  -2  -9  -3 1947.01 196.098   6
  -2  -9  -3 1388.32 260.080   4
  -2   9  -3 1911.69 198.405   7
   2   9  -3 1744.74 151.924   7
  -2   9  -3 1720.83 261.763   4
  -2  -9   3 1543.13 211.277   1
  -2  -9  -3 1481.44 243.005   3
  -2  -9   3 1909.39 268.512   2
  -2   9  -3 1737.97 204.269   3
   2  -9   3 2072.01 325.710   2
  -2  -9   3 1746.04 168.716   5
   2  -9  -3 1198.28 207.864   4
   2 -10   3 13140.8 496.513   5
  -2 -10  -3 12585.6 650.109   3
  -2 -10  -3 13757.5 727.768   4
   2 -10  -3 13201.0 617.812   1
   2 -10  -3 12794.2 642.622   4
  -2  10  -3 12791.2 478.674   7
   2  10  -3 13123.4 415.271   7
  -2  10  -3 12731.8 632.590   4
  -2 -10   3 13121.5 585.162   1
  -2 -10   3 14063.6 670.257   2
   2 -10   3 13132.6 692.212   2
  -2 -10   3 13846.6 476.716   5
   2 -11   3 9818.77 453.326   5
   2 -11  -3 10097.9 559.985   1
  -2 -11  -3 9526.11 623.665   4
   2 -11  -3 10170.2 612.796   4
  -2  11  -3 9921.60 426.407   7
  -2  11  -3 9758.45 573.701   4
  -2 -11   3 9700.83 517.497   1
  -2 -11   3 10092.2 571.248   2
   2 -11   3 10486.5 622.935   2
  -2 -11   3 9424.56 411.867   5
   2 -12   3 6198.38 375.398   5
  -2  12  -3 5759.03 346.499   7
   2 -12  -3 6234.56 473.306   1
  -2 -12  -3 5744.81 499.718   4
   2 -12  -3 5731.21 473.577   4
  -2 -12   3 5823.62 432.818   2
   2 -12   3 6192.91 491.670   2
  -2 -12   3 6107.36 340.024   5
  -2 -12   3 4708.64 378.604   1
   2 -13   3 16808.4 610.223   5
   2 -13  -3 16934.5 801.318   1
  -2 -13  -3 16874.8 892.144   4
   2 -13  -3 17915.8 856.274   4
  -2  13  -3 17193.1 593.748   7
  -2 -13   3 15656.2 715.704   1
  -2 -13   3 15555.5 691.295   2
   2 -13   3 17542.3 807.969   2
  -2 -13   3 17845.8 607.428   5
  -2 -14   3 581.252 161.130   2
  -2 -14   3 1006.45 164.522   5
   2 -14   3 777.183 141.077   5
  -2  14  -3 1097.20 185.994   7
  -2 -14  -3 1094.61 257.202   4
   2 -14  -3 1429.01 264.861   4
  -2 -14   3 652.156 168.348   1
   2 -14  -3 984.870 228.843   1
  -2 -15   3 489.920 155.149   2
  -2 -15   3 703.630 142.678   5
   2 -15   3 625.141 145.068   5
  -2 -15  -3 1112.18 281.707   4
  -2  15  -3 743.676 159.134   7
   2 -15  -3 548.893 195.271   4
  -2 -15   3 522.727 156.721   1
   2 -15  -3 447.841 142.603   1
   2 -16  -3 1718.21 299.904   1
  -2 -16  -3 2904.60 422.365   4
   2 -16  -3 3006.18 406.347   4
  -2 -16   3 2295.93 313.367   1
  -2  16  -3 2520.36 259.216   7
  -2 -16   3 2643.95 256.953   5
   2 -16   3 2440.47 256.218   5
   2 -17  -3 7187.03 600.783   1
  -2 -17  -3 7002.85 654.823   4
   2 -17  -3 4703.95 512.195   4
  -2 -17   3 4462.51 447.822   1
  -2 -17   3 7504.31 440.750   5
   2 -17   3 7150.15 439.569   5
  -2 -18   3 245.590 117.430   5
   2 -18   3 57.5474 105.803   5
   2 -18  -3 165.939 152.781   1
  -2 -18  -3-24.2313 156.430   4
   2 -18  -3 205.125 150.094   4
  -2 -18   3 196.547 117.277   1
  -2 -19  -3 3573.29 508.600   4
   2 -19  -3 3024.73 449.664   4
  -2 -19   3 2570.76 370.625   1
  -2 -19   3 3576.35 327.532   5
   2 -19   3 3083.40 309.267   5
  -2 -20   3 428.314 125.799   5
   2 -20   3 924.847 219.801   5
  -2 -20   3 499.328 183.355   1
   2 -20  -3 693.247 267.663   4
  -2 -21   3 407.358 124.761   5
   2 -21   3 907.718 209.750   5
  -2 -22   3 1351.04 227.819   5
   2 -22   3 1895.98 282.242   5
  -2 -23   3 2998.62 338.716   5
   2 -23   3 2872.65 335.277   5
  -2 -24   3 974.593 222.216   5
   2 -24   3 659.433 205.104   5
  -2 -25   3 285.988 161.694   5
   2 -25   3 202.320 150.441   5
  -2 -26   3 507.236 185.293   5
   2 -26   3 182.875 125.153   5
  -2  26  -3 112.911 109.209   7
  -2 -27   3 1602.92 274.028   5
   2 -27   3 1415.24 266.417   5
  -3   0   3-83.6199 82.8791   2
  -3   0  -3 49.7737 77.2620   3
   3   0  -3 1.79742 99.1758   4
  -3   0  -3 62.2521 86.1506   4
  -3   0  -3 66.5464 73.7131   6
   3  -1  -3 9113.65 478.565   4
  -3  -1  -3 6452.68 294.741   6
  -3   1  -3 8891.52 487.398   4
  -3   1   3 7869.02 399.785   2
  -3  -1   3 8023.32 429.838   2
   3   1  -3 9467.60 493.969   4
  -3   1  -3 6239.89 288.089   6
  -3  -1  -3 9079.14 479.945   3
  -3   1  -3 8432.45 435.486   3
  -3  -1  -3 8643.93 485.701   4
  -3  -2  -3 31154.6 890.487   4
   3  -2  -3 31610.1 884.471   4
   3   2  -3 33536.4 947.904   4
  -3   2  -3 31004.1 881.680   4
  -3   2  -3 23993.4 565.180   6
  -3  -2  -3 32603.9 657.137   6
  -3   2   3 27761.7 729.510   2
  -3  -2   3 28002.6 810.425   2
  -3  -2  -3 33619.7 949.124   3
  -3   2  -3 30864.0 842.325   3
  -3  -3  -3 43383.2 757.127   6
  -3  -3   3 45857.0 981.634   1
  -3   3  -3 44841.4 1072.94   4
  -3  -3  -3 44309.4 1084.41   4
   3  -3  -3 47900.0 1140.70   4
  -3   3  -3 33048.2 657.305   6
  -3   3   3 39943.7 880.835   2
  -3  -3   3 37906.1 957.804   2
  -3  -3  -3 43843.4 1069.28   3
  -3   3  -3 44023.5 1014.68   3
   3   3  -3 44356.7 1103.20   4
  -3  -3   3 41914.7 631.774   5
  -3   4   3 8200.39 401.615   2
  -3   4  -3 8002.37 463.189   4
  -3  -4   3 8435.38 426.087   1
  -3  -4  -3 7756.08 470.436   4
   3  -4  -3 8379.82 475.207   4
  -3   4  -3 9378.09 349.283   6
   3   4  -3 8565.16 490.651   4
  -3  -4  -3 6260.85 299.944   6
  -3  -4   3 10391.0 372.684   6
  -3  -4  -3 8233.91 477.980   3
  -3  -4   3 7524.36 439.376   2
  -3   4  -3 7884.02 429.950   3
  -3  -4   3 8385.19 298.663   5
  -3   5  -3 12583.0 589.530   4
  -3   5   3 12163.4 479.266   2
  -3  -5   3 13744.4 566.074   1
  -3  -5  -3 13755.7 674.844   4
   3  -5  -3 13068.6 574.825   4
  -3  -5  -3 13071.7 425.848   6
  -3   5  -3 14640.2 427.242   6
   3   5  -3 12689.0 594.541   4
  -3  -5   3 15009.9 433.615   6
  -3  -5   3 11688.4 553.067   2
  -3  -5  -3 12079.5 589.870   3
  -3   5  -3 12182.0 537.247   3
  -3  -5   3 9517.70 339.190   5
   3  -5  -3 8632.49 471.656   1
  -3   6  -3 6354.20 432.241   4
  -3  -6  -3 6624.69 476.189   4
   3  -6  -3 6716.46 428.768   4
  -3  -6   3 6714.84 408.872   1
  -3   6  -3 7285.08 357.971   7
   3   6  -3 6181.14 431.188   4
  -3   6  -3 7144.06 293.033   6
  -3   6   3 5551.53 311.262   2
  -3  -6   3 5607.08 386.244   2
  -3  -6  -3 6428.49 432.937   3
  -3  -6  -3 6972.18 321.872   6
   3  -6  -3 4594.64 357.116   1
  -3   6  -3 6174.06 386.244   3
  -3  -6   3 5357.94 270.678   5
  -3  -7  -3 20141.7 549.158   6
  -3  -7  -3 19751.2 800.875   4
   3  -7  -3 20091.0 749.885   4
  -3   7  -3 14778.6 649.767   4
   3   7  -3 19169.8 766.321   4
  -3   7  -3 21052.0 494.426   6
  -3  -7   3 17258.3 685.276   2
   3  -7  -3 14271.5 640.237   1
  -3  -7  -3 19356.1 763.770   3
  -3  -7   3 20392.4 726.546   1
  -3   7  -3 20920.0 607.869   7
  -3   7  -3 20074.1 698.979   3
  -3  -7   3 21551.9 557.403   5
  -3  -8   3 10884.5 559.808   1
  -3  -8  -3 9737.96 595.087   4
   3  -8  -3 10941.1 607.732   4
  -3   8  -3 9987.72 428.370   7
   3  -8  -3 9398.38 517.267   1
  -3  -8  -3 10061.3 397.102   6
  -3  -8   3 10064.8 546.392   2
  -3  -8  -3 9351.00 542.438   3
  -3   8  -3 8178.06 507.275   4
  -3   8  -3 9937.61 515.717   3
  -3  -8   3 10113.4 399.463   5
   3  -9   3 30610.5 780.768   5
  -3  -9  -3 29033.3 1034.99   4
   3  -9  -3 29730.4 960.071   4
  -3   9  -3 30788.0 771.480   7
  -3  -9  -3 30239.0 689.609   6
  -3  -9   3 28425.4 901.617   1
  -3   9  -3 29261.9 955.131   4
   3  -9  -3 27835.6 913.356   1
  -3  -9   3 28825.2 953.025   2
  -3  -9  -3 28829.7 980.237   3
  -3   9  -3 29069.8 859.093   3
  -3  -9   3 31691.9 728.498   5
   3 -10   3 6699.62 396.495   5
  -3 -10  -3 6595.08 334.588   6
  -3 -10  -3 5752.12 489.468   4
   3 -10  -3 5995.54 463.132   4
  -3  10  -3 5466.18 414.857   4
   3 -10  -3 6573.96 459.884   1
  -3 -10   3 6499.07 441.744   1
  -3  10  -3 6740.57 367.241   7
  -3 -10  -3 6513.25 482.044   3
  -3 -10   3 6397.44 469.055   2
  -3  10  -3 5855.75 401.414   3
  -3 -10   3 6680.06 349.906   5
   3 -11   3 2406.87 253.208   5
  -3 -11  -3 1601.19 171.912   6
  -3 -11  -3 1788.50 305.509   4
   3 -11  -3 2003.53 284.590   4
   3 -11  -3 1958.39 284.697   1
  -3  11  -3 2128.21 220.028   7
  -3  11  -3 2116.39 275.805   4
  -3 -11   3 2032.38 259.720   1
  -3 -11   3 2018.86 271.027   2
  -3 -11  -3 2266.23 304.301   3
  -3  11  -3 1776.32 224.627   3
  -3 -11   3 1924.97 196.011   5
   3 -12   3 9935.64 482.135   5
  -3 -12  -3 10263.0 690.193   4
   3 -12  -3 11116.6 647.523   4
   3 -12  -3 10671.2 630.427   1
  -3  12  -3 10327.6 467.995   7
  -3 -12   3 10847.6 621.946   2
  -3  12  -3 9527.23 574.349   4
  -3 -12   3 9946.38 580.036   1
   3 -12   3 10220.1 655.843   2
  -3 -12   3 10886.7 462.804   5
   3 -13   3 7213.79 432.829   5
   3 -13  -3 5387.78 466.004   1
  -3 -13  -3 7516.66 614.873   4
   3 -13  -3 7702.98 560.767   4
  -3  13  -3 7554.26 411.537   7
  -3 -13  -3 8282.94 383.097   6
  -3  13  -3 6732.82 500.049   4
  -3 -13   3 6599.97 489.221   1
  -3 -13   3 7372.36 513.864   2
   3 -13   3 7040.44 533.904   2
  -3 -13   3 8060.22 415.040   5
   3 -14   3 6049.22 402.207   5
  -3  14   3 6785.79 385.318   6
   3 -14  -3 4119.17 427.758   1
  -3 -14  -3 5793.75 561.238   4
   3 -14  -3 6705.41 551.580   4
  -3  14  -3 6021.80 388.293   7
  -3 -14   3 5156.70 441.569   1
  -3 -14   3 3990.13 391.475   2
  -3 -14   3 6456.76 384.487   5
   3 -15   3 8029.53 469.765   5
  -3 -15  -3 8341.23 695.616   4
   3 -15  -3 8860.76 635.006   4
  -3  15  -3 8302.84 457.393   7
  -3 -15   3 7659.36 563.033   1
  -3 -15   3 8076.38 571.918   2
  -3 -15   3 8453.78 459.887   5
   3 -16   3 1644.30 226.512   5
   3 -16  -3 2220.99 352.533   4
  -3 -16   3 1638.04 285.932   1
  -3  16  -3 1613.25 224.805   7
  -3 -16  -3 1419.46 329.168   4
   3 -16  -3 945.202 254.466   1
  -3 -16   3 2187.92 241.341   5
  -3 -17   3 218.171 97.5999   5
   3 -17   3 279.528 132.029   5
  -3 -17   3 218.504 130.358   1
  -3  17  -3 131.571 106.086   7
  -3 -17  -3 266.682 182.622   4
   3 -17  -3 241.222 127.953   1
  -3 -18   3 72.6075 94.4382   5
   3 -18   3-118.284 112.609   5
  -3 -18   3-59.9834 82.4910   1
  -3  18  -3 132.872 128.811   7
  -3 -18  -3 122.858 191.181   4
   3 -18  -3-121.395 169.988   1
   3 -19  -3 3613.41 483.872   1
  -3 -19  -3 3722.00 515.999   4
  -3 -19   3 2992.55 399.745   1
  -3  19  -3 3439.40 327.223   7
  -3 -19   3 4861.99 399.219   5
   3 -19   3 4127.52 369.653   5
  -3 -20   3 1273.76 223.258   5
   3 -20   3 1235.31 218.140   5
   3 -20  -3 1419.42 336.253   1
  -3  20  -3 1305.66 225.347   7
  -3  21  -3 2840.99 321.264   7
  -3 -21   3 3488.77 358.490   5
   3 -21   3 3497.90 350.075   5
  -3  22  -3 1916.39 282.295   7
  -3 -22   3 2325.10 310.536   5
   3 -22   3 2240.14 302.304   5
  -3 -23   3 538.810 171.924   5
   3 -23   3 460.490 189.497   5
  -3  23  -3 556.273 198.463   7
  -3 -24   3 907.684 208.351   5
   3 -24   3 705.210 197.054   5
  -3  24  -3 745.341 208.522   7
  -3 -25   3 1070.90 218.659   5
   3 -25   3 866.544 224.155   5
  -3  25  -3 497.147 166.160   7
  -3 -26   3 299.214 152.083   5
   3 -26   3 134.339 120.288   5
  -3  26  -3 295.457 153.132   7
  -4   0   3 3714.67 260.361   6
   4   0  -3 3405.93 305.486   4
  -4   0  -3 2863.22 220.293   6
  -4   0   3 3012.14 279.600   2
  -4   0  -3 2310.27 250.804   4
  -4   0  -3 2960.27 297.922   3
  -4  -1  -3 50581.3 1128.10   4
  -4   1  -3 38486.5 1020.64   4
  -4  -1   3 44003.8 829.906   6
   4  -1  -3 53752.6 1158.77   4
  -4   1  -3 50977.7 869.368   6
  -4   1   3 58037.1 961.394   6
  -4   1   3 52099.7 1126.33   2
   4   1  -3 57111.0 1214.85   4
  -4  -1  -3 57617.1 930.784   6
  -4  -1   3 47772.1 1098.82   2
  -4  -1  -3 49580.7 1159.89   3
  -4   1  -3 49573.6 1161.68   3
  -4  -1   3 52961.1 734.653   5
  -4   2   3 561.615 156.653   2
  -4  -2   3 221.542 99.5178   2
  -4  -2   3 331.671 68.1875   5
  -4  -2  -3 167.527 143.852   3
  -4   2  -3 177.448 117.457   3
   4  -2  -3 399.739 126.670   4
  -4   2  -3 202.144 96.1176   4
  -4   2  -3 237.939 86.0926   6
  -4  -2  -3 256.404 117.280   4
   4   2  -3 310.441 112.322   4
  -4  -2  -3 630.785 121.307   6
  -4  -2   3 410.408 108.298   6
  -4   2   3 697.419 164.575   6
  -4   3   3 288.248 122.708   2
  -4  -3   3 320.063 111.605   2
  -4  -3  -3 221.694 119.206   3
  -4  -3   3 235.167 62.2417   5
  -4   3  -3 251.330 105.531   3
  -4  -3  -3 414.572 131.740   4
   4  -3  -3 418.633 124.169   4
  -4   3   3 852.764 164.049   6
  -4   3  -3 219.623 95.4019   4
   4   3  -3 396.088 144.223   4
  -4   3  -3 541.093 107.780   6
  -4  -3   3 441.099 109.638   6
  -4  -3  -3 337.903 117.581   6
  -4  -4   3 95.8630 80.6399   1
  -4   4   3 227.821 109.246   2
  -4  -4   3 7.26822 135.901   2
  -4  -4  -3 93.8905 108.383   3
  -4  -4   3 133.148 58.0644   5
  -4   4  -3 240.921 111.129   3
   4  -4  -3 175.172 98.9780   4
  -4  -4  -3 142.243 139.372   4
  -4   4  -3 181.189 89.1077   4
  -4   4   3 587.949 171.615   6
  -4  -4  -3 384.075 108.089   6
  -4   4  -3 91.7806 64.7518   6
   4   4  -3 161.241 108.487   4
  -4  -4   3 220.770 76.7530   6
  -4  -5   3 62540.2 1289.91   1
  -4  -5  -3 63032.6 1405.91   4
   4  -5  -3 61248.9 1230.87   4
  -4   5  -3 62725.0 1284.10   4
  -4  -5  -3 69018.1 1064.19   6
  -4   5   3 63509.5 1190.10   2
  -4  -5   3 62442.9 898.506   6
  -4   5   3 65095.0 1082.61   6
   4   5  -3 59358.2 1301.49   4
  -4  -5   3 55532.6 1261.94   2
  -4  -5  -3 61929.6 1394.19   3
  -4   5  -3 60841.4 1296.28   3
  -4  -5   3 61699.5 872.517   5
  -4   6  -3 11136.6 558.616   4
  -4  -6   3 10441.0 371.162   5
  -4  -6   3 10354.8 543.964   1
  -4  -6  -3 10649.9 587.860   4
   4  -6  -3 10370.0 518.200   4
   4   6  -3 9797.08 548.201   4
  -4  -6  -3 11275.9 429.103   6
  -4   6   3 10466.0 474.272   2
  -4  -6   3 11254.9 377.600   6
  -4   6   3 11820.4 480.591   6
  -4  -6   3 9423.90 537.511   2
  -4  -6  -3 10183.6 569.585   3
  -4   6  -3 10195.9 541.997   3
   4  -6  -3 10931.5 590.221   1
  -4   6  -3 11835.2 404.080   6
  -4  -7  -3 2805.59 322.430   4
  -4  -7   3 2973.16 308.601   1
   4  -7  -3 2705.09 288.272   4
  -4   7  -3 2767.80 294.664   4
  -4  -7  -3 3336.53 244.813   6
   4   7  -3 2317.72 287.902   4
  -4   7   3 3727.52 291.061   6
  -4  -7   3 2769.35 295.064   2
  -4  -7  -3 2568.21 292.556   3
  -4   7  -3 3305.75 258.945   7
  -4   7  -3 2931.42 201.614   6
   4  -7  -3 3138.71 333.016   1
  -4   7  -3 2652.59 284.270   3
  -4  -7   3 3219.03 216.663   5
  -4  -8  -3 10362.9 619.108   4
   4  -8  -3 11597.1 613.490   4
  -4  -8   3 10470.1 568.151   1
  -4  -8  -3 10666.5 420.111   6
  -4   8  -3 10292.8 559.531   4
  -4   8   3 11608.0 483.979   6
  -4  -8   3 10170.1 584.065   2
  -4  -8  -3 10006.9 589.407   3
   4  -8  -3 11058.0 616.090   1
  -4   8  -3 10981.3 471.155   7
  -4   8  -3 10445.5 552.769   3
  -4  -8   3 10607.6 402.397   5
  -4  -9  -3 9607.46 623.079   4
   4  -9  -3 8983.10 520.558   4
  -4   9  -3 9172.92 436.557   7
  -4  -9  -3 9247.56 398.842   6
  -4   9   3 9522.67 437.630   6
  -4  -9   3 8723.83 551.927   2
  -4  -9   3 8635.11 542.902   1
   4  -9  -3 8328.02 534.346   1
  -4  -9  -3 8878.37 555.148   3
  -4   9  -3 9672.40 538.319   3
  -4  -9   3 8858.75 382.361   5
  -4 -10  -3 4088.63 416.457   4
   4 -10  -3 3717.28 354.905   4
  -4 -10   3 3816.01 376.499   1
   4 -10  -3 3988.65 390.913   1
  -4  10   3 4343.64 309.939   6
  -4 -10   3 4674.38 418.652   2
  -4  10  -3 3945.08 301.656   7
  -4 -10  -3 3369.83 359.803   3
  -4  10  -3 3928.09 352.438   3
  -4 -10  -3 4115.69 276.632   6
  -4 -10   3 4047.35 273.232   5
  -4  11   3 8432.65 419.809   6
   4 -11  -3 7035.97 530.479   1
  -4 -11   3 7537.54 530.318   1
  -4 -11  -3 7823.62 598.749   4
  -4  11  -3 8054.47 425.895   7
  -4 -11   3 8055.86 571.516   2
  -4 -11  -3 7572.07 547.321   3
  -4  11  -3 7379.81 486.103   3
  -4 -11   3 7849.38 385.066   5
   4 -12   3 8720.39 483.002   5
  -4 -12  -3 8629.44 647.354   4
   4 -12  -3 8483.42 598.342   1
  -4  12  -3 8651.43 451.455   7
  -4 -12   3 8528.96 572.638   1
  -4 -12   3 9923.69 628.147   2
  -4 -12  -3 9118.70 608.159   3
  -4  12   3 9564.45 455.858   6
  -4  12  -3 8749.70 546.698   3
  -4 -12   3 8988.53 431.926   5
   4 -13   3 8535.81 492.022   5
  -4 -13  -3 8834.61 408.792   6
  -4 -13  -3 8080.53 635.841   4
   4 -13  -3 7968.90 596.010   1
  -4  13  -3 8432.81 447.304   7
  -4  13   3 8968.95 440.519   6
  -4 -13   3 8515.55 605.068   2
  -4 -13  -3 8152.28 595.224   3
  -4 -13   3 7631.02 551.583   1
  -4 -13   3 8372.26 421.272   5
  -4 -14   3 342.450 138.320   2
  -4 -14   3 381.406 125.131   5
   4 -14  -3 516.052 204.761   1
   4 -14   3 515.985 158.472   5
  -4 -14   3 408.754 165.417   1
  -4 -14  -3 559.535 220.763   4
  -4  14   3 485.723 134.708   6
  -4  14  -3 397.831 127.439   7
   4 -15   3 4592.03 377.373   5
  -4  15  -3 4769.95 356.066   7
   4 -15  -3 3856.47 447.792   1
  -4 -15  -3 4585.68 527.640   4
  -4 -15   3 4917.56 475.870   1
  -4 -15   3 5143.83 353.108   5
  -4 -15   3 3603.29 423.264   2
   4 -16   3 4131.73 360.216   5
  -4  16   3 3992.05 497.158   3
  -4 -16  -3 5218.11 573.885   4
  -4  16  -3 4778.91 365.308   7
  -4 -16   3 4374.54 471.346   1
  -4 -16   3 4702.51 347.839   5
   4 -17   3 6400.60 451.273   5
  -4  17   3 5999.59 610.095   3
   4 -17  -3 4268.57 508.829   1
  -4 -17  -3 5972.48 619.782   4
  -4  17  -3 6224.48 427.389   7
  -4 -17   3 4734.90 486.926   1
  -4 -17   3 6432.96 420.711   5
   4 -18   3 3636.18 354.864   5
  -4  18   3 3591.57 503.006   3
   4 -18  -3 3215.20 468.528   1
  -4 -18  -3 3359.68 495.789   4
  -4  18  -3 3188.99 323.997   7
  -4 -18   3 3632.56 446.739   1
  -4 -18   3 3607.84 324.239   5
   4 -19   3 2323.07 298.729   5
  -4  19  -3 2248.75 282.533   7
  -4 -19   3 1908.60 330.050   1
   4 -19  -3 1953.64 389.808   1
  -4 -19   3 2162.44 269.833   5
  -4  20  -3 230.061 141.242   7
  -4 -20   3 186.749 129.928   5
   4 -20   3 8.32673 126.837   5
  -4 -21   3 324.475 143.815   5
   4 -21   3 191.432 134.360   5
  -4  21  -3 293.623 180.887   7
  -4 -22   3 582.061 167.995   5
   4 -22   3 593.547 189.721   5
  -4  22  -3 595.073 182.578   7
  -4  23  -3 2064.08 303.700   7
  -4 -23   3 2313.10 298.068   5
   4 -23   3 2095.49 293.316   5
  -4 -24   3 876.069 207.530   5
   4 -24   3 1408.25 251.407   5
  -4  24  -3 1206.12 242.134   7
  -4 -25   3 338.519 165.577   5
   4 -25   3 83.5694 111.897   5
  -4  25  -3 298.776 174.268   7
  -4 -26   3 894.181 208.412   5
   4 -26   3 674.785 193.582   5
  -4  26  -3 818.394 228.710   7
  -5   0   3 66.7157 109.955   2
  -5   0   3 39.0468 50.3020   5
  -5   0  -3-55.9540 112.813   6
  -5   0  -3-8.76919 94.0048   3
  -5   0  -3 79.5488 102.506   4
   5   0  -3 42.9799 95.7293   4
  -5   0   3 99.8484 93.1780   6
  -5  -1  -3 9824.71 410.651   6
  -5  -1  -3 8799.20 485.900   4
  -5   1  -3 8696.07 372.564   6
   5  -1  -3 9006.42 484.958   4
  -5   1   3 9587.81 533.770   2
  -5  -1   3 9113.66 382.594   6
  -5   1   3 9774.52 408.109   6
   5   1  -3 9293.50 498.145   4
  -5   1  -3 8789.51 472.031   4
  -5  -1  -3 8665.91 516.889   3
  -5   1  -3 8876.48 529.979   3
  -5  -1   3 9250.52 345.013   5
  -5  -1   3 9170.13 547.447   2
  -5  -2  -3 22330.5 805.029   4
  -5   2  -3 22119.5 588.077   6
  -5  -2   3 21535.3 582.240   6
  -5  -2   3 21959.5 849.622   2
  -5   2   3 21679.9 614.714   6
  -5   2   3 22668.3 792.822   2
   5   2  -3 23147.8 820.610   4
  -5  -2  -3 23798.9 643.099   6
  -5  -2  -3 19743.8 791.844   3
   5  -2  -3 22123.0 742.932   4
  -5   2  -3 20868.4 807.443   3
  -5  -2   3 22709.9 558.922   5
  -5   3   3 21646.6 740.688   3
  -5   3   3 21910.3 763.474   2
  -5  -3  -3 23688.3 872.545   4
   5  -3  -3 22952.2 771.964   4
  -5   3  -3 21979.2 582.308   6
   5   3  -3 21267.3 784.654   4
  -5  -3  -3 23379.3 648.575   6
  -5  -3   3 15352.9 496.002   6
  -5  -3   3 21118.2 831.731   2
  -5   3   3 22153.5 624.977   6
  -5  -3  -3 20465.4 826.627   3
  -5   3  -3 20598.1 809.577   3
  -5  -3   3 14339.2 439.361   5
  -5   4   3 24795.9 823.489   3
  -5  -4  -3 25236.9 872.835   4
   5  -4  -3 26392.9 811.431   4
   5   4  -3 26623.6 891.223   4
  -5   4  -3 25130.0 611.311   6
  -5   4   3 25401.4 811.389   2
  -5  -4   3 24850.0 918.872   2
  -5   4   3 26059.9 685.398   6
  -5  -4  -3 28345.0 719.878   6
  -5  -4  -3 26685.4 974.056   3
  -5   4  -3 23521.3 875.631   3
  -5  -4   3 25533.8 592.962   5
  -5   5   3 3805.96 338.437   3
  -5  -5   3 3416.20 341.507   1
  -5  -5  -3 3396.74 339.781   4
  -5  -5   3 2685.58 208.747   6
  -5  -5  -3 4158.14 290.355   6
   5   5  -3 4156.31 369.479   4
  -5   5   3 4159.74 329.140   2
  -5  -5   3 3931.83 389.372   2
  -5  -5  -3 3971.63 381.403   3
  -5   5  -3 4399.48 255.852   6
  -5   5   3 4239.49 293.183   6
  -5   5  -3 4229.51 382.770   3
  -5  -5   3 4240.01 251.463   5
   5  -6  -3 17949.6 812.527   1
  -5   6   3 17894.4 756.540   3
  -5  -6   3 18436.1 781.404   1
  -5  -6  -3 19410.2 815.461   4
  -5   6  -3 19686.8 537.783   6
   5   6  -3 18840.2 765.937   4
  -5  -6   3 19812.6 538.488   6
  -5  -6   3 18545.0 823.660   2
  -5   6   3 18805.9 598.521   6
  -5  -6  -3 20985.3 628.794   6
  -5  -6  -3 18995.2 828.548   3
  -5   6  -3 18202.0 771.868   3
  -5  -6   3 18889.0 543.996   5
  -5   7   3 3898.38 379.606   3
  -5  -7   3 3559.90 360.025   1
  -5  -7  -3 3759.96 377.000   4
  -5   7  -3 3765.90 239.729   6
   5   7  -3 3594.37 351.530   4
  -5   7   3 3596.70 272.507   6
  -5  -7  -3 4758.38 311.373   6
  -5  -7  -3 3413.47 355.727   3
  -5   7  -3 4030.33 376.166   3
  -5  -7   3 4245.58 267.083   5
   5  -7  -3 3883.16 406.531   1
  -5  -7   3 3657.23 383.244   2
  -5   8   3 2036.46 299.814   3
  -5  -8  -3 2327.49 312.948   4
  -5  -8   3 2169.05 290.959   1
  -5   8  -3 2133.49 238.155   7
  -5  -8  -3 2628.60 237.409   6
  -5  -8   3 2150.62 303.524   2
  -5   8   3 1999.67 212.593   6
  -5  -8  -3 1845.57 281.917   3
   5  -8  -3 1906.08 287.543   1
  -5   8  -3 1876.81 266.115   3
  -5  -8   3 2376.77 207.998   5
  -5   9   3 8868.10 593.172   3
  -5  -9  -3 9358.02 630.051   4
  -5  -9   3 9931.98 618.100   1
  -5   9  -3 9845.96 473.625   7
  -5  -9  -3 10439.0 445.096   6
  -5  -9   3 11309.9 689.267   2
  -5   9   3 10127.2 455.635   6
  -5  -9  -3 9658.33 606.711   3
   5  -9  -3 10093.3 648.639   1
  -5   9  -3 9876.79 589.407   3
  -5  -9   3 10308.8 436.748   5
  -5  10   3 8968.50 609.272   3
  -5 -10  -3 10145.0 670.341   4
  -5 -10   3 9540.79 603.799   1
  -5  10  -3 9961.39 483.521   7
  -5 -10   3 10356.7 670.844   2
  -5  10   3 8849.44 426.909   6
  -5 -10  -3 10296.5 447.000   6
   5 -10  -3 9105.00 602.850   1
  -5 -10  -3 9471.89 611.591   3
  -5  10  -3 8572.16 559.385   3
  -5 -10   3 10040.5 437.486   5
  -5 -11   3 1228.64 258.741   2
  -5 -11  -3 859.576 219.734   3
  -5 -11   3 1076.52 151.400   5
  -5  11  -3 886.039 183.847   3
  -5 -11   3 956.706 220.263   1
  -5  11   3 699.350 231.365   3
  -5  11  -3 1144.11 179.019   7
  -5 -11  -3 1153.23 256.765   4
  -5 -11  -3 742.842 142.708   6
  -5  11   3 1009.10 164.992   6
   5 -11  -3 830.098 204.612   1
  -5 -12   3 1075.58 242.490   2
  -5  12   3 799.371 157.228   6
  -5 -12  -3 557.788 188.864   3
  -5 -12   3 697.455 142.716   5
  -5  12  -3 589.483 174.672   3
  -5  12  -3 638.006 145.161   7
  -5  12   3 755.416 235.338   3
  -5 -12   3 698.926 212.927   1
  -5 -12  -3 695.447 221.068   4
  -5 -12  -3 758.964 137.442   6
   5 -12  -3 585.321 192.889   1
  -5 -13   3 1264.65 274.130   2
  -5  13   3 1375.96 293.999   3
   5 -13  -3 1579.90 308.861   1
  -5  13  -3 1794.72 244.319   7
  -5 -13  -3 1651.19 312.705   4
  -5 -13  -3 1825.07 204.999   6
  -5  13   3 1497.15 190.221   6
  -5 -13   3 1685.22 299.584   1
  -5 -13  -3 1666.94 299.149   3
  -5  13  -3 1836.27 277.863   3
  -5 -13   3 1618.65 191.948   5
   5 -14   3 3304.60 342.061   5
  -5  14   3 2209.94 367.530   3
  -5 -14  -3 3288.83 449.200   4
   5 -14  -3 2947.78 400.350   1
  -5  14  -3 2983.46 305.341   7
  -5 -14   3 2914.63 385.671   1
  -5  14   3 2872.52 259.912   6
  -5 -14   3 3018.36 382.581   2
  -5 -14  -3 3080.68 394.211   3
  -5 -14   3 3287.97 280.503   5
   5 -15   3 3770.83 368.147   5
  -5  15   3 3599.72 452.371   3
  -5 -15  -3 3603.14 483.293   4
   5 -15  -3 2501.65 381.875   1
  -5 -15   3 2351.48 344.068   2
  -5  15  -3 3751.76 334.068   7
  -5 -15   3 3534.05 434.349   1
  -5 -15   3 3331.62 288.406   5
   5 -16   3 4773.62 403.262   5
  -5  16   3 4124.23 502.690   3
  -5 -16  -3 4443.83 535.478   4
   5 -16  -3 2823.88 417.995   1
  -5  16  -3 4711.41 374.819   7
  -5 -16   3 4150.36 466.427   1
  -5 -16   3 4434.29 336.885   5
   5 -17  -3 148.510 152.011   1
  -5 -17   3 463.160 132.525   5
   5 -17   3 386.981 166.315   5
  -5  17   3 513.107 237.929   3
  -5 -17   3 118.721 102.868   1
  -5  17  -3 350.734 135.925   7
  -5 -17  -3 579.829 254.491   4
  -5 -18   3 135.540 100.107   5
   5 -18   3 93.8182 127.807   5
  -5 -18   3 269.434 180.772   1
  -5  18  -3 379.924 148.613   7
   5 -18  -3 268.903 184.919   1
   5 -19   3 3334.00 357.429   5
  -5  19  -3 3527.03 356.974   7
  -5 -19   3 3004.09 314.429   5
   5 -20   3 2075.82 299.995   5
  -5  20  -3 1956.80 284.064   7
  -5 -20   3 2175.89 282.783   5
  -5  21  -3 3209.36 358.485   7
  -5 -21   3 3416.69 342.210   5
   5 -21   3 3532.50 390.007   5
  -5 -22   3 497.473 161.976   5
   5 -22   3 281.341 158.840   5
  -5  22  -3 484.864 178.994   7
  -5 -23   3 691.429 203.212   5
   5 -23   3 581.687 174.462   5
  -5  23  -3 407.157 165.939   7
  -5 -24   3 593.436 186.314   5
   5 -24   3 241.725 141.160   5
  -5  24  -3 412.837 172.914   7
  -5 -25   3 596.655 188.226   5
   5 -25   3 885.272 230.011   5
  -5  25  -3 611.454 187.454   7
  -6   0   3 31630.9 781.439   6
  -6   0  -3 31515.4 747.333   6
  -6   0   3 32455.4 1036.25   2
  -6   0  -3 30282.6 1050.00   3
  -6   0   3 32069.7 679.101   5
  -6  -1  -3 6182.18 334.258   6
  -6   1  -3 6815.27 350.849   6
  -6   1   3 5752.90 450.425   2
  -6  -1   3 6053.61 459.703   2
  -6  -1   3 6639.09 355.421   6
  -6   1   3 5851.54 343.480   6
  -6  -1  -3 5783.58 457.312   3
  -6   1  -3 5864.76 465.920   3
  -6  -1   3 6132.75 306.419   5
  -6  -2  -3 1240.67 231.779   3
  -6   2  -3 1258.90 237.509   3
  -6   2  -3 1610.52 183.153   6
  -6   2   3 1293.88 226.506   2
  -6  -2   3 1649.06 250.655   2
  -6  -2   3 1488.09 171.035   6
  -6   2   3 1506.66 179.418   6
  -6  -2  -3 1289.53 157.815   6
  -6  -2   3 1766.78 174.265   5
  -6  -3   3 10287.7 608.404   2
   6   3  -3 11415.6 577.405   4
  -6  -3  -3 10882.7 456.273   6
  -6   3  -3 10685.0 425.859   6
  -6   3   3 10691.4 571.573   2
  -6  -3   3 10921.5 439.391   6
  -6   3   3 11215.2 475.883   6
  -6  -3  -3 10627.1 629.018   3
  -6   3  -3 10462.1 617.353   3
  -6  -3   3 12116.1 443.060   5
  -6   4   3 5811.91 422.928   3
  -6   4  -3 6056.29 318.981   6
   6   4  -3 6798.96 464.559   4
  -6  -4  -3 6912.09 375.286   6
  -6   4   3 6188.51 435.536   2
  -6  -4   3 5872.39 468.059   2
  -6  -4   3 4816.12 293.178   6
  -6   4   3 6809.95 374.032   6
  -6  -4  -3 5615.74 469.192   3
  -6   4  -3 6117.16 480.093   3
  -6  -4   3 6556.47 337.687   5
  -6   5   3 4664.05 397.100   3
  -6  -5  -3 4347.13 389.282   4
  -6   5   3 4633.24 312.470   6
   6   5  -3 4599.40 390.863   4
  -6   5  -3 5057.82 291.569   6
  -6   5   3 4483.75 359.736   2
  -6  -5   3 4985.73 440.830   2
  -6  -5   3 3355.03 245.231   6
  -6  -5  -3 5191.58 331.671   6
  -6  -5  -3 4785.17 445.711   3
  -6   5  -3 4536.42 419.324   3
  -6  -5   3 5251.62 302.367   5
  -6   6   3 22956.3 886.965   3
  -6  -6   3 24126.4 955.421   1
  -6  -6  -3 23719.5 912.457   4
  -6   6  -3 23566.8 617.182   6
  -6  -6   3 22673.4 944.473   2
  -6  -6   3 25534.2 654.397   6
  -6   6   3 22644.1 689.206   6
  -6  -6  -3 26845.1 755.718   6
  -6  -6  -3 24529.1 989.613   3
   6   6  -3 22663.1 857.375   4
  -6   6  -3 24061.6 950.165   3
  -6  -6   3 24602.1 659.991   5
  -6   7   3 14319.6 735.171   3
  -6  -7   3 13949.1 736.873   1
  -6  -7  -3 15347.8 764.216   4
  -6   7  -3 13802.2 469.070   6
  -6  -7  -3 15769.9 582.037   6
   6   7  -3 13253.2 674.332   4
  -6  -7   3 13392.9 743.290   2
  -6   7   3 13382.6 531.936   6
  -6  -7  -3 14384.0 767.705   3
  -6   7  -3 13782.7 738.098   3
  -6  -7   3 14161.1 515.537   5
   6  -7  -3 13807.4 779.697   1
  -6   8   3 16060.6 800.237   3
  -6   8  -3 15865.9 504.847   6
  -6  -8  -3 16276.7 818.534   3
  -6  -8   3 15768.2 786.098   1
   6   8  -3 14741.3 724.627   4
  -6  -8   3 15610.4 822.716   2
  -6   8   3 16272.7 588.859   6
  -6   8  -3 14812.2 757.768   3
  -6  -8  -3 17745.7 625.619   6
   6  -8  -3 15795.7 840.599   1
  -6  -8   3 16284.6 555.280   5
  -6   9   3 2710.81 357.830   3
  -6  -9  -3 2235.04 320.501   4
  -6  -9   3 3056.45 361.161   1
  -6   9  -3 3521.67 307.719   7
  -6  -9  -3 3660.18 292.887   6
  -6  -9   3 3725.09 408.267   2
  -6   9   3 3406.83 276.722   6
  -6  -9  -3 3368.71 386.481   3
   6  -9  -3 3139.04 395.923   1
  -6   9  -3 3385.16 379.094   3
  -6  -9   3 3233.55 256.377   5
  -6  10   3 7763.99 585.949   3
  -6 -10  -3 6853.82 569.008   4
  -6 -10   3 9770.38 663.101   1
  -6 -10  -3 10734.8 499.280   6
  -6 -10   3 9239.99 645.207   2
  -6  10   3 9060.56 452.031   6
  -6  10  -3 9377.39 489.429   7
  -6 -10  -3 9143.41 627.453   3
   6 -10  -3 9531.93 686.633   1
  -6  10  -3 8906.80 605.969   3
  -6 -10   3 9423.65 441.769   5
  -6  11   3 6313.91 548.826   3
  -6  11   3 7220.50 410.802   6
  -6 -11  -3 6456.72 570.440   4
  -6 -11   3 7062.52 575.893   1
  -6  11  -3 6696.01 424.676   7
  -6 -11   3 6873.98 575.022   2
   6 -11  -3 6433.52 555.245   1
  -6 -11  -3 5630.72 354.270   6
  -6 -11  -3 5920.94 507.854   3
  -6  11  -3 6139.43 510.654   3
  -6 -11   3 7326.81 408.733   5
  -6  12   3 5531.31 532.292   3
  -6 -12  -3 6126.12 570.595   4
  -6 -12   3 6134.06 548.603   1
  -6  12  -3 6704.38 433.055   7
  -6 -12  -3 6050.94 368.170   6
  -6 -12   3 5927.99 544.135   2
   6 -12  -3 6125.81 557.425   1
  -6  12   3 6858.87 402.337   6
  -6 -12  -3 6226.37 546.422   3
  -6  12  -3 5876.23 497.468   3
  -6 -12   3 6460.93 395.325   5
  -6 -13   3 1475.00 293.678   2
  -6 -13  -3 1598.55 291.145   3
  -6  13  -3 1155.72 247.472   3
  -6 -13   3 1095.48 263.415   1
  -6  13   3 1277.52 311.348   3
  -6  13  -3 1505.88 223.836   7
  -6 -13  -3 1465.52 292.009   4
  -6 -13  -3 1712.67 211.119   6
   6 -13  -3 1284.71 284.077   1
  -6  13   3 1398.44 196.129   6
  -6 -13   3 1675.86 211.911   5
  -6 -14   3 444.881 175.853   2
  -6 -14  -3 229.319 118.132   3
  -6 -14   3 666.834 147.439   5
  -6  14  -3 798.508 204.389   3
  -6 -14   3 482.082 186.389   1
  -6  14   3 504.865 193.085   3
  -6  14  -3 789.164 183.171   7
   6 -14  -3 733.477 229.688   1
  -6 -14  -3 272.499 161.412   4
  -6  14   3 564.287 138.222   6
   6 -15   3 2252.76 306.793   5
  -6  15   3 2058.87 362.918   3
  -6 -15  -3 1941.89 349.465   4
  -6 -15   3 1504.92 308.389   1
  -6  15  -3 2389.99 290.940   7
   6 -15  -3 1628.83 333.760   1
  -6 -15  -3 2191.85 346.092   3
  -6 -15   3 2725.56 407.080   2
  -6  15  -3 2236.51 338.189   3
  -6 -15   3 2480.66 272.490   5
  -6 -16   3 469.884 134.720   5
  -6  16   3 475.613 222.411   3
   6 -16  -3 915.021 302.437   1
   6 -16   3 765.144 213.685   5
  -6 -16   3 564.707 216.483   1
  -6  16  -3 512.280 163.090   7
  -6 -16  -3 608.590 231.281   4
   6 -17   3 3910.68 391.347   5
   6 -17  -3 3745.65 510.103   1
  -6  17  -3 3442.54 355.413   7
  -6 -17   3 3492.64 333.467   5
   6 -18   3 2286.41 320.357   5
  -6  18  -3 1855.43 270.235   7
  -6 -18   3 2042.49 279.620   5
  -6 -19   3 17.2909 119.340   5
   6 -19   3 320.021 193.397   5
  -6  19  -3 251.133 148.063   7
  -6 -20   3 172.785 123.359   5
   6 -20   3 236.557 163.091   5
  -6  20  -3 286.578 149.432   7
  -6 -21   3 727.141 185.753   5
   6 -21   3 575.759 198.827   5
  -6  21  -3 806.177 209.050   7
  -6 -22   3 558.770 167.999   5
   6 -22   3 265.891 152.768   5
  -6  22  -3 507.353 162.886   7
  -6 -23   3 766.942 201.673   5
   6 -23   3 773.833 210.781   5
  -6  23  -3 562.187 194.194   7
  -6 -24   3 678.143 207.934   5
   6 -24   3 449.225 173.777   5
  -6  24  -3 412.673 166.464   7
  -7   0   3 89.9738 132.647   2
  -7   0   3 93.5499 72.9594   5
  -7   0  -3 143.360 145.092   3
  -7   0  -3 47.7591 93.5268   6
  -7   0   3 243.411 110.284   6
  -7   1   3 5879.50 465.258   2
  -7  -1   3 5865.09 485.839   2
  -7  -1   3 6533.83 373.641   6
  -7   1   3 6615.48 381.161   6
  -7  -1  -3 6294.42 361.972   6
  -7  -1  -3 5841.73 501.543   3
  -7   1  -3 5401.12 480.389   3
  -7   1  -3 6494.12 359.913   6
  -7  -1   3 6599.39 346.193   5
  -7  -2   3 10185.3 456.735   6
  -7  -2  -3 10312.6 464.413   6
  -7   2  -3 9359.65 419.949   6
  -7   2   3 9607.57 584.904   2
  -7  -2   3 9857.55 630.437   2
  -7   2   3 9887.25 459.430   6
  -7  -2  -3 9049.26 603.081   3
  -7   2  -3 9067.90 621.439   3
  -7  -2   3 10006.0 423.264   5
  -7  -3  -3 16890.5 603.397   6
  -7   3  -3 16318.2 554.805   6
  -7   3   3 17232.4 767.893   2
  -7  -3   3 15025.8 787.629   2
  -7  -3   3 17846.0 596.827   6
  -7   3   3 16494.3 592.274   6
  -7  -3  -3 15804.8 804.465   3
  -7   3  -3 15812.9 821.204   3
  -7  -3   3 17645.7 576.220   5
  -7  -4  -3 8156.52 417.687   6
  -7   4  -3 8284.37 390.869   6
  -7  -4   3 8351.81 600.754   2
  -7  -4   3 7698.73 393.468   6
  -7   4   3 8184.85 424.121   6
  -7  -4  -3 8664.40 605.421   3
  -7   4   3 9382.08 571.808   2
  -7  -4  -3 8676.05 398.391   5
  -7   4  -3 8174.87 591.827   3
  -7  -4   3 9571.77 429.542   5
  -7   5   3 4255.24 310.898   6
  -7   5   3 4488.85 400.345   2
  -7  -5  -3 4490.43 321.391   6
  -7  -5   3 4105.20 434.228   2
  -7  -5   3 3404.70 268.929   6
  -7  -5  -3 4577.77 458.784   3
  -7   5  -3 4760.94 296.899   6
  -7   5  -3 4341.52 438.659   3
  -7  -5   3 4373.33 297.738   5
  -7   6   3 2476.49 308.580   3
  -7  -6  -3 2674.85 255.404   6
  -7   6  -3 2912.21 234.387   6
  -7  -6   3 2891.39 371.031   2
  -7  -6   3 2756.70 249.190   6
  -7   6   3 2331.28 230.969   6
  -7  -6  -3 2682.55 356.550   3
  -7   6  -3 2441.66 341.931   3
  -7  -6   3 3024.40 258.226   5
  -7   7   3 2859.06 344.766   3
   7  -7  -3 3762.64 441.959   1
  -7   7  -3 4125.46 274.901   6
  -7  -7   3 4677.97 475.807   2
  -7   7   3 3881.45 297.904   6
  -7  -7  -3 3701.19 420.804   3
  -7  -7  -3 4867.72 349.871   6
  -7   7  -3 3740.06 427.346   3
  -7  -7   3 4512.44 319.621   5
  -7   8   3 15157.7 804.482   3
  -7  -8   3 18886.4 919.111   1
  -7  -8  -3 21439.7 731.910   6
  -7   8  -3 18498.6 568.562   6
  -7  -8   3 17890.9 918.819   2
  -7   8   3 18302.7 647.660   6
  -7  -8  -3 17820.2 901.022   3
  -7   8  -3 18448.9 917.527   3
  -7  -8   3 19850.0 663.381   5
   7  -8  -3 18289.8 976.899   1
   7  -9  -3 1533.16 309.513   1
  -7   9   3 1787.36 303.083   3
  -7  -9   3 1377.06 284.532   2
  -7  -9   3 1994.33 321.036   1
  -7  -9  -3 2043.04 236.126   6
  -7   9   3 1836.72 214.197   6
  -7  -9  -3 2144.84 315.912   3
  -7   9  -3 1821.54 313.762   3
  -7  -9   3 2140.24 234.079   5
  -7  10   3 4712.41 484.606   3
  -7 -10   3 3901.67 434.866   1
  -7 -10   3 4879.05 509.008   2
  -7  10   3 4564.38 331.986   6
  -7 -10  -3 5192.47 494.813   3
   7 -10  -3 4309.12 477.046   1
  -7 -10  -3 5776.72 393.918   6
  -7  10  -3 4386.65 454.395   3
  -7 -10   3 5158.14 352.903   5
  -7 -11   3 290.407 170.144   2
  -7 -11  -3 72.2215 142.802   3
  -7 -11   3 62.6453 82.2300   5
  -7 -11   3 98.4236 138.369   1
  -7  11  -3 21.0964 109.255   3
   7 -11  -3 21.4142 151.360   1
  -7  11   3-32.9859 161.954   3
  -7  11  -3 107.943 131.320   7
  -7 -11  -3 13.1508 100.381   6
  -7  11   3-82.7855 108.472   6
  -7  12   3 2619.87 387.833   3
  -7 -12   3 3666.28 443.498   1
  -7  12  -3 3654.11 336.589   7
  -7 -12  -3 4516.89 352.423   6
  -7 -12   3 3448.66 439.446   2
   7 -12  -3 3258.67 444.520   1
  -7 -12  -3 2768.96 373.233   3
  -7  12  -3 2416.75 360.005   3
  -7  12   3 3432.78 295.848   6
  -7 -12   3 3960.34 320.858   5
  -7 -13   3 886.144 234.779   2
  -7 -13  -3 863.785 247.530   3
  -7 -13   3 984.994 171.000   5
  -7 -13   3 889.239 244.682   1
  -7  13  -3 765.585 202.801   3
  -7  13   3 760.863 226.477   3
  -7  13  -3 1039.47 214.408   7
  -7 -13  -3 1094.43 187.508   6
  -7  13   3 1185.95 193.425   6
   7 -13  -3 540.630 218.167   1
  -7  14   3 12220.6 830.333   3
  -7 -14  -3 13981.8 903.261   4
  -7 -14   3 11078.1 799.952   1
  -7 -14   3 13639.3 874.884   2
  -7  14   3 13848.7 594.467   6
  -7 -14  -3 13083.8 832.398   3
  -7  14  -3 14103.3 670.871   7
  -7  14  -3 13476.1 829.113   3
  -7 -14   3 14002.9 618.769   5
  -7 -15   3 856.022 236.166   2
  -7 -15  -3 721.167 238.372   3
  -7 -15   3 981.029 197.110   5
  -7  15  -3 672.651 234.011   3
  -7  15  -3 656.727 177.140   7
  -7 -15  -3 668.199 226.147   4
   7 -15  -3 1095.48 317.119   1
  -7  15   3 1144.42 192.668   6
  -7 -16  -3 3212.96 485.103   4
  -7 -16   3 2901.07 421.168   2
  -7  16  -3 2820.41 316.587   7
  -7 -16   3 2732.86 294.328   5
  -7 -17   3 609.565 149.167   5
   7 -17   3 718.696 240.665   5
  -7  17  -3 970.131 222.609   7
  -7 -18   3 319.416 138.000   5
   7 -18   3 535.042 222.779   5
  -7  18  -3 475.573 170.013   7
  -7 -19   3 135.388 103.220   5
   7 -19   3 540.786 195.271   5
  -7  19  -3 748.425 200.823   7
  -7 -20   3 851.558 185.554   5
   7 -20   3 1208.49 276.596   5
  -7  20  -3 1274.27 254.834   7
  -7 -21   3 199.638 99.4760   5
   7 -21   3 409.453 196.851   5
  -7  21  -3 429.309 182.816   7
  -7 -22   3 611.909 181.232   5
   7 -22   3 810.920 236.005   5
  -7  22  -3 820.510 219.681   7
  -7 -23   3 152.180 98.1695   5
   7 -23   3 225.057 162.144   5
  -7  23  -3 218.332 151.435   7
  -8   0   3 15177.9 813.298   2
  -8   0  -3 13364.6 541.055   6
  -8   0   3 14531.4 583.488   6
  -8   0  -3 13545.1 795.386   3
  -8  -1  -3 1589.35 291.805   3
  -8   1  -3 1588.98 293.270   3
  -8   1   3 2117.96 308.381   2
  -8  -1  -3 2134.42 228.842   6
  -8  -1   3 2320.93 340.715   2
  -8   1  -3 1983.27 216.563   6
  -8  -1   3 2334.30 250.558   6
  -8   1   3 1971.87 221.175   6
  -8  -1   3 2167.75 234.155   5
  -8  -2  -3 6344.78 384.715   6
  -8   2  -3 5834.10 355.107   6
  -8  -2   3 6100.09 517.776   2
  -8  -2   3 6352.46 395.038   6
  -8   2   3 6540.68 399.530   6
  -8   2   3 6917.00 556.502   2
  -8  -2  -3 5804.37 517.327   3
  -8   2  -3 6379.16 555.437   3
  -8  -2   3 7045.27 400.801   5
  -8   3  -3 2793.95 251.602   6
  -8   3   3 3312.26 381.931   2
  -8  -3  -3 3218.04 292.168   6
  -8  -3   3 2736.72 370.406   2
  -8  -3   3 3130.22 279.262   6
  -8   3   3 2796.69 276.179   6
  -8  -3  -3 2474.46 358.052   3
  -8  -3  -3 1985.74 218.020   5
  -8   3  -3 2772.95 377.604   3
  -8  -3   3 2839.67 249.223   5
  -8   4   3 19112.9 887.533   2
  -8  -4  -3 17571.7 651.538   6
  -8  -4   3 17442.1 898.736   2
  -8   4   3 18127.3 655.585   6
  -8   4  -3 17745.7 606.732   6
  -8  -4  -3 17730.0 915.896   3
  -8  -4  -3 18067.0 613.372   5
  -8   4  -3 18471.5 944.441   3
  -8  -4   3 18922.6 643.823   5
  -8  -5  -3 2401.85 248.493   6
  -8  -5   3 2053.92 327.568   2
  -8  -5   3 2037.41 234.706   6
  -8   5   3 2685.64 273.107   6
  -8   5  -3 2258.29 228.846   6
  -8  -5  -3 1982.80 334.800   3
  -8  -5  -3 2671.38 244.290   5
  -8   5  -3 2321.68 348.434   3
  -8  -5   3 2577.20 252.645   5
  -8   6  -3 15944.3 569.289   6
  -8  -6  -3 16049.3 637.403   6
  -8  -6   3 15398.2 872.707   2
  -8  -6   3 16868.4 626.095   6
  -8   6   3 15446.4 615.850   6
  -8  -6  -3 16539.0 925.793   3
  -8   6  -3 16018.6 886.892   3
  -8  -6   3 16664.2 625.830   5
   8  -7  -3 1734.88 330.648   1
  -8  -7  -3 2718.84 373.821   2
  -8  -7  -3 2431.77 263.267   6
  -8   7  -3 2432.29 235.281   6
  -8  -7   3 1921.98 324.310   2
  -8   7   3 2251.22 255.662   6
  -8  -7  -3 2053.86 342.411   3
  -8   7  -3 1824.86 318.172   3
  -8  -7   3 2587.23 257.526   5
  -8  -8   3 683.609 214.636   2
  -8  -8   3 1151.66 183.472   5
  -8  -8  -3 682.284 198.634   3
  -8   8  -3 943.003 237.695   3
  -8   8   3 777.535 214.470   3
  -8   8  -3 1160.61 168.766   6
  -8   8   3 1149.90 194.444   6
  -8  -8  -3 1336.43 208.212   6
   8  -8  -3 799.365 275.786   1
  -8  -8  -3 791.560 217.375   2
  -8  -9   3 1546.58 317.656   2
  -8   9   3 1211.12 255.743   3
  -8  -9  -3 1609.37 300.207   2
  -8  -9   3 2355.18 367.533   1
  -8   9   3 2210.84 259.631   6
  -8  -9  -3 2171.40 339.006   3
  -8  -9  -3 2421.44 268.875   6
  -8   9  -3 2030.93 352.416   3
   8  -9  -3 2160.16 393.589   1
  -8  -9   3 2387.91 256.210   5
  -8 -10   3 1268.69 286.929   2
  -8 -10   3 995.117 247.003   1
  -8 -10  -3 692.247 194.994   3
  -8  10  -3 1180.75 254.905   3
  -8  10   3 796.204 209.417   3
  -8  10   3 1610.96 230.093   6
  -8 -10  -3 1556.92 215.090   6
   8 -10  -3 1340.94 301.656   1
  -8 -10   3 1356.96 209.190   5
  -8  11   3 2349.32 368.270   3
  -8 -11   3 2664.09 392.294   1
  -8 -11  -3 4258.30 356.507   6
  -8 -11   3 3969.23 484.709   2
  -8  11   3 4187.64 351.494   6
  -8 -11  -3 2595.33 378.250   3
   8 -11  -3 4201.77 525.950   1
  -8  11  -3 2523.97 381.239   3
  -8 -11   3 4543.06 369.764   5
  -8  12   3 5654.91 572.691   3
  -8 -12   3 7000.11 631.533   1
  -8 -12   3 7084.88 650.244   2
  -8  12   3 7430.91 459.762   6
  -8 -12  -3 8939.94 528.192   6
   8 -12  -3 7572.52 672.634   1
  -8 -12  -3 7767.29 652.200   3
  -8  12  -3 7416.29 643.224   3
  -8 -12   3 8029.12 491.079   5
  -8 -13   3 434.391 190.928   2
  -8 -13  -3 141.118 156.725   3
  -8 -13   3 335.910 138.105   5
  -8  13  -3 601.372 201.067   3
  -8  13   3 288.608 188.562   3
  -8  13  -3 147.171 108.119   7
  -8 -13  -3 615.514 165.823   6
  -8  13   3 347.299 148.106   6
   8 -13  -3 408.219 199.913   1
  -8  14  -3 5994.07 466.033   7
  -8  14   3 5448.90 395.435   6
  -8 -14   3 5192.50 413.380   5
  -8 -15   3 1038.30 208.411   5
  -8  15  -3 908.939 214.418   7
  -8  15   3 905.301 184.760   6
  -8 -16   3 580.459 178.598   5
  -8  16  -3 249.788 144.189   7
  -8 -17   3 714.393 189.008   5
  -8  17  -3 809.497 203.165   7
   8 -18   3 2859.95 383.536   5
  -8  18  -3 2273.82 322.455   7
  -8 -18   3 2378.09 318.804   5
  -8 -19   3-4.94289 113.819   5
   8 -19   3-17.5082 190.048   5
  -8  19  -3 97.4756 138.328   7
  -8 -20   3 264.200 142.177   5
   8 -20   3 528.052 203.996   5
  -8  20  -3 547.743 195.632   7
  -8 -21   3 337.390 165.652   5
   8 -21   3 440.019 207.108   5
  -8  21  -3 174.626 138.498   7
  -8  22  -3 991.627 239.629   7
  -8 -22   3 765.896 210.560   5
   8 -22   3 1025.51 264.211   5
  -9   0   3 64.9722 123.901   2
  -9   0   3-193.442 100.673   5
  -9   0  -3 47.0654 132.665   3
  -9   0  -3 54.0624 95.0628   6
  -9   0   3 69.5427 102.542   6
  -9   1   3 453.323 188.495   2
  -9  -1   3 972.785 277.986   2
  -9  -1   3 772.148 160.076   5
  -9  -1  -3 581.452 207.762   3
  -9   1  -3 490.017 167.623   3
  -9   1  -3 564.237 135.890   6
  -9  -1  -3 747.411 175.678   6
  -9  -1   3 829.697 189.551   6
  -9   1   3 577.753 153.669   6
  -9   2   3 4024.03 443.272   2
  -9  -2  -3 5415.08 380.260   6
  -9   2  -3 5023.55 350.692   6
  -9  -2   3 5858.95 404.861   6
  -9   2   3 5742.76 401.933   6
  -9  -2   3 5927.71 567.592   2
  -9  -2  -3 4953.87 508.800   3
  -9   2  -3 5369.41 531.748   3
  -9  -2   3 6276.57 412.455   5
  -9  -3   3 1394.74 314.998   2
  -9  -3  -3 1284.06 281.810   3
  -9   3  -3 1101.77 264.865   3
  -9   3   3 1921.04 316.501   2
  -9  -3  -3 1653.86 224.659   6
  -9   3  -3 1573.71 214.614   6
  -9   3   3 1483.44 215.178   6
  -9  -3   3 1338.52 197.546   6
  -9  -3   3 1565.01 222.510   5
  -9   4   3 8551.49 490.092   6
  -9  -4  -3 8241.57 480.899   6
  -9   4  -3 7860.95 438.070   6
  -9  -4   3 9345.00 505.081   6
  -9  -4  -3 8317.85 668.500   3
  -9  -4  -3 8830.82 469.645   5
  -9   4  -3 7962.57 664.436   3
  -9  -4   3 9826.04 517.057   5
  -9  -5  -3 663.263 162.507   5
  -9  -5   3 482.811 202.563   2
  -9  -5   3 584.270 148.399   5
  -9  -5  -3 640.321 166.595   6
  -9  -5  -3 468.906 194.147   3
  -9   5  -3 430.662 184.978   3
  -9   5  -3 368.833 104.420   6
  -9  -5   3 607.072 146.698   6
  -9   5   3 510.342 160.608   6
  -9  -6   3 465.254 169.174   2
  -9  -6   3 700.603 152.124   5
  -9  -6  -3 511.410 201.633   3
  -9   6  -3 841.048 259.386   3
  -9   6  -3 668.348 146.473   6
  -9  -6   3 574.331 154.268   6
  -9   6   3 465.672 131.384   6
  -9  -6  -3 235.836 107.020   6
  -9  -6  -3 1156.09 287.682   2
  -9  -7   3 888.988 272.521   2
  -9  -7   3 697.619 164.342   5
  -9  -7  -3 681.802 223.383   3
   9  -7  -3 721.904 231.288   1
  -9   7  -3 380.250 175.619   3
  -9   7  -3 785.297 160.847   6
  -9   7   3 733.128 160.037   6
  -9  -7  -3 439.966 188.413   2
  -9  -7  -3 780.065 169.074   6
  -9  -8  -3 4636.02 528.044   2
  -9  -8  -3 6546.04 439.853   6
  -9   8  -3 5649.46 363.412   6
  -9   8   3 5139.47 383.589   6
  -9  -8  -3 3450.30 450.166   3
  -9  -8   3 6198.76 622.927   2
  -9   8  -3 5075.56 551.160   3
  -9  -8   3 5782.37 411.275   5
   9  -8  -3 5844.72 625.478   1
  -9  -9   3 331.178 205.295   2
  -9  -9   3 184.872 108.193   5
  -9  -9  -3-94.6918 167.950   3
   9  -9  -3-6.49841 143.459   1
  -9   9  -3 283.349 187.736   3
  -9  -9  -3 222.490 133.186   6
  -9   9   3 192.525 150.803   6
  -9  -9  -3 377.649 209.032   2
  -9 -10  -3 5844.69 587.729   2
  -9 -10  -3 5957.29 444.688   6
  -9  10   3 6097.56 427.797   6
   9 -10  -3 5520.40 602.394   1
  -9 -10   3 6440.61 442.723   5
  -9 -10  -3 5559.00 563.681   3
  -9  10   3 4933.78 546.070   3
  -9 -11   3 200.072 105.721   5
  -9 -11  -3 73.5221 130.614   3
  -9  11   3 437.797 226.180   3
  -9 -11  -3 235.418 137.145   6
  -9  11   3 311.314 126.654   6
  -9 -12   3 56.1193 93.8595   5
  -9 -12  -3 200.404 119.407   6
  -9  12   3 40.2098 102.049   6
  -9  13   3 2364.24 284.380   6
  -9 -13   3 2142.62 277.391   5
  -9  14   3 4200.43 370.137   6
  -9 -14   3 5056.81 424.331   5
  -9 -15   3 849.419 204.642   5
  -9  15   3 962.036 212.248   6
  -9  16  -3 2298.10 313.233   7
  -9 -16   3 3943.58 392.491   5
  -9 -17   3 67.2197 123.844   5
  -9  17  -3 28.2049 105.755   7
  -9 -18   3 530.287 182.654   5
   9 -18   3 733.879 222.941   5
  -9  18  -3 201.047 119.471   7
  -9 -19   3 158.162 129.925   5
   9 -19   3 45.0810 140.104   5
  -9  19  -3 401.391 161.421   7
  -9 -20   3 1332.29 256.413   5
  -9  20  -3 1120.84 248.205   7
   9 -20   3 901.008 247.981   5
  -9  21  -3-10.3099 114.244   7
 -10   0   3 10323.9 765.401   2
 -10   0  -3 8743.45 496.561   6
 -10   0   3 9910.67 554.058   6
 -10   0  -3 9660.74 756.636   3
 -10   0   3 11053.5 554.363   5
 -10   1   3 867.080 234.028   2
 -10  -1   3 1262.88 289.988   2
 -10  -1   3 1150.03 198.724   5
 -10  -1  -3 1669.51 327.395   3
 -10   1  -3 1007.66 275.734   3
 -10  -1  -3 1313.29 219.228   6
 -10   1  -3 1134.10 200.925   6
 -10  -1   3 1051.27 201.774   6
 -10   1   3 1244.06 211.300   6
 -10  -2   3 3240.17 326.891   6
 -10   2   3 3657.53 456.404   2
 -10  -2   3 3283.12 448.339   2
 -10  -2  -3 3052.53 313.698   6
 -10   2  -3 3353.25 312.914   6
 -10   2   3 3500.74 347.327   6
 -10  -2  -3 3143.13 425.443   3
 -10   2  -3 3197.28 452.627   3
 -10  -2   3 3306.63 309.858   5
 -10   3   3 1224.08 268.897   2
 -10  -3   3 244.321 164.864   2
 -10  -3   3 1016.29 189.256   5
 -10  -3  -3 811.746 202.713   6
 -10  -3  -3 759.761 235.879   3
 -10   3  -3 684.043 230.666   3
 -10   3  -3 939.597 187.100   6
 -10  -3   3 831.169 192.066   6
 -10   3   3 824.917 196.983   6
 -10  -4  -3 7189.07 468.705   6
 -10   4  -3 6391.28 417.187   6
 -10  -4   3 7154.85 467.199   6
 -10   4   3 7342.25 485.343   6
 -10  -4  -3 6948.57 642.452   3
 -10  -4  -3 7021.51 456.144   5
 -10  -4   3 8243.08 509.666   5
 -10  -5  -3 737.695 175.717   5
 -10  -5   3 639.194 174.731   5
 -10  -5  -3 1008.75 278.293   3
 -10   5  -3 646.167 169.843   6
 -10  -5   3 790.419 189.438   6
 -10   5   3 912.631 210.849   6
 -10  -5  -3 859.903 196.988   6
 -10  -6  -3 14917.3 680.406   6
 -10   6  -3 13870.8 607.516   6
 -10  -6   3 15180.1 675.392   6
 -10   6   3 13703.8 666.102   6
 -10  -6  -3 14571.5 958.825   3
 -10  -6   3 15420.6 700.028   5
 -10  -7   3 649.267 180.431   5
 -10  -7  -3 613.245 152.856   6
 -10   7  -3 667.270 165.212   6
 -10   7   3 629.902 184.867   6
 -10  -8   3 692.560 158.459   5
 -10  -8  -3 923.073 189.165   6
 -10   8  -3 845.918 170.197   6
 -10   8   3 701.511 188.278   6
 -10  -9   3 336.468 130.387   5
 -10  -9  -3 323.019 135.426   6
 -10   9   3 322.399 156.080   6
 -10  10   3 1932.44 265.245   6
 -10 -10  -3 1801.18 270.130   6
 -10 -10   3 1787.64 245.930   5
 -10 -11   3 766.138 204.907   5
 -10 -11  -3 395.412 147.478   6
 -10  11   3 623.757 172.914   6
 -10  12   3 4352.17 383.264   6
 -10 -12   3 4473.75 408.359   5
 -10 -13   3 339.690 153.038   5
 -10  13   3 183.877 138.434   6
 -10 -14   3 146.354 114.397   5
 -10  14   3 215.235 110.496   6
 -10 -15   3 649.503 184.385   5
 -10 -16   3 1231.83 238.047   5
 -10 -17   3 331.389 151.416   5
 -10 -18   3 679.746 192.021   5
 -11   0   3 29.6423 111.081   5
 -11   0  -3 14.5069 136.337   6
 -11   0   3-99.3128 144.242   6
 -11  -1   3-30.1410 98.5743   5
 -11  -1  -3 191.649 139.028   6
 -11   1  -3 176.119 113.108   6
 -11  -1   3-209.779 154.482   6
 -11   1   3-99.5031 127.287   6
 -11  -2  -3 7999.12 512.840   6
 -11   2  -3 7969.34 496.941   6
 -11  -2   3 8809.59 552.018   6
 -11   2   3 8444.07 545.881   6
 -11  -2   3 9884.88 558.874   5
 -11  -3   3 60.3258 107.062   5
 -11  -3  -3 183.162 150.045   6
 -11   3  -3 274.283 134.147   6
 -11  -3   3-8.75634 116.204   6
 -11   3   3 361.316 152.940   6
 -11  -4  -3 4521.28 395.635   6
 -11   4  -3 3724.94 341.244   6
 -11  -4   3 4846.20 416.145   6
 -11   4   3 4599.36 409.407   6
 -11  -4   3 4796.72 406.659   5
 -11  -5  -3 472.435 160.602   5
 -11  -5   3 180.039 114.894   5
 -11  -5  -3 722.263 208.303   6
 -11   5  -3 461.797 149.221   6
 -11  -5   3 205.860 109.312   6
 -11   5   3 467.567 175.013   6
 -11  -6   3 122.810 130.187   5
 -11   6   3-32.4514 114.521   6
 -11  -6  -3-121.775 151.742   6
 -11   6  -3 209.759 131.402   6
 -11  -6   3 211.130 126.447   6
 -11  -7   3 120.418 116.834   5
 -11  -7  -3 19.5260 156.011   6
 -11   7  -3 78.9193 101.686   6
 -11   7   3 71.9753 114.494   6
 -11  -8  -3 3684.75 371.775   6
 -11   8  -3 3300.23 322.962   6
 -11   8   3 3713.03 384.824   6
 -11  -8   3 3847.21 385.971   5
 -11  -9   3 562.677 181.932   5
 -11  -9  -3 384.443 174.050   6
 -11   9   3 587.349 186.156   6
 -11 -10  -3 2262.56 308.436   6
 -11  10   3 1716.79 272.977   6
 -11 -10   3 2170.34 309.695   5
 -11 -11  -3 401.005 155.680   6
 -11 -11   3 523.154 158.661   5
 -11  11   3 644.634 195.690   6
 -11 -12   3 563.635 192.426   5
 -11 -12  -3 281.445 140.034   6
 -11  12   3 646.198 177.176   6
 -11 -13   3 468.774 162.383   5
 -11  13   3 304.799 134.680   6
 -11 -14   3 1170.80 235.153   5
 -11  14   3 1918.78 282.456   6
 -11 -15   3 257.479 130.189   5
 -11 -16   3 1269.70 264.753   5
 -12   0  -3 2475.95 312.132   6
 -12   0   3 1789.48 276.953   6
 -12  -1  -3 2338.37 299.446   6
 -12   1  -3 2797.60 327.401   6
 -12  -1   3 2754.73 341.687   6
 -12   1   3 1860.32 282.897   6
 -12  -1   3 3141.76 346.650   5
 -12  -2   3 481.785 160.061   5
 -12  -2  -3 512.769 173.883   6
 -12   2  -3 403.708 152.139   6
 -12  -2   3 579.161 183.658   6
 -12   2   3 385.919 149.097   6
 -12  -3   3 719.615 183.740   5
 -12  -3  -3 1111.71 227.543   6
 -12   3  -3 1058.84 219.502   6
 -12  -3   3 795.949 198.270   6
 -12   3   3 977.292 211.302   6
 -12  -4   3 295.689 132.098   5
 -12  -4  -3 399.801 182.731   6
 -12   4  -3 263.176 155.274   6
 -12  -4   3 457.540 144.379   6
 -12   4   3 327.390 151.900   6
 -12  -5   3 147.136 123.621   5
 -12  -5  -3 218.317 131.899   6
 -12   5  -3 211.872 139.540   6
 -12  -5   3 148.512 99.7834   6
 -12   5   3-15.4107 126.547   6
 -12   6  -3 1526.35 248.718   6
 -12  -6  -3 1437.99 248.809   6
 -12   6   3 1634.26 260.619   6
 -12  -6   3 1835.77 272.659   5
 -12  -7   3 678.354 189.236   5
 -12  -7  -3 390.607 165.228   6
 -12   7  -3 338.073 138.257   6
 -12   7   3 521.631 177.968   6
 -12  -8   3 327.167 139.120   5
 -12  -8  -3 70.4684 172.912   6
 -12   8  -3 225.842 115.665   6
 -12   8   3 214.045 147.658   6
 -12  -9   3 660.704 199.178   5
 -12  -9  -3 821.801 223.936   6
 -12   9   3 798.845 208.323   6
 -12 -10  -3 1198.32 235.591   6
 -12  10   3 1005.97 231.998   6
 -12 -10   3 1813.66 291.316   5
 -12 -11   3 215.689 126.832   5
 -12  11   3 194.527 125.965   6
 -12 -11  -3 325.734 190.718   6
 -12 -12   3 1332.05 255.009   5
 -12  12   3 1930.36 283.956   6
 -12 -13   3 601.187 198.223   5
 -12  13   3 241.747 150.732   6
 -13   0  -3 33.2236 112.093   6
 -13   0   3-105.463 124.309   6
 -13  -1  -3 311.384 177.125   6
 -13   1  -3 421.652 166.769   6
 -13  -1   3 360.003 177.160   6
 -13   1   3 343.617 152.722   6
 -13  -2  -3 1377.48 261.088   6
 -13   2  -3 1137.31 227.405   6
 -13  -2   3 1213.30 241.992   6
 -13   2   3 1609.21 283.866   6
 -13  -2   3 2059.59 311.452   5
 -13  -3  -3 2304.87 323.289   6
 -13   3  -3 1540.79 262.524   6
 -13  -3   3 1521.52 270.131   6
 -13   3   3 1808.40 303.654   6
 -13  -3   3 2703.76 341.185   5
 -13  -4  -3 2427.27 350.389   6
 -13   4  -3 2124.83 303.783   6
 -13  -4   3 2400.75 325.102   6
 -13   4   3 2424.61 334.374   6
 -13  -4   3 2654.76 346.522   5
 -13  -5   3 916.668 236.036   5
 -13   5  -3 960.273 215.220   6
 -13  -5  -3 633.570 212.269   6
 -13  -5   3 688.093 197.309   6
 -13   5   3 774.177 206.857   6
 -13  -6   3 669.144 179.168   5
 -13  -6  -3 583.789 173.777   6
 -13   6  -3 917.864 222.869   6
 -13   6   3 499.118 190.187   6
 -13  -7   3 446.687 187.911   5
 -13   7  -3 438.559 163.787   6
 -13   7   3 481.069 181.374   6
 -13  -7  -3 52.0722 153.132   6
 -13  -8   3 1058.92 239.709   5
 -13  -8  -3 923.316 230.167   6
 -13   8  -3 1036.78 220.829   6
 -13   8   3 768.183 201.093   6
 -13  -9   3 388.356 158.226   5
 -13  -9  -3 257.791 156.789   6
   0   0  -4 60054.7 1435.48   4
   0   0  -4 59554.5 1146.59   3
   0   0   4 56638.5 1378.66   2
   0  -1  -4 144.891 98.9271   3
   0   1  -4 90.3131 106.333   3
   0  -1   4 137.608 173.765   2
   0   1   4 16.3395 140.456   2
   0  -1  -4-163.350 142.725   4
   0   1  -4 17.6632 111.644   4
   0  -2  -4 12189.5 685.164   4
   0   2  -4 11914.5 659.064   4
   0  -2  -4 12262.8 545.475   3
   0   2  -4 11106.9 456.312   3
   0  -2   4 11844.4 651.642   2
   0   2   4 11446.1 616.561   2
   0  -3  -4-24.8480 101.304   3
   0  -3   4 169.952 174.097   2
   0   3   4 185.867 162.084   2
   0  -3  -4-282.646 159.824   4
   0   3  -4 145.494 176.000   4
   0   4  -4 27241.4 994.403   4
   0  -4  -4 25906.3 973.636   4
   0  -4   4 23316.5 927.976   2
   0   4   4 24676.4 864.246   2
   0  -4   4 24864.8 539.993   5
   0  -5   4 170.465 86.8227   5
   0  -5   4 258.813 196.052   2
   0   5   4 195.993 154.345   2
   0  -5  -4 53.0834 140.696   4
   0   5  -4 102.578 134.667   4
   0  -6  -4 60172.5 1502.15   4
   0   6  -4 61253.9 1523.36   4
   0  -6   4 56056.2 1442.41   2
   0   6   4 56042.4 1260.41   2
   0  -6   4 56852.8 881.313   5
   0  -7   4 30.8718 137.441   2
   0  -7   4 97.8458 87.8613   5
   0  -7  -4 67.5559 108.539   4
   0   7  -4 159.796 128.125   4
   0  -8  -4 4866.85 461.789   4
   0   8  -4 5098.66 306.959   7
   0   8  -4 4621.35 444.318   4
   0  -8   4 4954.55 445.895   2
   0  -8   4 5180.67 291.417   5
   0  -9   4-94.5423 143.326   2
   0   9  -4-46.4736 86.2407   7
   0  -9   4 265.196 101.453   5
   0  -9  -4-196.151 163.814   4
   0   9  -4 249.445 158.687   4
   0 -10  -4 2965.00 385.723   4
   0  10  -4 2885.52 357.829   4
   0 -10   4 2932.30 360.086   2
   0  10  -4 3411.70 261.616   7
   0 -10   4 3371.37 261.473   5
   0 -11   4-77.7225 162.918   2
   0 -11   4 125.184 115.127   5
   0  11  -4-40.4293 71.0543   7
   0 -11  -4 86.1677 139.207   4
   0  11  -4-10.0051 128.818   4
   0 -12  -4 16474.6 909.149   4
   0  12  -4 16842.9 598.015   7
   0  12  -4 14564.1 811.758   4
   0 -12   4 16361.5 844.684   2
   0 -12   4 16651.1 598.327   5
   0  13  -4 138.685 102.869   7
   0 -13   4 295.605 189.323   2
   0 -13   4 127.221 104.875   5
   0 -13  -4-62.4393 118.505   4
   0  13  -4-152.799 127.911   4
   0 -14   4 502.149 196.109   2
   0 -14   4 1080.56 186.469   5
   0  14  -4 898.314 162.075   7
   0 -14  -4 726.088 224.075   4
   0  14  -4 746.863 214.878   4
   0 -15   4 221.053 160.211   2
   0 -15   4 97.3504 111.860   5
   0  15  -4-29.4833 93.0154   7
   0 -15  -4-60.7536 128.657   4
   0  15  -4 28.3898 115.387   4
   0 -16  -4 9329.07 774.773   4
   0  16  -4 8359.99 451.117   7
   0 -16   4 9389.36 502.624   5
   0 -17   4 62.2249 92.7933   5
   0  17  -4-29.3524 83.8890   7
   0 -17  -4-122.394 150.379   4
   0 -18  -4 3917.87 543.658   4
   0  18  -4 3397.85 313.138   7
   0 -18   4 3298.09 322.767   5
   0 -19   4-28.6025 101.199   5
   0  19  -4-27.4045 95.2626   7
   0 -20   4 9.56043 137.604   5
   0  20  -4 8.54612 91.4642   7
   0 -21   4-79.5306 125.124   5
   0  21  -4 174.950 128.424   7
   0  22  -4 1374.71 221.195   7
   0 -22   4 2115.16 289.772   5
   0 -23   4-24.9021 129.763   5
   0  23  -4-70.3180 100.951   7
   0 -24   4 1371.69 253.066   5
   0  24  -4 1253.47 241.377   7
   0 -25   4-124.984 142.738   5
   0  25  -4 94.9399 102.304   7
  -1   0  -4 91.5611 93.4218   3
  -1   0   4-243.854 164.654   2
   1   0   4 173.657 207.004   2
  -1   0  -4-28.9799 110.516   4
   1   0  -4-118.260 102.633   4
  -1  -1  -4 2331.46 316.370   4
  -1   1  -4 2656.28 318.307   4
   1   1  -4 2426.48 303.303   4
   1  -1  -4 2534.51 321.703   4
  -1  -1  -4 2644.87 269.014   3
  -1   1  -4 2812.31 264.105   3
  -1  -1   4 2294.41 285.748   2
  -1   1   4 2604.40 304.440   2
   1  -1   4 2965.72 360.746   2
   1   1   4 3399.70 391.686   2
  -1   2  -4 31756.8 1058.25   4
  -1  -2  -4 31423.3 1083.35   4
   1  -2  -4 33489.3 1107.67   4
   1   2  -4 31453.5 1061.85   4
  -1  -2  -4 28748.3 849.205   3
  -1   2  -4 30076.0 819.907   3
  -1  -2   4 28144.3 953.351   2
  -1   2   4 28220.2 904.068   2
   1  -2   4 26658.1 1023.92   2
   1  -3   4 2544.30 178.623   5
   1   3  -4 2811.61 332.234   4
  -1  -3  -4 2427.30 323.001   4
   1  -3  -4 2520.63 329.428   4
  -1   3  -4 2629.95 330.899   4
  -1  -3  -4 2626.23 279.213   3
  -1   3  -4 2650.46 247.588   3
  -1  -3   4 2869.13 314.966   2
  -1   3   4 2185.54 265.895   2
   1  -3   4 2519.67 343.708   2
  -1  -4  -4 38686.7 1190.32   4
   1   4  -4 40930.2 1258.21   4
  -1   4  -4 43189.9 1251.02   4
  -1  -4  -4 40745.2 1091.69   3
  -1   4  -4 40817.0 926.716   3
  -1  -4   4 39162.5 1160.95   2
  -1   4   4 38406.5 1026.82   2
   1  -4  -4 42905.3 1244.75   4
   1  -4   4 37379.0 1199.59   2
  -1  -4   4 40050.7 682.699   5
   1  -4   4 38252.8 706.569   5
  -1  -5  -4 7419.12 539.800   4
   1  -5  -4 8107.61 549.913   4
  -1   5  -4 8033.18 558.594   4
  -1  -5  -4 8335.20 516.333   3
   1   5  -4 8028.21 562.278   4
  -1  -5   4 7156.93 507.401   2
  -1   5   4 8097.52 470.298   2
   1  -5   4 8543.40 595.565   2
  -1  -5   4 8307.22 327.520   5
   1  -5   4 7661.28 330.992   5
  -1  -6  -4 10636.6 662.086   4
   1  -6  -4 10029.2 608.229   4
  -1   6  -4 10487.5 664.917   4
   1   6  -4 11185.3 659.708   4
  -1  -6  -4 10326.6 586.850   3
  -1  -6   4 10390.1 626.189   2
  -1   6   4 10039.9 507.962   2
   1  -6   4 10373.7 658.955   2
  -1  -6   4 10307.4 378.443   5
   1  -6   4 9869.69 382.389   5
  -1  -7  -4 6899.55 556.498   4
   1  -7  -4 6789.67 520.140   4
  -1   7  -4 6644.28 522.737   4
   1   7  -4 7207.19 545.628   4
  -1  -7  -4 6544.15 478.724   3
  -1  -7   4 6332.31 493.749   2
   1  -7   4 6289.28 525.898   2
   1   7   4 6326.53 451.435   2
  -1  -7   4 6931.51 326.288   5
   1  -7   4 6638.27 325.876   5
  -1  -8  -4 13354.4 804.051   4
   1  -8  -4 11651.7 709.733   4
   1   8  -4 12648.8 471.448   7
  -1   8  -4 11649.0 683.827   4
   1   8  -4 10747.7 674.759   4
  -1   8  -4 13336.3 524.478   7
  -1  -8   4 12072.4 689.553   2
   1  -8   4 12323.4 724.139   2
  -1  -8   4 10784.8 414.710   5
   1  -8   4 11383.3 436.127   5
  -1  -9   4 574.918 205.950   2
  -1  -9   4 185.132 90.8525   5
   1  -9   4 247.450 163.592   2
   1  -9   4 107.621 73.7442   5
  -1   9  -4 136.413 86.2547   7
   1   9  -4 58.8596 80.2930   7
  -1  -9  -4 178.563 151.921   4
   1  -9  -4 68.6309 134.647   4
  -1   9  -4-24.0987 112.818   4
   1   9  -4 205.167 140.584   4
  -1 -10  -4 6588.33 565.724   4
   1 -10  -4 6377.79 540.714   4
  -1  10  -4 7202.29 386.917   7
   1  10  -4 7660.66 364.860   7
  -1  10  -4 6394.20 532.959   4
   1  10  -4 6184.58 506.681   4
  -1 -10   4 7535.39 564.497   2
   1 -10   4 6454.77 522.393   2
  -1 -10   4 6834.97 360.133   5
   1 -10   4 7238.10 378.615   5
  -1 -11  -4 3123.42 412.954   4
   1 -11  -4 3232.91 398.169   4
  -1  11  -4 3014.43 268.872   7
   1  11  -4 3259.08 254.658   7
  -1  11  -4 2821.56 374.989   4
   1  11  -4 2670.02 358.095   4
  -1 -11   4 2998.48 378.920   2
   1 -11   4 2621.15 366.997   2
  -1 -11   4 3272.33 263.986   5
   1 -11   4 2968.13 256.019   5
  -1 -12  -4 6301.45 577.528   4
   1 -12  -4 5340.50 523.346   4
  -1  12  -4 5864.57 368.661   7
   1  12  -4 5725.65 344.873   7
  -1  12  -4 4634.39 472.864   4
   1  12  -4 4448.20 458.805   4
  -1 -12   4 5874.20 500.280   2
   1 -12   4 5695.21 500.890   2
  -1 -12   4 5948.71 357.244   5
   1 -12   4 5979.33 360.860   5
  -1 -13  -4 2721.78 400.847   4
   1 -13  -4 2871.15 410.868   4
  -1  13  -4 2659.78 260.787   7
   1  13  -4 2435.94 236.304   7
  -1  13  -4 2246.97 349.585   4
   1  13  -4 2442.73 352.291   4
  -1 -13   4 2590.26 338.990   2
   1 -13   4 2867.72 369.144   2
  -1 -13   4 3116.44 268.908   5
   1 -13   4 2671.19 254.545   5
  -1 -14  -4 19649.4 1060.69   4
   1 -14  -4 18664.1 1007.51   4
  -1  14  -4 17167.3 652.938   7
   1  14  -4 17663.5 612.668   7
  -1  14  -4 16426.8 885.109   4
   1  14  -4 15355.0 879.513   4
  -1 -14   4 11252.1 704.846   2
   1 -14   4 11720.5 738.444   2
  -1 -14   4 18265.3 650.572   5
   1 -14   4 18224.1 656.983   5
  -1 -15  -4 1895.93 380.354   4
   1 -15  -4 2319.56 390.549   4
  -1  15  -4 1996.82 249.974   7
   1  15  -4 1879.37 222.993   7
  -1  15  -4 2125.46 341.093   4
  -1 -15   4 2214.73 322.186   2
  -1 -15   4 2378.90 255.418   5
   1 -15   4 2099.29 244.736   5
  -1 -16  -4 3137.27 473.423   4
   1 -16  -4 5554.13 598.477   4
  -1  16  -4 4603.72 361.286   7
   1  16  -4 4464.19 326.369   7
  -1  16  -4 4028.01 467.045   4
  -1 -16   4 5360.00 385.552   5
   1 -16   4 5108.92 381.835   5
  -1  17  -4 1517.60 223.826   7
   1  17  -4 1715.45 218.256   7
  -1 -17  -4 2129.94 406.270   4
   1 -17  -4 1962.60 385.662   4
  -1  17  -4 839.119 234.288   4
  -1 -17   4 1913.31 252.256   5
   1 -17   4 2009.43 263.784   5
  -1 -18   4 964.948 199.647   5
   1 -18   4 1012.55 207.759   5
  -1  18  -4 876.442 192.734   7
   1  18  -4 672.366 148.923   7
   1 -18  -4 734.616 278.775   4
  -1  18  -4 767.874 236.383   4
  -1 -19   4 67.3075 107.564   5
   1 -19   4 255.073 147.772   5
  -1  19  -4 102.539 94.1153   7
   1  19  -4 133.724 94.6401   7
  -1 -20   4 1438.97 245.058   5
  -1  20  -4 1360.76 231.381   7
   1 -20   4 2005.92 278.036   5
  -1 -21   4 1381.04 242.287   5
   1 -21   4 1744.16 257.647   5
  -1  21  -4 1170.72 208.596   7
  -1 -22   4 340.243 161.009   5
   1 -22   4 247.822 113.134   5
  -1  22  -4 299.648 142.671   7
  -1 -23   4 151.434 131.901   5
   1 -23   4 237.467 154.534   5
  -1  23  -4 264.666 143.430   7
  -1 -24   4-143.269 157.932   5
   1 -24   4 56.7500 132.450   5
  -1  24  -4-98.3308 113.681   7
  -1 -25   4-63.8530 166.836   5
   1 -25   4 431.867 181.993   5
  -1  25  -4 315.988 153.691   7
  -2   0  -4 7341.66 530.076   4
   2   0  -4 7413.63 514.997   4
  -2   0  -4 7324.00 354.702   6
  -2   0  -4 7287.68 446.527   3
  -2   0   4 7100.74 480.846   2
  -2   1  -4 8535.89 369.522   6
  -2  -1  -4 9219.08 595.315   4
   2  -1  -4 8510.40 547.457   4
   2   1  -4 8311.79 545.043   4
  -2  -1  -4 8602.59 381.330   6
  -2   1  -4 9052.23 570.213   4
  -2  -1  -4 8591.79 488.295   3
  -2   1  -4 8343.49 472.499   3
  -2   1   4 8870.40 528.858   2
  -2  -1   4 8800.27 541.680   2
  -2  -2  -4 274.341 136.083   3
  -2   2  -4 372.664 109.209   3
  -2   2   4 339.820 157.483   2
  -2  -2   4 889.955 214.104   2
  -2  -2  -4 375.577 130.769   4
   2  -2  -4 222.264 125.064   4
  -2   2  -4 267.252 157.223   4
  -2  -2  -4 414.557 121.247   6
  -2   2  -4 651.708 136.248   6
   2   2  -4 649.883 186.693   4
   2  -3   4 3987.99 244.411   5
   2  -3  -4 4507.31 419.672   4
  -2   3  -4 3907.20 382.891   4
  -2  -3  -4 4306.60 279.290   6
  -2   3  -4 3908.30 255.251   6
   2   3  -4 3938.44 399.700   4
  -2  -3  -4 3858.56 390.748   4
  -2  -3  -4 4136.96 356.284   3
  -2   3   4 4520.73 379.367   2
  -2  -3   4 4044.98 396.484   2
  -2   3  -4 4285.64 340.907   3
   2  -4   4 6970.38 324.849   5
  -2  -4  -4 7927.61 376.782   6
  -2  -4  -4 6497.86 498.571   4
   2  -4  -4 7276.64 525.678   4
  -2   4  -4 6911.38 506.173   4
  -2   4  -4 6704.82 317.861   6
   2   4  -4 6710.33 521.876   4
  -2  -4  -4 6872.22 465.875   3
  -2   4   4 7212.23 445.061   2
  -2  -4   4 7582.37 528.558   2
  -2   4  -4 7167.10 430.360   3
  -2  -4   4 7683.21 309.130   5
   2  -5   4 3199.52 231.802   5
  -2  -5  -4 3586.33 394.690   4
   2  -5  -4 3581.62 369.560   4
  -2   5  -4 3689.93 236.307   6
  -2   5  -4 3700.48 388.644   4
   2   5  -4 3456.44 378.774   4
  -2  -5  -4 3860.46 281.913   6
  -2  -5  -4 3004.39 316.688   3
  -2   5   4 3188.88 287.251   2
  -2  -5   4 3607.94 370.385   2
  -2   5  -4 3354.71 293.202   3
  -2  -5   4 3429.50 215.869   5
   2  -6   4 23410.3 628.270   5
  -2   6  -4 24313.4 583.592   6
  -2  -6  -4 27133.5 1061.46   4
   2  -6  -4 24776.3 956.050   4
  -2  -6  -4 25529.9 686.262   6
  -2   6  -4 26235.4 994.454   4
   2   6  -4 24285.0 976.625   4
  -2  -6  -4 23587.1 898.718   3
  -2  -6   4 24002.4 931.704   2
  -2   6  -4 23633.4 740.380   3
   2  -6   4 24089.9 1017.93   2
  -2  -6   4 25881.7 611.506   5
   2  -7   4 1460.77 173.319   5
  -2  -7  -4 1952.19 315.156   4
   2  -7  -4 2033.91 292.763   4
  -2   7  -4 1550.77 269.429   4
   2   7  -4 1486.50 271.602   4
  -2  -7  -4 1902.43 281.151   3
  -2  -7   4 2067.12 296.851   2
   2  -7   4 2280.71 353.389   2
  -2  -7   4 2055.51 184.266   5
   2  -8   4 10912.3 457.688   5
  -2  -8  -4 11881.6 744.059   4
   2  -8  -4 10295.8 662.928   4
  -2   8  -4 11510.5 695.712   4
   2   8  -4 10707.8 661.165   4
  -2  -8  -4 10823.2 635.479   3
  -2  -8   4 10708.5 622.667   2
   2  -8   4 11052.7 708.560   2
  -2  -8   4 11635.3 441.571   5
   2  -9   4 1614.99 187.356   5
  -2  -9  -4 1468.57 255.529   3
   2  -9   4 1649.03 314.310   2
  -2   9  -4 1249.35 186.587   7
  -2  -9  -4 1135.90 264.318   4
   2  -9  -4 1360.55 276.057   4
  -2   9  -4 1322.34 258.395   4
   2   9  -4 1538.57 271.802   4
  -2  -9   4 1642.95 269.821   2
  -2  -9   4 1269.04 157.553   5
   2 -10   4 6026.32 360.045   5
  -2 -10  -4 6142.61 537.904   4
   2 -10  -4 6275.05 534.978   4
  -2  10  -4 5978.64 511.908   4
   2  10  -4 5453.87 509.337   4
  -2 -10   4 6017.26 496.606   2
  -2  10  -4 5895.19 360.828   7
   2 -10   4 5847.39 513.391   2
  -2 -10   4 5700.77 331.870   5
   2 -11   4 2782.61 264.429   5
  -2 -11  -4 3131.94 409.413   4
   2 -11  -4 2901.74 367.012   4
  -2  11  -4 2765.43 258.460   7
  -2  11  -4 2897.50 377.546   4
   2  11  -4 2702.18 366.144   4
  -2 -11   4 2713.62 359.520   2
   2 -11   4 2356.83 372.413   2
  -2 -11   4 2958.75 255.995   5
  -2 -12  -4 16330.6 925.147   4
   2 -12  -4 16010.0 883.714   4
  -2  12  -4 15412.9 604.835   7
  -2  12  -4 15064.0 821.400   4
   2  12  -4 12845.5 775.609   4
  -2 -12   4 14551.9 776.201   2
   2 -12   4 15894.3 865.864   2
  -2 -12   4 15302.8 575.659   5
   2 -12   4 14642.5 583.134   5
  -2 -13  -4 4934.06 541.094   4
   2 -13  -4 4139.88 476.700   4
  -2  13  -4 4861.75 357.465   7
  -2  13  -4 4130.56 450.499   4
   2  13  -4 3439.58 423.367   4
  -2 -13   4 4300.02 430.238   2
   2 -13   4 3109.78 405.269   2
  -2 -13   4 5120.02 350.183   5
   2 -13   4 4480.49 331.738   5
  -2 -14   4 1067.06 226.917   2
  -2 -14   4 1421.71 194.689   5
   2 -14   4 815.971 223.701   2
   2 -14   4 1157.29 185.542   5
  -2  14  -4 1276.79 200.377   7
  -2 -14  -4 1341.03 339.312   4
   2 -14  -4 1642.35 326.551   4
  -2  14  -4 1318.18 279.012   4
  -2 -15   4 765.410 193.344   2
  -2 -15   4 1188.51 192.304   5
   2 -15   4 1303.59 207.672   5
  -2 -15  -4 1168.95 309.511   4
   2 -15  -4 903.356 248.884   4
  -2  15  -4 1211.42 207.441   7
  -2  15  -4 1047.00 244.483   4
  -2 -16  -4 6153.54 646.646   4
   2 -16  -4 5131.74 560.046   4
  -2  16  -4 5159.19 396.452   7
  -2  16  -4 4415.76 494.793   4
  -2 -16   4 5900.35 403.153   5
   2 -16   4 5435.33 400.853   5
  -2 -17   4 210.114 112.767   5
   2 -17   4 296.629 108.951   5
  -2  17  -4 641.494 163.076   7
  -2 -17  -4 938.560 304.111   4
   2 -17  -4 585.421 242.083   4
  -2  17  -4 329.480 181.616   4
   2 -18  -4 7495.07 716.449   4
  -2  18  -4 6754.76 464.520   7
  -2  18  -4 6245.52 595.480   4
  -2 -18   4 7384.65 482.093   5
   2 -18   4 6989.26 476.353   5
  -2 -19   4 842.291 176.360   5
  -2  19  -4 1365.64 221.805   7
   2 -19   4 1444.53 254.477   5
  -2 -20   4 167.670 119.302   5
   2 -20   4 528.227 179.030   5
  -2  20  -4 319.817 148.780   7
  -2 -21   4 115.086 117.526   5
   2 -21   4 52.0435 155.446   5
  -2  21  -4 81.3901 109.704   7
  -2  22  -4 1707.15 262.916   7
  -2 -22   4 2056.39 291.651   5
   2 -22   4 1902.94 283.879   5
  -2 -23   4 143.514 148.651   5
   2 -23   4 168.192 141.299   5
  -2  23  -4-33.7983 114.118   7
  -2  24  -4 1598.26 274.623   7
  -2 -24   4 2446.55 349.622   5
   2 -24   4 2019.18 309.311   5
  -2 -25   4 596.136 200.444   5
   2 -25   4 508.662 185.926   5
  -2  25  -4 385.120 164.575   7
  -3   0  -4-143.323 121.558   3
  -3   0   4 54.2257 113.597   2
  -3   0  -4-65.2465 127.044   4
   3   0  -4-135.353 125.839   4
  -3   0  -4 138.312 107.824   6
   3  -1  -4 3484.06 357.223   4
  -3  -1  -4 3837.70 264.726   6
  -3  -1  -4 3679.73 378.550   4
  -3   1  -4 3595.70 387.295   4
   3   1  -4 3940.82 384.897   4
  -3   1  -4 4099.54 266.425   6
  -3   1   4 3468.73 330.380   2
  -3  -1   4 3439.65 341.821   2
  -3  -1  -4 4004.09 366.081   3
  -3   1  -4 3774.07 351.547   3
  -3  -2  -4 45256.3 1274.94   4
   3  -2  -4 46998.6 1310.80   4
  -3   2  -4 45373.5 1273.67   4
   3   2  -4 46367.9 1284.20   4
  -3  -2  -4 43897.6 876.452   6
  -3   2  -4 43053.1 823.297   6
  -3   2   4 41123.5 1076.62   2
  -3  -2   4 38446.3 1109.00   2
  -3  -2  -4 42169.9 1161.43   3
  -3   2  -4 43992.0 1134.15   3
  -3  -3  -4 12798.7 485.545   6
  -3  -3  -4 13049.0 689.074   4
   3  -3  -4 13453.6 710.346   4
  -3   3  -4 12616.7 679.134   4
  -3   3  -4 13008.2 453.170   6
   3   3  -4 13116.3 700.407   4
  -3   3   4 11369.0 547.843   2
  -3  -3   4 11115.8 621.134   2
  -3  -3  -4 12407.3 638.064   3
  -3   3  -4 12814.5 604.501   3
  -3  -4  -4 19502.7 869.702   4
   3  -4  -4 19633.9 851.473   4
  -3   4  -4 18935.2 826.819   4
  -3  -4  -4 17950.9 575.707   6
  -3   4  -4 18607.0 533.811   6
   3   4  -4 19766.8 884.844   4
  -3   4   4 16179.2 645.446   2
  -3  -4   4 16229.7 745.780   2
  -3  -4  -4 17384.6 762.515   3
  -3   4  -4 17409.0 685.671   3
  -3  -4   4 17825.3 471.285   5
  -3  -5  -4 730.728 193.035   3
  -3   5   4 441.423 112.857   2
  -3  -5   4 435.471 152.678   2
  -3   5  -4 540.141 135.397   3
  -3  -5  -4 608.413 190.021   4
   3  -5  -4 557.213 191.150   4
  -3  -5  -4 828.271 144.215   6
  -3   5  -4 558.271 107.794   6
  -3   5  -4 530.781 184.147   4
   3   5  -4 483.012 177.800   4
  -3  -5   4 627.827 108.448   5
   3  -6   4 6662.77 362.208   5
  -3   6  -4 6665.63 319.723   6
  -3  -6  -4 6947.77 577.188   4
   3  -6  -4 6272.93 486.063   4
  -3   6  -4 7090.63 524.859   4
  -3  -6  -4 6777.49 365.703   6
   3   6  -4 6386.43 507.195   4
  -3  -6   4 5873.74 467.202   2
  -3  -6  -4 5999.87 476.218   3
  -3   6  -4 5945.96 411.455   3
  -3  -6   4 6540.40 320.748   5
   3  -7   4 13036.9 516.203   5
  -3  -7  -4 13558.5 788.533   4
   3  -7  -4 13569.1 723.013   4
  -3  -7  -4 13232.1 507.146   6
  -3   7  -4 13440.2 724.487   4
  -3  -7   4 12216.8 671.690   2
  -3  -7  -4 11928.7 662.939   3
   3   7  -4 12589.6 727.717   4
  -3   7  -4 12993.7 605.348   3
  -3  -7   4 13944.9 478.553   5
   3  -8   4 7831.34 412.316   5
  -3  -8  -4 7778.05 594.559   4
   3  -8  -4 7801.19 573.069   4
  -3  -8  -4 8092.93 410.990   6
  -3   8  -4 7446.90 565.797   4
   3   8  -4 7505.78 561.680   4
  -3  -8   4 7102.88 512.960   2
  -3  -8  -4 6915.52 527.334   3
  -3  -8   4 8583.84 397.617   5
   3  -9   4 5126.70 343.069   5
  -3  -9  -4 4715.36 466.520   4
   3  -9  -4 5915.77 531.101   4
  -3   9  -4 5193.46 368.020   7
  -3  -9  -4 5541.54 353.527   6
   3   9  -4 5079.00 471.394   4
  -3   9  -4 5506.11 500.103   4
  -3  -9   4 4562.89 417.133   2
  -3  -9  -4 5115.75 465.300   3
  -3  -9   4 5813.59 340.227   5
   3 -10   4 1406.03 203.268   5
  -3 -10  -4 865.020 229.758   3
  -3 -10   4 1094.38 219.180   2
   3 -10   4 1328.49 309.189   2
   3 -10  -4 1624.86 282.634   4
  -3 -10  -4 1237.99 270.888   4
  -3 -10  -4 1202.85 190.013   6
  -3  10  -4 881.981 216.244   4
   3  10  -4 1198.74 260.070   4
  -3  10  -4 1338.94 197.397   7
  -3 -10   4 1494.65 193.214   5
   3 -11   4 1681.67 231.472   5
  -3 -11  -4 1375.29 259.957   3
  -3 -11   4 1066.25 229.121   2
  -3 -11   4 1205.16 168.287   5
   3 -11   4 1290.73 278.030   2
  -3 -11  -4 1628.24 319.481   4
   3 -11  -4 1386.82 251.561   4
  -3  11  -4 895.975 224.381   4
   3  11  -4 1602.59 291.417   4
  -3  11  -4 1649.81 217.248   7
  -3 -12   4 652.318 189.405   2
  -3 -12   4 526.405 121.233   5
   3 -12   4 664.058 151.175   5
   3 -12   4 429.641 175.650   2
  -3 -12  -4 691.017 221.339   4
   3 -12  -4 500.726 177.705   4
  -3  12  -4 501.206 132.928   7
  -3  12  -4 282.459 124.382   4
   3  12  -4 309.235 150.626   4
  -3 -13   4 426.522 184.479   2
  -3 -13   4 375.178 106.524   5
   3 -13   4 199.858 158.074   2
   3 -13   4 552.452 168.669   5
  -3  13  -4 538.496 167.523   7
  -3 -13  -4 615.085 212.983   4
   3 -13  -4 335.386 165.916   4
  -3  13  -4 510.653 193.988   4
   3  13  -4 467.167 174.477   4
   3 -14   4 9566.61 521.033   5
  -3 -14  -4 9563.21 776.099   4
   3 -14  -4 10296.5 745.068   4
  -3  14  -4 9442.60 526.621   7
  -3 -14   4 8524.13 637.910   2
   3 -14   4 10022.5 714.685   2
  -3 -14   4 9672.58 499.628   5
  -3 -15   4 172.973 112.995   2
  -3 -15   4 124.198 112.695   5
   3 -15   4 326.652 121.675   5
  -3  15  -4 243.139 121.279   7
  -3 -15  -4 230.025 186.698   4
   3 -15  -4 72.0006 155.949   4
  -3 -16  -4 7523.22 722.422   4
  -3  16  -4 7325.28 476.125   7
  -3 -16   4 6146.78 558.986   2
  -3 -16   4 7285.81 460.827   5
   3 -16   4 7073.88 470.250   5
  -3 -17   4 45.5529 100.575   5
   3 -17   4-187.500 140.340   5
  -3  17  -4 62.1300 126.847   7
  -3 -18   4 559.921 179.177   5
   3 -18   4 115.094 111.711   5
  -3  18  -4 509.320 167.563   7
  -3 -19   4 590.567 187.269   5
   3 -19   4 216.376 120.811   5
  -3  19  -4 242.643 134.738   7
  -3  20  -4 2778.87 329.939   7
  -3 -20   4 3752.37 375.330   5
   3 -20   4 2786.00 324.752   5
  -3 -21   4 834.107 213.377   5
   3 -21   4 809.158 205.448   5
  -3  21  -4 1002.34 222.387   7
  -3 -22   4 809.268 204.360   5
   3 -22   4 647.940 209.467   5
  -3  22  -4 458.148 166.676   7
  -3 -23   4 260.481 152.096   5
   3 -23   4 65.7180 135.300   5
  -3  23  -4 45.8963 122.923   7
  -3 -24   4 1141.03 247.551   5
   3 -24   4 1072.86 250.676   5
  -3  24  -4 588.602 184.001   7
  -4   0  -4 34060.0 773.457   6
  -4   0  -4 35846.3 1150.48   4
   4   0  -4 36468.3 1139.24   4
  -4   0   4 32262.6 1030.63   2
  -4   0  -4 36112.6 1151.13   3
  -4  -1  -4 11767.3 464.037   6
  -4  -1  -4 11450.5 640.784   4
  -4   1  -4 12944.1 705.802   4
   4  -1  -4 11668.7 642.308   4
   4   1  -4 12667.9 682.104   4
  -4   1  -4 11602.7 453.593   6
  -4  -1   4 13793.5 537.155   6
  -4   1   4 11306.1 602.832   2
  -4  -1   4 11324.7 617.257   2
  -4  -1  -4 11274.8 632.912   3
  -4   1  -4 11178.8 614.689   3
  -4   2  -4 6560.21 338.940   6
  -4  -2  -4 6291.61 345.161   6
  -4  -2  -4 6120.02 480.599   4
  -4   2  -4 6966.05 525.950   4
   4   2  -4 6403.22 488.157   4
  -4  -2   4 7281.50 393.249   6
  -4   2   4 6409.78 449.436   2
  -4  -2   4 6175.04 466.013   2
  -4  -2  -4 6018.53 469.435   3
  -4   2  -4 5570.39 427.016   3
   4  -2  -4 6646.14 501.465   4
  -4   3   4 220.404 90.2566   2
  -4  -3  -4 229.068 130.421   3
  -4  -3   4 335.324 138.539   2
  -4   3  -4 472.096 162.796   3
  -4  -3  -4 200.415 125.426   4
   4  -3  -4 478.681 177.076   4
  -4   3  -4 111.081 113.268   4
  -4  -3  -4 687.110 152.767   6
  -4   3  -4 508.890 116.158   6
   4   3  -4 404.709 164.357   4
  -4  -3   4 341.239 119.387   6
  -4  -4  -4 23435.3 979.254   4
   4  -4  -4 23638.3 936.815   4
  -4  -4  -4 21630.8 644.473   6
  -4   4  -4 21756.5 599.536   6
   4   4  -4 23029.0 960.442   4
  -4  -4   4 17210.8 571.689   6
  -4   4   4 19978.3 744.527   2
  -4  -4   4 18551.7 821.539   2
  -4  -4  -4 20706.1 872.628   3
  -4   4  -4 21685.8 884.595   4
  -4   4  -4 21012.1 812.010   3
  -4  -4   4 21614.8 554.102   5
  -4  -5  -4 6870.23 566.257   4
   4  -5  -4 5994.66 469.120   4
  -4   5  -4 5815.39 474.308   4
  -4  -5  -4 6694.66 373.416   6
  -4   5  -4 6293.70 327.747   6
   4   5  -4 6597.55 522.529   4
  -4  -5   4 7344.86 367.151   6
  -4   5   4 5776.37 407.578   2
  -4  -5   4 5059.93 433.397   2
  -4  -5  -4 5736.48 476.823   3
  -4   5  -4 6291.61 456.125   3
  -4  -5   4 5897.73 293.833   5
  -4  -6  -4 31158.5 1174.47   4
   4  -6  -4 29406.8 1025.61   4
  -4   6  -4 28689.8 1028.64   4
  -4  -6  -4 28370.3 755.908   6
  -4   6  -4 27521.9 657.011   6
   4   6  -4 28649.9 1074.63   4
  -4  -6   4 26912.9 1034.93   2
  -4  -6  -4 27214.6 1024.21   3
  -4   6  -4 28107.7 949.484   3
  -4  -6   4 27244.1 642.657   5
  -4  -7  -4 4541.99 317.370   6
  -4  -7  -4 4473.88 460.118   4
   4  -7  -4 3933.44 409.989   4
  -4   7  -4 3793.25 387.164   4
   4   7  -4 4285.69 449.821   4
  -4  -7   4 3858.22 410.604   2
  -4  -7  -4 4048.44 414.680   3
  -4   7  -4 3907.32 366.181   3
  -4  -7   4 4170.33 266.356   5
  -4  -8  -4 2579.88 360.630   4
   4  -8  -4 2899.95 367.896   4
  -4   8  -4 3572.11 390.182   4
  -4  -8  -4 3173.49 265.989   6
   4   8  -4 2771.31 355.425   4
  -4  -8   4 2767.76 339.571   2
  -4  -8  -4 3124.47 367.633   3
  -4   8  -4 2483.37 300.940   3
  -4  -8   4 3107.11 237.120   5
  -4  -9  -4 20.1721 126.377   3
  -4  -9   4-145.973 173.127   2
  -4  -9   4 366.734 107.703   5
  -4   9  -4 87.1726 99.0751   3
   4  -9   4 588.661 173.318   5
  -4  -9  -4 48.9999 133.358   4
   4  -9  -4 109.707 131.507   4
  -4  -9  -4 248.076 133.896   6
   4   9  -4 430.635 194.175   4
   4 -10   4 9306.64 496.065   5
  -4 -10  -4 9653.78 707.729   4
   4 -10  -4 9122.09 622.266   4
  -4  10  -4 9754.71 525.045   7
  -4 -10  -4 10686.5 490.807   6
   4  10  -4 8638.61 620.533   4
  -4 -10   4 8598.77 606.868   2
  -4 -10  -4 9675.16 662.276   3
  -4 -10   4 9121.85 424.876   5
   4 -11   4 3568.71 324.406   5
  -4 -11  -4 3035.26 418.044   4
  -4  11  -4 2864.44 291.685   7
  -4 -11  -4 3598.42 296.744   6
   4  11  -4 2638.55 371.141   4
  -4  11   4 3703.07 336.628   6
  -4 -11   4 2681.28 354.931   2
  -4 -11  -4 2641.70 374.742   3
  -4 -11   4 3037.85 261.362   5
   4 -12   4 3321.16 317.940   5
  -4 -12  -4 3819.41 478.538   4
  -4  12  -4 3697.79 320.092   7
  -4 -12  -4 2718.25 266.371   6
   4  12  -4 3426.32 408.689   4
  -4  12   4 3849.60 337.093   6
  -4 -12   4 3849.00 432.812   2
  -4 -12  -4 3330.31 411.964   3
   4 -12   4 2225.06 363.487   2
  -4 -12   4 3897.78 300.737   5
   4 -13   4 5068.76 396.557   5
  -4 -13  -4 5173.49 572.364   4
  -4  13  -4 5435.57 396.588   7
  -4 -13  -4 6022.38 386.044   6
   4  13  -4 4348.82 481.213   4
  -4  13   4 5845.20 412.466   6
  -4 -13   4 5664.84 530.123   2
   4 -13   4 3705.83 464.618   2
  -4 -13   4 5094.99 353.417   5
  -4 -14   4 1182.65 260.010   2
   4 -14   4 1152.19 213.721   5
  -4  14  -4 1028.76 204.390   7
  -4 -14  -4 1148.03 311.492   4
  -4  14   4 1626.60 242.877   6
  -4 -14   4 1477.76 203.318   5
  -4 -15   4 804.974 234.192   2
  -4 -15   4 719.339 158.000   5
   4 -15   4 594.053 145.895   5
  -4 -15  -4 664.332 238.155   4
  -4  15  -4 758.498 188.827   7
  -4  15   4 1222.02 225.979   6
  -4 -16   4 338.395 186.899   2
  -4 -16   4 164.558 104.477   5
   4 -16   4 283.454 150.699   5
  -4  16  -4 20.7565 108.160   7
  -4 -16  -4 107.593 199.426   4
  -4 -17   4 823.082 184.011   5
   4 -17   4 524.317 154.200   5
  -4  17  -4 591.864 177.585   7
   4 -18   4 1782.42 269.849   5
  -4  18  -4 1868.06 273.969   7
  -4 -18   4 2026.03 266.166   5
  -4 -19   4 615.886 176.459   5
   4 -19   4 580.337 169.016   5
  -4  19  -4 403.710 167.805   7
  -4 -20   4 238.225 113.947   5
   4 -20   4 196.494 122.569   5
  -4  20  -4 217.579 119.754   7
  -4 -21   4 169.925 94.8966   5
   4 -21   4-68.8913 152.809   5
  -4  21  -4-99.5083 155.167   7
  -4 -22   4 724.406 194.975   5
   4 -22   4 468.964 162.889   5
  -4  22  -4 749.075 210.648   7
  -4 -23   4 459.467 178.534   5
   4 -23   4 480.427 178.192   5
  -4  23  -4 138.546 117.178   7
  -4 -24   4 860.956 210.752   5
   4 -24   4 784.852 228.395   5
  -4  24  -4 771.815 194.208   7
  -5   0   4-12.2967 104.440   2
  -5   0  -4 74.5708 118.085   3
  -5   0  -4 39.5993 97.0461   4
   5   0  -4 38.4702 108.016   4
  -5   0  -4 114.178 100.772   6
  -5   0   4 133.845 111.530   6
  -5   1   4 1102.25 219.866   2
  -5  -1   4 857.641 206.575   2
  -5  -1  -4 655.087 169.781   3
  -5   1  -4 743.451 173.470   3
  -5  -1  -4 632.916 169.628   4
  -5   1  -4 920.737 208.118   4
  -5   1   4 1324.71 199.136   6
   5  -1  -4 880.333 191.569   4
   5   1  -4 1254.05 235.306   4
  -5  -1  -4 1062.33 161.141   6
  -5   1  -4 775.003 143.523   6
  -5  -1   4 898.244 152.863   6
  -5  -2  -4 4250.09 409.645   4
   5  -2  -4 5227.48 450.373   4
   5   2  -4 5094.31 445.276   4
  -5  -2  -4 5153.49 332.332   6
  -5   2  -4 5274.30 338.046   6
  -5  -2   4 5808.39 347.139   6
  -5   2   4 5386.92 358.127   6
  -5   2   4 5215.18 432.143   2
  -5  -2   4 4743.22 431.806   2
  -5  -2  -4 4842.80 464.604   3
  -5   2  -4 4526.37 412.845   3
  -5   3   4 480.263 159.147   2
  -5  -3   4 420.113 169.922   2
  -5  -3  -4 294.677 134.566   3
  -5   3  -4 275.595 152.258   3
  -5  -3  -4 135.240 100.437   4
   5  -3  -4 251.353 116.870   4
   5   3  -4 459.102 172.975   4
  -5  -3  -4 514.711 137.398   6
  -5   3  -4 369.404 119.015   6
  -5  -3   4 396.266 124.556   6
  -5   3   4 307.390 148.279   6
  -5  -4  -4 4830.13 482.717   4
   5  -4  -4 4691.88 429.011   4
   5   4  -4 5588.11 494.756   4
  -5  -4  -4 5575.56 353.101   6
  -5   4  -4 5361.29 330.858   6
  -5   4   4 5199.84 433.340   2
  -5  -4   4 3731.26 269.489   6
  -5   4   4 5924.37 388.600   6
  -5  -4   4 4950.97 455.375   2
  -5  -4  -4 4459.46 438.391   3
  -5   4  -4 5398.30 447.887   3
  -5  -4   4 4919.74 276.284   5
  -5  -5  -4 6985.53 549.981   4
  -5  -5  -4 6626.53 381.267   6
  -5  -5   4 5059.79 308.548   6
  -5   5   4 7084.00 420.302   6
  -5  -5   4 5907.19 497.992   2
   5   5  -4 6568.57 531.750   4
  -5  -5  -4 6173.36 508.510   3
  -5   5  -4 6890.69 371.936   6
  -5   5  -4 6159.19 482.499   3
  -5  -5   4 6364.83 326.157   5
  -5  -6  -4 1916.89 297.272   4
  -5  -6  -4 2324.44 243.900   6
  -5   6  -4 2012.62 208.745   6
  -5   6   4 2295.61 260.625   6
  -5  -6   4 2154.21 341.638   2
   5   6  -4 1709.60 283.004   4
  -5  -6  -4 1966.14 304.212   3
  -5   6  -4 1909.90 279.081   3
  -5  -6   4 1639.11 171.107   5
  -5  -7   4 1665.30 258.986   1
  -5  -7  -4 1566.88 302.477   4
  -5  -7  -4 1963.45 227.211   6
  -5   7  -4 1885.07 194.056   6
  -5   7   4 2395.51 278.052   6
  -5  -7   4 1863.86 310.437   2
   5   7  -4 1316.55 267.361   4
  -5  -7  -4 1689.04 300.288   3
  -5   7  -4 1878.43 283.022   3
  -5  -7   4 1700.16 182.312   5
  -5  -8   4 8136.68 567.000   1
  -5  -8  -4 8219.94 642.280   4
  -5  -8  -4 8457.45 441.036   6
   5   8  -4 8247.99 606.466   4
  -5   8   4 8887.63 485.101   6
  -5  -8   4 7298.32 591.557   2
  -5  -8  -4 7427.05 585.978   3
  -5   8  -4 7262.95 532.189   3
  -5  -8   4 8248.53 408.851   5
  -5  -9   4 26260.9 1012.82   1
  -5  -9  -4 27488.2 1173.03   4
  -5  -9  -4 26821.1 777.773   6
   5   9  -4 25024.4 1068.69   4
  -5   9   4 26653.2 827.088   6
  -5  -9   4 25415.9 1092.06   2
  -5  -9  -4 24188.0 1042.96   3
  -5   9  -4 26518.4 1019.63   3
  -5  -9   4 26530.3 741.805   5
  -5  10   4 3661.71 428.691   3
  -5 -10  -4 3893.11 469.876   4
  -5 -10   4 3821.48 404.388   1
   5  10  -4 3705.06 428.856   4
  -5  10   4 4630.28 365.792   6
  -5 -10   4 4127.21 465.894   2
  -5 -10  -4 3931.77 442.488   3
  -5 -10  -4 4438.79 336.019   6
  -5  10  -4 3740.76 391.364   3
  -5 -10   4 4091.15 299.306   5
   5 -11   4 5764.04 432.671   5
  -5  11   4 4894.51 501.305   3
  -5 -11  -4 5674.32 577.958   4
  -5 -11   4 6003.18 524.794   1
  -5 -11  -4 6435.32 400.179   6
   5  11  -4 5272.07 507.350   4
  -5  11   4 5904.08 412.671   6
  -5 -11   4 6562.59 584.944   2
  -5 -11  -4 5770.30 553.650   3
  -5 -11   4 5843.73 360.551   5
  -5 -12   4 648.194 227.807   2
  -5 -12  -4 454.571 202.956   3
  -5 -12   4 298.105 94.4012   5
  -5 -12   4 442.269 175.135   1
   5 -12   4 198.383 121.642   5
  -5  12   4 503.776 216.024   3
  -5  12  -4 229.631 114.816   7
  -5 -12  -4 606.520 227.379   4
  -5 -12  -4 550.028 157.205   6
   5  12  -4 642.470 193.002   4
  -5  12   4 287.544 159.485   6
  -5  13   4 1634.50 344.867   3
  -5 -13  -4 1366.59 297.095   3
   5 -13   4 1685.45 259.013   5
  -5 -13   4 1963.38 312.275   1
  -5 -13  -4 2274.92 256.965   6
  -5 -13  -4 1870.37 383.809   4
  -5 -13   4 2019.04 351.020   2
  -5  13   4 1866.79 250.381   6
   5  13  -4 1247.24 279.490   4
  -5  13  -4 1471.94 240.809   7
  -5 -13   4 1451.82 195.048   5
   5 -14   4 5271.57 419.405   5
  -5  14   4 5496.94 573.832   3
  -5 -14  -4 6095.50 634.473   4
  -5 -14   4 5369.21 517.817   1
  -5  14  -4 6160.75 448.695   7
  -5 -14  -4 7006.46 433.176   6
   5  14  -4 3339.72 432.426   4
  -5 -14   4 3997.76 488.504   2
  -5  14   4 5871.44 403.454   6
  -5 -14  -4 6050.47 586.772   3
  -5 -14   4 5394.08 376.991   5
   5 -15   4 3031.02 348.238   5
  -5  15   4 2716.60 438.563   3
  -5 -15  -4 3930.74 538.036   4
  -5 -15   4 3632.26 445.151   1
  -5  15  -4 2962.72 319.353   7
  -5 -15   4 3262.32 448.966   2
  -5  15   4 3282.08 312.151   6
  -5 -15   4 2900.75 286.928   5
   5 -16   4 1336.68 242.604   5
  -5  16  -4 1516.34 247.898   7
  -5 -16   4 2022.66 359.367   2
  -5 -16   4 1790.56 241.936   5
  -5 -17   4 136.517 107.492   5
   5 -17   4 108.126 144.946   5
  -5  17  -4 323.600 147.093   7
  -5 -18   4 136.961 115.847   5
   5 -18   4 59.0725 142.850   5
  -5  18  -4-169.335 125.476   7
  -5 -19   4 1171.70 211.192   5
   5 -19   4 957.600 233.496   5
  -5  19  -4 1049.65 222.777   7
  -5 -20   4 1020.00 209.504   5
   5 -20   4 735.313 195.772   5
  -5  20  -4 716.703 189.926   7
  -5 -21   4 549.516 168.566   5
   5 -21   4 79.4051 142.583   5
  -5  21  -4 249.533 152.471   7
  -5 -22   4 325.847 132.140   5
   5 -22   4 127.302 110.439   5
  -5  22  -4 149.234 127.508   7
  -5 -23   4 628.865 186.165   5
   5 -23   4 381.182 158.932   5
  -5  23  -4 490.520 188.928   7
  -6   0   4 1388.34 252.715   2
  -6   0  -4 1513.58 282.824   3
  -6   0   4 1500.23 197.151   6
  -6   0  -4 1353.15 190.079   6
  -6   1  -4 11368.5 509.127   6
  -6   1   4 10814.5 655.009   2
  -6  -1   4 10963.8 683.576   2
  -6  -1   4 11261.2 503.422   6
  -6   1   4 10668.8 485.015   6
  -6  -1  -4 11818.7 529.954   6
  -6  -1  -4 11176.6 699.207   3
  -6   1  -4 10027.9 639.460   3
  -6   2   4 452.991 165.332   2
  -6  -2   4 487.750 192.606   2
  -6  -2  -4 220.333 128.331   3
  -6   2  -4 759.188 216.617   3
  -6  -2  -4 630.509 163.265   6
  -6   2  -4 755.800 146.551   6
  -6  -2   4 577.735 145.754   6
  -6   2   4 728.493 163.591   6
   6   3  -4 3362.56 374.890   4
  -6  -3  -4 3476.20 307.797   6
  -6   3  -4 3116.94 263.953   6
  -6   3   4 3188.90 354.043   2
  -6  -3   4 3248.33 402.198   2
  -6  -3   4 2996.61 258.165   6
  -6   3   4 3390.04 294.742   6
  -6  -3  -4 3173.59 392.828   3
  -6   3  -4 2992.05 360.792   3
   6   4  -4 4190.85 427.407   4
  -6  -4  -4 4303.84 331.781   6
  -6   4  -4 4155.99 304.733   6
  -6   4   4 3713.10 378.623   2
  -6  -4   4 3682.83 438.180   2
  -6  -4   4 2942.93 258.112   6
  -6   4   4 3371.71 293.346   6
  -6  -4  -4 3714.59 417.228   3
  -6   4  -4 3643.79 406.923   3
  -6  -4   4 3876.25 272.342   5
   6   5  -4 8355.34 589.109   4
  -6  -5  -4 8118.37 442.153   6
  -6   5  -4 8785.63 436.432   6
  -6  -5   4 8310.89 420.431   6
  -6  -5   4 7789.99 614.038   2
  -6   5   4 7389.64 421.994   6
  -6  -5  -4 8053.21 619.855   3
  -6   5  -4 8065.47 585.658   3
  -6  -5   4 8231.15 396.134   5
   6  -6  -4 6469.65 557.460   1
  -6  -6  -4 7985.42 605.391   4
  -6  -6  -4 7154.64 417.134   6
   6   6  -4 7311.40 566.605   4
  -6   6  -4 7803.27 412.539   6
  -6  -6   4 7407.65 619.739   2
  -6   6   4 7259.50 430.402   6
  -6  -6  -4 6591.45 559.353   3
  -6   6  -4 6923.24 544.664   3
  -6  -6   4 7330.56 382.175   5
  -6  -7  -4 2237.95 334.628   4
  -6  -7  -4 3151.94 296.928   6
  -6   7  -4 3454.98 270.295   6
   6   7  -4 2612.09 348.975   4
  -6  -7   4 3089.87 405.834   2
  -6   7   4 2798.91 268.881   6
  -6  -7  -4 3021.93 399.913   3
  -6   7  -4 2734.68 351.491   3
  -6  -7   4 3099.56 255.341   5
  -6   8   4 1967.39 305.410   3
  -6  -8   4 1155.79 238.436   1
  -6  -8  -4 1695.60 311.544   3
  -6  -8  -4 2048.45 249.913   6
  -6  -8  -4 1298.96 263.314   4
  -6  -8   4 1895.59 335.874   2
   6   8  -4 1084.71 225.570   4
  -6   8   4 1469.06 199.464   6
  -6   8  -4 2009.85 303.596   3
  -6  -8   4 1880.08 200.654   5
  -6  -9   4 1663.96 320.214   2
  -6  -9  -4 1718.04 320.361   3
  -6   9  -4 993.598 220.345   3
  -6  -9  -4 1885.71 234.231   6
  -6   9   4 852.967 214.324   3
  -6  -9   4 1438.18 271.123   1
  -6  -9  -4 1064.44 253.217   4
   6   9  -4 958.762 232.196   4
  -6   9   4 1231.13 195.664   6
  -6  -9   4 1563.77 199.266   5
  -6  10   4 1938.91 331.412   3
  -6 -10   4 3406.49 409.087   1
  -6 -10  -4 2353.21 365.877   4
  -6 -10  -4 3885.09 330.070   6
   6  10  -4 2148.63 321.057   4
  -6 -10   4 3409.28 440.155   2
  -6  10   4 3538.89 314.631   6
  -6 -10  -4 3063.71 400.538   3
  -6  10  -4 2464.37 347.466   3
  -6 -10   4 3484.53 290.219   5
  -6  11   4 5671.15 542.725   3
  -6 -11   4 9444.37 669.746   1
  -6 -11  -4 7492.60 671.418   4
  -6 -11  -4 11247.4 545.563   6
   6  11  -4 6497.26 571.539   4
  -6 -11   4 10790.1 774.527   2
  -6  11   4 10038.8 516.923   6
  -6 -11  -4 9617.03 711.057   3
  -6  11  -4 9940.81 673.454   3
  -6 -11   4 10108.9 506.193   5
  -6  12   4 4017.15 473.506   3
  -6 -12  -4 5974.95 607.277   4
  -6 -12   4 6392.23 564.995   1
  -6 -12  -4 7806.03 458.949   6
   6  12  -4 4997.89 513.984   4
  -6 -12   4 7517.91 657.325   2
  -6  12   4 6808.81 431.814   6
  -6 -12  -4 6752.45 622.206   3
  -6 -12   4 7203.45 437.960   5
   6 -13   4 5425.96 439.749   5
  -6  13   4 3625.11 468.075   3
  -6 -13  -4 4858.52 575.491   4
  -6 -13   4 5175.30 520.275   1
  -6  13  -4 5785.88 465.280   7
  -6 -13  -4 5853.46 408.815   6
   6  13  -4 4584.88 512.506   4
  -6 -13   4 6258.26 604.876   2
  -6  13   4 5236.38 386.869   6
  -6 -13  -4 5263.29 560.173   3
  -6 -13   4 5095.76 381.174   5
  -6  14   4 2251.39 383.937   3
   6 -14   4 1774.84 283.803   5
  -6 -14  -4 2750.62 458.606   4
  -6 -14   4 1850.40 360.229   1
  -6  14  -4 2539.34 310.857   7
  -6 -14  -4 2597.03 287.485   6
   6  14  -4 2230.91 367.120   4
  -6 -14   4 2225.53 381.869   2
  -6  14   4 2374.80 270.964   6
  -6 -14   4 1969.57 249.504   5
  -6 -15   4 1140.83 194.648   5
   6 -15   4 1341.87 268.096   5
  -6  15  -4 1262.61 253.038   7
  -6  15   4 1019.28 198.184   6
  -6 -16   4 220.828 98.7469   5
   6 -16   4 287.028 190.129   5
  -6  16  -4-45.5127 130.098   7
   6 -17   4 2221.19 323.248   5
  -6  17  -4 2896.90 342.682   7
  -6 -17   4 2340.33 291.076   5
  -6 -18   4 747.917 198.131   5
   6 -18   4 696.036 210.521   5
  -6  18  -4 637.969 187.616   7
   6 -19   4 1696.41 289.202   5
  -6  19  -4 1631.44 282.579   7
  -6 -19   4 1763.27 269.601   5
  -6 -20   4 27.1149 110.041   5
   6 -20   4 102.025 146.429   5
  -6  20  -4 63.9676 133.189   7
  -6 -21   4-83.2694 121.306   5
   6 -21   4 61.4724 133.686   5
  -6  21  -4-50.3731 115.811   7
  -6 -22   4 670.618 185.323   5
   6 -22   4 673.091 207.041   5
  -6  22  -4 748.405 218.562   7
  -7   0   4-71.4966 127.844   2
  -7   0  -4 80.5395 131.279   3
  -7   0  -4-55.6052 111.529   6
  -7   0   4-116.303 112.255   6
  -7  -1  -4 8546.74 469.479   6
  -7   1  -4 8775.91 470.910   6
  -7   1   4 8785.01 631.207   2
  -7  -1   4 7622.50 600.272   2
  -7  -1   4 8452.51 463.024   6
  -7   1   4 8374.49 467.822   6
  -7  -1  -4 8046.47 633.868   3
  -7   1  -4 7245.26 580.124   3
  -7   2   4 841.970 218.697   2
  -7  -2  -4 919.233 231.171   3
  -7   2  -4 836.055 225.606   3
  -7   2  -4 1378.77 204.868   6
  -7  -2   4 1602.69 318.799   2
  -7  -2  -4 1300.04 204.155   6
  -7  -2   4 1147.25 171.562   6
  -7   2   4 1082.31 172.606   6
  -7  -3  -4 24018.2 802.870   6
  -7   3  -4 23848.2 759.782   6
  -7   3   4 18947.0 885.182   2
  -7  -3   4 21970.8 1035.55   2
  -7  -3   4 18022.2 657.637   6
  -7   3   4 22855.8 781.543   6
  -7  -3  -4 25058.9 1140.06   3
  -7   3  -4 21842.9 1017.32   3
  -7  -4   4 679.336 224.006   2
  -7  -4   4 793.367 145.998   5
  -7  -4  -4 470.972 186.992   3
  -7   4  -4 933.908 237.513   3
  -7  -4  -4 479.415 139.293   6
  -7   4  -4 681.262 154.574   6
  -7  -4   4 624.893 154.655   6
  -7   4   4 396.480 146.871   6
  -7  -5  -4 5584.60 402.814   6
  -7   5  -4 5862.31 383.914   6
  -7  -5   4 4818.04 504.264   2
  -7  -5   4 5898.47 378.569   6
  -7   5   4 5642.61 396.755   6
  -7  -5  -4 4466.81 479.086   3
  -7   5  -4 4704.61 477.938   3
  -7  -5   4 5549.08 355.085   5
  -7  -6   4 1256.00 268.412   2
  -7  -6  -4 1322.41 277.322   3
  -7   6  -4 1238.09 258.417   3
  -7  -6  -4 1479.80 219.140   6
  -7   6  -4 1394.49 187.819   6
  -7   6   4 1052.46 191.527   6
   7  -6  -4 1117.03 252.090   1
  -7  -6   4 1514.83 205.766   5
  -7  -7  -4 7524.39 465.640   6
  -7   7  -4 7191.15 411.050   6
  -7  -7   4 6593.76 596.691   2
  -7   7   4 6213.55 424.607   6
  -7  -7  -4 6226.57 569.980   3
  -7   7  -4 6306.36 566.939   3
  -7  -7   4 6923.71 403.487   5
   7  -7  -4 5746.98 577.195   1
  -7  -8  -4 10716.9 547.036   6
  -7  -8   4 9920.96 752.240   2
  -7   8   4 9161.42 512.434   6
  -7  -8  -4 9145.84 701.443   3
  -7   8  -4 9418.65 677.644   3
   7  -8  -4 8969.58 701.387   1
  -7  -8   4 9957.10 491.348   5
  -7  -9  -4 10738.5 547.667   6
  -7  -9   4 9598.12 747.670   2
  -7   9   4 10058.0 538.103   6
  -7  -9  -4 10013.6 745.169   3
   7  -9  -4 9588.94 730.278   1
  -7  -9   4 10382.2 510.160   5
  -7  10   4 2193.06 363.211   3
  -7 -10  -4 3188.57 318.615   6
  -7 -10   4 2649.84 388.534   1
  -7 -10   4 3192.79 449.433   2
  -7  10   4 3074.59 310.340   6
  -7 -10  -4 3078.89 442.033   3
  -7  10  -4 2636.93 370.660   3
  -7 -10   4 3210.97 302.884   5
  -7 -11   4 1003.80 248.668   1
  -7 -11  -4 1425.85 306.746   3
  -7  11  -4 1368.85 281.020   3
  -7  11   4 1246.15 280.665   3
  -7 -11  -4 1633.70 239.891   6
  -7 -11   4 2085.06 388.816   2
  -7  11   4 1674.13 238.501   6
  -7 -11   4 1624.98 218.326   5
  -7 -12   4 1535.98 314.031   1
  -7  12   4 1640.30 347.718   3
  -7 -12  -4 2201.93 282.361   6
  -7  12   4 1716.67 246.252   6
   7  12  -4 1710.93 319.652   4
  -7  12  -4 2006.74 335.758   3
  -7 -12   4 1731.09 225.445   5
  -7 -13   4 301.428 101.858   5
  -7 -13  -4 609.220 167.069   6
   7  13  -4 400.416 193.856   4
  -7  13   4 77.8545 113.694   6
   7 -14   4 3164.98 383.609   5
  -7 -14  -4 2597.89 297.756   6
  -7  14   4 2649.09 294.212   6
  -7 -14   4 2544.57 290.156   5
  -7 -15   4 701.557 165.808   5
   7 -15   4 872.091 248.485   5
  -7  15   4 254.376 116.356   6
  -7 -16   4-38.9522 103.238   5
   7 -16   4 260.961 183.685   5
  -7  16  -4-40.3377 159.251   7
  -7 -17   4-26.5504 101.749   5
   7 -17   4 215.736 167.718   5
  -7  17  -4 5.67221 127.239   7
  -7 -18   4 671.925 176.071   5
   7 -18   4 441.347 192.458   5
  -7  18  -4 766.461 229.974   7
  -7 -19   4 822.222 186.684   5
   7 -19   4 943.578 259.393   5
  -7  19  -4 1544.36 281.568   7
  -7 -20   4-125.530 128.121   5
   7 -20   4-27.6248 143.335   5
  -7  20  -4 129.859 163.943   7
  -7 -21   4 772.993 180.621   5
   7 -21   4 776.425 213.148   5
  -7  21  -4 1014.36 241.564   7
  -8   0  -4 3240.15 323.124   6
  -8   0   4 2250.91 347.563   2
  -8   0   4 3400.71 318.588   6
  -8   0  -4 3007.79 406.436   3
  -8  -1  -4 14798.1 659.918   6
  -8   1  -4 14940.0 647.006   6
  -8   1   4 9268.00 664.805   2
  -8  -1   4 12681.6 813.082   2
  -8  -1   4 14964.6 633.088   6
  -8   1   4 14591.0 641.871   6
  -8  -1  -4 13027.9 840.385   3
  -8   1  -4 9389.70 690.499   3
  -8   2   4 400.342 176.330   2
  -8  -2   4 363.664 202.436   2
  -8  -2  -4 340.870 182.869   3
  -8   2  -4 259.224 139.471   3
  -8  -2  -4 325.085 130.550   6
  -8   2  -4 272.543 130.439   6
  -8  -2   4 555.646 160.003   6
  -8   2   4 241.159 133.446   6
  -8  -3   4 1010.89 254.899   2
  -8  -3  -4 1618.65 328.774   3
  -8   3  -4 1333.62 283.929   3
  -8   3  -4 1986.70 243.153   6
  -8   3   4 1826.35 290.744   2
  -8  -3   4 1696.35 226.512   6
  -8  -3  -4 1572.14 225.069   6
  -8   3   4 1308.28 191.705   6
  -8  -4   4 420.152 175.927   2
  -8  -4  -4 517.675 204.929   3
  -8   4  -4 765.313 219.822   3
  -8  -4  -4 794.653 165.300   6
  -8   4  -4 1081.59 193.779   6
  -8  -4   4 906.927 185.132   6
  -8   4   4 949.736 182.379   6
  -8  -4   4 1085.30 179.164   5
  -8  -5   4 1009.61 244.579   2
  -8  -5  -4 1131.77 296.185   3
  -8   5  -4 1097.26 253.605   3
  -8  -5   4 1395.90 213.231   6
  -8  -5  -4 1196.27 200.873   6
  -8   5  -4 1540.22 218.290   6
  -8   5   4 884.825 175.726   6
  -8  -5   4 1723.73 212.648   5
  -8  -6   4 1523.88 322.114   2
  -8  -6  -4 1333.30 288.735   3
  -8   6  -4 893.477 231.005   3
  -8  -6  -4 2032.02 268.990   6
  -8   6  -4 1592.38 221.207   6
  -8   6   4 1430.62 204.746   6
   8  -6  -4 1476.38 322.490   1
  -8  -6   4 1759.72 218.817   5
  -8   7  -4 1712.12 312.621   3
  -8  -7  -4 3353.14 348.230   6
  -8   7  -4 3371.86 306.005   6
  -8  -7   4 2503.18 384.496   2
  -8   7   4 2554.43 291.215   6
  -8  -7  -4 2561.15 405.297   3
  -8  -7   4 3040.79 293.712   5
   8  -7  -4 2301.69 396.301   1
  -8  -8   4 456.723 190.345   2
  -8  -8   4 684.124 151.069   5
  -8  -8  -4 855.539 259.800   3
   8  -8  -4 724.319 246.867   1
  -8   8  -4 813.277 228.728   3
  -8  -8  -4 640.426 189.660   6
  -8   8   4 149.711 110.191   6
  -8  -9   4 658.147 158.428   5
  -8   9  -4 537.975 184.344   3
  -8  -9  -4 788.181 187.435   6
  -8   9   4 325.605 128.279   6
   8  -9  -4 613.935 224.313   1
   8 -10  -4 1745.60 371.277   1
  -8 -10  -4 1747.57 255.082   6
  -8  10   4 1521.21 224.956   6
  -8 -10   4 1707.81 238.331   5
  -8 -11  -4 5536.47 422.327   6
  -8  11   4 4625.44 392.784   6
  -8 -11   4 5198.35 415.609   5
  -8 -12   4 1189.23 220.569   5
  -8 -12  -4 1750.46 263.352   6
  -8  12   4 1418.40 230.295   6
  -8  13   4 1581.58 249.096   6
  -8 -13  -4 1070.34 207.623   6
  -8 -13   4 1645.01 250.066   5
  -8 -14   4 413.565 168.285   5
  -8  14   4 555.713 172.033   6
  -8 -15   4 760.060 182.126   5
   8 -15   4 888.977 257.594   5
  -8  15   4 828.735 200.013   6
  -8 -16   4 488.627 159.272   5
   8 -16   4 1112.80 290.635   5
   8 -17   4 3273.83 411.051   5
  -8 -17   4 3578.35 380.766   5
  -8 -18   4 612.653 183.568   5
   8 -18   4 563.811 214.353   5
   8 -19   4 1392.12 292.488   5
  -8 -19   4 1639.84 277.449   5
  -8 -20   4-39.2515 107.089   5
   8 -20   4 275.508 201.767   5
  -8  20  -4 37.4847 125.040   7
  -9   0   4 46.4354 149.114   2
  -9   0  -4 239.697 154.206   3
  -9   0  -4-41.0504 125.548   6
  -9   0   4 257.133 135.436   6
  -9   1   4 2632.36 388.419   2
  -9  -1  -4 3157.43 329.539   6
  -9   1  -4 3148.31 323.670   6
  -9  -1   4 3406.47 460.271   2
  -9  -1   4 2947.78 308.284   6
  -9   1   4 3063.70 317.159   6
  -9  -1  -4 2562.88 408.290   3
  -9   1  -4 2991.92 422.049   3
  -9   2  -4 3010.57 303.617   6
  -9   2   4 2900.86 409.098   2
  -9  -2  -4 2797.38 320.207   6
  -9  -2   4 3004.95 434.469   2
  -9  -2   4 3219.89 327.784   6
  -9   2   4 3190.69 323.055   6
  -9  -3  -4 11557.8 622.496   6
  -9   3  -4 10210.4 551.512   6
  -9  -3   4 10423.8 776.278   2
  -9  -3   4 10880.8 568.014   6
  -9   3   4 10898.5 578.034   6
  -9  -4  -4 3371.55 339.212   6
  -9   4  -4 2895.04 298.806   6
  -9  -4   4 3269.87 326.661   6
  -9   4   4 2937.08 317.011   6
  -9  -5   4 1457.68 238.137   6
  -9  -5  -4 1198.05 222.108   6
  -9   5  -4 1285.84 223.577   6
  -9   5   4 1083.24 212.931   6
  -9  -5   4 1404.40 212.624   5
  -9  -6   4 221.586 100.836   5
   9  -6  -4 70.7846 151.896   1
  -9  -6  -4 423.368 174.209   6
  -9   6  -4 41.3524 131.704   6
  -9   6   4 279.614 130.937   6
  -9  -7  -4 1123.35 222.999   6
  -9   7  -4 1338.50 211.036   6
  -9   7   4 1100.64 224.405   6
  -9  -7   4 1481.52 224.050   5
  -9  -8   4 28.1702 110.336   5
  -9  -8  -4 67.8488 148.165   6
  -9   8   4 344.007 163.418   6
  -9  -9  -4 3705.72 372.149   6
  -9   9   4 2968.41 330.362   6
  -9  -9   4 3070.09 316.932   5
  -9 -10   4 628.758 173.688   5
  -9 -10  -4 404.578 159.808   6
  -9  10   4 346.408 166.799   6
  -9 -11  -4 2168.43 283.881   6
  -9  11   4 1681.06 263.233   6
  -9 -11   4 2029.77 267.488   5
  -9 -12   4 366.389 147.048   5
  -9 -12  -4 920.619 207.596   6
  -9  12   4 837.032 200.741   6
  -9 -13   4 990.885 216.682   5
  -9 -13  -4 785.462 192.954   6
  -9  13   4 887.514 209.127   6
  -9 -14   4 189.345 107.550   5
  -9  14   4 236.804 117.198   6
  -9  15   4 2112.80 292.625   6
  -9 -15   4 2160.38 304.009   5
  -9 -16   4 77.0582 101.541   5
   9 -16   4 137.839 161.533   5
  -9 -17   4 80.2095 102.125   5
   9 -17   4 286.815 185.367   5
  -9 -18   4 280.479 147.481   5
   9 -18   4 115.594 171.463   5
 -10   0  -4 848.379 193.133   6
 -10   0   4 965.425 233.776   6
 -10  -1  -4 13261.9 679.458   6
 -10   1  -4 12960.3 664.188   6
 -10  -1   4 13727.6 697.551   6
 -10   1   4 13386.1 682.591   6
 -10  -2  -4 587.771 178.914   6
 -10   2  -4 518.538 155.108   6
 -10  -2   4 705.474 188.195   6
 -10   2   4 577.860 173.259   6
 -10  -3  -4-247.726 181.770   6
 -10   3  -4-43.0418 160.078   6
 -10  -3   4 15.6255 103.079   6
 -10   3   4 183.255 138.484   6
 -10  -4  -4 200.072 144.848   6
 -10   4  -4-108.503 172.282   6
 -10  -4   4 123.644 117.299   6
 -10   4   4 349.982 170.619   6
 -10  -5  -4 4021.59 390.567   6
 -10   5  -4 3664.47 352.063   6
 -10  -5   4 4032.21 369.483   6
 -10   5   4 3516.25 365.390   6
 -10  -5   4 3961.23 368.973   5
 -10  -6   4 616.252 160.874   5
 -10  -6  -4 643.809 185.257   6
 -10   6  -4 594.739 173.799   6
 -10   6   4 771.973 198.300   6
 -10  -7  -4 1042.33 231.824   6
 -10   7  -4 1226.04 222.957   6
 -10   7   4 982.820 228.146   6
 -10  -8   4 330.420 143.880   5
 -10  -8  -4 441.951 180.867   6
 -10   8   4 478.687 183.279   6
 -10  -9   4 463.350 159.857   5
 -10  -9  -4 605.297 189.500   6
 -10   9   4 325.409 166.452   6
 -10 -10   4 359.660 145.517   5
 -10 -10  -4 437.188 199.623   6
 -10  10   4 319.037 147.085   6
 -10 -11  -4 2447.65 319.158   6
 -10  11   4 1952.65 284.869   6
 -10 -11   4 2328.31 310.536   5
 -10 -12   4 7.09961 109.283   5
 -10 -12  -4 300.792 149.357   6
 -10  12   4 146.322 129.621   6
 -10 -13   4 461.907 152.649   5
 -10  13   4 404.477 159.350   6
 -10 -14   4 87.9489 89.5774   5
 -10  14   4 293.556 174.314   6
 -10 -15   4 63.2152 105.002   5
 -10  15   4 215.805 140.637   6
 -10 -16   4 1104.11 241.137   5
 -11   0  -4-2.19365 152.732   6
 -11   0   4 265.421 142.090   6
 -11  -1  -4 383.715 139.596   6
 -11   1  -4 349.024 158.367   6
 -11  -1   4 658.258 193.655   6
 -11   1   4 737.923 194.894   6
 -11  -2  -4 83.0226 126.952   6
 -11   2  -4-105.718 162.125   6
 -11  -2   4-15.4505 109.377   6
 -11   2   4 110.220 137.049   6
 -11  -3  -4 2787.20 340.615   6
 -11   3  -4 2563.08 312.881   6
 -11  -3   4 2162.00 301.509   6
 -11   3   4 2553.02 327.232   6
 -11   4  -4 150.119 137.280   6
 -11  -4   4 145.253 90.4517   6
 -11   4   4 346.628 148.792   6
 -11  -5  -4 221.732 138.364   6
 -11   5  -4 302.553 123.550   6
 -11   5   4 135.272 116.151   6
 -11  -6   4 573.059 176.953   5
 -11  -6  -4 450.805 190.662   6
 -11   6  -4 242.297 112.355   6
 -11   6   4 154.216 144.739   6
 -11  -7  -4 2782.07 353.685   6
 -11   7  -4 2671.03 317.245   6
 -11   7   4 2508.25 341.510   6
 -11  -7   4 2562.42 327.512   5
 -11  -8   4 227.043 128.916   5
 -11  -8  -4 184.993 142.853   6
 -11   8   4 231.669 166.690   6
 -11  -9  -4 3340.24 395.549   6
 -11   9   4 2959.50 367.355   6
 -11  -9   4 2639.64 330.418   5
 -11 -10   4 414.523 160.493   5
 -11 -10  -4 449.918 183.346   6
 -11  10   4 667.166 220.363   6
 -11 -11   4 55.1733 101.394   5
 -11 -11  -4 20.4532 130.459   6
 -11  11   4-12.3868 117.495   6
 -11 -12   4 188.596 109.127   5
 -11 -12  -4 60.9328 131.823   6
 -11  12   4 179.424 130.427   6
 -11  13   4 1471.82 265.325   6
 -11 -13   4 2135.35 304.691   5
 -12   0  -4 1066.11 238.847   6
 -12   0   4 1538.59 265.105   6
 -12  -1  -4 2125.60 311.919   6
 -12   1  -4 3333.11 384.988   6
 -12  -1   4 3076.73 372.087   6
 -12   1   4 3173.99 367.452   6
 -12  -2  -4 611.046 186.624   6
 -12   2  -4 793.406 217.546   6
 -12  -2   4 515.928 170.581   6
 -12   2   4 579.370 182.397   6
 -12  -3  -4 239.302 139.292   6
 -12   3  -4 370.419 163.338   6
 -12  -3   4 192.487 105.402   6
 -12   3   4 619.006 181.486   6
 -12  -4  -4 197.458 177.752   6
 -12   4  -4-193.900 161.605   6
 -12  -4   4-15.0513 118.324   6
 -12   4   4-55.8254 113.370   6
 -12  -5  -4 1250.79 272.381   6
 -12   5  -4 949.380 190.424   6
 -12   5   4 1541.36 264.692   6
 -12  -6  -4 669.582 211.345   6
 -12   6  -4 793.369 200.315   6
 -12   6   4 855.774 215.289   6
 -12  -7  -4 2828.75 375.255   6
 -12   7  -4 2168.06 304.547   6
 -12   7   4 2385.23 333.997   6
 -12  -7   4 2623.93 328.099   5
 -12  -8   4 634.840 179.788   5
 -12  -8  -4 941.984 253.436   6
 -12   8   4 660.870 192.963   6
 -12  -9   4 356.561 158.990   5
 -12  -9  -4 322.112 177.833   6
 -12   9   4 262.689 142.884   6
 -12 -10   4-65.8974 131.652   5
 -12 -10  -4-18.8898 139.165   6
 -13   0   4-80.4813 108.813   6
 -13  -1   4 138.557 136.923   6
 -13  -2   4 1647.30 288.833   6
 -13  -3   4 907.330 231.544   6
   0   0   5 238.805 143.167   2
   0   0  -5 54.6738 133.179   4
   0  -1  -5 42335.7 1471.31   4
   0  -1  -5 38313.9 1077.38   3
   0   1  -5 39545.2 1346.60   4
   0  -1   5 33589.3 1182.85   2
   0   1   5 34345.4 1177.58   2
   0  -2   5 48.7315 186.047   2
   0   2   5 23.4838 122.759   2
   0  -2  -5 258.500 169.588   4
   0   2  -5 114.615 139.308   4
   0  -3  -5 17937.3 949.022   4
   0   3  -5 17880.6 932.502   4
   0  -3   5 16170.6 840.453   2
   0   3   5 14865.2 761.979   2
   0  -4   5 26.4358 160.424   2
   0   4   5-64.0091 134.633   2
   0  -4  -5 212.606 179.740   4
   0   4  -5-0.56280 127.938   4
   0  -5  -5 12544.0 781.663   4
   0   5  -5 11778.9 757.138   4
   0  -5   5 10106.4 679.477   2
   0   5   5 10485.7 633.340   2
   0  -6   5-161.495 146.462   2
   0  -6  -5-133.857 144.678   4
   0   6  -5 3.48074 123.119   4
   0  -7  -5 20781.9 1045.92   4
   0   7  -5 19037.4 979.202   4
   0  -7   5 18300.3 931.143   2
   0  -8   5-45.0374 166.867   2
   0  -8   5 147.501 96.5894   5
   0  -8  -5-21.5371 140.739   4
   0   8  -5 35.7898 167.217   4
   0  -9   5 267.667 176.756   2
   0  -9   5 261.768 98.5948   5
   0  -9  -5 307.587 142.525   4
   0   9  -5 377.334 187.479   4
   0 -10   5-133.031 188.849   2
   0 -10   5 89.9586 100.079   5
   0 -10  -5 121.885 164.295   4
   0  10  -5 66.9658 141.185   4
   0 -11  -5 7500.62 669.836   4
   0  11  -5 7203.00 638.074   4
   0 -11   5 7611.11 639.772   2
   0 -11   5 7458.10 413.262   5
   0 -12   5 252.650 202.921   2
   0 -12   5 77.8822 86.4407   5
   0 -12  -5-29.4588 113.112   4
   0  12  -5 141.231 170.267   4
   0 -13  -5 3377.09 477.409   4
   0  13  -5 4794.02 370.643   7
   0  13  -5 4125.55 513.481   4
   0 -13   5 3078.91 428.828   2
   0 -13   5 5092.19 363.387   5
   0 -14   5 561.868 221.338   2
   0 -14   5 127.193 102.913   5
   0 -14  -5 180.232 149.365   4
   0  14  -5-69.5319 107.159   7
   0  14  -5 575.926 224.739   4
   0  15  -5 4959.27 380.562   7
   0 -15   5 4524.94 512.727   2
   0 -15   5 5187.17 387.504   5
   0 -16   5 138.308 127.350   5
   0  16  -5 2.00098 96.5346   7
   0  17  -5 2516.40 284.010   7
   0 -17   5 2696.12 305.129   5
   0 -18   5 34.8368 130.166   5
   0 -19   5 10.5507 153.178   5
   0 -20   5-209.458 158.547   5
   0 -21   5 5.38727 127.247   5
   0 -22   5-9.82358 109.182   5
   0 -23   5 11.7312 146.609   5
  -1   0  -5-88.7075 101.400   3
  -1   0   5 84.8833 135.844   2
   1   0   5-70.2079 145.392   2
  -1   0  -5-58.4019 159.978   4
   1   0  -5-127.905 158.016   4
  -1  -1   5 2183.48 318.712   2
  -1   1   5 1907.32 296.543   2
   1  -1   5 1970.09 323.193   2
  -1  -1  -5 2490.13 369.143   4
   1  -1  -5 2311.06 378.986   4
  -1   1  -5 2442.53 375.429   4
   1   1  -5 2652.98 365.464   4
  -1  -1  -5 3128.82 323.097   3
   1   1   5 2303.11 338.621   2
  -1  -2  -5 999.900 212.325   3
  -1  -2   5 798.403 217.019   2
  -1   2   5 519.014 174.438   2
   1  -2   5 713.616 227.041   2
   1   2   5 515.532 216.390   2
  -1  -2  -5 755.265 262.743   4
   1  -2  -5 649.275 200.577   4
  -1   2  -5 1088.96 257.391   4
   1   2  -5 911.786 248.881   4
  -1  -3  -5 20819.2 998.092   4
  -1   3  -5 19305.9 956.827   4
   1   3  -5 19559.5 959.455   4
  -1  -3  -5 20146.7 841.960   3
  -1  -3   5 18633.1 908.056   2
  -1   3   5 18697.4 857.289   2
   1  -3   5 19537.0 956.390   2
   1   3   5 17622.8 860.694   2
  -1  -4   5 1611.07 277.521   2
   1  -4   5 1780.04 312.169   2
   1   4   5 1153.77 243.419   2
  -1  -4  -5 2138.44 344.220   4
   1  -4  -5 2414.72 357.115   4
  -1   4  -5 1934.81 336.721   4
   1   4  -5 1781.45 319.332   4
  -1  -4  -5 2225.41 303.911   3
  -1   4   5 1896.66 291.959   2
  -1  -5  -5 4011.18 464.285   4
   1  -5  -5 3438.62 422.423   4
  -1   5  -5 3974.44 457.403   4
   1   5  -5 3198.00 410.961   4
  -1  -5  -5 3739.27 385.551   3
  -1  -5   5 3544.77 411.053   2
  -1   5   5 3770.78 377.631   2
   1  -5   5 3950.48 459.897   2
   1   5   5 3302.98 375.847   2
  -1  -6   5-298.001 187.153   2
   1  -6   5-105.224 188.055   2
  -1  -6  -5-75.1174 134.943   4
   1  -6  -5 40.4211 125.541   4
  -1   6  -5 77.5878 135.158   4
   1   6  -5-53.1001 137.693   4
  -1  -7  -5 7842.63 665.035   4
   1  -7  -5 7307.34 637.025   4
  -1   7  -5 7702.35 645.376   4
   1   7  -5 7701.42 651.899   4
  -1  -7   5 7342.92 613.804   2
   1  -7   5 7079.26 598.406   2
   1  -7   5 7343.28 363.885   5
   1  -8   5 1258.24 295.630   2
  -1  -8  -5 1056.15 274.823   4
   1  -8  -5 1204.95 279.817   4
  -1   8  -5 868.968 226.551   4
   1   8  -5 995.918 282.849   4
  -1  -8   5 1575.01 327.991   2
  -1  -8   5 1037.66 151.281   5
   1  -8   5 1091.09 157.308   5
  -1  -9  -5 10561.5 805.625   4
   1  -9  -5 11492.5 833.797   4
  -1   9  -5 10036.8 735.972   4
   1   9  -5 10228.5 737.158   4
  -1  -9   5 10777.1 745.559   2
   1  -9   5 10453.4 736.029   2
  -1  -9   5 10452.3 461.288   5
   1  -9   5 10670.8 464.659   5
  -1 -10   5 1320.75 305.740   2
  -1 -10   5 781.679 146.737   5
   1 -10   5 905.900 244.583   2
  -1 -10  -5 1091.76 288.056   4
   1 -10  -5 1309.74 307.337   4
  -1  10  -5 1096.72 288.686   4
   1  10  -5 1002.27 257.159   4
   1 -10   5 1238.96 190.598   5
   1 -11   5 1903.60 345.480   2
  -1 -11  -5 1895.33 362.405   4
   1 -11  -5 2131.14 384.181   4
  -1  11  -5 1837.14 345.510   4
   1  11  -5 1542.57 311.210   4
  -1 -11   5 2151.53 360.375   2
  -1 -11   5 2075.73 232.510   5
   1 -11   5 1829.82 224.758   5
  -1 -12   5 169.672 173.859   2
  -1 -12   5 81.5286 80.3531   5
   1 -12   5-49.4400 185.277   2
   1 -12   5 262.649 144.471   5
  -1 -12  -5 21.7729 138.243   4
   1 -12  -5 125.878 181.972   4
  -1  12  -5-27.0313 141.785   4
   1  12  -5 115.932 192.543   4
   1 -13   5 1786.81 320.057   2
  -1 -13  -5 3416.47 492.313   4
   1 -13  -5 2209.57 375.961   4
  -1  13  -5 2914.64 297.420   7
  -1  13  -5 2746.27 420.383   4
   1  13  -5 2446.31 398.030   4
  -1 -13   5 1930.39 332.644   2
  -1 -13   5 2753.66 277.984   5
   1 -13   5 2955.04 291.277   5
  -1 -14   5 283.013 151.051   2
   1 -14   5 171.386 149.849   2
  -1 -14   5 18.3174 106.850   5
   1 -14   5 421.523 145.753   5
  -1  14  -5 312.143 133.123   7
  -1 -14  -5 300.477 255.393   4
   1 -14  -5-70.3662 174.526   4
  -1  14  -5 205.610 184.192   4
   1  14  -5 298.581 203.549   4
  -1  15  -5 3001.70 315.339   7
  -1  15  -5 3474.37 479.174   4
  -1 -15   5 3349.81 436.574   2
   1 -15   5 2851.45 422.405   2
  -1 -15   5 3253.55 317.392   5
   1 -15   5 3203.88 316.602   5
  -1  16  -5 1770.56 251.414   7
  -1 -16   5 1732.70 243.973   5
   1 -16   5 1766.86 256.546   5
  -1 -17   5-26.5147 129.156   5
   1 -17   5 362.625 142.212   5
  -1  17  -5 219.010 136.659   7
  -1 -18   5 274.024 162.285   5
   1 -18   5 89.6275 133.307   5
  -1  18  -5 311.639 156.691   7
  -1  19  -5 2716.25 323.285   7
  -1 -19   5 2656.54 317.938   5
   1 -19   5 2620.26 321.222   5
  -1 -20   5-104.163 140.343   5
   1 -20   5 96.4519 140.248   5
  -1  20  -5 105.127 125.086   7
  -1  21  -5 2778.86 323.836   7
  -1 -21   5 3233.77 363.795   5
   1 -21   5 3131.35 355.765   5
  -1 -22   5-74.2048 121.227   5
   1 -22   5 144.935 133.831   5
  -1  22  -5-43.1966 139.915   7
  -1 -23   5 389.815 160.291   5
   1 -23   5 408.744 144.748   5
  -1  23  -5 481.777 187.721   7
  -2   0  -5 7235.93 605.107   4
   2   0  -5 6589.93 559.978   4
  -2   0  -5 6404.33 471.222   3
  -2   0   5 5850.18 497.788   2
   2   0   5 5714.04 558.880   2
  -2  -1  -5 14796.4 863.001   4
  -2   1  -5 15400.3 879.898   4
   2  -1  -5 15247.2 871.422   4
   2   1  -5 13461.8 786.846   4
  -2  -1  -5 13728.1 693.828   3
  -2   1  -5 13282.8 659.722   3
  -2   1   5 13213.6 723.342   2
  -2  -1   5 12162.0 715.808   2
   2  -1   5 11918.1 777.685   2
   2   1   5 11257.6 747.720   2
  -2  -2  -5 2920.56 383.879   4
   2  -2  -5 3048.61 408.743   4
  -2   2  -5 2313.43 336.074   4
   2   2  -5 2855.05 372.887   4
  -2  -2  -5 2940.86 327.043   3
  -2   2  -5 3186.36 330.014   3
  -2   2   5 2971.67 354.062   2
  -2  -2   5 2572.09 349.550   2
   2  -2   5 2412.51 398.101   2
  -2  -3  -5 446.665 177.340   3
  -2   3   5 648.016 201.972   2
  -2  -3   5 600.234 241.605   2
   2  -3   5 173.257 218.679   2
  -2  -3  -5 159.669 133.893   4
   2  -3  -5 346.318 167.226   4
  -2   3  -5 346.679 182.564   4
   2   3  -5 262.965 180.070   4
  -2  -4  -5 10385.1 718.527   4
   2  -4  -5 10970.6 734.529   4
  -2   4  -5 10498.3 714.268   4
   2   4  -5 10275.9 705.044   4
  -2  -4  -5 10156.3 638.585   3
  -2   4   5 9923.79 594.385   2
  -2  -4   5 9404.38 647.783   2
   2  -4   5 8704.94 687.005   2
  -2  -5  -5 3538.40 450.565   4
   2  -5  -5 3906.77 449.433   4
  -2   5  -5 3447.76 420.036   4
   2   5  -5 3681.08 454.142   4
  -2  -5  -5 3810.84 408.835   3
  -2  -5   5 3727.17 435.422   2
   2  -5   5 3108.60 420.798   2
  -2  -6  -5 857.235 217.266   3
  -2  -6   5 532.041 205.958   2
   2  -6   5 935.232 285.591   2
   2   6   5 760.602 208.067   2
  -2  -6  -5 819.133 235.424   4
   2  -6  -5 914.279 236.165   4
  -2   6  -5 664.810 199.197   4
   2   6  -5 598.212 194.711   4
  -2  -7  -5 3077.01 443.454   4
   2  -7  -5 3327.06 436.308   4
  -2   7  -5 3124.92 408.473   4
   2   7  -5 3804.75 453.350   4
  -2  -7  -5 3226.33 396.899   3
  -2  -7   5 3071.68 391.291   2
   2  -7   5 3008.03 431.228   2
   2  -7   5 3157.02 252.022   5
  -2  -8  -5 885.659 232.413   3
  -2  -8   5 837.379 232.750   2
  -2  -8   5 517.861 111.268   5
   2  -8   5 705.512 142.965   5
   2  -8   5 731.114 252.789   2
  -2  -8  -5 1030.90 304.403   4
   2  -8  -5 697.119 216.737   4
  -2   8  -5 812.350 260.349   4
   2   8  -5 830.174 263.222   4
  -2  -9   5 676.315 237.460   2
  -2  -9   5 598.250 124.442   5
   2  -9   5 427.436 192.785   2
   2  -9   5 488.014 132.903   5
  -2  -9  -5 960.838 282.452   4
   2  -9  -5 635.793 213.103   4
  -2   9  -5 521.514 199.059   4
   2   9  -5 903.068 266.806   4
   2 -10   5 1490.80 335.872   2
  -2 -10  -5 2232.63 385.383   4
   2  10  -5 2066.05 358.947   4
   2 -10  -5 1937.58 358.344   4
  -2  10  -5 2062.56 342.518   4
  -2 -10   5 2089.86 340.120   2
  -2 -10   5 1593.92 191.994   5
   2 -10   5 2069.85 224.262   5
  -2 -11  -5 8738.95 750.674   4
   2 -11  -5 8647.92 710.984   4
  -2  11  -5 8405.74 706.716   4
   2  11  -5 7878.40 678.161   4
  -2 -11   5 8519.82 658.964   2
   2 -11   5 8735.18 704.693   2
  -2 -11   5 8757.48 454.245   5
   2 -11   5 8860.97 461.507   5
  -2 -12   5 1196.59 270.884   2
  -2 -12   5 1057.38 171.496   5
   2 -12   5 1543.31 323.350   2
   2 -12   5 1022.07 180.207   5
  -2 -12  -5 1479.43 349.934   4
   2 -12  -5 911.270 257.940   4
  -2  12  -5 543.762 233.743   4
   2  12  -5 1005.11 285.102   4
  -2 -13  -5 6041.28 649.759   4
   2 -13  -5 5360.15 605.245   4
  -2  13  -5 4656.07 535.929   4
   2  13  -5 5689.67 601.459   4
  -2 -13   5 3925.67 464.339   2
   2 -13   5 3874.25 470.707   2
  -2 -13   5 5698.73 387.689   5
   2 -13   5 5075.21 371.462   5
  -2 -14   5 721.306 226.466   2
  -2 -14   5 666.355 157.184   5
   2 -14   5 684.333 224.901   2
   2 -14   5 784.431 183.160   5
  -2  14  -5 1087.95 209.620   7
   2 -14  -5 1056.42 298.515   4
  -2  14  -5 1095.73 302.338   4
  -2 -15   5 134.933 149.932   2
  -2 -15   5 5.13049 100.881   5
   2 -15   5 110.757 118.387   5
  -2  15  -5 55.1124 104.284   7
   2 -15  -5 454.881 261.965   4
  -2  15  -5 196.135 178.345   4
  -2 -16   5 482.338 142.493   5
   2 -16   5 998.771 222.519   5
  -2  16  -5 615.317 185.391   7
  -2  17  -5 6099.21 457.296   7
  -2 -17   5 6028.49 449.551   5
   2 -17   5 6373.86 465.388   5
  -2  18  -5 2169.76 289.211   7
  -2 -18   5 1848.82 265.742   5
   2 -18   5 2262.96 303.478   5
  -2  19  -5 3260.47 362.832   7
  -2 -19   5 3187.31 349.627   5
   2 -19   5 2979.62 339.371   5
  -2 -20   5 98.1400 123.473   5
   2 -20   5 384.408 167.915   5
  -2  20  -5 327.817 156.905   7
  -2 -21   5 120.664 123.510   5
   2 -21   5 37.2636 107.338   5
  -2  21  -5-59.6049 96.5228   7
  -2 -22   5 355.909 174.495   5
   2 -22   5 545.664 205.000   5
  -2  22  -5 466.545 168.328   7
  -2 -23   5 1162.53 253.146   5
   2 -23   5 828.053 217.809   5
  -2  23  -5 747.982 196.815   7
  -3   0  -5 59.9872 118.728   3
  -3   0   5 78.8820 136.909   2
  -3   0  -5 171.080 154.982   4
   3   0  -5-56.6763 122.979   4
  -3   0  -5 192.596 117.046   6
  -3  -1  -5 6896.67 586.136   4
  -3   1  -5 7116.92 616.996   4
   3  -1  -5 6645.46 579.962   4
   3   1  -5 7476.25 599.926   4
  -3  -1  -5 7592.70 415.209   6
  -3   1  -5 6804.12 390.628   6
  -3   1   5 5877.12 486.758   2
  -3  -1   5 5253.58 468.743   2
  -3  -1  -5 6591.61 506.331   3
  -3   1  -5 7030.54 507.523   3
  -3  -2  -5 12043.6 764.810   4
   3  -2  -5 12568.5 808.142   4
  -3   2  -5 12631.1 818.219   4
   3   2  -5 11291.5 734.314   4
  -3  -2  -5 10537.1 499.674   6
  -3   2  -5 10875.8 483.346   6
  -3   2   5 10284.4 610.779   2
  -3  -2   5 10082.0 650.735   2
  -3  -2  -5 10710.3 651.883   3
  -3   2  -5 12061.9 663.964   3
  -3  -3  -5 8883.84 671.274   4
   3  -3  -5 10084.0 722.166   4
  -3   3  -5 10222.1 727.491   4
  -3  -3  -5 10551.4 494.122   6
  -3   3  -5 10081.2 462.716   6
   3   3  -5 9793.61 692.270   4
  -3   3   5 9307.81 583.718   2
  -3  -3   5 9032.86 617.487   2
  -3  -3  -5 9822.79 634.981   3
  -3   3  -5 10266.6 600.703   3
  -3  -4  -5 4559.19 498.559   4
   3  -4  -5 5199.58 509.852   4
  -3   4  -5 4556.96 475.549   4
  -3  -4  -5 4887.59 353.088   6
  -3   4  -5 5501.58 343.866   6
   3   4  -5 5753.86 541.993   4
  -3   4   5 4250.61 381.535   2
  -3  -4  -5 5124.82 454.689   3
  -3  -4   5 4141.77 441.611   2
  -3  -5  -5 173.883 131.825   3
  -3  -5   5 69.1136 129.134   2
  -3  -5  -5 379.049 176.939   4
   3  -5  -5 424.089 188.736   4
  -3  -5  -5 597.035 171.816   6
  -3   5  -5 312.279 128.136   6
  -3   5  -5 148.063 138.107   4
   3   5  -5 117.635 132.407   4
  -3  -6  -5 911.511 219.531   3
  -3  -6   5 788.717 215.619   2
   3  -6   5 850.026 282.102   2
  -3  -6  -5 1182.86 266.205   4
   3  -6  -5 977.301 262.292   4
  -3   6  -5 1061.07 256.328   4
   3   6  -5 745.594 222.327   4
   3  -7   5 6222.08 371.061   5
  -3  -7  -5 7536.72 701.636   4
   3  -7  -5 6759.44 600.145   4
  -3   7  -5 6856.46 599.985   4
   3   7  -5 6226.19 593.811   4
  -3  -7  -5 6705.62 564.984   3
  -3  -7   5 5880.09 527.261   2
   3  -7   5 5989.16 604.380   2
   3  -8   5 4686.56 332.887   5
  -3  -8  -5 4710.46 550.320   4
   3  -8  -5 5355.10 532.826   4
  -3   8  -5 3808.37 451.571   4
   3   8  -5 5032.12 547.540   4
  -3  -8  -5 4856.75 488.855   3
  -3  -8   5 4571.60 459.272   2
   3  -8   5 4869.64 554.572   2
  -3  -8   5 5537.15 339.904   5
   3  -9   5 13606.2 570.859   5
  -3  -9  -5 16455.7 983.218   4
   3  -9  -5 12175.6 848.648   4
  -3   9  -5 10680.6 745.124   4
   3   9  -5 15071.7 901.630   4
  -3  -9  -5 14715.7 867.079   3
  -3  -9   5 12985.3 787.462   2
   3  -9   5 14500.7 915.939   2
  -3  -9   5 15610.5 578.575   5
   3 -10   5 2140.37 243.689   5
  -3 -10  -5 1560.08 306.946   3
   3 -10   5 1856.70 359.589   2
  -3 -10  -5 1780.39 340.489   4
   3 -10  -5 1535.09 318.327   4
  -3  10  -5 1381.82 298.115   4
   3  10  -5 1191.58 275.193   4
  -3 -10   5 1902.22 315.053   2
  -3 -10   5 2244.51 236.440   5
  -3 -11   5 692.490 205.863   2
  -3 -11   5 882.303 171.911   5
   3 -11   5 880.944 186.113   5
   3 -11   5 613.299 252.465   2
  -3 -11  -5 1166.92 288.468   4
   3 -11  -5 562.833 209.674   4
  -3  11  -5 703.332 210.716   4
   3  11  -5 714.759 229.465   4
  -3 -12   5-117.277 161.771   2
  -3 -12   5 142.116 123.883   5
   3 -12   5 92.8895 156.721   2
   3 -12   5-11.2959 111.088   5
  -3 -12  -5 71.9979 144.926   4
   3 -12  -5 108.024 152.546   4
  -3  12  -5 77.1842 147.989   4
   3  12  -5 40.3964 131.467   4
  -3 -13   5 1007.76 277.396   2
   3 -13   5 1207.26 306.530   2
   3 -13   5 1109.68 193.988   5
  -3 -13  -5 1031.52 303.662   4
   3 -13  -5 1493.74 317.616   4
   3  13  -5 1579.80 331.408   4
  -3 -13   5 1104.97 197.436   5
  -3 -14   5-2.01784 142.890   2
  -3 -14   5 204.005 104.927   5
   3 -14   5 303.585 226.762   2
   3 -14   5 118.239 122.954   5
   3 -14  -5 12.4806 146.028   4
  -3 -15   5 1331.03 219.418   5
   3 -15   5 1487.06 236.292   5
  -3  15  -5 1187.86 227.322   7
  -3 -16   5 434.391 158.629   5
   3 -16   5 515.361 148.252   5
  -3  16  -5 638.614 199.935   7
  -3 -17   5 137.025 126.483   5
   3 -17   5 1.95534 138.272   5
  -3  17  -5 174.732 146.607   7
  -3 -18   5 437.771 164.379   5
   3 -18   5 378.088 160.759   5
  -3  18  -5 15.8863 115.148   7
   3 -19   5 1514.80 256.053   5
  -3  19  -5 1567.16 269.064   7
  -3 -19   5 1750.04 280.406   5
  -3 -20   5 173.149 143.311   5
   3 -20   5 289.873 156.444   5
  -3  20  -5 92.5120 112.456   7
  -3 -21   5 737.260 193.920   5
   3 -21   5 783.796 204.256   5
  -3  21  -5 839.633 217.044   7
  -3 -22   5 534.887 194.508   5
   3 -22   5 240.504 152.611   5
  -3  22  -5 161.346 158.616   7
  -4   0  -5 293.160 159.992   3
  -4   0   5 279.990 134.816   2
  -4   0  -5 171.452 127.704   4
   4   0  -5 254.631 162.385   4
  -4   0  -5 516.903 152.706   6
  -4  -1  -5 24523.4 1079.22   4
  -4   1  -5 26102.2 1141.72   4
   4  -1  -5 24616.2 1105.69   4
   4   1  -5 24917.8 1077.20   4
  -4  -1  -5 23030.4 733.544   6
  -4   1  -5 23639.1 725.225   6
  -4   1   5 21784.8 937.630   2
  -4  -1   5 21559.1 950.485   2
  -4  -1  -5 22796.9 973.314   3
  -4   1  -5 24788.5 999.675   3
  -4  -2  -5 25.9504 115.964   3
  -4   2   5-75.9577 117.964   2
  -4   2  -5 155.974 144.100   3
  -4  -2   5 139.268 135.391   2
  -4  -2  -5-69.0875 127.677   4
  -4   2  -5 356.517 172.355   4
   4  -2  -5 187.330 201.090   4
  -4  -2  -5 190.665 133.527   6
  -4   2  -5 358.859 143.553   6
   4   2  -5 65.6746 136.331   4
  -4  -3  -5 2824.63 406.512   4
   4  -3  -5 3062.21 407.663   4
  -4   3  -5 2173.91 347.292   4
   4   3  -5 3253.48 428.035   4
  -4  -3  -5 2735.26 272.391   6
  -4   3  -5 3055.34 266.680   6
  -4  -3   5 2739.60 273.685   6
  -4   3   5 2654.25 334.294   2
  -4  -3   5 2609.71 352.122   2
  -4  -3  -5 2740.62 352.853   3
  -4   3  -5 3016.83 363.829   3
  -4  -4   5 956.901 224.388   2
  -4   4  -5 1317.01 249.432   3
  -4  -4  -5 1559.66 219.610   6
  -4   4  -5 1385.60 201.576   6
  -4  -4  -5 1124.03 245.959   4
   4  -4  -5 1405.82 286.447   4
  -4   4  -5 864.771 219.436   4
  -4  -4   5 1841.89 231.631   6
   4   4  -5 1474.52 301.745   4
  -4  -4  -5 1851.26 310.123   3
  -4  -5  -5 11182.3 788.192   4
   4  -5  -5 9421.77 675.212   4
  -4  -5  -5 9466.05 496.247   6
  -4   5  -5 9547.56 452.837   6
   4   5  -5 9887.91 716.840   4
  -4  -5   5 9116.75 661.203   2
  -4  -5  -5 8927.00 643.795   3
  -4   5  -5 9309.50 609.002   3
   4  -6   5 6619.61 399.817   5
  -4  -6  -5 8055.70 712.146   4
   4  -6  -5 4549.94 478.866   4
  -4   6  -5 5745.64 539.195   4
  -4  -6  -5 6816.94 422.675   6
  -4   6  -5 6832.50 382.091   6
   4   6  -5 7163.83 620.498   4
  -4  -6   5 6012.76 542.949   2
  -4  -6  -5 6539.24 545.068   3
   4  -7   5 1445.19 206.017   5
  -4  -7  -5 1211.68 264.235   3
  -4  -7   5 891.274 233.723   2
  -4  -7  -5 1498.28 229.758   6
  -4  -7  -5 1878.69 353.998   4
   4  -7  -5 1183.35 266.386   4
   4   7  -5 1474.17 322.488   4
  -4  -8  -5 1344.78 293.030   3
  -4  -8   5 1202.74 272.040   2
   4  -8   5 1231.33 192.022   5
  -4  -8  -5 1968.90 261.351   6
  -4  -8  -5 1580.92 334.173   4
   4  -8  -5 1652.45 321.534   4
   4   8  -5 1711.71 338.999   4
  -4  -8   5 1734.97 191.777   5
   4  -9   5 1983.42 245.957   5
  -4  -9  -5 1255.36 281.568   3
  -4  -9   5 1294.65 275.553   2
   4  -9   5 1630.83 356.625   2
  -4  -9  -5 2095.24 370.996   4
   4  -9  -5 2435.23 404.647   4
  -4  -9  -5 2753.17 287.221   6
   4   9  -5 2100.84 367.224   4
  -4  -9   5 1910.85 210.441   5
   4 -10   5 1515.29 234.230   5
  -4 -10  -5 1456.71 334.925   3
  -4 -10   5 821.022 217.695   2
   4 -10   5 1654.63 383.351   2
  -4 -10  -5 1701.55 356.931   4
   4  10  -5 1016.61 262.992   4
  -4 -10   5 1350.89 187.916   5
   4 -11   5 3768.48 342.368   5
  -4 -11  -5 5201.15 609.591   4
   4  11  -5 2467.08 404.200   4
  -4 -11   5 3643.01 460.419   2
  -4 -11  -5 3927.91 486.267   3
   4 -11   5 2657.78 431.529   2
  -4 -11   5 4531.06 331.605   5
   4 -12   5 3427.72 339.010   5
  -4 -12  -5 4085.71 553.043   4
   4  12  -5 3242.01 458.333   4
  -4  12   5 4553.43 418.483   6
  -4 -12   5 3254.96 429.517   2
   4 -12   5 3527.18 487.492   2
  -4 -12   5 3869.08 319.189   5
  -4 -13   5 721.213 160.665   5
   4 -13   5 557.094 176.206   5
   4 -13   5 641.089 246.579   2
  -4  13   5 883.467 232.924   6
  -4 -14   5 448.971 138.148   5
   4 -14   5 642.803 250.655   2
   4 -14   5 159.795 127.083   5
  -4  14   5 857.373 238.846   6
  -4 -15   5 360.525 136.024   5
   4 -15   5 209.483 136.866   5
  -4  15   5 424.460 197.024   6
  -4 -16   5 311.040 146.056   5
   4 -16   5 42.7163 115.893   5
  -4  16  -5 325.044 157.010   7
  -4 -17   5 1104.72 209.928   5
   4 -17   5 1020.35 214.681   5
  -4  17  -5 1559.50 264.530   7
  -4 -18   5 44.4333 139.768   5
   4 -18   5 90.4636 128.417   5
  -4  18  -5 45.5187 130.855   7
  -4 -19   5 1116.79 217.725   5
   4 -19   5 1221.77 235.056   5
  -4  19  -5 1265.55 250.508   7
  -4 -20   5-53.4871 89.1275   5
   4 -20   5-121.299 114.000   5
  -4  20  -5 99.2704 155.833   7
  -4 -21   5 452.217 151.528   5
   4 -21   5 368.914 178.816   5
  -4  21  -5 417.147 165.281   7
  -4 -22   5 20.4248 99.7328   5
   4 -22   5 336.103 162.020   5
  -4  22  -5 24.3517 130.187   7
  -5   0   5-126.044 117.832   2
  -5   0  -5 39.7201 130.115   3
  -5   0  -5 13.9347 132.093   4
   5   0  -5 200.881 163.511   4
  -5   0  -5 55.7420 111.271   6
  -5   0   5 197.036 159.344   6
  -5  -1  -5 1850.25 310.480   4
   5  -1  -5 2435.82 362.777   4
   5   1  -5 1899.74 319.498   4
  -5  -1  -5 2412.03 263.949   6
  -5   1  -5 2811.89 277.859   6
  -5  -1   5 3214.78 311.468   6
  -5   1   5 2884.70 307.405   6
  -5   1   5 2384.31 337.900   2
  -5  -1   5 2458.00 334.645   2
  -5  -1  -5 2672.68 364.292   3
  -5   1  -5 2697.06 358.812   3
  -5   2   5 361.273 164.654   2
  -5  -2   5 261.734 133.239   2
  -5  -2  -5 570.931 212.118   3
  -5   2  -5 295.897 158.357   3
  -5  -2  -5 298.715 159.169   4
   5  -2  -5 378.408 168.948   4
   5   2  -5 383.771 171.982   4
  -5  -2  -5 616.729 167.796   6
  -5   2  -5 547.582 151.727   6
  -5  -2   5 758.670 172.582   6
  -5   2   5 762.503 189.243   6
  -5  -3  -5 4947.94 529.573   4
   5  -3  -5 7625.76 623.475   4
   5   3  -5 5054.14 506.502   4
  -5  -3  -5 6508.38 417.633   6
  -5   3  -5 7006.41 410.380   6
  -5  -3   5 5634.95 381.454   6
  -5   3   5 6982.86 455.502   6
  -5   3   5 6971.97 541.568   2
  -5  -3   5 5183.98 500.449   2
  -5  -3  -5 7345.43 592.649   3
  -5   3  -5 6170.41 522.364   3
  -5  -4  -5 2349.91 384.293   4
   5   4  -5 2682.79 374.374   4
  -5  -4  -5 2754.96 288.823   6
  -5   4  -5 2902.17 282.573   6
  -5  -4   5 3749.10 310.524   6
  -5   4   5 3304.00 324.772   6
  -5  -4   5 2612.80 367.717   2
  -5  -4  -5 3109.68 405.664   3
  -5   4  -5 2205.17 317.274   3
  -5  -5  -5 864.599 251.159   3
  -5  -5   5 184.619 116.897   2
  -5   5  -5 742.449 206.767   3
  -5  -5  -5 872.382 274.593   4
  -5  -5  -5 702.166 165.522   6
  -5   5  -5 793.430 165.910   6
   5   5  -5 517.449 178.162   4
  -5   5   5 951.360 207.372   6
  -5  -6  -5 211.020 139.810   3
  -5  -6   5 65.5376 111.131   2
  -5   6  -5 156.603 110.619   3
  -5  -6  -5 133.886 104.818   4
  -5  -6  -5 185.155 115.496   6
  -5   6  -5 47.5578 87.0231   6
   5   6  -5 131.901 127.044   4
  -5   6   5 482.048 188.471   6
   5  -7   5 2731.17 289.657   5
  -5  -7  -5 2546.50 285.445   6
  -5  -7  -5 1692.78 326.980   4
  -5   7   5 2964.14 327.713   6
  -5  -7   5 2139.66 361.241   2
   5   7  -5 1832.58 343.650   4
  -5  -7  -5 1763.39 319.241   3
   5  -8   5 2296.52 279.841   5
  -5  -8  -5 1866.15 349.688   4
  -5  -8  -5 2423.78 284.320   6
   5   8  -5 1880.77 351.670   4
  -5   8   5 2166.05 308.846   6
  -5  -8   5 2181.87 364.709   2
  -5  -8  -5 2135.27 358.887   3
   5  -9   5 7495.99 469.266   5
  -5  -9  -5 5351.08 580.013   4
  -5  -9  -5 8183.80 485.235   6
   5   9  -5 7409.25 660.673   4
  -5   9   5 7629.71 505.608   6
  -5  -9   5 6672.79 624.942   2
  -5  -9  -5 7151.07 635.128   3
  -5  -9   5 7744.93 427.794   5
   5 -10   5 3696.78 345.864   5
  -5 -10  -5 2512.70 432.872   4
  -5 -10  -5 4074.47 367.433   6
   5  10  -5 3703.49 472.113   4
  -5  10   5 4189.29 393.840   6
  -5 -10   5 3966.28 492.339   2
  -5 -10  -5 3640.44 488.786   3
  -5 -10   5 3773.07 310.908   5
   5 -11   5 3115.86 327.236   5
   5 -11   5 2838.52 465.907   2
  -5 -11  -5 3248.49 491.348   4
  -5 -11  -5 3226.22 328.506   6
   5  11  -5 2911.71 437.897   4
  -5  11   5 3392.74 366.326   6
  -5 -11   5 3145.75 294.865   5
  -5 -12   5 580.924 166.493   5
   5 -12   5 957.535 205.483   5
   5 -12   5 890.972 318.161   2
  -5 -12  -5 1210.66 233.216   6
  -5  12   5 1076.36 243.715   6
  -5 -13   5 555.387 148.391   5
   5 -13   5 535.187 186.768   5
  -5  13   5 341.635 183.343   6
   5 -14   5 6249.38 473.411   5
  -5  14   5 7049.23 501.400   6
  -5 -14   5 6760.17 444.679   5
  -5 -15   5 862.650 187.742   5
   5 -15   5 822.515 202.814   5
  -5  15   5 956.955 236.959   6
   5 -16   5 2904.44 337.098   5
  -5  16   5 2767.58 319.906   6
  -5 -16   5 2706.81 292.171   5
  -5 -17   5 219.785 131.730   5
   5 -17   5-141.416 170.028   5
  -5 -18   5 14.0623 98.3243   5
   5 -18   5-146.967 168.374   5
  -5 -19   5 326.583 142.080   5
   5 -19   5 323.661 154.480   5
  -5  19  -5 262.621 150.677   7
  -5 -20   5 423.295 145.789   5
   5 -20   5 92.4703 109.819   5
  -5  20  -5 661.561 214.209   7
  -5 -21   5 211.147 156.994   5
   5 -21   5 310.929 171.221   5
  -5  21  -5-75.1725 128.902   7
  -6   0  -5 2804.04 281.211   6
  -6   0   5 1841.67 321.112   2
  -6   0   5 2960.89 299.555   6
  -6   0  -5 2690.25 385.081   3
  -6   1   5 1398.77 280.315   2
  -6  -1   5 1596.47 304.855   2
  -6  -1  -5 1536.47 304.636   3
  -6   1  -5 1432.94 301.615   3
  -6  -1  -5 1549.99 232.178   6
  -6   1  -5 1495.43 218.046   6
  -6  -1   5 1494.21 211.561   6
  -6   1   5 2004.36 256.684   6
  -6  -2  -5 1695.54 322.182   3
  -6   2  -5 1456.17 292.389   3
  -6  -2  -5 1929.18 242.464   6
  -6   2  -5 1712.32 230.826   6
  -6   2   5 1799.33 310.162   2
  -6  -2   5 1923.23 235.502   6
  -6  -2   5 1930.41 335.539   2
  -6   2   5 1484.70 222.136   6
  -6  -3   5 88.8772 148.913   2
  -6  -3  -5 31.0846 112.329   3
  -6   3  -5 30.4298 104.671   3
  -6  -3  -5 380.897 156.683   6
  -6   3  -5 32.9036 118.693   6
  -6  -3   5 60.8014 101.483   6
  -6   3   5 143.273 126.759   6
  -6  -4   5 1171.39 277.987   2
  -6  -4  -5 1192.52 282.702   3
  -6   4  -5 745.819 201.944   3
  -6  -4  -5 1852.25 254.526   6
  -6   4  -5 2065.39 248.865   6
  -6  -4   5 1659.19 221.772   6
  -6   4   5 1788.80 251.378   6
   6   4  -5 1786.95 316.094   4
  -6  -5   5 1110.47 281.477   2
  -6  -5  -5 1008.31 284.606   3
  -6   5  -5 1214.99 268.654   3
  -6  -5  -5 1800.77 252.421   6
  -6   5  -5 1629.90 225.946   6
  -6   5   5 1565.29 251.754   6
   6   5  -5 1787.45 325.656   4
  -6  -6  -5 10890.5 565.126   6
   6   6  -5 11155.1 774.695   4
  -6   6  -5 11086.2 514.021   6
  -6   6   5 11213.9 585.334   6
  -6  -6   5 10661.9 797.040   2
  -6  -6  -5 9904.04 754.251   3
  -6   6  -5 10333.3 697.604   3
  -6  -7   5 1002.65 305.729   2
  -6  -7  -5 954.809 284.136   3
  -6   7  -5 567.565 186.520   3
  -6  -7  -5 344.720 160.602   6
   6   7  -5 1012.41 281.495   4
  -6   7   5 945.149 207.161   6
  -6  -8   5 1670.52 343.714   2
  -6  -8  -5 1897.08 263.637   6
  -6  -8  -5 1763.28 361.315   4
  -6   8   5 1782.28 256.511   6
   6   8  -5 1939.30 363.084   4
  -6  -8  -5 2374.65 398.886   3
   6  -9   5 1746.32 279.336   5
  -6  -9  -5 1599.64 264.950   6
  -6  -9  -5 1276.33 304.833   4
   6   9  -5 1988.10 358.288   4
  -6   9   5 1483.32 238.221   6
  -6  -9   5 1411.84 197.016   5
   6 -10   5 1497.46 252.659   5
  -6 -10  -5 2179.90 294.099   6
  -6 -10  -5 1685.20 364.373   4
  -6  10   5 1611.12 257.914   6
   6  10  -5 1822.97 341.613   4
  -6 -10   5 1476.63 206.999   5
   6 -11   5 7042.99 506.767   5
  -6 -11  -5 8012.63 504.746   6
  -6  11   5 6886.55 473.913   6
  -6 -11   5 7094.16 442.672   5
   6 -12   5 3212.52 358.416   5
  -6 -12  -5 4062.47 384.149   6
  -6  12   5 3104.08 332.174   6
  -6 -12   5 3740.86 338.179   5
   6 -13   5 2156.11 307.534   5
  -6 -13  -5 2895.83 330.419   6
  -6  13   5 1978.93 284.662   6
  -6 -13   5 1911.94 253.743   5
  -6 -14   5 92.5015 95.7274   5
   6 -14   5-70.2002 125.078   5
  -6 -14  -5 128.223 135.157   6
  -6  14   5 30.2730 129.269   6
  -6 -15   5 842.831 183.699   5
   6 -15   5 698.329 200.928   5
  -6  15   5 917.670 207.662   6
  -6 -16   5 1255.58 229.980   5
   6 -16   5 1085.09 244.700   5
  -6  16   5 1572.04 245.416   6
  -6 -17   5 1484.63 245.134   5
   6 -17   5 979.198 222.761   5
  -6 -18   5 381.231 156.473   5
   6 -18   5 300.180 149.619   5
  -6 -19   5 136.304 110.671   5
   6 -19   5 106.234 110.843   5
  -6 -20   5 51.3288 107.088   5
   6 -20   5 88.9809 122.722   5
  -7   0   5-20.9249 138.031   2
  -7   0  -5 25.6146 123.147   3
  -7   0  -5 46.4572 113.502   6
  -7   0   5-222.608 140.030   6
  -7   1   5 135.604 146.087   2
  -7  -1   5-65.2037 134.890   2
  -7  -1  -5 106.544 170.996   3
  -7   1  -5 98.2322 123.971   3
  -7  -1  -5 45.8719 135.059   6
  -7   1  -5-6.94318 115.731   6
  -7  -1   5-197.614 123.189   6
  -7   1   5-102.259 121.178   6
  -7  -2  -5 6360.57 446.349   6
  -7   2  -5 7069.90 447.685   6
  -7   2   5 6376.09 578.708   2
  -7  -2   5 5604.14 566.961   2
  -7  -2   5 7188.83 464.703   6
  -7   2   5 6544.12 455.535   6
  -7  -2  -5 7225.12 656.219   3
  -7   2  -5 5121.19 535.017   3
  -7  -3   5 892.318 243.995   2
  -7  -3  -5 1175.90 309.004   3
  -7   3  -5 1160.41 276.867   3
  -7  -3  -5 1027.61 220.788   6
  -7   3  -5 1119.34 203.076   6
  -7  -3   5 843.422 182.560   6
  -7   3   5 1136.95 208.659   6
  -7  -4  -5 7850.82 490.711   6
  -7   4  -5 8228.68 473.236   6
  -7  -4   5 7742.27 679.238   2
  -7  -4   5 8267.65 481.183   6
  -7   4   5 7881.13 504.833   6
  -7  -4  -5 8043.15 692.177   3
  -7   4  -5 7706.21 639.606   3
  -7   5  -5 1032.55 265.817   3
  -7  -5  -5 1060.43 216.700   6
  -7   5  -5 996.937 182.958   6
  -7   5   5 839.534 203.412   6
  -7   6  -5 438.619 157.936   3
  -7  -6  -5 497.662 160.199   6
  -7   6  -5 311.153 131.517   6
  -7   6   5 410.717 151.901   6
  -7  -7  -5 3365.26 340.566   6
  -7   7   5 2233.81 280.527   6
  -7   7  -5 3108.20 414.503   3
  -7  -8  -5 2221.24 290.672   6
  -7   8   5 1782.12 265.311   6
  -7  -9  -5 2553.31 300.051   6
  -7   9   5 1981.12 282.537   6
  -7  -9   5 2805.77 286.442   5
  -7 -10   5 421.604 143.504   5
  -7 -10  -5 602.869 176.746   6
  -7  10   5 380.595 157.509   6
  -7 -11   5 600.609 155.189   5
   7 -11   5 827.884 230.425   5
  -7 -11  -5 536.057 180.834   6
  -7  11   5 488.153 183.297   6
   7 -12   5 1772.74 290.218   5
  -7 -12  -5 1954.89 302.380   6
  -7  12   5 1622.35 275.475   6
  -7 -12   5 1554.98 246.446   5
  -7 -13   5 1112.53 216.032   5
   7 -13   5 1170.81 255.657   5
  -7 -13  -5 1580.78 274.457   6
  -7  13   5 1352.35 252.760   6
   7 -14   5 2803.35 353.818   5
  -7 -14  -5 2485.74 311.162   6
  -7  14   5 2990.85 360.228   6
  -7 -14   5 2813.71 310.404   5
  -7 -15   5 832.375 191.582   5
   7 -15   5 1237.71 258.849   5
  -7  15   5 608.446 165.667   6
  -7 -16   5 450.812 146.039   5
   7 -16   5 437.240 195.232   5
  -7  16   5 318.278 140.262   6
  -7 -17   5-9.11373 99.0916   5
   7 -17   5 40.5081 113.989   5
  -7 -18   5 117.482 118.834   5
   7 -18   5 53.3509 139.948   5
  -8   0  -5 14158.7 665.897   6
  -8   0   5 15936.1 704.481   6
  -8  -1  -5 2915.63 318.782   6
  -8   1  -5 2707.47 308.976   6
  -8   1   5 2289.66 370.173   2
  -8  -1   5 2353.08 282.110   6
  -8   1   5 2777.68 315.081   6
  -8  -2  -5 3677.63 352.206   6
  -8   2  -5 3743.28 350.967   6
  -8  -2   5 3990.68 363.956   6
  -8   2   5 2885.29 313.027   6
  -8  -3  -5 437.154 170.587   6
  -8   3  -5 339.715 162.143   6
  -8  -3   5 359.741 145.692   6
  -8   3   5 111.795 147.128   6
  -8  -4  -5 2158.22 288.590   6
  -8   4  -5 2578.05 293.334   6
  -8  -4   5 2587.59 297.856   6
  -8   4   5 2211.62 281.010   6
  -8  -5  -5 2051.90 281.010   6
  -8   5  -5 2217.87 280.400   6
  -8   5   5 1700.92 262.866   6
  -8   6  -5 6015.13 426.584   6
  -8   6   5 5459.58 444.656   6
  -8  -7  -5 1622.87 263.295   6
  -8   7   5 784.952 201.003   6
  -8  -8  -5 3759.01 375.156   6
  -8   8   5 3012.18 324.547   6
  -8  -9  -5 457.142 188.420   6
  -8   9   5-164.434 185.962   6
  -8 -10   5 387.459 127.989   5
  -8 -10  -5 315.417 165.832   6
  -8  10   5 2.04017 120.896   6
  -8 -11   5 102.086 97.2570   5
  -8 -11  -5 143.725 156.669   6
  -8 -12   5 323.635 127.682   5
   8 -12   5 543.471 227.001   5
  -8 -12  -5 598.435 203.304   6
  -8  12   5 298.741 145.576   6
  -8 -13   5 132.556 108.165   5
  -8 -13  -5 311.801 141.422   6
  -8  13   5-119.516 201.606   6
  -8 -14   5 462.386 156.465   5
   8 -14   5 293.486 158.650   5
  -8 -14  -5 523.812 187.041   6
  -8  14   5 42.2337 134.742   6
  -8 -15   5 239.893 127.200   5
   8 -15   5 337.998 175.153   5
  -8  15   5 55.0927 126.486   6
  -8 -16   5 114.217 109.846   5
   8 -16   5 147.405 148.086   5
  -8  16   5 504.612 181.570   6
  -8 -17   5 96.4327 125.659   5
   8 -17   5 436.152 199.635   5
  -9   0  -5 90.6591 145.319   6
  -9   0   5 13.5900 110.741   6
  -9  -1  -5 121.006 122.810   6
  -9   1  -5 87.4788 133.744   6
  -9  -1   5 345.429 140.139   6
  -9  -2  -5 5179.05 436.442   6
  -9   2  -5 5244.72 437.768   6
  -9  -2   5 4937.54 409.634   6
  -9   2   5 5881.07 458.307   6
  -9  -3  -5 542.019 182.753   6
  -9   3  -5 893.536 214.219   6
  -9  -3   5 386.597 156.244   6
  -9   3   5 707.241 195.992   6
  -9  -4  -5 2562.72 321.064   6
  -9   4  -5 2713.19 333.254   6
  -9  -4   5 2904.63 320.624   6
  -9   4   5 2936.55 342.282   6
  -9  -5  -5 334.592 173.712   6
  -9   5  -5 358.349 149.317   6
  -9   5   5 312.862 168.665   6
  -9  -6  -5 581.955 193.576   6
  -9   6  -5 468.733 178.481   6
  -9   6   5 616.504 196.113   6
  -9  -7  -5 259.593 145.244   6
  -9   7   5 293.477 149.131   6
  -9  -8  -5 971.497 238.689   6
  -9   8   5 1015.57 240.074   6
  -9  -9  -5 217.366 154.625   6
  -9   9   5 282.136 174.218   6
  -9 -10  -5 290.578 171.800   6
  -9  10   5 185.553 133.639   6
  -9 -11   5 204.228 113.238   5
  -9 -11  -5 329.465 176.784   6
  -9  11   5 256.838 172.548   6
  -9 -12   5 758.534 187.671   5
  -9 -12  -5 535.791 165.205   6
  -9  12   5 1081.72 234.057   6
  -9 -13   5 711.970 180.336   5
   9 -13   5 519.396 217.859   5
  -9 -13  -5 705.806 227.027   6
  -9  13   5 678.044 205.102   6
   9 -14   5 1175.89 266.159   5
  -9 -14  -5 2056.36 305.674   6
  -9  14   5 1640.79 269.144   6
  -9 -14   5 2065.31 297.971   5
  -9 -15   5 417.464 168.606   5
   9 -15   5 206.585 196.956   5
  -9  15   5 603.394 184.832   6
 -10   0  -5 1508.66 274.556   6
 -10   0   5 1260.93 243.156   6
 -10  -1  -5 344.523 184.341   6
 -10   1  -5 387.938 167.933   6
 -10  -1   5 338.401 171.399   6
 -10   1   5 429.140 176.168   6
 -10  -2  -5 255.968 153.068   6
 -10   2  -5 144.217 148.942   6
 -10  -2   5 148.948 121.279   6
 -10   2   5 39.1236 117.146   6
 -10  -3  -5 665.746 192.802   6
 -10   3  -5 413.852 176.258   6
 -10  -3   5 482.247 169.612   6
 -10   3   5 629.379 196.612   6
 -10   4  -5 1873.34 285.184   6
 -10   4   5 2388.45 325.897   6
 -10  -4  -5 1937.51 286.314   6
 -10  -5  -5 940.943 215.339   6
 -10   5  -5 554.610 175.172   6
 -10   5   5 845.678 225.890   6
 -10  -6  -5 2904.90 364.102   6
 -10   6  -5 2936.33 349.068   6
 -10   6   5 2385.47 324.460   6
 -10  -7  -5 24.4529 158.648   6
 -10   7   5 606.427 189.761   6
 -10  -8  -5 426.048 182.752   6
 -10   8   5 406.584 172.542   6
 -10  -9  -5 126.480 160.400   6
 -10   9   5 187.271 128.054   6
 -10 -10  -5 2013.17 314.793   6
 -10  10   5 1182.09 234.735   6
 -10 -11  -5 654.333 200.987   6
 -10  11   5 344.788 150.170   6
 -10 -12  -5 1537.51 281.965   6
 -10  12   5 1364.64 257.702   6
 -10 -12   5 1803.47 279.627   5
 -10 -13   5 183.871 110.227   5
 -10 -13  -5 286.915 186.647   6
 -11   0  -5 67.9107 119.549   6
 -11   0   5-59.1986 108.465   6
 -11  -1  -5 110.486 152.363   6
 -11   1  -5 121.302 148.619   6
 -11  -1   5 134.219 107.588   6
 -11  -2  -5 3408.70 395.365   6
 -11   2  -5 4841.49 457.951   6
 -11  -2   5 3595.02 401.038   6
 -11   2   5 5014.75 481.011   6
 -11  -3  -5 521.999 215.538   6
 -11   3  -5 340.579 186.822   6
 -11  -3   5 344.679 157.761   6
 -11   3   5 460.415 200.026   6
 -11  -4  -5 4275.40 432.515   6
 -11   4  -5 4059.12 418.769   6
 -11   4   5 3932.55 426.467   6
 -11  -5  -5 280.018 179.845   6
 -11   5  -5 326.746 180.618   6
 -11   5   5 240.078 155.798   6
 -11  -6  -5-62.9674 137.149   6
 -11   6  -5 81.2104 144.757   6
 -11   6   5-60.7037 125.297   6
 -11  -7  -5 358.207 185.891   6
 -11   7   5-1.01034 112.702   6
 -11  -8  -5 892.612 222.861   6
 -11   8   5 772.403 221.667   6
   0   0  -6 26946.5 1302.85   4
   0   0   6 20604.8 1034.70   2
   0  -1   6 104.241 152.206   2
   0   1   6 16.8331 142.986   2
   0  -1  -6 65.9664 157.242   4
   0   1  -6-177.807 180.054   4
   0  -2   6 1614.43 310.579   2
   0   2   6 1268.07 277.615   2
   0  -2  -6 2073.13 369.033   4
   0   2  -6 1980.76 387.391   4
   0  -3   6 58.9056 162.427   2
   0   3   6 264.115 175.395   2
   0  -3  -6 352.781 229.660   4
   0   3  -6 20.3433 137.786   4
   0  -4  -6 6762.49 660.597   4
   0   4  -6 5656.16 594.523   4
   0  -5   6-186.556 196.145   2
   0  -5  -6-73.9302 165.840   4
   0   5  -6 353.995 204.759   4
   0  -6  -6 8603.07 767.545   4
   0   6  -6 7746.23 698.227   4
   0  -6   6 7399.84 675.888   2
   0  -7   6 163.620 176.135   2
   0  -7  -6 5.44636 189.760   4
   0   7  -6 117.838 157.961   4
   0  -8   6 1290.13 295.001   2
   0  -8  -6 1932.42 410.265   4
   0   8  -6 1645.21 371.577   4
   0   9  -6 93.8885 189.491   4
   0 -13   6 5.02183 102.076   5
   0 -14   6 494.567 156.242   5
   0 -15   6-22.8909 99.2526   5
   0 -16   6 219.314 122.133   5
   0 -17   6 153.800 127.955   5
   0 -18   6 1151.41 218.120   5
   0 -19   6 145.318 110.090   5
   0 -20   6-95.7288 120.598   5
  -1   0   6 13.7080 152.279   2
   1   0   6-94.3425 212.604   2
  -1   0  -6 93.6766 146.989   4
   1   0  -6-81.6347 196.844   4
  -1   1   6 748.312 239.155   2
  -1  -1   6 956.039 286.316   2
   1  -1   6 946.432 279.331   2
   1   1   6 864.179 247.354   2
  -1  -1  -6 1207.54 320.834   4
   1  -1  -6 689.031 259.531   4
  -1   1  -6 1348.95 341.900   4
   1   1  -6 1248.98 305.419   4
  -1  -2  -6 2957.17 460.376   4
   1  -2  -6 3839.54 502.747   4
  -1   2  -6 4870.50 575.332   4
   1   2  -6 4592.78 555.873   4
  -1   2   6 2779.67 389.294   2
  -1  -2   6 4263.41 505.022   2
   1  -2   6 3665.75 457.880   2
   1   2   6 2446.23 377.063   2
  -1   3   6 1102.32 268.490   2
  -1  -3   6 646.547 230.550   2
   1  -3   6 386.136 143.878   2
   1   3   6 417.636 207.225   2
  -1  -3  -6 550.121 235.372   4
   1  -3  -6 879.781 253.553   4
  -1   3  -6 793.510 265.496   4
   1   3  -6 727.016 232.462   4
  -1  -4  -6 6243.15 634.225   4
   1  -4  -6 3919.78 503.879   4
  -1   4  -6 5707.02 618.391   4
   1   4  -6 5689.92 596.130   4
  -1  -4   6 4164.96 496.996   2
   1  -4   6 3937.17 482.776   2
   1   4   6 5080.60 524.479   2
  -1  -5   6 271.710 187.871   2
   1  -5   6 360.865 189.631   2
  -1  -5  -6 617.505 260.925   4
   1  -5  -6-10.0452 141.318   4
  -1   5  -6 557.261 230.179   4
   1   5  -6 236.390 148.854   4
  -1  -6   6 761.211 277.281   2
   1  -6   6 653.620 252.404   2
  -1  -6  -6 442.062 203.802   4
   1  -6  -6 264.202 174.223   4
  -1   6  -6 688.617 236.422   4
   1   6  -6 654.864 254.298   4
  -1  -7   6 365.600 246.351   2
   1  -7   6 402.615 218.588   2
  -1  -7  -6 543.056 240.520   4
   1  -7  -6 223.532 183.505   4
  -1   7  -6 655.570 215.424   4
   1   7  -6 582.801 252.229   4
  -1  -8  -6 7149.61 764.366   4
   1  -8  -6 6094.65 664.033   4
  -1   8  -6 6640.33 668.120   4
   1   8  -6 6054.45 632.514   4
  -1  -8   6 6248.99 630.761   2
   1  -8   6 5415.97 583.503   2
   1  -9  -6 317.424 242.736   4
  -1   9  -6 198.430 207.434   4
   1 -12   6 289.323 125.333   5
  -1 -13   6 286.486 104.809   5
   1 -13   6 465.161 150.659   5
  -1 -14   6 3666.00 337.353   5
   1 -14   6 4006.63 359.682   5
  -1 -15   6 392.898 138.709   5
   1 -15   6 595.375 173.466   5
  -1 -16   6 567.835 150.978   5
   1 -16   6 949.998 200.354   5
  -1 -17   6 226.517 107.852   5
   1 -17   6 323.562 136.955   5
  -1 -18   6 83.0923 101.001   5
   1 -18   6 193.634 121.865   5
  -1 -19   6 154.725 116.187   5
   1 -19   6 101.659 118.747   5
  -1 -20   6 249.405 105.489   5
   1 -20   6 617.233 199.224   5
  -2   0   6 1351.78 274.860   2
  -2   0  -6 3231.35 476.765   4
   2   0  -6 2133.89 385.855   4
   2   0   6 2479.23 410.895   2
  -2   1   6 1415.89 272.936   2
  -2  -1   6 1407.09 282.557   2
  -2  -1  -6 2350.58 408.155   4
  -2   1  -6 2675.80 437.581   4
   2  -1  -6 1964.07 364.881   4
   2   1  -6 1664.87 343.904   4
   2  -1   6 2264.46 412.541   2
   2   1   6 2540.79 417.301   2
  -2   2   6 482.405 180.616   2
  -2  -2   6 480.142 208.850   2
   2  -2   6 275.674 198.374   2
   2   2   6 172.732 188.003   2
  -2  -2  -6 621.274 236.441   4
   2  -2  -6 387.238 164.104   4
  -2   2  -6 616.378 247.972   4
   2   2  -6 603.992 223.053   4
  -2  -3  -6 885.984 216.629   3
  -2   3   6 1208.87 274.400   2
  -2  -3   6 814.390 243.722   2
   2  -3   6 596.132 247.252   2
   2   3   6 1019.44 276.820   2
  -2  -3  -6 1456.51 336.006   4
   2  -3  -6 722.955 248.848   4
  -2   3  -6 1227.03 336.394   4
   2   3  -6 853.488 255.885   4
  -2  -4  -6 3233.86 471.757   4
   2  -4  -6 2459.08 411.783   4
  -2   4  -6 2811.89 433.400   4
   2   4  -6 2093.85 399.342   4
  -2  -4  -6 3044.51 393.295   3
  -2  -4   6 1667.34 311.347   2
   2  -4   6 2624.19 435.258   2
   2   4   6 2311.42 380.652   2
  -2  -5   6 1427.19 298.977   2
   2  -5   6 1783.30 387.414   2
  -2   5  -6 2126.49 394.773   4
  -2  -5  -6 1904.83 398.955   4
   2  -5  -6 1354.68 314.917   4
   2   5  -6 1895.00 357.135   4
  -2  -5  -6 2233.65 362.519   3
  -2  -6  -6 8513.87 761.488   4
   2  -6  -6 5188.98 584.390   4
  -2   6  -6 7551.03 680.584   4
   2   6  -6 7039.59 661.491   4
  -2  -6   6 6147.74 592.825   2
   2  -6   6 5984.35 629.812   2
  -2  -7   6 1103.84 290.518   2
   2  -7   6 408.686 204.312   2
  -2  -7  -6 998.816 297.250   4
   2  -7  -6 847.223 256.899   4
  -2   7  -6 480.594 222.880   4
   2   7  -6 697.905 261.275   4
   2  -8   6 929.615 283.990   2
  -2  -8  -6 1211.76 363.474   4
   2  -8  -6 1291.71 331.836   4
  -2   8  -6 1391.81 336.709   4
  -2   9  -6 100.779 141.582   4
   2 -12   6 3719.75 338.299   5
  -2 -13   6 942.357 193.276   5
   2 -13   6 1405.41 231.459   5
  -2 -14   6 127.257 97.8516   5
   2 -14   6 322.408 153.984   5
  -2 -15   6 43.1875 80.9418   5
   2 -15   6 517.029 178.990   5
  -2 -16   6 948.079 185.878   5
   2 -16   6 1305.91 236.983   5
  -2 -17   6 139.002 109.070   5
   2 -17   6 88.0433 116.392   5
   2 -18   6 1115.39 216.875   5
  -2 -18   6 1235.40 235.369   5
  -2 -19   6 239.918 134.499   5
   2 -19   6 340.038 158.909   5
  -2 -20   6 429.976 169.142   5
   2 -20   6 239.069 148.072   5
  -3   0   6 13.3565 117.228   2
   3   0   6 7.34360 162.433   2
  -3   0  -6-193.936 211.078   4
   3   0  -6 2.24653 143.868   4
  -3  -1  -6 1250.97 268.575   3
  -3  -1   6 1490.95 304.568   2
   3  -1   6 733.205 272.242   2
   3   1   6 1384.81 367.931   2
  -3  -1  -6 1697.05 344.668   4
  -3   1  -6 1527.26 344.846   4
   3  -1  -6 1109.57 304.071   4
   3   1  -6 887.827 257.814   4
  -3   1   6 1540.96 305.870   2
  -3  -2  -6 9506.21 773.264   4
   3  -2  -6 8095.34 729.584   4
  -3   2  -6 6788.08 672.817   4
   3   2  -6 6930.21 653.654   4
  -3   2   6 8051.86 598.855   2
  -3  -2  -6 8823.76 642.622   3
  -3  -2   6 5555.05 538.636   2
   3  -2   6 5288.95 600.410   2
   3   2   6 4534.86 557.836   2
  -3  -3  -6 3898.14 512.426   4
   3  -3  -6 2875.36 444.679   4
  -3   3  -6 3257.73 473.409   4
   3   3  -6 2808.14 427.555   4
  -3  -3  -6 3729.38 444.854   3
  -3  -3   6 2013.46 337.429   2
   3  -3   6 3582.32 526.723   2
   3   3   6 3541.35 507.193   2
  -3  -4  -6 4785.81 580.568   4
   3  -4  -6 5409.47 579.536   4
  -3   4  -6 2996.09 456.704   4
   3   4  -6 3094.76 446.873   4
  -3  -4  -6 5264.00 526.900   3
  -3  -4   6 2917.86 409.205   2
   3  -4   6 3887.24 550.171   2
   3   4   6 3346.49 492.668   2
  -3  -5  -6 220.922 185.123   3
  -3  -5   6 303.775 153.520   2
   3  -5   6 179.768 211.146   2
  -3  -5  -6 182.231 177.024   4
   3  -5  -6 139.584 206.648   4
  -3   5  -6 56.3684 144.694   4
   3   5  -6 172.599 177.454   4
  -3  -6  -6 1134.28 256.736   3
  -3  -6   6 1089.79 265.863   2
   3  -6   6 1033.61 290.461   2
  -3  -6  -6 1213.07 326.317   4
   3  -6  -6 1203.55 311.601   4
  -3   6  -6 1573.82 332.416   4
   3   6  -6 1140.46 320.355   4
  -3  -7  -6 2370.91 466.698   4
   3  -7  -6 1672.35 365.158   4
  -3   7  -6 1719.53 352.765   4
  -3  -7  -6 1993.27 361.051   3
   3  -8  -6 3411.92 507.926   4
  -3   8  -6 2146.86 390.312   4
  -3   9  -6 396.856 211.802   4
   3 -12   6 53.7118 119.060   5
   3 -13   6 212.561 117.186   5
  -3 -14   6 1613.11 230.863   5
   3 -14   6 1539.52 243.995   5
  -3 -15   6 156.738 107.701   5
   3 -15   6 309.367 150.995   5
  -3 -16   6 1402.54 229.464   5
   3 -16   6 1338.26 227.854   5
  -3 -17   6 234.476 126.102   5
   3 -17   6 85.2654 116.028   5
  -3 -18   6 118.582 126.075   5
   3 -18   6 160.415 144.112   5
  -3 -19   6 314.898 160.432   5
   3 -19   6 172.338 151.249   5
  -4   0  -6 4940.06 556.924   4
   4   0  -6 5234.35 590.639   4
  -4   0   6 4354.81 484.711   2
  -4   0  -6 5093.56 510.302   3
  -4  -1  -6 3148.74 441.048   4
  -4   1  -6 2817.08 444.585   4
   4  -1  -6 3194.12 468.147   4
   4   1  -6 3825.85 504.139   4
  -4   1   6 2206.06 352.771   2
  -4  -1   6 2345.43 377.747   2
  -4  -1  -6 3250.72 425.425   3
  -4  -2  -6 2701.53 426.944   4
  -4   2  -6 2694.18 433.081   4
   4  -2  -6 2937.75 457.876   4
   4   2  -6 2658.77 420.368   4
  -4  -2   6 3494.22 350.244   6
  -4   2   6 2266.98 346.116   2
  -4  -2   6 2240.95 351.894   2
  -4  -2  -6 2846.89 391.825   3
  -4  -3  -6 639.608 197.744   3
  -4  -3   6 346.222 144.929   2
   4  -3   6 542.611 243.521   2
  -4  -3  -6 495.858 217.770   4
   4  -3  -6 826.099 276.082   4
  -4   3  -6 695.835 240.140   4
   4   3  -6 661.904 246.175   4
  -4  -3   6 653.158 199.494   6
  -4  -4  -6 4242.53 563.546   4
   4  -4  -6 4033.88 511.977   4
  -4   4  -6 3663.01 501.411   4
   4   4  -6 3139.80 469.497   4
  -4  -4   6 3250.24 428.260   2
  -4  -4  -6 3145.41 426.473   3
   4  -4   6 3611.67 544.738   2
  -4  -5  -6 1533.67 318.828   3
  -4  -5  -6 1191.89 300.745   4
   4  -5  -6 894.349 256.544   4
  -4   5  -6 1523.28 358.376   4
   4   5  -6 1522.11 343.511   4
  -4  -6  -6 8894.25 846.530   4
   4  -6  -6 8394.22 729.621   4
   4  -7  -6 1734.37 380.483   4
   4 -12   6 861.857 177.800   5
  -4  12   6 1502.12 300.145   6
   4 -13   6 319.616 112.528   5
  -4  13   6 1361.05 293.032   6
  -4 -14   6 99.9354 103.429   5
   4 -14   6-149.095 108.672   5
  -4  14   6 65.3964 154.590   6
  -4 -15   6 295.530 125.166   5
   4 -15   6 249.106 126.300   5
  -4  15   6 162.788 173.055   6
  -4 -16   6 501.441 142.391   5
   4 -16   6 269.019 139.037   5
  -4 -17   6 708.049 182.558   5
   4 -17   6 618.146 175.888   5
  -4  17   6 864.770 238.209   6
  -4 -18   6 293.334 136.933   5
   4 -18   6 679.418 198.553   5
  -4 -19   6 487.162 163.683   5
  -5   0   6 21.1240 134.779   2
  -5   0  -6 21.8024 114.190   3
   5   0  -6-60.1546 227.228   4
  -5   0  -6 33.4421 161.261   6
  -5   0   6 215.868 185.013   6
  -5   1   6 461.090 174.564   2
  -5  -1   6 34.3401 133.921   2
  -5  -1  -6 454.784 214.443   3
  -5   1  -6 395.787 174.497   3
   5  -1  -6 648.194 228.744   4
   5   1  -6 299.752 183.754   4
  -5  -1  -6 645.095 181.345   6
  -5   1  -6 570.414 182.525   6
  -5  -1   6 734.830 208.900   6
  -5   1   6 680.846 211.491   6
  -5  -2  -6 2766.18 433.466   4
   5   2  -6 2546.14 422.870   4
  -5  -2  -6 2697.76 313.856   6
  -5   2  -6 2987.70 316.025   6
  -5  -2   6 3715.27 357.878   6
  -5   2   6 3221.71 355.868   6
  -5  -2  -6 2853.01 415.102   3
  -5   2  -6 2876.12 403.504   3
  -5  -3  -6 801.360 275.569   4
  -5  -3   6 1317.71 254.593   6
   5   3  -6 1009.02 280.734   4
  -5  -3  -6 1146.88 224.717   6
  -5   3  -6 1049.37 210.466   6
  -5   3   6 1130.11 234.805   6
  -5  -4  -6 1693.93 264.899   6
  -5  -4  -6 1433.46 353.518   4
  -5   4   6 2311.61 309.231   6
  -5   4  -6 1324.39 216.690   6
  -5   5  -6 1766.84 252.386   6
  -5   5   6 2255.22 319.210   6
  -5  -5  -6 1715.40 260.945   6
  -5  -6  -6 541.576 212.949   6
  -5   6   6 1111.40 253.717   6
  -5   7   6 119.227 136.493   6
  -5   8   6 1477.13 280.729   6
  -5   9   6 3241.72 376.621   6
  -5  10   6 552.175 243.991   6
   5 -11   6 309.940 133.456   5
  -5  11   6 489.654 192.665   6
   5 -12   6 771.251 192.516   5
  -5  12   6 1224.26 271.615   6
   5 -13   6 569.545 152.023   5
  -5  13   6 1148.61 249.601   6
   5 -14   6 1117.61 208.708   5
  -5  14   6 2319.29 346.270   6
  -5 -15   6 1260.20 221.280   5
   5 -15   6 623.071 167.605   5
  -5  15   6 755.527 203.921   6
  -5 -16   6 809.260 181.927   5
   5 -16   6 666.666 193.909   5
  -5  16   6 607.629 207.309   6
  -5 -17   6 695.615 168.160   5
   5 -17   6 453.414 167.379   5
  -5  17   6 436.318 178.415   6
  -5 -18   6-4.07538 93.3850   5
   5 -18   6 91.8041 130.498   5
  -6   0  -6 2876.05 323.148   6
  -6   0   6 3120.46 329.138   6
  -6  -1  -6 2694.42 316.767   6
  -6   1  -6 2704.72 314.471   6
  -6  -1   6 2794.62 312.972   6
  -6   1   6 2786.15 320.580   6
  -6  -2  -6 620.413 176.096   6
  -6   2  -6 1166.23 227.163   6
  -6  -2   6 461.935 152.460   6
  -6   2   6 935.609 214.553   6
  -6  -3  -6 533.836 188.547   6
  -6   3  -6 643.624 189.783   6
  -6  -3   6 590.368 168.492   6
  -6   3   6 607.521 193.849   6
  -6  -4  -6 501.957 174.039   6
  -6   4  -6 469.896 164.267   6
  -6   4   6 207.982 168.569   6
  -6  -5  -6 1049.00 234.916   6
  -6   5  -6 1156.87 222.711   6
  -6   5   6 1443.75 261.135   6
  -6  -6  -6 1516.34 282.561   6
  -6   6   6 1564.25 265.155   6
  -6  -7  -6 2046.47 306.480   6
  -6   7   6 2267.27 311.732   6
  -6  -8  -6 1293.78 245.207   6
  -6   8   6 812.327 223.997   6
  -6  -9  -6 301.406 191.808   6
  -6   9   6 115.559 150.350   6
  -6  10   6 13.2134 150.429   6
   6 -11   6 2659.39 321.221   5
  -6  11   6 2533.37 331.902   6
   6 -12   6 530.753 179.574   5
  -6  12   6 656.678 224.920   6
   6 -13   6 259.478 132.696   5
  -6  13   6 526.292 188.384   6
   6 -14   6 150.519 124.415   5
  -6  14   6 277.148 153.424   6
   6 -15   6-77.9330 131.050   5
  -6  15   6-65.3358 129.955   6
  -6 -16   6 365.299 137.358   5
   6 -16   6 430.540 170.747   5
  -6  16   6 597.819 190.313   6
  -6 -17   6 646.831 169.979   5
  -6  17   6 842.949 201.458   6
  -7   0  -6 93.5650 167.449   6
  -7   0   6 22.4615 134.146   6
  -7  -1  -6 2115.15 297.684   6
  -7   1  -6 1934.42 278.734   6
  -7  -1   6 2077.06 284.968   6
  -7   1   6 1717.40 269.976   6
  -7  -2  -6 1140.91 242.388   6
  -7   2  -6 1081.53 209.736   6
  -7  -2   6 819.310 196.709   6
  -7   2   6 758.914 186.038   6
  -7  -3  -6 6899.27 500.699   6
  -7   3  -6 7086.96 487.078   6
  -7  -3   6 7406.09 504.403   6
  -7   3   6 7183.45 504.272   6
  -7  -4  -6 2657.10 349.370   6
  -7   4  -6 2474.96 312.048   6
  -7   4   6 2195.89 295.273   6
  -7  -5  -6 2260.91 311.268   6
  -7   5  -6 1773.51 259.517   6
  -7   5   6 2186.06 298.056   6
  -7  -6  -6 1129.54 246.195   6
  -7   6   6 468.154 183.462   6
  -7  -7  -6 1388.39 256.336   6
  -7   7   6 1189.70 234.311   6
  -7  -8  -6 527.030 216.356   6
  -7   8   6 138.706 119.325   6
  -7  -9  -6 2406.55 338.582   6
  -7   9   6 2324.80 320.337   6
  -7 -10  -6 606.204 213.156   6
  -7  10   6 165.511 165.838   6
   7 -11   6 983.117 228.822   5
  -7 -11  -6 1253.83 262.703   6
  -7  11   6 745.033 212.731   6
   7 -12   6 821.931 211.091   5
  -7  12   6 710.254 198.480   6
   7 -13   6 274.619 165.616   5
  -7  13   6-22.4434 121.294   6
   7 -14   6 818.596 221.770   5
  -7  14   6 607.098 210.242   6
   7 -15   6 323.609 169.967   5
  -7  15   6 186.135 123.739   6
  -8   0  -6 251.645 147.101   6
  -8   0   6 195.333 127.805   6
  -8  -1  -6 1049.41 235.293   6
  -8   1  -6 1103.78 231.055   6
  -8  -1   6 1084.27 219.682   6
  -8   1   6 560.020 168.452   6
  -8  -2  -6 316.869 145.276   6
  -8   2  -6 147.361 128.949   6
  -8  -2   6-110.042 118.670   6
  -8   2   6 241.036 138.405   6
  -8  -3  -6 271.748 164.596   6
  -8   3  -6-2.32661 126.650   6
  -8  -3   6-126.598 138.074   6
  -8   3   6-51.8224 144.192   6
  -8  -4  -6 106.771 165.997   6
  -8   4  -6 4.59243 98.5875   6
  -8   4   6 147.887 123.391   6
  -8  -5  -6 1523.50 282.782   6
  -8   5  -6 1503.23 252.671   6
  -8   5   6 848.623 219.596   6
  -8  -6  -6 571.755 198.713   6
  -8   6   6 220.649 153.584   6
  -8  -7  -6 517.369 191.162   6
  -8   7   6 701.516 202.033   6
  -8  -8  -6 242.365 174.577   6
  -8   8   6 120.573 129.485   6
  -8  -9  -6 652.051 223.897   6
  -8   9   6 156.314 125.681   6
  -8 -10  -6 683.692 235.378   6
  -8  10   6 208.238 112.036   6
  -8 -11  -6 1373.35 274.358   6
  -8  11   6 924.141 214.664   6
   8 -12   6 441.652 189.358   5
  -8 -12  -6 482.019 192.790   6
  -8  12   6 105.886 144.892   6
   8 -13   6 913.064 239.825   5
  -8 -13  -6 1525.35 278.039   6
  -9   0  -6-26.5399 155.643   6
  -9   0   6 36.1743 113.735   6
  -9  -1  -6 328.540 172.997   6
  -9   1  -6 542.689 205.580   6
  -9  -1   6 560.444 166.682   6
  -9   1   6 789.180 213.517   6
  -9  -2  -6 601.985 212.882   6
  -9   2  -6 425.513 168.834   6
  -9  -2   6 319.020 154.883   6
  -9   2   6 286.231 168.834   6
  -9  -3  -6 900.973 222.784   6
  -9   3  -6 780.290 198.623   6
  -9   3   6 1299.84 238.567   6
  -9  -4  -6 411.638 189.929   6
  -9   4  -6 528.580 181.389   6
  -9   4   6 855.545 212.054   6
  -9  -5  -6 266.346 154.100   6
  -9   5   6-136.819 113.904   6
  -9  -6  -6 760.130 221.283   6
  -9   6   6 287.085 171.363   6
  -9  -7  -6 1625.69 293.474   6
  -9   7   6 1395.26 259.271   6
  -9  -8  -6 703.024 197.677   6
  -9   8   6 533.978 210.479   6
  -9   9   6 1893.91 305.651   6
  -9  -9  -6 1686.82 306.716   6
  -9 -10  -6 298.743 190.940   6
 -10   0  -6 1768.19 307.220   6
 -10   0   6 1832.14 289.629   6
 -10  -1  -6 2268.52 329.046   6
 -10   1  -6 2520.25 342.200   6
 -10  -1   6 2950.36 356.510   6
 -10   1   6 2521.81 334.897   6
 -10  -2  -6 936.996 255.480   6
 -10   2  -6 502.761 185.550   6
 -10  -2   6 472.100 187.863   6
 -10   2   6 436.764 177.865   6
 -10  -3  -6 390.364 218.334   6
 -10   3  -6 186.796 169.305   6
 -10   3   6 22.2148 129.615   6
 -10  -4  -6 494.379 206.943   6
 -10   4  -6 466.264 185.419   6
 -10   4   6 450.195 203.766   6
 -10   5   6 2435.34 334.871   6
  -3  15   7 860.318 260.779   6
  -4   0   7 1597.86 288.091   6
  -4  -1   7 2062.43 312.857   6
  -4   1   7 2680.40 358.204   6
  -4  -2   7 609.387 181.275   6
  -4   9   7 1032.24 266.087   6
  -4  10   7 677.677 233.507   6
  -4  11   7 826.971 244.011   6
  -4  12   7 574.639 218.950   6
  -4  13   7 211.258 174.878   6
  -4  14   7 110.431 142.282   6
  -5   0   7 347.425 197.727   6
  -5  -1   7 480.338 176.516   6
  -5   1   7 566.378 217.222   6
  -5  -2   7 2259.86 311.367   6
  -5   2   7 1786.45 304.861   6
  -5   3   7 2092.89 333.746   6
  -5   4   7 1081.78 264.887   6
  -5   5   7 602.161 229.805   6
  -5   6   7 378.580 226.545   6
  -5   7   7 900.215 254.394   6
  -5   8   7 716.768 247.079   6
  -5   9   7 779.029 254.714   6
  -5  10   7 726.327 242.106   6
  -5  11   7 174.378 167.639   6
  -5  12   7 552.820 203.612   6
  -6   0   7 1714.37 275.996   6
  -6  -1   7 1077.96 214.163   6
  -6   1   7 1579.21 262.724   6
  -6  -2   7 1184.11 213.603   6
  -6   2   7 1300.24 265.233   6
  -6   3   7 344.960 178.068   6
  -6   4   7 70.1428 128.164   6
  -6   5   7 261.985 156.276   6
  -6   6   7 1036.84 241.729   6
  -6   7   7 860.618 236.950   6
  -6   8   7 495.416 183.028   6
  -6   9   7 410.752 197.858   6
  -6  10   7 347.151 190.882   6
  -7   0  -7 107.542 166.603   6
  -7   0   7 90.5269 120.788   6
  -7  -1  -7 622.866 200.515   6
  -7   1  -7 438.344 196.138   6
  -7  -1   7 448.587 163.839   6
  -7   1   7 220.788 132.903   6
  -7  -2  -7 282.944 169.888   6
  -7   2  -7 462.607 202.640   6
  -7   2   7 422.920 174.387   6
  -7   3  -7 1294.82 254.329   6
  -7   3   7 498.220 186.494   6
  -7   4   7 344.309 168.819   6
  -7   5   7-115.166 162.517   6
  -7   6   7 188.325 142.465   6
  -7   7   7 238.839 157.287   6
  -7   8   7 2248.85 334.117   6
  -8   0  -7 776.033 240.326   6
  -8   0   7 609.669 179.584   6
  -8  -1  -7 568.824 203.010   6
  -8   1  -7 740.661 228.010   6
  -8  -1   7 281.972 141.331   6
  -8   1   7 576.026 207.620   6
  -8  -2  -7 391.749 196.674   6
  -8   2  -7 213.268 173.850   6
  -8   2   7 132.585 120.992   6
  -8   3  -7 350.103 189.313   6
  -8   3   7-124.167 151.949   6
  -4   0   8 1112.28 251.792   6
  -4   1   8 858.405 254.438   6
  -4   2   8 539.723 216.624   6
  -4   3   8 338.803 186.384   6
  -4   4   8 423.095 226.320   6
  -5   0   8 83.0442 163.503   6
   0   0   0    0.00    0.00   0
;
_shelx_hkl_checksum              21026
_shelx_res_file
;
    lmathia_a.res created by SHELXL-2014/7
TITL lmathia_a.res in Pna2(1)
REM Old TITL LMathia in Pmnb #62
REM SHELXT solution in Pna2(1)
REM R1 0.110, Rweak 0.009, Alpha 0.002, Orientation as input
REM Flack x = 0.469 ( 0.066 ) from Parsons' quotients
REM Formula found by SHELXT: S C5 N4
CELL 0.71073 8.843 17.485 5.041 90 90 90
ZERR 4 0.003 0.005 0.003 0 0 0
LATT -1
SYMM -X,-Y,0.5+Z
SYMM 0.5+X,0.5-Y,+Z
SYMM 0.5-X,0.5+Y,0.5+Z
SFAC C H N S
UNIT 24 36 12 4
EQIV $1 0.5+X,1.5-Y,+Z
EQIV $2 +X,+Y,-1+Z
EQIV $3 -0.5+X,1.5-Y,+Z
EQIV $4 0.5+X,1.5-Y,-1+Z
L.S. 12
PLAN  20
TEMP -153
HTAB N1 N3_$1
HTAB C7A S1_$2
HTAB C7B S1_$3
HTAB C8B N4_$4
BOND $H
LIST 6
MORE -1
CONF
htab 2
fmap 2
acta 52
TWIN -1 0 0 0 -1 0 0 0 -1 2
REM <olex2.extras>
REM <HklSrc "%.\\LMathia.hkl">
REM </olex2.extras>
WGHT    0.061000
BASF   0.27221
FVAR       9.20409   0.66001
S1    4    0.774787    0.835781    0.667910    11.00000    0.02516    0.03560 =
         0.03244    0.00063   -0.00796   -0.00651
N1    3    0.718908    0.732789    0.280131    11.00000    0.02902    0.03274 =
         0.04168   -0.00231   -0.01508    0.00037
H1    2    0.814250    0.717997    0.294502    11.00000   -1.20000
N3    3    0.516650    0.802841    0.463920    11.00000    0.02274    0.03461 =
         0.04303    0.00424   -0.00829   -0.00155
N4    3    0.489885    0.859411    0.652211    11.00000    0.03078    0.04069 =
         0.04460    0.00399   -0.00445    0.00351
C2    1    0.660880    0.784166    0.448301    11.00000    0.02279    0.02782 =
         0.03304    0.00719   -0.00944   -0.00567
C5    1    0.610705    0.882096    0.773235    11.00000    0.03603    0.03460 =
         0.03316    0.00419   -0.00267    0.00073
C6    1    0.611962    0.941805    0.984551    11.00000    0.06127    0.04264 =
         0.03684   -0.00121   -0.00215    0.00100
AFIX 137
H6A   2    0.663359    0.921834    1.142240    11.00000   -1.50000
H6B   2    0.507763    0.955622    1.030226    11.00000   -1.50000
H6C   2    0.665587    0.987190    0.920026    11.00000   -1.50000
AFIX   0
PART 1
C7A   1    0.639027    0.691167    0.071954    21.00000    0.02448    0.02829 =
         0.03015    0.00171   -0.00383   -0.00144
AFIX  23
H7AA  2    0.706152    0.685663   -0.084055    21.00000   -1.20000
H7AB  2    0.549196    0.720929    0.016449    21.00000   -1.20000
AFIX   0
PART 0
PART 2
C7B   1    0.593870    0.689310    0.146758   -21.00000    0.01356    0.03693 =
         0.03208   -0.01190   -0.00097   -0.00365
AFIX  23
H7BA  2    0.525325    0.666230    0.279806   -21.00000   -1.20000
H7BB  2    0.534269    0.723384    0.029843   -21.00000   -1.20000
AFIX   0
PART 0
PART 1
C8A   1    0.589832    0.613661    0.162734    21.00000    0.03053    0.03273 =
         0.03440    0.00424   -0.00056   -0.00507
AFIX  43
H8A   2    0.534221    0.608307    0.322900    21.00000   -1.20000
AFIX   0
PART 0
PART 2
C8B   1    0.671388    0.628837   -0.011063   -21.00000    0.02184    0.03935 =
         0.02748   -0.00307    0.00115   -0.00062
AFIX  43
H8B   2    0.753205    0.641481   -0.125047   -21.00000   -1.20000
AFIX   0
PART 0
PART 1
C9A   1    0.623821    0.552427    0.019721    21.00000    0.05564    0.03466 =
         0.09165    0.00732   -0.00330    0.00535
AFIX  93
H9AA  2    0.679433    0.557787   -0.140442    21.00000   -1.20000
H9AB  2    0.592572    0.503173    0.077371    21.00000   -1.20000
AFIX   0
PART 0
PART 2
C9B   1    0.621260    0.552436    0.011563   -21.00000    0.05407    0.03080 =
         0.04183   -0.02626   -0.01225    0.00371
AFIX  93
H9BA  2    0.539362    0.540281    0.126007   -21.00000   -1.20000
H9BB  2    0.669435    0.513192   -0.087659   -21.00000   -1.20000
AFIX   0
HKLF 4
REM  lmathia_a.res in Pna2(1)
REM R1 =  0.0420 for    2812 Fo > 4sig(Fo)  and  0.0492 for all    3214 data
REM    124 parameters refined using      1 restraints
END
WGHT      0.0607      0.0000
REM Instructions for potential hydrogen bonds
HTAB N1 N3_$1
HTAB C7A S1_$2
HTAB C7B S1_$3
HTAB C8B N4_$4
REM Highest difference peak  0.309,  deepest hole -0.310,  1-sigma level  0.067
Q1    1   0.5520  0.6449  0.6504  11.00000  0.05    0.24
Q2    1   0.6790  0.8387  0.6808  11.00000  0.05    0.23
Q3    1   0.5401  0.6790  0.6437  11.00000  0.05    0.23
Q4    1   0.8752  0.8381  0.6262  11.00000  0.05    0.22
Q5    1   0.9696  0.8571  0.6697  11.00000  0.05    0.22
Q6    1   0.5389  0.8748  0.6845  11.00000  0.05    0.22
Q7    1   0.8796  0.8339  0.7023  11.00000  0.05    0.22
Q8    1   0.7368  0.7001 -0.3571  11.00000  0.05    0.21
Q9    1   0.7124  0.6612 -0.3335  11.00000  0.05    0.20
Q10   1   0.7778  0.7975  0.6441  11.00000  0.05    0.20
Q11   1   0.4643  0.7923  0.4193  11.00000  0.05    0.20
Q12   1   0.6811  0.4702  0.1637  11.00000  0.05    0.20
Q13   1   0.5199  0.6020  0.6490  11.00000  0.05    0.20
Q14   1   0.6029  0.7995 -0.0213  11.00000  0.05    0.19
Q15   1   0.7208  0.8847  0.7296  11.00000  0.05    0.19
Q16   1   0.5839  0.7897  0.4137  11.00000  0.05    0.19
Q17   1   0.5734  0.8220  1.0331  11.00000  0.05    0.19
Q18   1   0.6242  0.8357  1.1633  11.00000  0.05    0.19
Q19   1   0.6668  0.7679  0.0086  11.00000  0.05    0.18
Q20   1   0.6649  0.8173  1.0764  11.00000  0.05    0.18
;
_shelx_res_checksum              95212
loop_
_space_group_symop_operation_xyz
'x, y, z'
'-x, -y, z+1/2'
'x+1/2, -y+1/2, z'
'-x+1/2, y+1/2, z+1/2'
loop_
_atom_site_type_symbol
_atom_site_label
_atom_site_fract_x
_atom_site_fract_y
_atom_site_fract_z
_atom_site_U_iso_or_equiv
_atom_site_adp_type
_atom_site_calc_flag
_atom_site_occupancy
_atom_site_disorder_assembly
_atom_site_disorder_group
S S1 0.77479(4) 0.83578(2) 0.66791(14) 0.03107(13) Uani d 1 . .
N N1 0.71891(16) 0.73279(10) 0.2801(4) 0.0345(3) Uani d 1 . .
H H1 0.814(3) 0.7180(15) 0.295(6) 0.041 Uiso d 1 . .
N N3 0.51665(15) 0.80284(9) 0.4639(4) 0.0335(3) Uani d 1 . .
N N4 0.48989(16) 0.85941(10) 0.6522(5) 0.0387(3) Uani d 1 . .
C C2 0.66088(16) 0.78417(9) 0.4483(4) 0.0279(3) Uani d 1 . .
C C5 0.6107(2) 0.88210(11) 0.7732(4) 0.0346(4) Uani d 1 . .
C C6 0.6120(3) 0.94181(13) 0.9846(5) 0.0469(5) Uani d 1 . .
H H6A 0.6634 0.9218 1.1422 0.070 Uiso calc 1 . .
H H6B 0.5078 0.9556 1.0302 0.070 Uiso calc 1 . .
H H6C 0.6656 0.9872 0.9200 0.070 Uiso calc 1 . .
C C7A 0.6390(4) 0.69117(19) 0.0720(8) 0.0276(6) Uani d 0.660(6) A 1
H H7AA 0.7062 0.6857 -0.0841 0.033 Uiso calc 0.660(6) A 1
H H7AB 0.5492 0.7209 0.0164 0.033 Uiso calc 0.660(6) A 1
C C7B 0.5939(6) 0.6893(4) 0.1468(17) 0.0275(12) Uani d 0.340(6) A 2
H H7BA 0.5253 0.6662 0.2798 0.033 Uiso calc 0.340(6) A 2
H H7BB 0.5343 0.7234 0.0298 0.033 Uiso calc 0.340(6) A 2
C C8A 0.5898(3) 0.61366(15) 0.1627(7) 0.0326(6) Uani d 0.660(6) A 1
H H8A 0.5342 0.6083 0.3229 0.039 Uiso calc 0.660(6) A 1
C C8B 0.6714(5) 0.6288(3) -0.0111(11) 0.0296(13) Uani d 0.340(6) A 2
H H8B 0.7532 0.6415 -0.1250 0.035 Uiso calc 0.340(6) A 2
C C9A 0.6238(13) 0.5524(6) 0.020(3) 0.061(4) Uani d 0.660(6) A 1
H H9AA 0.6794 0.5578 -0.1404 0.073 Uiso calc 0.660(6) A 1
H H9AB 0.5926 0.5032 0.0774 0.073 Uiso calc 0.660(6) A 1
C C9B 0.621(2) 0.5524(9) 0.012(3) 0.042(6) Uani d 0.340(6) A 2
H H9BA 0.5394 0.5403 0.1260 0.051 Uiso calc 0.340(6) A 2
H H9BB 0.6694 0.5132 -0.0877 0.051 Uiso calc 0.340(6) A 2
loop_
_atom_site_aniso_label
_atom_site_aniso_U_11
_atom_site_aniso_U_22
_atom_site_aniso_U_33
_atom_site_aniso_U_12
_atom_site_aniso_U_13
_atom_site_aniso_U_23
S1 0.02516(16) 0.0356(2) 0.0324(2) -0.00651(12) -0.00796(18) 0.0006(2)
N1 0.0290(6) 0.0327(8) 0.0417(8) 0.0004(5) -0.0151(6) -0.0023(7)
N3 0.0227(5) 0.0346(8) 0.0430(9) -0.0016(5) -0.0083(6) 0.0042(7)
N4 0.0308(6) 0.0407(8) 0.0446(9) 0.0035(5) -0.0044(8) 0.0040(9)
C2 0.0228(5) 0.0278(7) 0.0330(9) -0.0057(5) -0.0094(6) 0.0072(6)
C5 0.0360(7) 0.0346(9) 0.0332(9) 0.0007(6) -0.0027(7) 0.0042(7)
C6 0.0613(12) 0.0426(11) 0.0368(11) 0.0010(10) -0.0021(10) -0.0012(9)
C7A 0.0245(13) 0.0283(13) 0.0302(16) -0.0014(11) -0.0038(11) 0.0017(12)
C7B 0.0136(17) 0.037(3) 0.032(3) -0.0037(17) -0.001(2) -0.012(3)
C8A 0.0305(10) 0.0327(12) 0.0344(13) -0.0051(8) -0.0006(13) 0.0042(14)
C8B 0.0218(17) 0.039(3) 0.027(3) -0.0006(16) 0.0011(16) -0.0031(19)
C9A 0.056(6) 0.035(5) 0.092(8) 0.005(4) -0.003(5) 0.007(4)
C9B 0.054(10) 0.031(8) 0.042(8) 0.004(6) -0.012(6) -0.026(6)
loop_
_atom_type_symbol
_atom_type_description
_atom_type_scat_dispersion_real
_atom_type_scat_dispersion_imag
_atom_type_scat_source
C C 0.0033 0.0016 'International Tables Vol C Tables 4.2.6.8 and 6.1.1.4'
H H 0.0000 0.0000 'International Tables Vol C Tables 4.2.6.8 and 6.1.1.4'
N N 0.0061 0.0033 'International Tables Vol C Tables 4.2.6.8 and 6.1.1.4'
S S 0.1246 0.1234 'International Tables Vol C Tables 4.2.6.8 and 6.1.1.4'
loop_
_exptl_crystal_face_index_h
_exptl_crystal_face_index_k
_exptl_crystal_face_index_l
_exptl_crystal_face_perp_dist
0 -2 7 0.1932
0 -7 -7 0.2087
0 10 -6 0.1896
-2 -9 -6 0.2259
1 22 -3 0.1172
8 17 -2 0.2995
-1 -21 4 0.1187
2 5 7 0.1985
9 -15 2 0.3902
-10 15 1 0.3856
0 24 -1 0.0534
8 -3 -6 0.3735
1 19 4 0.1449
9 16 2 0.3198
-1 7 -7 0.2209
-12 6 -1 0.4368
0 -24 1 0.0600
6 18 4 0.2577
1 23 2 0.1152
10 -11 -3 0.4464
2 -19 5 0.1487
loop_
_geom_angle_atom_site_label_1
_geom_angle_atom_site_label_2
_geom_angle_atom_site_label_3
_geom_angle
C5 S1 C2 87.31(9)
C2 N1 H1 120.7(19)
C2 N1 C7A 127.2(2)
C2 N1 C7B 110.0(3)
C7A N1 H1 112.0(19)
C7B N1 H1 126.2(18)
C2 N3 N4 112.41(14)
C5 N4 N3 113.55(15)
N1 C2 S1 121.81(11)
N3 C2 S1 113.06(15)
N3 C2 N1 125.11(16)
N4 C5 S1 113.66(16)
N4 C5 C6 123.92(19)
C6 C5 S1 122.42(15)
C5 C6 H6A 109.5
C5 C6 H6B 109.5
C5 C6 H6C 109.5
H6A C6 H6B 109.5
H6A C6 H6C 109.5
H6B C6 H6C 109.5
N1 C7A H7AA 109.2
N1 C7A H7AB 109.2
N1 C7A C8A 111.9(3)
H7AA C7A H7AB 107.9
C8A C7A H7AA 109.2
C8A C7A H7AB 109.2
N1 C7B H7BA 110.7
N1 C7B H7BB 110.7
H7BA C7B H7BB 108.8
C8B C7B N1 105.1(4)
C8B C7B H7BA 110.7
C8B C7B H7BB 110.7
C7A C8A H8A 120.0
C9A C8A C7A 120.0(6)
C9A C8A H8A 120.0
C7B C8B H8B 120.5
C9B C8B C7B 118.9(8)
C9B C8B H8B 120.5
C8A C9A H9AA 120.0
C8A C9A H9AB 120.0
H9AA C9A H9AB 120.0
C8B C9B H9BA 120.0
C8B C9B H9BB 120.0
H9BA C9B H9BB 120.0
loop_
_geom_bond_atom_site_label_1
_geom_bond_atom_site_label_2
_geom_bond_distance
S1 C2 1.7478(18)
S1 C5 1.744(2)
N1 H1 0.88(3)
N1 C2 1.338(3)
N1 C7A 1.459(4)
N1 C7B 1.501(5)
N3 N4 1.391(3)
N3 C2 1.319(2)
N4 C5 1.293(3)
C5 C6 1.492(3)
C6 H6A 0.9800
C6 H6B 0.9800
C6 H6C 0.9800
C7A H7AA 0.9900
C7A H7AB 0.9900
C7A C8A 1.495(4)
C7B H7BA 0.9900
C7B H7BB 0.9900
C7B C8B 1.490(9)
C8A H8A 0.9500
C8A C9A 1.325(10)
C8B H8B 0.9500
C8B C9B 1.412(19)
C9A H9AA 0.9500
C9A H9AB 0.9500
C9B H9BA 0.9500
C9B H9BB 0.9500
loop_
_geom_hbond_atom_site_label_D
_geom_hbond_atom_site_label_H
_geom_hbond_atom_site_label_A
_geom_hbond_site_symmetry_A
_geom_hbond_distance_DH
_geom_hbond_distance_HA
_geom_hbond_distance_DA
_geom_hbond_angle_DHA
N1 H1 N3 3_565 0.88(3) 2.02(3) 2.860(2) 159(3)
C7A H7AA S1 1_554 0.99 2.97 3.462(4) 111.8
C7B H7BA S1 3_465 0.99 2.96 3.880(8) 155.8
C8B H8B N4 3_564 0.95 2.38 3.295(5) 162.8
loop_
_geom_torsion_atom_site_label_1
_geom_torsion_atom_site_label_2
_geom_torsion_atom_site_label_3
_geom_torsion_atom_site_label_4
_geom_torsion
N1 C7A C8A C9A -128.3(6)
N1 C7B C8B C9B 130.5(9)
N3 N4 C5 S1 0.0(2)
N3 N4 C5 C6 -179.6(2)
N4 N3 C2 S1 0.0(2)
N4 N3 C2 N1 -178.39(18)
C2 S1 C5 N4 -0.02(16)
C2 S1 C5 C6 179.64(18)
C2 N1 C7A C8A -96.0(3)
C2 N1 C7B C8B -174.0(4)
C2 N3 N4 C5 -0.1(2)
C5 S1 C2 N1 178.47(17)
C5 S1 C2 N3 -0.01(15)
C7A N1 C2 S1 -174.1(2)
C7A N1 C2 N3 4.2(4)
C7B N1 C2 S1 171.5(4)
C7B N1 C2 N3 -10.2(4)
