#------------------------------------------------------------------------------
#$Date: 2017-02-04 05:55:54 +0200 (Sat, 04 Feb 2017) $
#$Revision: 191419 $
#$URL: file:///home/coder/svn-repositories/cod/cif/2/02/06/2020686.cif $
#------------------------------------------------------------------------------
#
# This file is available in the Crystallography Open Database (COD),
# http://www.crystallography.net/. The original data for this entry
# were provided by IUCr Journals, http://journals.iucr.org/.
#
# The file may be used within the scientific community so long as
# proper attribution is given to the journal article from which the
# data were obtained.
#
data_2020686
loop_
_publ_author_name
'Nwachukwu, Chideraa I.'
'Bowling, Nathan P.'
'Bosch, Eric'
_publ_section_title
;
 C---I&#x00B7;&#x00B7;&#x00B7;N and C---I&#x00B7;&#x00B7;&#x00B7;\p
 halogen bonding in the structures of 1-benzyliodoimidazole derivatives
;
_journal_issue                   1
_journal_name_full               'Acta Crystallographica Section C'
_journal_page_first              2
_journal_page_last               8
_journal_paper_doi               10.1107/S2053229616018702
_journal_volume                  73
_journal_year                    2017
_chemical_formula_moiety         'C14 H11 I N2'
_chemical_formula_sum            'C14 H11 I N2'
_chemical_formula_weight         334.15
_chemical_name_common
;
N-Benzyl-2-iodobenzimidazole
;
_chemical_name_systematic
;
1-Benzyl-2-iodo-1<i>H</i>-benzimidazole
;
_space_group_crystal_system      triclinic
_space_group_IT_number           2
_space_group_name_Hall           '-P 1'
_space_group_name_H-M_alt        'P -1'
_symmetry_space_group_name_Hall  '-P 1'
_symmetry_space_group_name_H-M   'P -1'
_atom_sites_solution_hydrogens   geom
_audit_creation_method           SHELXL-2014/7
_cell_angle_alpha                108.0640(10)
_cell_angle_beta                 94.174(2)
_cell_angle_gamma                95.366(2)
_cell_formula_units_Z            2
_cell_length_a                   6.4606(8)
_cell_length_b                   8.2346(10)
_cell_length_c                   12.3451(14)
_cell_measurement_reflns_used    6682
_cell_measurement_temperature    100(2)
_cell_measurement_theta_max      27.29
_cell_measurement_theta_min      2.62
_cell_volume                     618.05(13)
_computing_cell_refinement
;
SMART (Bruker, 2014)
;
_computing_data_collection
;
SMART (Bruker, 2014)
;
_computing_data_reduction
;
SAINT (Bruker, 2014)
;
_computing_molecular_graphics
;
XSEED (Barbour, 2001)
;
_computing_publication_material
;
XSEED (Barbour, 2001)
;
_computing_structure_refinement
;
SHELXL2014 (Sheldrick, 2015b)
;
_computing_structure_solution
;
SHELXT (Sheldrick, 2015a)
;
_diffrn_ambient_temperature      100(2)
_diffrn_detector_area_resol_mean 8.3660
_diffrn_measured_fraction_theta_full 1.000
_diffrn_measured_fraction_theta_max 0.998
_diffrn_measurement_device_type  'Bruker APEXII CCD'
_diffrn_measurement_method       'phi and omega scans'
_diffrn_radiation_monochromator  graphite
_diffrn_radiation_source         'fine-focus sealed tube'
_diffrn_radiation_type           MoK\a
_diffrn_radiation_wavelength     0.71073
_diffrn_reflns_av_R_equivalents  0.0161
_diffrn_reflns_limit_h_max       8
_diffrn_reflns_limit_h_min       -8
_diffrn_reflns_limit_k_max       10
_diffrn_reflns_limit_k_min       -10
_diffrn_reflns_limit_l_max       15
_diffrn_reflns_limit_l_min       -15
_diffrn_reflns_number            8079
_diffrn_reflns_theta_full        25.242
_diffrn_reflns_theta_max         27.292
_diffrn_reflns_theta_min         1.745
_exptl_absorpt_coefficient_mu    2.568
_exptl_absorpt_correction_T_max  0.7455
_exptl_absorpt_correction_T_min  0.5883
_exptl_absorpt_correction_type   multi-scan
_exptl_absorpt_process_details
;
(SADABS; Bruker, 2014)
;
_exptl_crystal_colour            colourless
_exptl_crystal_density_diffrn    1.796
_exptl_crystal_description       'cut irregular cube'
_exptl_crystal_F_000             324
_exptl_crystal_size_max          0.20
_exptl_crystal_size_mid          0.20
_exptl_crystal_size_min          0.20
_refine_diff_density_max         0.735
_refine_diff_density_min         -0.346
_refine_ls_extinction_method     none
_refine_ls_goodness_of_fit_ref   1.090
_refine_ls_hydrogen_treatment    constr
_refine_ls_matrix_type           full
_refine_ls_number_parameters     154
_refine_ls_number_reflns         2777
_refine_ls_number_restraints     0
_refine_ls_restrained_S_all      1.090
_refine_ls_R_factor_all          0.0159
_refine_ls_R_factor_gt           0.0154
_refine_ls_shift/su_max          0.000
_refine_ls_shift/su_mean         0.000
_refine_ls_structure_factor_coef Fsqd
_refine_ls_weighting_details
'w=1/[\s^2^(Fo^2^)+(0.0194P)^2^+0.3329P] where P=(Fo^2^+2Fc^2^)/3'
_refine_ls_weighting_scheme      calc
_refine_ls_wR_factor_gt          0.0386
_refine_ls_wR_factor_ref         0.0389
_reflns_number_gt                2725
_reflns_number_total             2777
_reflns_threshold_expression     'I > 2\s(I)'
_cod_data_source_file            ku3188sup1.cif
_cod_data_source_block           3
_cod_depositor_comments
'Adding full bibliography for 2020684--2020686.cif.'
_cod_database_code               2020686
_cod_database_fobs_code          2020686
_shelx_space_group_comment
;
The symmetry employed for this shelxl refinement is uniquely defined
by the following loop, which should always be used as a source of
symmetry information in preference to the above space-group names.
They are only intended as comments.
;
_shelx_hkl_file
;
  -1   0   0  135.40    2.32
   1   0   0  135.55    2.26
   1   0   0  132.17    2.31
  -2   0   0    6.54    0.23
  -2   0   0    6.42    0.22
   2   0   0    6.18    0.23
   2   0   0    6.62    0.19
  -3   0   0   85.01    1.63
  -3   0   0   88.49    1.65
   3   0   0   86.81    1.56
   3   0   0   87.94    1.68
  -4   0   0  159.03    2.84
  -4   0   0  152.60    2.83
   4   0   0  156.69    2.89
   4   0   0  155.15    2.71
  -5   0   0    9.79    0.42
  -5   0   0    9.45    0.42
   5   0   0    9.43    0.34
   5   0   0    9.95    0.46
  -6   0   0   18.78    0.68
  -6   0   0   19.12    0.68
   6   0   0   19.17    0.73
  -7   0   0   32.92    1.01
  -7   0   0   31.13    1.01
   7   0   0   32.10    1.07
  -8   0   0   22.61    0.89
   8   0   0   20.73    0.90
   8  -1   0   11.10    0.65
  -8   1   0   10.35    0.60
   7  -1   0    9.78    0.56
  -7   1   0   10.32    0.53
  -7   1   0   10.43    0.55
   6  -1   0   90.02    2.05
  -6   1   0   92.52    2.02
  -6   1   0   93.23    1.98
   5  -1   0    5.18    0.33
  -5   1   0    5.38    0.31
  -5   1   0    5.37    0.32
   4  -1   0    0.00    0.06
   4  -1   0    0.01    0.03
  -4   1   0    0.02    0.05
  -4   1   0    0.18    0.08
   3  -1   0  121.81    2.05
   3  -1   0  119.48    2.23
  -3   1   0  120.67    2.22
  -3   1   0  121.55    2.22
   2  -1   0  354.31    5.90
   2  -1   0  359.81    6.29
   2  -1   0  349.29    6.18
  -2   1   0  355.78    6.21
   1  -1   0    4.00    0.09
   1  -1   0    4.03    0.14
   1  -1   0    3.83    0.14
  -1   1   0    3.83    0.14
   0  -1   0    1.34    0.07
   0  -1   0    1.19    0.09
   0   1   0    1.61    0.09
  -1  -1   0  197.87    3.42
  -1  -1   0  202.45    3.41
   1   1   0  185.06    3.22
   1   1   0  193.01    3.27
  -2  -1   0  424.39    7.14
  -2  -1   0  406.86    7.25
   2   1   0  416.14    7.04
   2   1   0  405.55    7.21
  -3  -1   0    3.10    0.17
  -3  -1   0    2.90    0.18
   3   1   0    2.82    0.18
  -4  -1   0    2.97    0.20
  -4  -1   0    2.60    0.19
   4   1   0    2.86    0.21
   4   1   0    2.88    0.19
  -5  -1   0   43.49    1.08
  -5  -1   0   44.19    1.08
   5   1   0   42.90    1.01
   5   1   0   44.72    1.12
  -6  -1   0   32.94    0.97
  -6  -1   0   34.03    0.97
   6   1   0   32.97    0.87
   6   1   0   34.71    1.02
  -7  -1   0    0.10    0.10
  -7  -1   0    0.02    0.09
   7   1   0    0.09    0.12
  -8  -1   0   21.34    0.86
   8   1   0   22.69    0.92
   8  -2   0   25.13    1.02
  -8   2   0   26.03    0.99
   7  -2   0   40.88    1.27
  -7   2   0   42.02    1.24
  -7   2   0   41.17    1.18
   6  -2   0    2.69    0.33
  -6   2   0    1.52    0.23
  -6   2   0    2.32    0.30
   5  -2   0   72.60    1.65
  -5   2   0   74.90    1.63
  -5   2   0   70.16    1.62
   4  -2   0  133.54    2.34
   4  -2   0  139.57    2.66
  -4   2   0  144.38    2.66
  -4   2   0  144.91    2.68
   3  -2   0    8.23    0.19
   3  -2   0    8.24    0.33
  -3   2   0    8.37    0.33
   2  -2   0    4.37    0.21
   2  -2   0    4.36    0.20
   2  -2   0    4.56    0.12
  -2   2   0    4.49    0.20
   1  -2   0  706.39   12.46
   1  -2   0  720.57   12.34
   1  -2   0  758.64   12.23
   1  -2   0  737.49   12.06
   0  -2   0  957.75   15.95
   0  -2   0  936.74   17.70
   0  -2   0  945.81   22.98
   0   2   0 1000.00   20.66
  -1  -2   0   30.13    0.64
  -1  -2   0   30.14    0.61
   1   2   0   29.36    0.65
   1   2   0   30.57    0.57
  -2  -2   0   66.70    1.23
  -2  -2   0   63.97    1.26
   2   2   0   64.31    1.21
   2   2   0   65.25    1.27
  -3  -2   0  146.34    2.62
  -3  -2   0  148.04    2.66
   3   2   0  149.35    2.67
   3   2   0  147.47    2.63
  -4  -2   0   64.61    1.36
  -4  -2   0   64.30    1.39
   4   2   0   64.15    1.37
   4   2   0   65.58    1.38
  -5  -2   0    1.63    0.21
  -5  -2   0    1.92    0.23
   5   2   0    1.51    0.19
   5   2   0    1.84    0.23
  -6  -2   0   51.25    1.29
  -6  -2   0   50.79    1.28
   6   2   0   50.35    1.23
   6   2   0   48.09    1.28
  -7  -2   0   10.86    0.55
  -7  -2   0   10.55    0.55
   7   2   0   11.12    0.57
   8  -3   0    0.16    0.14
  -8   3   0    0.16    0.14
   7  -3   0   39.25    1.26
  -7   3   0   39.62    1.22
  -7   3   0   39.10    1.17
   6  -3   0   48.87    1.37
  -6   3   0   52.25    1.34
  -6   3   0   51.18    1.37
   5  -3   0    1.92    0.26
  -5   3   0    1.84    0.24
  -5   3   0    1.49    0.21
   4  -3   0   43.77    1.08
   4  -3   0   41.51    1.06
  -4   3   0   44.25    1.07
   3  -3   0  177.89    3.14
   3  -3   0  177.85    3.18
  -3   3   0  171.11    3.14
   2  -3   0   93.34    1.72
   2  -3   0   92.54    1.77
  -2   3   0   93.12    1.75
   1  -3   0   32.35    0.72
   1  -3   0   30.33    0.72
   1  -3   0   32.24    0.65
  -1   3   0   31.54    0.65
   0  -3   0  111.51    2.03
   0  -3   0  111.59    2.01
   0  -3   0  114.65    1.89
   0   3   0  114.56    2.01
  -1  -3   0  149.71    2.65
  -1  -3   0  154.65    2.71
   1   3   0  156.46    2.56
   1   3   0  154.54    2.71
  -2  -3   0  123.04    2.29
  -2  -3   0  125.68    2.24
   2   3   0  127.52    2.18
   2   3   0  125.20    2.30
  -3  -3   0    0.47    0.11
  -3  -3   0    0.29    0.08
   3   3   0    0.42    0.10
   3   3   0    0.30    0.07
  -4  -3   0   35.60    0.89
  -4  -3   0   35.94    0.93
   4   3   0   35.31    0.93
   4   3   0   34.99    0.87
  -5  -3   0   34.05    0.96
  -5  -3   0   33.75    0.93
   5   3   0   34.50    0.91
   5   3   0   32.68    0.94
  -6  -3   0    8.65    0.45
  -6  -3   0    7.70    0.44
   6   3   0    8.14    0.44
   6   3   0    9.78    0.47
  -7  -3   0    9.24    0.52
   7   3   0    8.80    0.57
   7   3   0    8.99    0.49
   7  -4   0   13.95    0.70
  -7   4   0   14.27    0.70
  -7   4   0   13.09    0.64
   6  -4   0    4.84    0.38
  -6   4   0    5.10    0.39
  -6   4   0    4.79    0.36
   5  -4   0   84.90    1.89
   5  -4   0   84.89    1.89
  -5   4   0   82.24    1.86
   4  -4   0   64.84    1.47
   4  -4   0   67.38    1.52
  -4   4   0   65.73    1.48
   3  -4   0    1.37    0.18
   3  -4   0    1.31    0.16
  -3   4   0    1.46    0.08
  -3   4   0    1.19    0.17
   2  -4   0  104.41    1.88
   2  -4   0  101.59    1.99
  -2   4   0  100.70    1.79
  -2   4   0  101.96    1.96
   1  -4   0  497.23    8.48
   1  -4   0  509.47    8.48
   1  -4   0  494.51    8.96
  -1   4   0  520.96    8.67
   0  -4   0  129.62    2.34
   0  -4   0  127.42    2.31
   0   4   0  128.95    2.14
   0   4   0  122.31    2.28
  -1  -4   0    9.76    0.35
  -1  -4   0   10.79    0.39
   1   4   0   10.17    0.25
   1   4   0   10.03    0.37
  -2  -4   0   86.19    1.70
  -2  -4   0   82.41    1.62
   2   4   0   82.95    1.69
   2   4   0   83.80    1.50
  -3  -4   0   73.89    1.48
  -3  -4   0   73.54    1.55
   3   4   0   70.84    1.38
   3   4   0   68.44    1.54
  -4  -4   0   22.03    0.72
  -4  -4   0   22.26    0.68
   4   4   0   23.23    0.64
   4   4   0   22.59    0.74
  -5  -4   0   29.68    0.92
  -5  -4   0   29.29    0.87
   5   4   0   29.50    0.91
  -6  -4   0   29.11    0.96
   6   4   0   30.24    0.96
  -7  -4   0    3.80    0.36
   7   4   0    4.56    0.37
   7  -5   0   58.05    1.64
  -7   5   0   55.71    1.57
  -7   5   0   57.92    1.65
   6  -5   0    4.67    0.38
  -6   5   0    4.87    0.40
  -6   5   0    5.15    0.38
   5  -5   0    1.23    0.23
   5  -5   0    0.99    0.19
  -5   5   0    1.32    0.21
   4  -5   0   75.18    1.69
   4  -5   0   71.95    1.60
  -4   5   0   71.26    1.64
   3  -5   0  127.05    2.41
   3  -5   0  126.21    2.54
  -3   5   0  130.58    2.23
  -3   5   0  130.62    2.52
   2  -5   0    3.66    0.25
   2  -5   0    3.48    0.19
  -2   5   0    3.60    0.18
   1  -5   0   65.96    1.26
   1  -5   0   69.60    1.46
   1  -5   0   67.46    1.44
  -1   5   0   68.36    1.35
   0  -5   0  126.08    2.40
   0  -5   0  126.80    2.37
   0   5   0  124.70    2.14
   0   5   0  126.96    2.34
  -1  -5   0  101.83    1.95
  -1  -5   0  101.51    2.00
   1   5   0   98.04    1.97
   1   5   0  100.08    1.72
  -2  -5   0    4.35    0.28
  -2  -5   0    4.28    0.25
   2   5   0    4.33    0.28
  -3  -5   0    3.24    0.23
  -3  -5   0    3.20    0.26
   3   5   0    3.27    0.27
  -4  -5   0   37.84    1.06
  -4  -5   0   36.50    0.98
   4   5   0   37.50    1.07
  -5  -5   0   15.66    0.66
   5   5   0   16.28    0.68
  -6  -5   0    0.09    0.10
   6   5   0    0.12    0.09
   7  -6   0    1.69    0.31
  -7   6   0    1.88    0.48
  -7   6   0    1.37    0.30
   6  -6   0   30.30    1.06
   6  -6   0   29.94    1.03
  -6   6   0   30.97    1.05
   5  -6   0   44.82    1.22
   5  -6   0   44.55    1.29
  -5   6   0   42.85    1.25
   4  -6   0    2.41    0.31
   4  -6   0    2.82    0.24
  -4   6   0    1.83    0.25
   3  -6   0    1.17    0.16
   3  -6   0    1.07    0.19
  -3   6   0    1.22    0.20
   2  -6   0  186.65    3.52
   2  -6   0  189.14    3.31
  -2   6   0  189.71    3.30
  -2   6   0  186.93    3.54
   1  -6   0  153.38    2.69
   1  -6   0  150.41    2.93
   1  -6   0  160.18    2.97
  -1   6   0  156.83    2.83
   0  -6   0    4.30    0.29
   0  -6   0    3.67    0.26
   0   6   0    3.94    0.25
  -1  -6   0   42.41    1.05
  -1  -6   0   42.49    1.10
   1   6   0   42.69    1.07
  -2  -6   0   68.62    1.58
  -2  -6   0   68.34    1.50
   2   6   0   68.46    1.57
  -3  -6   0   16.95    0.60
  -3  -6   0   16.80    0.66
   3   6   0   17.60    0.68
  -4  -6   0    0.47    0.15
  -4  -6   0    0.26    0.15
   4   6   0    0.38    0.14
  -5  -6   0   21.30    0.83
   5   6   0   21.59    0.84
  -6  -6   0   13.33    0.68
   6   6   0   14.66    0.71
   6  -7   0    0.10    0.11
   6  -7   0    0.04    0.09
  -6   7   0    0.59    0.19
   5  -7   0   15.75    0.73
   5  -7   0   15.31    0.65
  -5   7   0   14.95    0.70
   4  -7   0   69.10    1.59
   4  -7   0   71.11    1.77
  -4   7   0   69.95    1.73
   3  -7   0   19.91    0.77
   3  -7   0   20.77    0.64
  -3   7   0   20.49    0.77
   2  -7   0    4.12    0.32
  -2   7   0    3.96    0.24
   1  -7   0   67.60    1.59
   1  -7   0   67.49    1.57
  -1   7   0   66.03    1.45
   0  -7   0   83.97    1.82
   0  -7   0   82.73    1.86
   0   7   0   83.17    1.77
  -1  -7   0   19.31    0.67
  -1  -7   0   18.70    0.70
   1   7   0   17.80    0.66
  -2  -7   0    0.62    0.16
  -2  -7   0    0.76    0.16
   2   7   0    0.61    0.16
  -3  -7   0   18.02    0.73
   3   7   0   17.06    0.72
  -4  -7   0   12.25    0.62
   4   7   0   12.20    0.63
  -5  -7   0    1.45    0.27
   5   7   0    0.99    0.23
   5  -8   0    7.35    0.45
   5  -8   0    7.89    0.54
  -5   8   0    7.96    0.53
   4  -8   0    0.85    0.23
  -4   8   0    0.48    0.16
   3  -8   0   26.03    0.94
  -3   8   0   24.06    0.91
   2  -8   0   77.89    1.85
  -2   8   0   75.07    1.67
  -2   8   0   75.49    1.87
   1  -8   0   30.81    0.99
   1  -8   0   29.81    0.96
  -1   8   0   29.84    0.87
   0  -8   0    5.01    0.38
   0  -8   0    5.64    0.38
   0   8   0    5.17    0.34
  -1  -8   0   45.30    1.28
  -1  -8   0   43.63    1.20
   1   8   0   43.58    1.21
  -2  -8   0   22.66    0.80
  -2  -8   0   22.34    0.86
   2   8   0   23.31    0.85
  -3  -8   0    4.53    0.39
   3   8   0    4.57    0.39
  -4  -8   0   18.43    0.82
   4   8   0   18.67    0.83
   4  -9   0   29.44    1.10
  -4   9   0   27.44    1.07
   3  -9   0    1.60    0.29
  -3   9   0    1.86    0.31
   2  -9   0   36.02    1.17
  -2   9   0   35.68    1.20
   1  -9   0   30.27    1.05
   1  -9   0   28.96    1.01
  -1   9   0   29.92    0.91
   0  -9   0   25.47    0.96
   0  -9   0   27.32    0.94
   0   9   0   25.54    0.88
  -1  -9   0    1.62    0.27
  -1  -9   0    1.30    0.26
   1   9   0    1.87    0.29
  -2  -9   0    6.88    0.49
   2   9   0    6.83    0.47
   2 -10   0   23.68    0.96
  -2  10   0   23.51    0.99
   1 -10   0    0.26    0.14
   1 -10   0    0.15    0.11
   0 -10   0   19.35    0.82
   0  10   0   19.01    0.78
   0  10  -1   15.01    0.66
   0 -10   1   12.29    0.68
   0 -10   1   12.57    0.74
  -1  10  -1    0.70    0.18
   1 -10   1    0.84    0.20
   1 -10   1    0.61    0.18
  -2  10  -1   17.18    0.82
   2 -10   1   16.14    0.77
   3   9  -1    5.28    0.45
  -3  -9   1    5.31    0.44
   2   9  -1   15.58    0.71
  -2  -9   1   15.51    0.74
   1   9  -1    0.48    0.16
  -1  -9   1    0.37    0.14
  -1  -9   1    0.49    0.16
   0   9  -1   18.17    0.72
   0  -9   1   19.73    0.76
   0  -9   1   19.47    0.80
  -1   9  -1   37.75    1.07
   1  -9   1   38.48    1.17
   1  -9   1   38.82    1.20
  -2   9  -1    9.71    0.58
   2  -9   1   11.28    0.59
  -3   9  -1    5.18    0.42
   3  -9   1    5.00    0.41
  -4   9  -1   23.69    0.95
   4  -9   1   23.75    0.96
   4   8  -1    3.40    0.40
  -4  -8   1    3.34    0.42
   3   8  -1    6.44    0.46
  -3  -8   1    6.88    0.47
   2   8  -1   28.39    0.96
  -2  -8   1   28.22    0.97
   1   8  -1   41.58    1.16
  -1  -8   1   40.80    1.20
  -1  -8   1   41.81    1.12
   0   8  -1    1.33    0.21
   0  -8   1    1.39    0.23
   0  -8   1    1.04    0.19
  -1   8  -1    2.92    0.25
   1  -8   1    2.68    0.31
   1  -8   1    2.99    0.34
  -2   8  -1   32.59    0.88
   2  -8   1   33.02    1.03
   2  -8   1   32.98    1.03
  -3   8  -1   32.13    1.05
   3  -8   1   30.46    1.03
  -4   8  -1    0.34    0.14
   4  -8   1    0.30    0.14
   4  -8   1    0.41    0.12
  -5   8  -1   12.19    0.64
   5  -8   1   11.55    0.57
   5  -8   1   10.23    0.61
   5   7  -1    0.14    0.12
  -5  -7   1    0.14    0.12
   4   7  -1   11.09    0.59
  -4  -7   1   11.26    0.59
   3   7  -1   21.18    0.79
  -3  -7   1   21.05    0.80
   2   7  -1    9.67    0.48
  -2  -7   1    9.68    0.43
  -2  -7   1    8.91    0.48
   1   7  -1   10.01    0.48
  -1  -7   1   10.77    0.46
  -1  -7   1   11.77    0.53
   0   7  -1   72.58    1.58
   0  -7   1   69.72    1.58
   0  -7   1   72.17    1.65
  -1   7  -1   53.14    1.23
   1  -7   1   55.16    1.34
   1  -7   1   53.41    1.32
  -2   7  -1    2.13    0.18
   2  -7   1    2.33    0.18
   2  -7   1    2.13    0.26
   2  -7   1    2.61    0.24
  -3   7  -1   12.24    0.56
   3  -7   1   11.01    0.45
   3  -7   1   12.40    0.57
  -4   7  -1   80.44    1.87
   4  -7   1   82.16    1.93
   4  -7   1   77.19    1.75
  -5   7  -1   16.09    0.71
   5  -7   1   15.92    0.73
   5  -7   1   15.95    0.66
  -6   7  -1   12.70    0.65
   6  -7   1   14.02    0.71
   6  -7   1   13.04    0.65
   6   6  -1   12.16    0.64
  -6  -6   1   12.72    0.66
   5   6  -1   18.01    0.76
  -5  -6   1   19.07    0.78
   4   6  -1    0.37    0.14
  -4  -6   1    0.32    0.13
   3   6  -1   22.11    0.76
  -3  -6   1   21.47    0.76
  -3  -6   1   20.44    0.64
   2   6  -1   96.36    2.02
  -2  -6   1   96.75    2.03
  -2  -6   1   94.29    1.90
   1   6  -1   43.22    1.09
  -1  -6   1   43.97    1.04
  -1  -6   1   44.26    1.11
   0   6  -1    2.37    0.20
   0   6  -1    2.38    0.14
   0  -6   1    2.23    0.19
   0  -6   1    2.41    0.21
  -1   6  -1   45.55    1.04
   1  -6   1   45.22    1.10
   1  -6   1   43.97    0.94
   1  -6   1   45.42    1.11
  -2   6  -1   46.62    1.02
   2  -6   1   46.66    1.15
   2  -6   1   47.01    1.03
   2  -6   1   46.60    1.17
  -3   6  -1   14.61    0.43
  -3   6  -1   15.83    0.59
   3  -6   1   14.93    0.52
   3  -6   1   15.20    0.61
  -4   6  -1    5.62    0.36
   4  -6   1    5.74    0.38
   4  -6   1    5.59    0.34
  -5   6  -1   37.22    1.10
   5  -6   1   37.82    1.09
   5  -6   1   36.92    1.15
  -6   6  -1   46.05    1.39
  -6   6  -1   45.38    1.30
   6  -6   1   43.87    1.31
  -7   6  -1    4.37    0.42
   7  -6   1    3.54    0.43
   6   5  -1    0.59    0.17
  -6  -5   1    0.38    0.15
   5   5  -1   10.82    0.54
  -5  -5   1    9.99    0.52
   4   5  -1   12.21    0.54
  -4  -5   1   10.25    0.42
  -4  -5   1   10.69    0.51
   3   5  -1   42.46    0.94
   3   5  -1   43.80    1.11
  -3  -5   1   43.21    1.11
  -3  -5   1   42.19    0.99
   2   5  -1    1.03    0.17
   2   5  -1    0.82    0.10
  -2  -5   1    0.92    0.13
  -2  -5   1    0.92    0.15
   1   5  -1   62.51    1.36
   1   5  -1   63.26    1.18
  -1  -5   1   63.69    1.30
  -1  -5   1   63.73    1.38
   0   5  -1  175.34    2.99
   0   5  -1  176.03    3.14
   0  -5   1  172.57    3.13
   0  -5   1  179.97    3.19
  -1   5  -1   35.65    0.82
   1  -5   1   34.85    0.87
   1  -5   1   35.97    0.88
   1  -5   1   35.17    0.76
  -2   5  -1   44.83    0.94
   2  -5   1   45.88    0.99
   2  -5   1   45.98    1.09
  -3   5  -1   78.84    1.66
   3  -5   1   78.68    1.62
   3  -5   1   78.24    1.71
  -4   5  -1   61.82    1.43
   4  -5   1   61.46    1.48
   4  -5   1   61.91    1.42
  -5   5  -1    0.52    0.14
   5  -5   1    0.52    0.15
   5  -5   1    0.38    0.13
  -6   5  -1   58.70    1.48
  -6   5  -1   56.01    1.56
   6  -5   1   57.24    1.53
  -7   5  -1   69.11    1.85
   7  -5   1   67.89    1.82
   7   4  -1   11.47    0.57
  -7  -4   1   10.72    0.59
   6   4  -1   33.66    1.02
  -6  -4   1   32.84    1.04
   5   4  -1   12.59    0.51
   5   4  -1   11.39    0.52
  -5  -4   1   12.21    0.51
  -5  -4   1   12.50    0.55
   4   4  -1   27.91    0.83
   4   4  -1   27.92    0.77
  -4  -4   1   29.00    0.85
  -4  -4   1   29.58    0.77
   3   4  -1   63.91    1.30
   3   4  -1   63.76    1.41
  -3  -4   1   64.73    1.42
  -3  -4   1   65.10    1.31
   2   4  -1  150.22    2.75
   2   4  -1  147.00    2.61
  -2  -4   1  149.29    2.75
  -2  -4   1  151.09    2.63
   1   4  -1   28.80    0.74
   1   4  -1   31.29    0.63
  -1  -4   1   30.82    0.69
  -1  -4   1   30.90    0.76
   0   4  -1   74.72    1.33
   0   4  -1   75.17    1.44
   0  -4   1   72.09    1.46
   0  -4   1   75.07    1.43
   1  -4   1   67.01    1.35
   1  -4   1   68.52    1.26
   1  -4   1   66.25    1.34
   1  -4   1   67.15    1.29
  -2   4  -1   67.15    1.37
   2  -4   1   67.55    1.33
   2  -4   1   66.66    1.25
   2  -4   1   67.35    1.40
  -3   4  -1    0.42    0.10
   3  -4   1    0.17    0.07
   3  -4   1    0.23    0.09
  -4   4  -1   66.13    1.46
   4  -4   1   66.72    1.48
   4  -4   1   66.29    1.52
  -5   4  -1   47.91    1.21
  -5   4  -1   48.13    1.29
   5  -4   1   48.03    1.26
  -6   4  -1   20.20    0.73
  -6   4  -1   18.44    0.76
   6  -4   1   18.22    0.75
  -7   4  -1    1.16    0.25
   7  -4   1    1.13    0.25
   7   3  -1    2.91    0.35
   7   3  -1    3.17    0.35
  -7  -3   1    3.29    0.33
   6   3  -1   10.45    0.49
   6   3  -1   11.76    0.54
  -6  -3   1   11.54    0.52
  -6  -3   1   11.42    0.55
   5   3  -1   25.49    0.77
   5   3  -1   24.82    0.77
  -5  -3   1   24.80    0.73
  -5  -3   1   25.20    0.80
   4   3  -1   39.44    0.98
   4   3  -1   40.19    1.00
  -4  -3   1   40.18    1.02
  -4  -3   1   41.42    0.95
   3   3  -1    4.73    0.24
   3   3  -1    4.19    0.24
  -3  -3   1    3.82    0.24
  -3  -3   1    4.31    0.21
   2   3  -1   45.70    0.99
   2   3  -1   43.37    0.91
  -2  -3   1   45.45    0.99
  -2  -3   1   45.40    0.90
   1   3  -1  148.54    2.48
   1   3  -1  144.63    2.58
  -1  -3   1  147.82    2.50
  -1  -3   1  145.67    2.58
   0  -3   1  369.80    6.39
   0  -3   1  379.33    6.38
   0  -3   1  374.36    6.45
   0  -3   1  353.54    6.22
   1  -3   1    0.43    0.07
   1  -3   1    0.49    0.07
   1  -3   1    0.49    0.08
   1  -3   1    0.51    0.07
  -2   3  -1   89.32    1.64
   2  -3   1   87.08    1.68
   2  -3   1   87.95    1.54
   2  -3   1   87.24    1.64
  -3   3  -1  212.97    3.72
   3  -3   1  215.14    3.74
   3  -3   1  210.59    3.77
   3  -3   1  213.56    3.53
  -4   3  -1   19.51    0.60
   4  -3   1   18.45    0.62
   4  -3   1   18.74    0.42
  -5   3  -1   26.26    0.84
  -5   3  -1   26.38    0.79
   5  -3   1   24.78    0.82
  -6   3  -1  121.84    2.60
  -6   3  -1  124.41    2.51
   6  -3   1  122.48    2.61
  -7   3  -1   46.56    1.36
   7  -3   1   45.16    1.37
  -8   3  -1    1.22    0.28
   8  -3   1    1.14    0.27
   7   2  -1   26.30    0.93
  -7  -2   1   24.30    0.85
  -7  -2   1   24.85    0.89
   6   2  -1   41.09    1.16
   6   2  -1   42.79    1.06
  -6  -2   1   41.56    1.16
  -6  -2   1   42.37    1.10
   5   2  -1    1.03    0.15
   5   2  -1    0.94    0.17
  -5  -2   1    1.38    0.20
  -5  -2   1    1.42    0.19
   4   2  -1   54.87    1.19
   4   2  -1   52.63    1.22
  -4  -2   1   55.66    1.16
  -4  -2   1   54.79    1.24
   3   2  -1  268.15    4.58
   3   2  -1  270.96    4.61
  -3  -2   1  264.29    4.62
  -3  -2   1  273.01    4.53
   2   2  -1   71.04    1.38
   2   2  -1   70.19    1.36
  -2  -2   1   74.60    1.31
  -2  -2   1   75.38    1.40
   1   2  -1    6.38    0.22
   1   2  -1    6.67    0.20
  -1  -2   1    6.36    0.18
   0  -2   1  122.83    2.09
   0  -2   1  115.30    2.06
   0  -2   1  120.48    2.06
   0  -2   1  123.43    2.04
   1  -2   1   76.57    1.33
   1  -2   1   74.10    1.38
   1  -2   1   75.70    1.36
   1  -2   1   79.89    1.36
  -2   2  -1   22.26    0.51
   2  -2   1   22.23    0.45
   2  -2   1   21.85    0.55
   2  -2   1   21.51    0.53
  -3   2  -1   12.57    0.40
  -3   2  -1   12.83    0.44
   3  -2   1   12.77    0.32
  -4   2  -1  109.52    2.09
  -4   2  -1  104.99    2.13
   4  -2   1  108.67    1.90
   4  -2   1  109.09    2.13
  -5   2  -1   50.06    1.26
  -5   2  -1   52.26    1.22
   5  -2   1   52.96    1.30
  -6   2  -1    3.58    0.28
  -6   2  -1    3.09    0.29
   6  -2   1    3.83    0.32
  -7   2  -1    7.38    0.48
   7  -2   1    6.35    0.46
  -8   2  -1   44.81    1.38
   8  -2   1   41.95    1.38
   8   1  -1    3.33    0.42
  -8  -1   1    3.97    0.37
   7   1  -1    1.08    0.24
  -7  -1   1    0.51    0.16
  -7  -1   1    0.69    0.19
   6   1  -1   24.21    0.83
   6   1  -1   23.59    0.68
  -6  -1   1   24.09    0.77
  -6  -1   1   24.47    0.81
   5   1  -1   51.29    1.26
   5   1  -1   51.22    1.11
  -5  -1   1   50.01    1.18
  -5  -1   1   51.17    1.23
   4   1  -1   22.51    0.67
   4   1  -1   22.31    0.58
  -4  -1   1   22.25    0.60
  -4  -1   1   22.32    0.66
   3   1  -1    8.27    0.28
   3   1  -1    8.62    0.33
  -3  -1   1    8.80    0.33
  -3  -1   1    8.00    0.28
   2   1  -1  215.71    3.62
   2   1  -1  215.00    3.68
  -2  -1   1  213.34    3.86
  -2  -1   1  222.76    3.72
   1   1  -1  484.86    8.20
  -1  -1   1  487.90    8.27
  -1  -1   1  479.03    8.07
  -1  -1   1  475.42   10.32
   0  -1   1   43.05    0.75
   0  -1   1   43.26    0.78
   0  -1   1   44.69    0.78
   0  -1   1   45.74    0.77
  -1   1  -1    0.35    0.04
  -1   1  -1    0.35    0.05
   1  -1   1    0.28    0.04
  -2   1  -1  241.20    4.12
  -2   1  -1  242.87    4.05
   2  -1   1  236.61    4.12
   2  -1   1  242.00    4.10
  -3   1  -1  117.81    2.23
  -3   1  -1  121.78    2.19
   3  -1   1  121.37    2.11
   3  -1   1  126.59    2.25
  -4   1  -1    0.33    0.10
  -4   1  -1    0.31    0.09
   4  -1   1    0.20    0.08
   4  -1   1    0.30    0.07
  -5   1  -1   84.34    1.72
  -5   1  -1   82.31    1.79
   5  -1   1   83.68    1.81
   5  -1   1   84.13    1.80
  -6   1  -1  166.20    3.25
  -6   1  -1  167.23    3.14
   6  -1   1  163.80    3.26
  -7   1  -1    7.54    0.47
   7  -1   1    7.84    0.50
  -8   1  -1    2.26    0.35
   8  -1   1    2.11    0.33
   8   0  -1   14.25    0.74
  -8   0   1   15.45    0.70
  -8   0   1   15.07    0.72
   7   0  -1   42.53    1.27
  -7   0   1   40.67    1.18
  -7   0   1   41.98    1.22
   6   0  -1    4.20    0.34
  -6   0   1    5.26    0.34
  -6   0   1    5.42    0.36
   5   0  -1   13.88    0.57
  -5   0   1   15.04    0.53
  -5   0   1   14.90    0.56
   4   0  -1  152.79    2.83
   4   0  -1  147.82    2.60
  -4   0   1  150.18    2.74
  -4   0   1  154.36    2.82
   3   0  -1  253.30    4.23
   3   0  -1  245.43    4.09
  -3   0   1  237.65    4.20
  -3   0   1  239.94    4.14
   2   0  -1   16.54    0.35
  -2   0   1   16.42    0.40
  -2   0   1   16.53    0.45
   1   0  -1  195.85    3.44
   1   0  -1  209.17    3.47
  -1   0   1  207.91    3.35
  -1   0   1  190.19    3.57
   0   0  -1  187.38    3.24
   0   0  -1  192.45    3.25
   0   0   1  185.32    3.25
   0   0   1  202.30    3.23
  -1   0  -1    4.42    0.12
   1   0   1    4.11    0.13
   1   0   1    4.66    0.14
  -2   0  -1    0.32    0.08
  -2   0  -1    0.09    0.05
   2   0   1   -0.09    0.04
  -3   0  -1   63.33    1.20
  -3   0  -1   60.95    1.24
   3   0   1   61.97    1.18
   3   0   1   60.23    1.24
  -4   0  -1   98.49    1.93
  -4   0  -1   98.72    1.88
   4   0   1  100.99    1.95
   4   0   1   97.24    1.84
  -5   0  -1    2.44    0.20
  -5   0  -1    2.16    0.21
   5   0   1    2.61    0.23
   5   0   1    2.47    0.18
  -6   0  -1    8.93    0.43
  -6   0  -1    9.73    0.48
   6   0   1    9.22    0.49
   6   0   1    9.26    0.39
  -7   0  -1   37.93    1.15
   7   0   1   37.41    1.17
  -8   0  -1   34.39    1.17
   8   0   1   35.57    1.20
   8  -1  -1   -0.09    0.10
  -8   1   1    0.26    0.17
  -8   1   1    0.23    0.12
   7  -1  -1   21.65    0.87
  -7   1   1   23.08    0.84
  -7   1   1   22.68    0.83
   6  -1  -1   28.79    0.95
  -6   1   1   28.11    0.88
  -6   1   1   29.70    0.92
   5  -1  -1   45.61    1.15
  -5   1   1   40.99    1.07
  -5   1   1   40.92    1.10
   4  -1  -1    0.05    0.06
   4  -1  -1    0.37    0.06
  -4   1   1    0.21    0.09
  -4   1   1    0.48    0.12
   3  -1  -1   85.58    1.65
   3  -1  -1   89.16    1.70
   3  -1  -1   86.61    1.46
  -3   1   1   86.33    1.72
   2  -1  -1  301.48    5.16
   2  -1  -1  302.80    5.29
  -2   1   1  298.67    5.26
   1  -1  -1  489.08    8.39
   1  -1  -1  499.48    8.45
  -1   1   1  498.27    9.02
  -1   1   1  493.33    8.46
   0  -1  -1    2.97    0.12
   0  -1  -1    2.99    0.08
   0   1   1    3.15    0.11
  -1  -1  -1  149.27    2.64
  -1  -1  -1  154.12    2.62
   1   1   1  149.98    2.48
   1   1   1  143.13    2.52
  -2  -1  -1  161.96    2.75
  -2  -1  -1  169.35    2.79
   2   1   1  160.81    2.79
   2   1   1  154.73    2.74
  -3  -1  -1   29.75    0.70
  -3  -1  -1   28.50    0.67
   3   1   1   28.41    0.68
   3   1   1   27.82    0.68
  -4  -1  -1   13.07    0.44
  -4  -1  -1   13.06    0.46
   4   1   1   13.40    0.44
   4   1   1   12.80    0.46
  -5  -1  -1  149.70    2.85
  -5  -1  -1  151.23    2.79
   5   1   1  150.33    2.85
   5   1   1  145.42    2.76
  -6  -1  -1   57.24    1.42
  -6  -1  -1   58.38    1.36
   6   1   1   56.74    1.42
   6   1   1   55.94    1.31
  -7  -1  -1    1.76    0.28
   7   1   1    1.09    0.23
  -8  -1  -1   14.76    0.71
   8   1   1   14.18    0.71
   8  -2  -1   25.87    1.04
  -8   2   1   26.80    1.00
   7  -2  -1   40.72    1.27
  -7   2   1   40.91    1.20
  -7   2   1   39.32    1.19
   6  -2  -1   14.29    0.64
  -6   2   1   14.07    0.60
  -6   2   1   13.22    0.60
   5  -2  -1   49.09    1.27
  -5   2   1   49.18    1.24
  -5   2   1   51.24    1.27
   4  -2  -1  151.43    2.76
   4  -2  -1  142.80    2.70
  -4   2   1  138.78    2.74
   3  -2  -1  114.32    2.15
   3  -2  -1  116.00    2.16
  -3   2   1  113.34    2.17
   2  -2  -1   34.20    0.75
   2  -2  -1   34.63    0.78
  -2   2   1   34.05    0.78
   1  -2  -1  303.65    5.20
   1  -2  -1  301.68    5.30
  -1   2   1  300.85    5.14
  -1   2   1  297.31    5.04
   0  -2  -1   61.73    1.15
   0  -2  -1   60.59    1.15
   0   2   1   61.95    1.12
  -1  -2  -1   22.66    0.53
  -1  -2  -1   22.50    0.52
   1   2   1   23.01    0.42
  -2  -2  -1   61.09    1.20
  -2  -2  -1   62.30    1.21
   2   2   1   60.85    1.12
   2   2   1   61.43    1.23
  -3  -2  -1   98.14    1.82
  -3  -2  -1   93.73    1.79
   3   2   1   95.10    1.83
   3   2   1   91.77    1.74
  -4  -2  -1   22.53    0.66
  -4  -2  -1   22.96    0.65
   4   2   1   21.32    0.62
   4   2   1   22.70    0.66
  -5  -2  -1    8.06    0.40
  -5  -2  -1    7.26    0.37
   5   2   1    7.64    0.38
   5   2   1    7.76    0.38
  -6  -2  -1   19.70    0.70
  -6  -2  -1   21.27    0.74
   6   2   1   19.81    0.71
   6   2   1   19.77    0.69
  -7  -2  -1   37.07    1.15
   7   2   1   38.14    1.09
   7   2   1   39.22    1.15
   8  -3  -1    5.64    0.49
  -8   3   1    6.40    0.48
   7  -3  -1   26.92    1.00
  -7   3   1   27.47    0.96
  -7   3   1   25.00    0.94
   6  -3  -1   39.95    1.18
  -6   3   1   39.43    1.15
  -6   3   1   37.93    1.13
   5  -3  -1   10.84    0.51
   5  -3  -1   10.29    0.48
  -5   3   1   10.96    0.51
   4  -3  -1   46.39    1.11
   4  -3  -1   42.01    1.08
  -4   3   1   45.18    1.12
   3  -3  -1   94.26    1.88
   3  -3  -1   95.23    1.84
  -3   3   1   94.07    1.88
   2  -3  -1  227.76    3.91
   2  -3  -1  227.13    3.99
  -2   3   1  233.68    4.00
  -2   3   1  232.02    3.87
   1  -3  -1  116.18    1.96
   1  -3  -1  112.73    2.08
   1  -3  -1  112.74    2.08
  -1   3   1  114.60    1.98
   0  -3  -1    2.18    0.14
   0   3   1    2.04    0.13
  -1  -3  -1  225.41    3.81
  -1  -3  -1  223.73    3.83
   1   3   1  219.27    3.82
  -2  -3  -1   55.06    1.15
  -2  -3  -1   57.04    1.17
   2   3   1   55.59    1.20
   2   3   1   55.68    1.02
  -3  -3  -1    0.56    0.11
  -3  -3  -1    0.45    0.10
   3   3   1    0.44    0.08
   3   3   1    0.58    0.12
  -4  -3  -1   67.99    1.47
  -4  -3  -1   67.31    1.46
   4   3   1   66.14    1.37
   4   3   1   67.30    1.50
  -5  -3  -1   93.08    1.96
  -5  -3  -1   91.67    1.95
   5   3   1   90.82    1.97
   5   3   1   94.43    1.89
  -6  -3  -1    6.02    0.38
  -6  -3  -1    5.68    0.38
   6   3   1    5.58    0.36
   6   3   1    5.66    0.38
  -7  -3  -1    4.04    0.35
   7   3   1    4.71    0.36
   7  -4  -1    2.52    0.37
  -7   4   1    2.21    0.34
  -7   4   1    2.25    0.32
   6  -4  -1   19.97    0.79
  -6   4   1   19.42    0.77
  -6   4   1   20.91    0.81
   5  -4  -1  102.33    2.17
   5  -4  -1  101.00    2.15
  -5   4   1   96.40    2.16
   4  -4  -1   72.16    1.57
   4  -4  -1   70.52    1.60
  -4   4   1   70.10    1.60
   3  -4  -1    3.35    0.22
   3  -4  -1    3.55    0.25
  -3   4   1    3.37    0.12
  -3   4   1    3.55    0.25
   2  -4  -1  150.60    2.60
   2  -4  -1  147.73    2.74
  -2   4   1  147.43    2.51
  -2   4   1  142.58    2.72
   1  -4  -1  180.82    3.19
   1  -4  -1  177.97    3.19
   1  -4  -1  176.04    2.99
  -1   4   1  178.08    3.07
   0  -4  -1    4.66    0.25
   0  -4  -1    4.30    0.23
   0   4   1    5.04    0.13
   0   4   1    4.83    0.23
  -1  -4  -1    1.46    0.17
  -1  -4  -1    1.30    0.16
   1   4   1    1.16    0.15
  -2  -4  -1   74.00    1.50
  -2  -4  -1   74.51    1.54
   2   4   1   74.39    1.29
   2   4   1   73.18    1.55
  -3  -4  -1   93.60    1.88
  -3  -4  -1   89.03    1.83
   3   4   1   93.10    1.92
   3   4   1   91.70    1.67
  -4  -4  -1    5.58    0.33
  -4  -4  -1    5.38    0.32
   4   4   1    5.48    0.35
  -5  -4  -1   15.99    0.62
  -5  -4  -1   14.11    0.59
   5   4   1   15.52    0.64
  -6  -4  -1   26.85    0.92
  -6  -4  -1   28.61    0.93
   6   4   1   27.78    0.94
   7   4   1   20.56    0.83
   7  -5  -1   23.64    0.96
  -7   5   1   25.08    0.96
  -7   5   1   23.86    0.97
   6  -5  -1   11.34    0.60
   6  -5  -1   13.45    0.64
  -6   5   1   13.15    0.64
   5  -5  -1    0.14    0.10
   5  -5  -1    1.06    0.21
   4  -5  -1   80.42    1.72
   4  -5  -1   77.93    1.80
  -4   5   1   78.93    1.79
   3  -5  -1  131.59    2.43
   3  -5  -1  126.96    2.56
  -3   5   1  127.99    2.55
   2  -5  -1   30.62    0.73
   2  -5  -1   31.43    0.88
  -2   5   1   32.81    0.72
  -2   5   1   33.49    0.90
   1  -5  -1   14.93    0.52
   1  -5  -1   14.15    0.51
   1  -5  -1   14.15    0.36
  -1   5   1   14.36    0.44
   0  -5  -1   69.43    1.49
   0  -5  -1   68.43    1.47
   0   5   1   69.27    1.43
  -1  -5  -1   78.01    1.63
  -1  -5  -1   74.32    1.59
   1   5   1   77.97    1.61
  -2  -5  -1    3.11    0.23
  -2  -5  -1    2.96    0.24
   2   5   1    2.80    0.23
  -3  -5  -1    0.95    0.17
  -3  -5  -1    0.96    0.16
   3   5   1    0.53    0.14
  -4  -5  -1  102.98    2.12
  -4  -5  -1   99.37    2.15
   4   5   1  100.50    2.19
  -5  -5  -1   24.36    0.84
  -5  -5  -1   22.88    0.80
   5   5   1   22.66    0.85
  -6  -5  -1    1.69    0.27
   6   5   1    1.94    0.29
   7  -6  -1    0.62    0.21
  -7   6   1    1.11    0.24
  -7   6   1    1.10    0.27
   6  -6  -1   41.89    1.28
   6  -6  -1   42.91    1.32
  -6   6   1   42.53    1.32
   5  -6  -1   55.16    1.43
   5  -6  -1   56.10    1.51
  -5   6   1   55.69    1.50
   4  -6  -1   18.76    0.65
   4  -6  -1   18.39    0.73
  -4   6   1   18.76    0.73
   3  -6  -1   11.89    0.45
   3  -6  -1   13.04    0.56
  -3   6   1   11.36    0.53
   2  -6  -1  210.19    4.02
  -2   6   1  221.31    3.79
  -2   6   1  223.86    4.07
   1  -6  -1   35.93    0.99
   1  -6  -1   35.60    0.97
  -1   6   1   35.82    0.88
   0  -6  -1    0.40    0.12
   0  -6  -1    0.18    0.09
   0   6   1    0.23    0.08
  -1  -6  -1   11.96    0.49
  -1  -6  -1   11.07    0.50
   1   6   1   12.43    0.50
  -2  -6  -1   64.12    1.47
  -2  -6  -1   64.79    1.53
   2   6   1   63.82    1.52
  -3  -6  -1    8.84    0.44
  -3  -6  -1    8.91    0.47
   3   6   1    9.02    0.48
  -4  -6  -1   12.01    0.58
  -4  -6  -1   12.09    0.55
   4   6   1   12.22    0.59
  -5  -6  -1   16.08    0.71
   5   6   1   16.34    0.74
   6  -7  -1    1.85    0.31
   6  -7  -1    1.58    0.27
  -6   7   1    1.90    0.32
   5  -7  -1   13.83    0.61
   5  -7  -1   13.00    0.67
  -5   7   1   12.69    0.66
   4  -7  -1   64.03    1.67
   4  -7  -1   65.03    1.50
  -4   7   1   63.69    1.66
   3  -7  -1   48.98    1.35
  -3   7   1   48.81    1.35
   2  -7  -1    6.17    0.40
  -2   7   1    5.43    0.29
  -2   7   1    5.91    0.40
   1  -7  -1    6.50    0.40
   1  -7  -1    6.38    0.39
  -1   7   1    6.09    0.32
   0  -7  -1   63.12    1.52
   0  -7  -1   63.34    1.54
   0   7   1   63.67    1.46
  -1  -7  -1    9.03    0.45
  -1  -7  -1    8.45    0.46
   1   7   1    8.82    0.45
  -2  -7  -1    0.05    0.08
  -2  -7  -1    0.17    0.10
   2   7   1    0.35    0.13
  -3  -7  -1   18.19    0.70
  -3  -7  -1   18.60    0.75
   3   7   1   17.78    0.74
  -4  -7  -1   26.73    0.96
   4   7   1   26.17    0.96
   5  -8  -1   16.16    0.79
  -5   8   1   16.34    0.80
   4  -8  -1    0.43    0.15
  -4   8   1    0.27    0.12
   3  -8  -1   53.31    1.49
  -3   8   1   53.53    1.51
   2  -8  -1   83.59    2.00
  -2   8   1   84.29    2.03
   1  -8  -1   10.44    0.54
   1  -8  -1   10.55    0.55
  -1   8   1   10.33    0.47
   0  -8  -1    6.32    0.43
   0  -8  -1    7.22    0.43
   0   8   1    6.05    0.38
  -1  -8  -1   19.74    0.79
  -1  -8  -1   19.94    0.76
   1   8   1   19.30    0.74
  -2  -8  -1   24.81    0.92
  -2  -8  -1   24.68    0.87
   2   8   1   25.11    0.90
  -3  -8  -1    0.99    0.22
   3   8   1    1.28    0.25
   4  -9  -1   32.65    1.19
  -4   9   1   33.72    1.22
   3  -9  -1    3.17    0.40
  -3   9   1    3.04    0.40
   2  -9  -1    0.10    0.11
  -2   9   1    0.52    0.18
   1  -9  -1   16.96    0.77
   1  -9  -1   16.75    0.75
  -1   9   1   17.02    0.66
   0  -9  -1   22.93    0.88
   0  -9  -1   22.55    0.90
   0   9   1   22.20    0.81
  -1  -9  -1    0.70    0.19
  -1  -9  -1    0.73    0.21
   1   9   1    0.61    0.18
  -2  -9  -1    4.29    0.68
  -2  -9  -1    5.64    0.45
   2   9   1    5.16    0.42
   1  10  -2   15.40    0.72
  -1 -10   2   14.27    0.73
   0  10  -2   10.84    0.57
   0 -10   2   11.06    0.63
  -1  10  -2   -0.02    0.07
   1 -10   2    0.06    0.11
   1 -10   2    0.26    0.14
  -2  10  -2   16.30    0.81
   2 -10   2   19.23    0.81
  -3  10  -2   10.57    0.64
   3 -10   2   10.94    0.63
   3   9  -2   18.80    0.82
  -3  -9   2   19.11    0.85
   2   9  -2   16.07    0.72
  -2  -9   2   15.23    0.72
   1   9  -2    5.78    0.41
  -1  -9   2    5.24    0.42
   0   9  -2   26.79    0.90
   0  -9   2   25.42    0.93
   0  -9   2   28.50    0.91
  -1   9  -2   40.15    1.10
   1  -9   2   38.54    1.15
   1  -9   2   38.52    1.19
  -2   9  -2    5.11    0.43
   2  -9   2    5.76    0.41
   2  -9   2    6.24    0.43
  -3   9  -2    7.39    0.49
   3  -9   2    8.00    0.51
  -4   9  -2   40.17    1.27
   4  -9   2   38.01    1.26
   4   8  -2    0.28    0.15
  -4  -8   2    0.14    0.12
   3   8  -2    2.01    0.31
  -3  -8   2    2.19    0.34
   2   8  -2   17.67    0.72
  -2  -8   2   17.67    0.73
   1   8  -2   19.03    0.72
  -1  -8   2   18.25    0.73
  -1  -8   2   19.09    0.66
   0   8  -2    6.48    0.38
   0  -8   2    6.28    0.40
   0  -8   2    6.55    0.38
  -1   8  -2   10.04    0.46
   1  -8   2   10.65    0.51
   1  -8   2   10.77    0.52
  -2   8  -2   35.81    0.95
   2  -8   2   35.25    1.05
   2  -8   2   35.21    1.06
  -3   8  -2   34.77    1.09
   3  -8   2   36.06    1.11
   3  -8   2   35.11    0.95
  -4   8  -2    1.12    0.23
   4  -8   2    1.37    0.26
   4  -8   2    1.06    0.19
  -5   8  -2   20.89    0.84
   5  -8   2   20.66    0.88
   5  -8   2   21.02    0.80
  -6   8  -2   32.62    1.21
   6  -8   2   34.53    1.15
   5   7  -2    4.97    0.42
  -5  -7   2    4.44    0.40
   4   7  -2   28.49    0.98
  -4  -7   2   27.95    0.99
  -3  -7   2   41.66    1.21
   2   7  -2    1.56    0.24
  -2  -7   2    1.29    0.21
  -2  -7   2    1.33    0.18
   1   7  -2   49.71    1.25
  -1  -7   2   49.87    1.27
  -1  -7   2   49.28    1.16
   0   7  -2   54.92    1.31
   0  -7   2   56.28    1.29
   0  -7   2   54.44    1.35
  -1   7  -2   36.60    0.94
   1  -7   2   35.08    0.98
   1  -7   2   35.35    0.98
   1  -7   2   36.67    1.01
  -2   7  -2    1.53    0.19
   2  -7   2    1.33    0.21
   2  -7   2    1.31    0.17
   2  -7   2    1.96    0.26
  -3   7  -2   62.45    1.51
   3  -7   2   62.95    1.41
   3  -7   2   62.27    1.54
  -4   7  -2   62.63    1.54
   4  -7   2   63.18    1.50
   4  -7   2   63.24    1.60
  -5   7  -2    6.13    0.41
   5  -7   2    6.92    0.47
   5  -7   2    7.08    0.43
  -6   7  -2    2.21    0.36
   6  -7   2    2.17    0.32
   6   6  -2    3.78    0.42
  -6  -6   2    3.78    0.37
   5   6  -2    7.75    0.48
  -5  -6   2    7.96    0.49
   4   6  -2   -0.02    0.08
  -4  -6   2   -0.01    0.07
  -3  -6   2   40.02    0.96
  -3  -6   2   41.05    1.13
   2   6  -2   26.36    0.81
  -2  -6   2   24.73    0.79
  -2  -6   2   25.96    0.69
   1   6  -2   24.77    0.75
   1   6  -2   24.37    0.59
  -1  -6   2   24.78    0.67
  -1  -6   2   23.60    0.74
   0   6  -2    4.30    0.26
   0   6  -2    4.12    0.20
   0  -6   2    4.25    0.27
   0  -6   2    4.19    0.25
  -1   6  -2   71.64    1.46
   1  -6   2   70.99    1.39
   1  -6   2   67.95    1.49
   1  -6   2   69.19    1.51
   2  -6   2   29.45    0.75
   2  -6   2   28.41    0.81
   2  -6   2   30.23    0.85
  -3   6  -2   41.48    1.08
   3  -6   2   41.27    1.01
   3  -6   2   42.60    1.12
   3  -6   2   42.68    1.04
  -4   6  -2    9.20    0.44
   4  -6   2    8.81    0.47
   4  -6   2    9.05    0.44
  -5   6  -2   67.54    1.61
   5  -6   2   66.19    1.68
   5  -6   2   69.30    1.65
  -6   6  -2   36.11    1.20
   6  -6   2   36.29    1.16
  -7   6  -2    0.43    0.18
   7  -6   2    0.18    0.14
   6   5  -2    0.31    0.14
  -6  -5   2    0.34    0.14
   5   5  -2   19.52    0.74
  -5  -5   2   20.97    0.79
   4   5  -2   34.80    0.89
   4   5  -2   33.14    0.97
  -4  -5   2   31.25    1.07
  -4  -5   2   33.00    0.99
   3   5  -2   84.33    1.66
   3   5  -2   82.33    1.79
  -3  -5   2   83.30    1.67
  -3  -5   2   82.88    1.80
   2   5  -2   35.04    0.80
   2   5  -2   34.53    0.91
  -2  -5   2   35.27    0.79
  -2  -5   2   34.21    0.91
   1   5  -2  133.17    2.31
   1   5  -2  128.67    2.47
  -1  -5   2  130.09    2.47
  -1  -5   2  132.19    2.36
   0   5  -2   69.51    1.42
   0   5  -2   68.51    1.31
   0  -5   2   69.77    1.44
   0  -5   2   69.00    1.38
   1  -5   2   22.89    0.60
   1  -5   2   22.56    0.63
   1  -5   2   22.82    0.63
   1  -5   2   22.35    0.57
   2  -5   2   33.66    0.79
   2  -5   2   31.89    0.85
   2  -5   2   32.86    0.81
   2  -5   2   31.46    0.74
  -3   5  -2  130.37    2.46
   3  -5   2  130.46    2.30
   3  -5   2  128.01    2.52
   3  -5   2  129.06    2.45
  -4   5  -2   42.96    1.08
   4  -5   2   44.47    1.16
   4  -5   2   43.06    1.11
  -5   5  -2    0.92    0.20
  -5   5  -2    1.05    0.18
   5  -5   2    2.24    0.28
  -6   5  -2   20.32    0.83
   6  -5   2   20.67    0.81
  -7   5  -2   24.51    0.97
   7  -5   2   23.53    0.95
   7   4  -2   12.10    0.58
  -7  -4   2   12.62    0.65
   6   4  -2    9.24    0.48
   6   4  -2    9.13    0.49
  -6  -4   2    9.39    0.52
   5   4  -2    1.13    0.20
   5   4  -2    0.88    0.18
  -5  -4   2    0.93    0.19
   4   4  -2   18.69    0.62
   4   4  -2   19.92    0.66
  -4  -4   2   19.76    0.68
  -4  -4   2   19.88    0.56
   3   4  -2   52.21    1.22
   3   4  -2   54.67    1.17
  -3  -4   2   54.92    1.25
  -3  -4   2   53.41    1.08
   2   4  -2   39.50    0.95
   2   4  -2   41.15    0.88
  -2  -4   2   40.61    0.96
  -2  -4   2   38.72    0.82
   1   4  -2    7.83    0.26
   1   4  -2    7.99    0.32
  -1  -4   2    7.78    0.26
  -1  -4   2    8.02    0.32
   0   4  -2  126.77    2.23
   0  -4   2  129.95    2.26
   0  -4   2  126.94    2.31
   0  -4   2  126.44    2.30
   1  -4   2   94.91    1.78
   1  -4   2   96.74    1.82
   1  -4   2   99.61    1.81
   1  -4   2   97.89    1.77
  -2   4  -2   56.17    1.13
   2  -4   2   54.12    1.06
   2  -4   2   51.97    1.11
   2  -4   2   51.79    1.15
  -3   4  -2    0.59    0.11
   3  -4   2    0.58    0.12
   3  -4   2    0.54    0.11
   3  -4   2    0.73    0.09
  -4   4  -2   36.70    1.01
  -4   4  -2   36.59    0.92
   4  -4   2   36.78    0.76
   4  -4   2   36.74    0.97
  -5   4  -2  106.68    2.27
  -5   4  -2  104.33    2.13
   5  -4   2  102.78    2.21
  -6   4  -2   20.86    0.82
   6  -4   2   23.35    0.85
  -7   4  -2    4.07    0.38
   7  -4   2    3.19    0.40
   7   3  -2    1.76    0.29
  -7  -3   2    2.02    0.31
   6   3  -2   10.27    0.52
   6   3  -2   10.07    0.47
  -6  -3   2   10.34    0.54
   5   3  -2   38.71    1.06
   5   3  -2   40.41    1.02
  -5  -3   2   38.67    0.95
  -5  -3   2   39.16    1.08
   4   3  -2   75.29    1.60
   4   3  -2   73.04    1.57
  -4  -3   2   77.56    1.65
  -4  -3   2   76.08    1.48
   3   3  -2    5.49    0.28
   3   3  -2    5.24    0.27
  -3  -3   2    5.01    0.21
  -3  -3   2    5.27    0.29
   2   3  -2   86.21    1.68
   2   3  -2   87.05    1.65
  -2  -3   2   89.00    1.70
  -2  -3   2   89.03    1.54
   1   3  -2  233.11    3.89
  -1  -3   2  230.27    3.96
  -1  -3   2  231.15    3.96
  -1  -3   2  235.27    3.95
   0   3  -2   69.77    1.25
   0  -3   2   68.98    1.23
   0  -3   2   66.71    1.28
   0  -3   2   66.31    1.27
   1  -3   2    1.89    0.12
   1  -3   2    1.57    0.12
   1  -3   2    1.58    0.11
   1  -3   2    1.50    0.11
  -2   3  -2  142.56    2.47
   2  -3   2  142.66    2.44
   2  -3   2  141.26    2.52
   2  -3   2  140.72    2.54
  -3   3  -2  224.56    3.98
  -3   3  -2  223.27    3.87
   3  -3   2  229.17    3.95
   3  -3   2  224.15    3.78
  -4   3  -2    1.66    0.21
  -4   3  -2    1.99    0.17
   4  -3   2    2.05    0.19
   4  -3   2    2.50    0.14
  -5   3  -2   11.84    0.47
  -5   3  -2   12.32    0.54
   5  -3   2   11.59    0.52
  -6   3  -2   19.32    0.76
   6  -3   2   19.36    0.76
  -7   3  -2   40.81    1.27
   7  -3   2   40.40    1.27
  -8   3  -2    0.51    0.17
   8  -3   2    0.47    0.19
   7   2  -2   31.45    1.05
  -7  -2   2   31.19    1.05
   6   2  -2    5.73    0.39
   6   2  -2    6.00    0.33
  -6  -2   2    6.35    0.35
  -6  -2   2    6.79    0.42
   5   2  -2    5.92    0.36
   5   2  -2    6.01    0.31
  -5  -2   2    6.04    0.31
  -5  -2   2    6.11    0.36
   4   2  -2   79.33    1.68
   4   2  -2   79.65    1.58
  -4  -2   2   81.40    1.55
  -4  -2   2   78.91    1.68
   3   2  -2   76.53    1.54
   3   2  -2   75.29    1.48
  -3  -2   2   76.91    1.55
  -3  -2   2   76.64    1.41
   2   2  -2    3.52    0.18
   2   2  -2    4.35    0.20
  -2  -2   2    3.71    0.20
  -2  -2   2    3.95    0.14
   1   2  -2   10.17    0.29
  -1  -2   2   10.18    0.30
  -1  -2   2   10.31    0.21
  -1  -2   2   10.63    0.31
   0   2  -2  161.10    2.70
   0  -2   2  166.30    2.78
   0  -2   2  158.60    2.71
   0  -2   2  155.53    2.67
   1  -2   2  231.69    4.11
   1  -2   2  235.81    4.00
   1  -2   2  236.29    4.10
   1  -2   2  240.04    4.02
  -2   2  -2   10.66    0.29
   2  -2   2   10.05    0.34
   2  -2   2   11.55    0.31
  -3   2  -2   31.01    0.71
  -3   2  -2   31.65    0.78
   3  -2   2   30.83    0.76
   3  -2   2   30.95    0.67
  -4   2  -2  114.56    2.27
  -4   2  -2  119.83    2.18
   4  -2   2  114.69    2.10
   4  -2   2  117.17    2.27
  -5   2  -2   94.98    2.05
  -5   2  -2   97.23    1.91
   5  -2   2   97.86    2.04
  -6   2  -2   -0.01    0.09
  -6   2  -2    0.12    0.08
   6  -2   2   -0.01    0.08
  -7   2  -2    5.25    0.41
   7  -2   2    4.86    0.40
  -8   2  -2   33.19    1.17
   8  -2   2   32.56    1.18
   8   1  -2    6.94    0.51
  -8  -1   2    7.27    0.51
   7   1  -2    0.30    0.15
  -7  -1   2    0.08    0.09
  -7  -1   2    0.12    0.10
   6   1  -2   25.67    0.89
  -6  -1   2   26.94    0.89
  -6  -1   2   26.50    0.80
   5   1  -2   70.69    1.41
   5   1  -2   70.26    1.60
  -5  -1   2   71.18    1.49
  -5  -1   2   68.42    1.59
   4   1  -2   59.97    1.34
   4   1  -2   59.73    1.19
  -4  -1   2   59.58    1.23
  -4  -1   2   60.02    1.34
   3   1  -2   32.58    0.70
   3   1  -2   33.17    0.81
  -3  -1   2   31.69    0.80
  -3  -1   2   32.50    0.70
   2   1  -2  165.92    2.77
   2   1  -2  162.68    2.86
  -2  -1   2  165.43    2.73
  -2  -1   2  161.58    2.86
   1   1  -2  155.94    2.67
  -1  -1   2  155.77    2.69
  -1  -1   2  161.15    2.74
   0   1  -2    3.02    0.10
   0   1  -2    2.71    0.12
   0  -1   2    2.70    0.12
   0  -1   2    2.80    0.10
  -1   1  -2   19.71    0.44
   1  -1   2   19.42    0.43
   1  -1   2   20.01    0.43
  -2   1  -2  334.34    5.88
  -2   1  -2  331.17    5.61
   2  -1   2  326.46    5.79
   2  -1   2  338.34    5.86
  -3   1  -2  112.50    1.97
  -3   1  -2  113.10    2.09
   3  -1   2  110.53    2.00
   3  -1   2  110.28    2.07
  -4   1  -2    6.99    0.28
  -4   1  -2    6.83    0.33
   4  -1   2    6.54    0.33
   4  -1   2    6.77    0.28
  -5   1  -2   54.80    1.33
  -5   1  -2   55.55    1.21
   5  -1   2   57.66    1.35
   5  -1   2   53.86    1.19
  -6   1  -2   23.68    0.82
  -6   1  -2   23.79    0.72
   6  -1   2   23.82    0.82
  -7   1  -2   12.01    0.61
   7  -1   2   12.60    0.63
  -8   1  -2    1.63    0.31
   8  -1   2    1.76    0.32
   8   0  -2   11.66    0.67
  -8   0   2   14.03    0.66
  -8   0   2   12.61    0.66
   7   0  -2   25.24    0.95
  -7   0   2   26.27    0.88
  -7   0   2   26.74    0.95
   6   0  -2    1.97    0.29
  -6   0   2    1.68    0.25
  -6   0   2    2.20    0.27
   5   0  -2   51.20    1.28
  -5   0   2   50.18    1.27
  -5   0   2   50.23    1.18
   4   0  -2  116.11    2.30
   4   0  -2  116.18    2.04
  -4   0   2  117.71    2.30
  -4   0   2  117.35    2.19
   3   0  -2   53.16    0.96
   3   0  -2   50.63    1.13
  -3   0   2   52.03    1.16
   2   0  -2    4.77    0.22
   2   0  -2    5.01    0.18
  -2   0   2    4.89    0.15
  -2   0   2    5.03    0.24
   1   0  -2  194.03    3.53
   1   0  -2  200.50    3.41
  -1   0   2  200.79    3.36
  -1   0   2  199.74    3.30
   0   0  -2   33.57    0.64
   0   0  -2   34.53    0.64
   0   0   2   34.41    0.64
   0   0   2   34.76    0.65
  -1   0  -2  226.59    3.75
  -1   0  -2  219.10    6.07
   1   0   2  225.50    3.72
  -2   0  -2    9.82    0.25
  -2   0  -2    9.27    0.31
   2   0   2    9.70    0.29
   2   0   2    9.47    0.29
  -3   0  -2   84.95    1.61
  -3   0  -2   82.24    1.50
   3   0   2   81.29    1.57
   3   0   2   80.27    1.55
  -4   0  -2  141.10    2.64
  -4   0  -2  141.92    2.52
   4   0   2  141.11    2.62
   4   0   2  140.09    2.56
  -5   0  -2   39.62    0.92
  -5   0  -2   36.01    0.99
   5   0   2   36.56    0.91
   5   0   2   37.96    1.00
  -6   0  -2    4.29    0.33
  -6   0  -2    3.97    0.27
   6   0   2    3.43    0.30
   6   0   2    4.02    0.27
  -7   0  -2   28.25    0.98
   7   0   2   27.68    0.96
  -8   0  -2   13.83    0.71
   8   0   2   14.15    0.71
   8  -1  -2    0.10    0.13
  -8   1   2    0.25    0.14
  -8   1   2    0.29    0.15
   7  -1  -2   13.88    0.69
  -7   1   2   14.51    0.67
  -7   1   2   14.67    0.64
   6  -1  -2   12.00    0.58
  -6   1   2   12.84    0.59
  -6   1   2   13.94    0.57
   5  -1  -2  104.58    2.21
  -5   1   2  104.38    2.12
  -5   1   2  105.50    2.22
   4  -1  -2    0.85    0.16
   4  -1  -2    1.03    0.15
  -4   1   2    0.93    0.17
   3  -1  -2   87.05    1.73
   3  -1  -2   87.37    1.67
  -3   1   2   87.84    1.76
   2  -1  -2  190.24    3.33
   2  -1  -2  196.54    3.37
  -2   1   2  199.33    3.41
   1  -1  -2   46.17    0.88
   1  -1  -2   47.09    0.90
  -1   1   2   46.79    0.92
  -1   1   2   46.20    0.81
   0  -1  -2   52.82    0.96
   0  -1  -2   53.25    0.90
   0   1   2   49.99    0.95
  -1  -1  -2  145.00    2.48
  -1  -1  -2  142.75    2.43
   1   1   2  146.90    2.42
   1   1   2  141.09    2.47
  -2  -1  -2  152.46    2.58
   2   1   2  157.14    2.66
   2   1   2  143.80    2.56
  -3  -1  -2   27.96    0.71
  -3  -1  -2   28.67    0.66
   3   1   2   28.82    0.71
   3   1   2   28.87    0.68
  -4  -1  -2   70.42    1.38
  -4  -1  -2   68.69    1.47
   4   1   2   66.52    1.43
   4   1   2   68.31    1.42
  -5  -1  -2   49.18    1.21
  -5  -1  -2   47.96    1.11
   5   1   2   47.42    1.17
   5   1   2   49.47    1.16
  -6  -1  -2   23.55    0.81
  -6  -1  -2   22.48    0.71
   6   1   2   23.31    0.79
   6   1   2   22.96    0.74
  -7  -1  -2    0.68    0.20
   7   1   2    0.34    0.14
   8  -2  -2   24.42    1.01
  -8   2   2   24.19    0.95
  -8   2   2   25.08    0.95
   7  -2  -2   10.53    0.60
  -7   2   2   12.35    0.60
  -7   2   2   11.50    0.60
   6  -2  -2    9.48    0.53
  -6   2   2   11.75    0.57
  -6   2   2   10.96    0.53
   5  -2  -2   71.73    1.57
   5  -2  -2   68.80    1.63
  -5   2   2   70.61    1.66
   4  -2  -2   96.60    2.00
   4  -2  -2   99.74    1.96
  -4   2   2   98.44    2.05
   3  -2  -2   29.40    0.75
   3  -2  -2   29.13    0.76
  -3   2   2   29.69    0.79
   2  -2  -2   78.40    1.52
   2  -2  -2   79.44    1.50
  -2   2   2   78.96    1.55
   1  -2  -2   92.47    1.77
   1  -2  -2   99.77    1.70
  -1   2   2   99.33    1.67
   0  -2  -2  155.54    2.73
   0  -2  -2  161.79    2.72
   0   2   2  156.36    2.69
  -1  -2  -2    0.09    0.06
  -1  -2  -2    0.15    0.06
   1   2   2    0.16    0.03
   1   2   2    0.02    0.06
  -2  -2  -2   45.56    0.99
  -2  -2  -2   45.65    0.95
   2   2   2   46.46    1.01
   2   2   2   46.23    0.86
  -3  -2  -2   90.86    1.77
  -3  -2  -2   89.95    1.70
   3   2   2   87.68    1.76
   3   2   2   88.57    1.65
  -4  -2  -2   73.85    1.60
  -4  -2  -2   76.05    1.54
   4   2   2   76.26    1.60
   4   2   2   74.82    1.51
  -5  -2  -2    4.48    0.28
  -5  -2  -2    4.59    0.31
   5   2   2    4.48    0.30
   5   2   2    4.76    0.29
  -6  -2  -2    9.43    0.49
  -6  -2  -2    9.35    0.44
   6   2   2    9.58    0.47
   6   2   2    9.13    0.46
  -7  -2  -2   32.49    1.08
   7   2   2   32.47    1.03
   7   2   2   32.99    1.01
   8  -3  -2    4.58    0.45
  -8   3   2    4.62    0.41
  -8   3   2    5.22    0.43
   7  -3  -2   14.83    0.73
  -7   3   2   15.59    0.72
  -7   3   2   15.00    0.69
  -6   3   2   36.20    1.13
  -6   3   2   36.54    1.10
   5  -3  -2   14.85    0.59
   5  -3  -2   15.10    0.62
  -5   3   2   15.12    0.63
   4  -3  -2    8.66    0.40
   4  -3  -2    7.73    0.38
  -4   3   2    7.23    0.39
   3  -3  -2  113.86    2.20
   3  -3  -2  112.27    2.15
  -3   3   2  113.97    2.23
   2  -3  -2  108.75    2.10
   2  -3  -2  108.50    2.01
  -2   3   2  114.33    2.13
  -2   3   2  112.63    1.88
   1  -3  -2    0.71    0.12
   1  -3  -2    0.84    0.07
  -1   3   2    0.72    0.09
   0  -3  -2   51.51    1.06
   0   3   2   49.03    1.01
  -1  -3  -2  246.69    4.26
   1   3   2  251.33    4.28
  -2  -3  -2   39.59    0.91
  -2  -3  -2   40.00    0.93
   2   3   2   40.55    0.74
   2   3   2   39.85    0.95
  -3  -3  -2   15.00    0.51
  -3  -3  -2   13.66    0.47
   3   3   2   15.02    0.40
   3   3   2   14.01    0.52
  -4  -3  -2   58.92    1.31
  -4  -3  -2   58.23    1.36
   4   3   2   58.30    1.37
   4   3   2   59.00    1.22
  -5  -3  -2   41.44    1.12
  -5  -3  -2   42.52    1.08
   5   3   2   40.70    1.02
   5   3   2   41.42    1.13
  -6  -3  -2    4.34    0.35
  -6  -3  -2    4.80    0.33
   6   3   2    4.72    0.36
  -7  -3  -2    0.70    0.19
   7   3   2    0.62    0.17
   7  -4  -2    0.08    0.12
  -7   4   2    0.31    0.15
  -7   4   2    0.70    0.20
   6  -4  -2   29.65    0.98
   6  -4  -2   30.57    1.02
  -6   4   2   28.87    1.01
   5  -4  -2   97.85    2.11
   5  -4  -2   96.83    2.10
  -5   4   2   94.47    2.14
   4  -4  -2   33.04    0.91
   4  -4  -2   32.43    0.94
  -4   4   2   33.49    0.97
   3  -4  -2    1.58    0.21
  -3   4   2    1.00    0.17
   2  -4  -2   38.72    0.85
   2  -4  -2   38.85    0.97
  -2   4   2   38.61    0.97
  -2   4   2   39.35    0.78
   1  -4  -2   97.24    1.89
   1  -4  -2   92.27    1.88
   1  -4  -2   97.47    1.67
  -1   4   2   95.70    1.76
   0  -4  -2   30.50    0.79
   0  -4  -2   31.19    0.80
   0   4   2   32.38    0.76
  -1  -4  -2    9.36    0.38
  -1  -4  -2   10.03    0.39
   1   4   2    9.80    0.38
  -2  -4  -2   63.82    1.39
  -2  -4  -2   66.46    1.40
   2   4   2   64.80    1.43
  -3  -4  -2   77.51    1.68
  -3  -4  -2   81.05    1.68
   3   4   2   80.32    1.73
  -4  -4  -2    2.71    0.24
  -4  -4  -2    2.62    0.24
   4   4   2    2.53    0.29
  -5  -4  -2    0.79    0.18
  -5  -4  -2    0.72    0.16
   5   4   2    0.49    0.15
  -6  -4  -2   19.70    0.75
  -6  -4  -2   19.37    0.78
   6   4   2   19.98    0.79
   7  -5  -2   21.30    0.91
  -7   5   2   20.22    0.88
  -7   5   2   21.36    0.91
   6  -5  -2   26.17    0.94
   6  -5  -2   24.99    0.93
  -6   5   2   24.22    0.93
   5  -5  -2    0.96    0.19
   5  -5  -2    0.89    0.20
  -5   5   2    0.68    0.17
   4  -5  -2   36.99    1.08
   4  -5  -2   36.32    0.99
  -4   5   2   38.17    1.10
   3  -5  -2   89.36    1.77
   3  -5  -2   88.77    1.92
  -3   5   2   86.01    1.91
   2  -5  -2    7.59    0.39
   2  -5  -2    7.93    0.30
  -2   5   2    8.35    0.41
  -2   5   2    7.86    0.29
   1  -5  -2    8.49    0.39
   1  -5  -2    8.60    0.25
   1  -5  -2    8.44    0.40
  -1   5   2    8.18    0.32
   0  -5  -2   86.69    1.78
   0  -5  -2   83.20    1.76
   0   5   2   85.51    1.71
  -1  -5  -2   79.91    1.70
  -1  -5  -2   79.48    1.68
   1   5   2   78.91    1.67
  -2  -5  -2    3.14    0.24
  -2  -5  -2    3.09    0.25
   2   5   2    2.66    0.24
  -3  -5  -2   47.30    1.19
  -3  -5  -2   45.93    1.18
   3   5   2   46.64    1.22
  -4  -5  -2   56.54    1.41
  -4  -5  -2   56.45    1.41
   4   5   2   57.99    1.47
  -5  -5  -2    9.53    0.50
  -5  -5  -2    9.97    0.52
   5   5   2   10.37    0.55
  -6  -5  -2    0.07    0.08
  -6  -5  -2    0.12    0.12
   6   5   2    0.08    0.11
   7  -6  -2    2.96    0.40
   7  -6  -2    4.20    0.47
   6  -6  -2   39.95    1.24
   6  -6  -2   41.05    1.29
  -6   6   2   39.16    1.29
   5  -6  -2   62.75    1.57
   5  -6  -2   64.66    1.67
  -5   6   2   62.91    1.68
   4  -6  -2    5.88    0.41
   4  -6  -2    6.21    0.36
  -4   6   2    6.86    0.44
   3  -6  -2   37.60    1.10
   3  -6  -2   38.28    0.93
  -3   6   2   36.81    1.10
   2  -6  -2   20.21    0.72
  -2   6   2   20.67    0.57
  -2   6   2   21.15    0.75
   1  -6  -2   33.80    0.97
   1  -6  -2   34.42    0.98
  -1   6   2   34.10    0.86
   0  -6  -2    0.42    0.12
   0  -6  -2    0.49    0.14
   0   6   2    0.38    0.11
  -1  -6  -2   25.37    0.81
  -1  -6  -2   25.81    0.81
   1   6   2   25.91    0.79
  -2  -6  -2   45.07    1.18
  -2  -6  -2   44.17    1.19
   2   6   2   45.01    1.20
  -3  -6  -2   15.97    0.65
  -3  -6  -2   15.81    0.64
   3   6   2   15.85    0.66
  -4  -6  -2    0.68    0.17
  -4  -6  -2    0.52    0.17
   4   6   2    0.84    0.21
  -5  -6  -2    7.54    0.47
  -5  -6  -2    7.42    0.48
   5   6   2    7.14    0.49
   6  -7  -2    2.15    0.33
   6  -7  -2    2.26    0.36
  -6   7   2    3.02    0.42
   5  -7  -2   10.73    0.61
   5  -7  -2   10.44    0.53
  -5   7   2   10.43    0.61
   4  -7  -2   34.54    1.27
   4  -7  -2   38.23    1.19
  -4   7   2   36.30    1.18
   3  -7  -2   44.12    1.29
  -3   7   2   45.66    1.31
   2  -7  -2    2.05    0.30
  -2   7   2    1.78    0.23
  -2   7   2    1.50    0.25
   1  -7  -2   33.35    1.02
   1  -7  -2   34.52    1.04
  -1   7   2   34.27    0.91
   0  -7  -2   36.83    1.08
   0  -7  -2   37.37    1.10
   0   7   2   36.87    1.00
  -1  -7  -2   18.82    0.71
  -1  -7  -2   18.58    0.72
   1   7   2   19.02    0.70
  -2  -7  -2    4.82    0.37
  -2  -7  -2    4.99    0.36
   2   7   2    5.07    0.37
  -3  -7  -2   44.82    1.27
  -3  -7  -2   44.41    1.29
   3   7   2   45.09    1.30
  -4  -7  -2   23.84    0.90
  -4  -7  -2   23.71    0.88
   4   7   2   22.12    0.89
   5  -8  -2   27.83    1.08
  -5   8   2   28.24    1.11
   4  -8  -2    3.63    0.44
  -4   8   2    2.70    0.37
   3  -8  -2   22.15    0.89
  -3   8   2   21.10    0.89
   2  -8  -2   16.94    0.74
  -2   8   2   16.58    0.75
   1  -8  -2    4.93    0.38
   1  -8  -2    4.30    0.37
  -1   8   2    4.37    0.31
   0  -8  -2    8.20    0.49
   0  -8  -2    7.22    0.47
   0   8   2    7.77    0.43
  -1  -8  -2   22.66    0.85
  -1  -8  -2   22.80    0.87
   1   8   2   23.10    0.83
  -2  -8  -2   12.26    0.63
  -2  -8  -2   12.64    0.62
   2   8   2   14.07    0.65
  -3  -8  -2    0.24    0.13
  -3  -8  -2    0.30    0.15
   3   8   2    0.14    0.12
   3  -9  -2    5.06    0.44
  -3   9   2    5.11    0.45
   2  -9  -2    1.41    0.28
  -2   9   2    1.22    0.27
   1  -9  -2   41.17    1.28
  -1   9   2   37.61    1.30
  -1   9   2   40.18    1.39
   0  -9  -2   10.49    0.59
   0  -9  -2   11.30    0.63
   0   9   2   10.48    0.54
  -1  -9  -2    0.03    0.10
  -1  -9  -2    0.11    0.10
   1   9   2    0.08    0.10
   1  10  -3   29.05    1.03
  -1 -10   3   27.89    1.05
   0  10  -3   12.45    0.62
   0 -10   3   12.89    0.67
  -1  10  -3    1.22    0.24
   1 -10   3    1.27    0.28
   1 -10   3    1.33    0.26
   2 -10   3   13.39    0.67
   2 -10   3   14.09    0.69
  -3  10  -3   30.60    1.12
   3 -10   3   31.33    1.10
   3   9  -3   31.72    1.10
  -3  -9   3   29.67    1.10
   2   9  -3    5.78    0.43
  -2  -9   3    5.56    0.43
   1   9  -3    3.14    0.37
  -1  -9   3    3.28    0.39
   0   9  -3   19.32    0.74
   0  -9   3   19.00    0.77
  -1   9  -3   31.77    0.96
   1  -9   3   30.53    0.97
   1  -9   3   30.51    1.01
  -2   9  -3    2.43    0.29
   2  -9   3    2.52    0.33
   2  -9   3    2.81    0.34
  -3   9  -3   11.32    0.59
   3  -9   3   11.03    0.59
  -4   9  -3   22.40    0.88
   4  -9   3   21.00    0.78
   4  -9   3   22.03    0.90
   5  -9   3   10.33    0.56
   5  -9   3   10.05    0.62
   4   8  -3    4.39    0.40
  -4  -8   3    4.77    0.42
   3   8  -3    2.35    0.33
  -3  -8   3    2.32    0.33
   2   8  -3   35.93    1.11
  -2  -8   3   36.24    1.12
   1   8  -3   36.89    1.09
  -1  -8   3   37.44    1.11
   0   8  -3   12.52    0.55
   0  -8   3   13.08    0.58
   0  -8   3   13.03    0.52
  -1   8  -3   27.50    0.83
   1  -8   3   26.07    0.83
   1  -8   3   26.18    0.87
  -2   8  -3   54.32    1.28
   2  -8   3   52.75    1.23
   2  -8   3   54.33    1.38
   2  -8   3   52.84    1.36
  -3   8  -3   31.30    0.99
   3  -8   3   31.27    1.01
   3  -8   3   31.80    0.91
  -4   8  -3    0.53    0.15
   4  -8   3    0.85    0.20
   4  -8   3    0.88    0.18
   5  -8   3   36.95    1.20
   5  -8   3   35.83    1.12
  -6   8  -3   21.27    0.94
   6  -8   3   21.90    0.89
   5   7  -3   12.62    0.65
  -5  -7   3   12.32    0.66
   4   7  -3   25.91    0.93
  -4  -7   3   25.94    0.94
   3   7  -3   25.47    0.89
  -3  -7   3   27.30    0.92
   2   7  -3    0.01    0.08
  -2  -7   3    0.08    0.09
   1   7  -3   29.18    0.88
  -1  -7   3   28.86    0.88
  -1  -7   3   28.43    0.76
   0   7  -3   46.80    1.03
   0   7  -3   45.92    1.16
   0  -7   3   46.68    1.11
   0  -7   3   47.17    1.19
  -1   7  -3   31.50    0.86
   1  -7   3   30.23    0.78
   1  -7   3   30.32    0.89
   1  -7   3   31.98    0.87
   2  -7   3    1.31    0.18
   2  -7   3    0.50    0.11
   2  -7   3    0.54    0.13
   2  -7   3    0.59    0.14
  -3   7  -3   95.03    2.00
   3  -7   3   88.32    1.91
   3  -7   3   95.31    1.83
   3  -7   3   90.10    2.01
  -4   7  -3   12.12    0.54
   4  -7   3   12.25    0.54
   4  -7   3   12.88    0.61
  -5   7  -3    7.91    0.50
   5  -7   3    7.52    0.46
  -6   7  -3    8.81    0.57
   6  -7   3    8.60    0.53
   6   6  -3   18.63    0.79
  -6  -6   3   18.58    0.83
   5   6  -3   25.55    0.90
  -5  -6   3   25.13    0.93
   4   6  -3    0.48    0.16
  -4  -6   3    0.61    0.18
   3   6  -3   60.01    1.47
   3   6  -3   61.87    1.34
  -3  -6   3   59.65    1.48
   2   6  -3   46.76    1.04
   2   6  -3   45.85    1.18
  -2  -6   3   45.25    1.17
   1   6  -3   56.34    1.17
   1   6  -3   58.65    1.34
  -1  -6   3   57.80    1.33
  -1  -6   3   55.91    1.18
   0   6  -3    1.75    0.15
   0   6  -3    1.84    0.21
   0  -6   3    1.80    0.18
   0  -6   3    1.88    0.16
   1  -6   3   73.22    1.55
   1  -6   3   73.53    1.56
   1  -6   3   76.53    1.59
   1  -6   3   77.18    1.51
   2  -6   3   85.42    1.77
   2  -6   3   84.22    1.73
   2  -6   3   86.59    1.68
   2  -6   3   81.59    1.69
  -3   6  -3   27.85    0.79
   3  -6   3   26.98    0.78
   3  -6   3   27.58    0.70
   3  -6   3   27.36    0.84
  -4   6  -3   39.25    1.03
   4  -6   3   39.55    1.07
   4  -6   3   39.30    1.11
  -5   6  -3   66.89    1.70
  -5   6  -3   65.41    1.57
   5  -6   3   66.34    1.62
  -6   6  -3   11.91    0.65
   6  -6   3   12.65    0.63
  -7   6  -3    3.67    0.48
   7  -6   3    3.40    0.43
   6   5  -3    0.47    0.16
  -6  -5   3    1.01    0.24
   5   5  -3   31.92    0.99
   5   5  -3   32.14    0.95
  -5  -5   3   32.41    1.03
   4   5  -3   76.22    1.71
   4   5  -3   74.06    1.63
  -4  -5   3   74.12    1.73
   3   5  -3    9.23    0.38
   3   5  -3    8.64    0.42
  -3  -5   3    8.52    0.30
  -3  -5   3    7.93    0.41
   2   5  -3   34.84    0.82
   2   5  -3   32.45    0.89
  -2  -5   3   33.63    0.73
  -2  -5   3   33.97    0.90
   1   5  -3   85.59    1.74
   1   5  -3   86.89    1.62
  -1  -5   3   84.58    1.72
  -1  -5   3   84.94    1.58
   0   5  -3   54.65    1.11
   0  -5   3   54.65    1.18
   0  -5   3   53.93    1.11
   0  -5   3   52.48    1.17
   1  -5   3   12.72    0.43
   1  -5   3   12.32    0.43
   1  -5   3   12.77    0.41
   1  -5   3   13.49    0.44
   2  -5   3   64.32    1.30
   2  -5   3   65.43    1.38
   2  -5   3   62.69    1.33
   2  -5   3   65.03    1.33
  -3   5  -3   79.38    1.58
   3  -5   3   74.79    1.61
   3  -5   3   77.28    1.50
   3  -5   3   78.66    1.68
  -4   5  -3   24.11    0.70
  -4   5  -3   22.93    0.79
   4  -5   3   23.84    0.75
  -5   5  -3    0.38    0.13
  -5   5  -3    0.92    0.16
   5  -5   3    0.31    0.11
  -6   5  -3   54.97    1.51
   6  -5   3   53.07    1.47
  -7   5  -3   46.25    1.41
   7  -5   3   42.40    1.36
   7   4  -3   15.59    0.72
  -7  -4   3   15.38    0.75
   6   4  -3   28.57    0.91
   6   4  -3   29.85    0.96
  -6  -4   3   28.47    0.99
   5   4  -3   10.35    0.49
   5   4  -3   10.30    0.47
  -5  -4   3   10.49    0.52
   4   4  -3   10.08    0.45
   4   4  -3    9.76    0.44
  -4  -4   3    9.88    0.47
   3   4  -3  106.28    2.14
   3   4  -3  108.57    2.10
  -3  -4   3  110.58    2.18
  -3  -4   3  110.25    1.93
   2   4  -3  110.39    2.04
   2   4  -3  107.88    2.10
  -2  -4   3  110.02    1.89
  -2  -4   3  109.04    2.10
   1   4  -3    6.35    0.25
  -1  -4   3    6.19    0.28
  -1  -4   3    6.50    0.29
  -1  -4   3    6.56    0.21
   0   4  -3   48.86    0.99
   0  -4   3   48.63    1.02
   0  -4   3   47.35    0.95
   1  -4   3  119.96    2.15
   1  -4   3  115.29    2.15
   1  -4   3  121.54    2.16
   1  -4   3  122.27    2.18
   2  -4   3   95.16    1.82
   2  -4   3   95.61    1.83
   2  -4   3   93.18    1.75
   2  -4   3   95.99    1.76
  -3   4  -3    2.31    0.16
  -3   4  -3    2.03    0.19
   3  -4   3    1.83    0.13
   3  -4   3    1.85    0.17
  -4   4  -3   68.31    1.43
  -4   4  -3   67.89    1.58
   4  -4   3   70.52    1.39
   4  -4   3   71.85    1.56
  -5   4  -3   71.19    1.67
  -5   4  -3   66.90    1.49
   5  -4   3   68.43    1.61
  -6   4  -3    6.64    0.45
   6  -4   3    6.18    0.42
  -7   4  -3    4.81    0.42
   7  -4   3    4.56    0.40
   7   3  -3    0.91    0.22
  -7  -3   3    0.37    0.16
   6   3  -3   14.74    0.65
   6   3  -3   15.44    0.58
  -6  -3   3   13.94    0.65
   5   3  -3   81.81    1.80
   5   3  -3   79.01    1.70
  -5  -3   3   78.00    1.81
  -5  -3   3   82.55    1.62
   4   3  -3   59.76    1.33
   4   3  -3   61.86    1.40
  -4  -3   3   61.24    1.21
  -4  -3   3   61.19    1.42
   3   3  -3    6.83    0.33
   3   3  -3    6.95    0.31
  -3  -3   3    7.12    0.34
  -3  -3   3    6.95    0.23
   2   3  -3  108.79    2.02
  -2  -3   3  111.14    1.83
  -2  -3   3  107.50    2.03
  -2  -3   3  110.00    2.06
   1   3  -3  185.24    3.28
  -1  -3   3  193.23    3.32
  -1  -3   3  196.31    3.33
  -1  -3   3  194.33    3.14
   0   3  -3   36.20    0.77
   0  -3   3   36.59    0.70
   0  -3   3   37.77    0.76
   0  -3   3   35.66    0.79
   1  -3   3   29.91    0.66
   1  -3   3   30.90    0.68
   1  -3   3   30.19    0.63
   1  -3   3   29.80    0.68
  -2   3  -3  201.82    3.51
  -2   3  -3  202.33    3.39
   2  -3   3  199.31    3.49
   2  -3   3  201.68    3.44
  -3   3  -3   34.84    0.87
  -3   3  -3   34.88    0.76
   3  -3   3   33.95    0.76
   3  -3   3   34.07    0.85
  -4   3  -3    6.30    0.34
  -4   3  -3    6.92    0.29
   4  -3   3    6.39    0.27
   4  -3   3    6.61    0.34
  -5   3  -3   20.11    0.72
  -5   3  -3   21.07    0.62
   5  -3   3   20.94    0.72
  -6   3  -3   70.86    1.75
   6  -3   3   72.62    1.74
  -7   3  -3   41.11    1.29
   7  -3   3   40.35    1.27
   7   2  -3   36.46    1.18
  -7  -2   3   36.34    1.18
   6   2  -3   17.77    0.71
   6   2  -3   17.59    0.58
  -6  -2   3   16.24    0.69
   5   2  -3    0.57    0.12
   5   2  -3    0.53    0.14
  -5  -2   3    0.41    0.10
  -5  -2   3    0.51    0.15
   4   2  -3   74.65    1.62
   4   2  -3   77.34    1.51
  -4  -2   3   73.25    1.43
  -4  -2   3   75.15    1.63
   3   2  -3   80.57    1.65
   3   2  -3   81.78    1.57
  -3  -2   3   83.65    1.67
  -3  -2   3   83.76    1.47
   2   2  -3  153.23    2.77
  -2  -2   3  157.44    2.62
  -2  -2   3  162.25    2.79
  -2  -2   3  153.02    2.72
   1   2  -3   23.20    0.54
  -1  -2   3   23.50    0.55
   0   2  -3  143.76    2.38
   0   2  -3  140.65    2.44
   0  -2   3  141.01    2.44
  -1   2  -3  171.98    2.88
   1  -2   3  169.84    2.89
   1  -2   3  169.80    2.90
   1  -2   3  168.00    2.90
  -2   2  -3   32.53    0.76
  -2   2  -3   34.91    0.65
   2  -2   3   33.37    0.73
   2  -2   3   33.77    0.76
  -3   2  -3   69.46    1.42
  -3   2  -3   67.60    1.27
   3  -2   3   67.79    1.34
   3  -2   3   70.51    1.41
  -4   2  -3  108.23    1.94
  -4   2  -3  104.70    2.11
   4  -2   3  106.39    2.10
   4  -2   3  104.48    1.99
  -5   2  -3   14.40    0.58
  -5   2  -3   14.28    0.46
   5  -2   3   13.74    0.56
   5  -2   3   13.86    0.47
  -6   2  -3    1.62    0.27
   6  -2   3    2.18    0.31
  -7   2  -3   30.89    1.06
   7  -2   3   29.67    1.03
  -8   2  -3   39.94    1.32
   8  -2   3   37.94    1.29
   8   1  -3   14.09    0.74
  -8  -1   3   13.41    0.71
   7   1  -3    8.14    0.52
  -7  -1   3    8.37    0.52
   6   1  -3   62.80    1.57
  -6  -1   3   60.85    1.40
  -6  -1   3   59.64    1.55
   5   1  -3   96.75    2.04
   5   1  -3   94.10    1.79
  -5  -1   3   94.49    1.86
  -5  -1   3   89.95    2.01
   4   1  -3   13.73    0.40
  -4  -1   3   13.22    0.42
  -4  -1   3   14.22    0.53
   3   1  -3  131.85    2.29
  -3  -1   3  129.00    2.46
  -3  -1   3  131.75    2.28
   2   1  -3  146.81    2.50
  -2  -1   3  151.80    2.68
  -2  -1   3  152.20    2.56
   1   1  -3  149.44    2.43
  -1  -1   3  143.34    2.47
  -1  -1   3  144.64    2.51
   0   1  -3  119.29    2.00
   0  -1   3  120.21    2.01
   0  -1   3  113.57    2.03
  -1   1  -3  524.98    9.10
   1  -1   3  543.19    9.11
   1  -1   3  534.64    9.23
  -2   1  -3  131.17    2.17
  -2   1  -3  128.65    2.32
   2  -1   3  133.45    2.31
   2  -1   3  128.60    2.31
  -3   1  -3   16.68    0.39
  -3   1  -3   16.12    0.50
   3  -1   3   16.42    0.49
   3  -1   3   16.17    0.47
  -4   1  -3    2.37    0.20
  -4   1  -3    2.50    0.15
   4  -1   3    2.79    0.21
   4  -1   3    2.85    0.19
  -5   1  -3   68.65    1.37
  -5   1  -3   67.69    1.56
   5  -1   3   65.72    1.43
   5  -1   3   67.84    1.53
  -6   1  -3   47.88    1.29
   6  -1   3   47.29    1.14
   6  -1   3   44.62    1.24
  -7   1  -3   11.60    0.61
   7  -1   3   10.26    0.57
  -8   1  -3    2.26    0.37
   8  -1   3    1.69    0.31
   8   0  -3   17.59    0.83
  -8   0   3   17.60    0.82
   7   0  -3   33.56    1.12
  -7   0   3   32.58    1.09
  -7   0   3   30.89    0.97
   6   0  -3   11.05    0.56
  -6   0   3   10.74    0.47
  -6   0   3   10.84    0.55
   5   0  -3   65.96    1.56
  -5   0   3   66.01    1.57
  -5   0   3   64.96    1.43
   4   0  -3   64.50    1.44
   4   0  -3   64.81    1.18
  -4   0   3   64.94    1.48
  -4   0   3   61.55    1.32
   3   0  -3  117.68    2.02
   3   0  -3  115.96    2.24
   3   0  -3  118.57    2.12
  -3   0   3  121.28    2.30
   2   0  -3   12.09    0.33
   2   0  -3   10.92    0.38
  -2   0   3   13.90    0.44
  -2   0   3   11.79    0.29
   1   0  -3  134.76    2.29
   1   0  -3  130.99    2.24
  -1   0   3  131.63    2.23
  -1   0   3  132.20    2.33
   0   0  -3   51.98    0.98
   0   0  -3   54.75    0.99
   0   0   3   53.03    1.01
   0   0   3   55.83    0.99
  -1   0  -3  231.47    3.80
   1   0   3  231.18    3.74
   1   0   3  214.36    3.78
  -2   0  -3    1.91    0.09
   2   0   3    2.22    0.13
   2   0   3    2.29    0.15
  -3   0  -3  169.07    2.83
  -3   0  -3  165.85    3.00
   3   0   3  167.04    2.94
   3   0   3  165.94    2.96
  -4   0  -3   43.70    1.10
  -4   0  -3   47.24    0.96
   4   0   3   48.31    1.08
   4   0   3   45.88    1.06
  -5   0  -3    1.66    0.15
  -5   0  -3    2.06    0.26
   5   0   3    1.95    0.23
   5   0   3    1.63    0.20
  -6   0  -3   11.33    0.55
   6   0   3   11.30    0.48
   6   0   3   10.63    0.51
  -7   0  -3   36.11    1.15
   7   0   3   35.67    1.12
   8  -1  -3    0.58    0.20
  -8   1   3    0.71    0.20
  -8   1   3    0.41    0.16
   7  -1  -3   23.83    0.94
  -7   1   3   27.49    0.99
  -7   1   3   27.33    0.90
   6  -1  -3   86.04    2.00
  -6   1   3   82.82    1.86
  -6   1   3   86.22    2.00
   5  -1  -3   83.62    1.85
  -5   1   3   82.24    1.89
  -5   1   3   81.46    1.75
   4  -1  -3   20.37    0.66
   4  -1  -3   19.71    0.59
  -4   1   3   19.51    0.68
   3  -1  -3  220.77    3.88
   3  -1  -3  222.59    3.80
  -3   1   3  215.68    3.93
   2  -1  -3  117.55    2.09
   2  -1  -3  113.74    2.13
  -2   1   3  118.90    2.19
  -2   1   3  117.25    1.94
   1  -1  -3   98.69    1.80
   1  -1  -3   97.06    1.78
  -1   1   3  104.82    1.74
  -1   1   3  103.18    1.84
   0  -1  -3   27.49    0.60
   0  -1  -3   27.80    0.53
   0   1   3   26.59    0.58
   0   1   3   26.88    0.58
  -1  -1  -3  310.13    5.30
   1   1   3  307.52    5.20
   1   1   3  318.00    5.17
  -2  -1  -3   75.31    1.45
  -2  -1  -3   74.90    1.34
   2   1   3   73.13    1.33
   2   1   3   70.09    1.42
  -3  -1  -3    2.53    0.19
  -3  -1  -3    2.31    0.14
   3   1   3    2.44    0.18
   3   1   3    2.41    0.16
  -4  -1  -3   33.62    0.90
  -4  -1  -3   33.61    0.78
   4   1   3   33.93    0.88
   4   1   3   33.53    0.83
  -5  -1  -3   52.90    1.33
  -5  -1  -3   55.02    1.19
   5   1   3   54.89    1.29
   5   1   3   55.64    1.28
  -6  -1  -3   31.27    0.99
   6   1   3   32.64    0.95
   6   1   3   31.56    0.93
  -7  -1  -3    2.36    0.34
   7   1   3    2.59    0.30
   7   1   3    2.56    0.33
   8  -2  -3   21.17    0.93
  -8   2   3   19.70    0.83
  -8   2   3   19.83    0.87
   7  -2  -3   11.64    0.63
  -7   2   3   10.36    0.60
  -7   2   3   11.21    0.57
   6  -2  -3    2.02    0.29
  -6   2   3    1.61    0.27
  -6   2   3    1.41    0.23
   5  -2  -3   77.71    1.69
   5  -2  -3   77.14    1.77
  -5   2   3   76.00    1.80
   4  -2  -3   77.46    1.62
   4  -2  -3   74.88    1.66
  -4   2   3   79.14    1.74
   3  -2  -3   30.91    0.81
   3  -2  -3   30.48    0.78
  -3   2   3   32.26    0.86
   2  -2  -3   34.75    0.82
   2  -2  -3   34.62    0.80
  -2   2   3   35.60    0.86
  -2   2   3   36.17    0.66
   1  -2  -3  121.87    2.15
   1  -2  -3  122.93    2.23
  -1   2   3  124.82    2.24
  -1   2   3  124.62    2.12
   0  -2  -3   87.21    1.46
   0  -2  -3   88.16    1.61
   0  -2  -3   84.06    1.62
   0   2   3   85.69    1.57
  -1  -2  -3    1.45    0.12
   1   2   3    1.72    0.14
  -2  -2  -3   18.76    0.50
   2   2   3   19.02    0.42
   2   2   3   18.31    0.54
  -3  -2  -3  120.10    2.23
  -3  -2  -3  122.84    2.34
   3   2   3  123.86    2.18
   3   2   3  123.36    2.34
  -4  -2  -3   17.67    0.62
  -4  -2  -3   17.85    0.54
   4   2   3   18.02    0.53
   4   2   3   18.22    0.62
  -5  -2  -3    5.88    0.31
  -5  -2  -3    6.38    0.38
   5   2   3    6.04    0.32
   5   2   3    6.20    0.37
  -6  -2  -3   21.44    0.80
   6   2   3   22.20    0.78
   6   2   3   22.85    0.75
  -7  -2  -3   33.94    1.13
   7   2   3   34.74    1.08
   8  -3  -3    3.67    0.45
  -8   3   3    4.30    0.49
   7  -3  -3   46.84    1.41
  -7   3   3   45.59    1.40
  -7   3   3   43.72    1.31
   6  -3  -3   69.57    1.67
   6  -3  -3   69.78    1.75
  -6   3   3   69.15    1.77
   5  -3  -3    6.72    0.39
   5  -3  -3    7.54    0.42
  -5   3   3    7.14    0.44
   4  -3  -3   56.51    1.31
   4  -3  -3   53.60    1.30
  -4   3   3   54.36    1.36
   3  -3  -3  219.81    3.92
   3  -3  -3  220.88    3.88
  -3   3   3  215.61    3.97
   2  -3  -3   70.53    1.46
   2  -3  -3   72.06    1.38
  -2   3   3   69.47    1.26
  -2   3   3   68.87    1.48
   1  -3  -3    3.65    0.16
  -1   3   3    4.59    0.25
  -1   3   3    3.85    0.18
   0  -3  -3  139.64    2.53
   0  -3  -3  138.65    2.51
   0   3   3  136.74    2.46
  -1  -3  -3  153.66    2.76
  -1  -3  -3  151.46    2.79
   1   3   3  156.09    2.77
  -2  -3  -3   10.41    0.41
  -2  -3  -3   10.37    0.38
   2   3   3   10.40    0.25
   2   3   3   10.23    0.41
  -3  -3  -3    7.52    0.37
  -3  -3  -3    6.91    0.32
   3   3   3    7.30    0.25
   3   3   3    7.48    0.37
  -4  -3  -3   15.01    0.54
  -4  -3  -3   16.97    0.62
   4   3   3   15.71    0.60
  -5  -3  -3   58.50    1.36
  -5  -3  -3   56.93    1.45
   5   3   3   60.18    1.48
  -6  -3  -3    1.66    0.28
   6   3   3    1.62    0.27
  -7  -3  -3    6.47    0.47
   7   3   3    6.98    0.47
   7  -4  -3    0.57    0.19
  -7   4   3    0.48    0.19
  -7   4   3    0.56    0.17
   6  -4  -3   33.50    1.07
   6  -4  -3   34.35    1.10
  -6   4   3   35.10    1.15
   5  -4  -3   42.59    1.19
   5  -4  -3   42.47    1.18
  -5   4   3   43.04    1.25
   4  -4  -3   36.67    0.99
   4  -4  -3   36.58    1.03
  -4   4   3   36.86    1.07
   3  -4  -3    0.11    0.06
   3  -4  -3    0.15    0.08
  -3   4   3    0.13    0.08
   2  -4  -3   72.12    1.51
   2  -4  -3   67.97    1.34
  -2   4   3   66.18    1.50
  -2   4   3   67.08    1.27
   1  -4  -3  115.51    1.97
   1  -4  -3  111.28    2.22
  -1   4   3  115.37    2.08
  -1   4   3  114.32    2.23
   0  -4  -3   20.35    0.63
   0  -4  -3   21.52    0.64
   0   4   3   21.13    0.59
  -1  -4  -3   10.84    0.44
  -1  -4  -3   12.00    0.45
   1   4   3   11.95    0.44
  -2  -4  -3   60.48    1.38
  -2  -4  -3   62.23    1.36
   2   4   3   62.33    1.40
  -3  -4  -3   38.35    1.02
  -3  -4  -3   39.39    1.00
   3   4   3   37.38    1.03
  -4  -4  -3    0.56    0.14
  -4  -4  -3    0.74    0.18
   4   4   3    0.76    0.18
  -5  -4  -3   11.04    0.55
  -5  -4  -3   11.14    0.51
   5   4   3   11.19    0.56
  -6  -4  -3   21.19    0.85
   6   4   3   24.05    0.89
   7  -5  -3   46.09    1.43
   7  -5  -3   45.78    1.39
  -7   5   3   45.03    1.45
   6  -5  -3   33.47    1.09
   6  -5  -3   32.03    1.08
  -6   5   3   31.94    1.13
   5  -5  -3   11.01    0.53
   5  -5  -3    9.80    0.53
  -5   5   3    9.90    0.55
   4  -5  -3   75.21    1.66
   4  -5  -3   74.16    1.75
  -4   5   3   73.79    1.78
   3  -5  -3   66.12    1.57
   3  -5  -3   66.05    1.42
  -3   5   3   68.15    1.60
   2  -5  -3   38.10    0.86
   2  -5  -3   37.43    1.03
  -2   5   3   39.47    1.07
  -2   5   3   39.24    0.85
   1  -5  -3   21.75    0.71
  -1   5   3   22.47    0.61
  -1   5   3   22.07    0.73
   0  -5  -3  107.47    2.20
   0  -5  -3  109.86    2.21
   0   5   3  111.24    2.13
  -1  -5  -3   51.50    1.23
  -1  -5  -3   51.36    1.24
   1   5   3   49.80    1.20
  -2  -5  -3    0.10    0.07
  -2  -5  -3    0.21    0.10
   2   5   3    0.13    0.08
  -3  -5  -3   21.42    0.75
  -3  -5  -3   20.99    0.73
   3   5   3   22.64    0.77
  -4  -5  -3    9.35    0.49
  -4  -5  -3    8.99    0.47
   4   5   3    9.84    0.52
  -5  -5  -3   13.49    0.64
  -5  -5  -3   14.13    0.63
   5   5   3   14.51    0.68
   6  -6  -3   30.66    1.04
   6  -6  -3   27.92    1.04
  -6   6   3   29.39    1.11
   5  -6  -3   28.20    1.01
   5  -6  -3   27.26    0.92
  -5   6   3   28.38    1.04
   4  -6  -3    2.84    0.35
   4  -6  -3    3.38    0.27
  -4   6   3    3.26    0.32
   3  -6  -3   27.56    0.94
   3  -6  -3   27.97    0.94
  -3   6   3   30.96    0.98
   2  -6  -3   30.59    0.95
  -2   6   3   31.22    0.98
  -2   6   3   30.93    0.76
   1  -6  -3   52.95    1.35
  -1   6   3   54.26    1.21
   0  -6  -3    0.06    0.08
   0  -6  -3    0.25    0.10
   0   6   3    0.08    0.07
  -1  -6  -3   27.70    0.88
  -1  -6  -3   27.48    0.87
   1   6   3   28.27    0.85
  -2  -6  -3   43.24    1.16
  -2  -6  -3   42.12    1.16
   2   6   3   39.16    1.13
  -3  -6  -3    9.95    0.52
  -3  -6  -3   11.25    0.54
   3   6   3   10.95    0.55
  -4  -6  -3    3.27    0.31
  -4  -6  -3    4.10    0.35
   4   6   3    3.64    0.40
  -5  -6  -3   15.96    0.73
  -5  -6  -3   15.31    0.69
   5   6   3   14.03    0.71
   6  -7  -3    1.65    0.31
   6  -7  -3    1.27    0.25
  -6   7   3    1.54    0.30
   5  -7  -3   29.19    1.08
  -5   7   3   29.50    1.10
   4  -7  -3   46.73    1.39
  -4   7   3   47.71    1.43
   3  -7  -3   22.56    0.86
  -3   7   3   23.67    0.90
   2  -7  -3    0.09    0.09
  -2   7   3    0.14    0.11
   1  -7  -3   35.84    1.09
  -1   7   3   34.78    0.94
   0  -7  -3   45.90    1.28
   0  -7  -3   46.54    1.28
   0   7   3   46.02    1.18
  -1  -7  -3   10.36    0.53
  -1  -7  -3    9.75    0.52
   1   7   3   10.25    0.51
  -2  -7  -3    9.10    0.51
  -2  -7  -3   10.65    0.55
   2   7   3    9.60    0.52
  -3  -7  -3    7.52    0.48
  -3  -7  -3    7.23    0.47
   3   7   3    7.47    0.48
  -4  -7  -3   12.63    0.64
  -4  -7  -3   11.64    0.62
   4   7   3   12.35    0.66
   4  -8  -3    5.18    0.44
  -4   8   3    4.83    0.44
   3  -8  -3   22.52    0.91
  -3   8   3   22.24    0.93
   2  -8  -3   36.75    1.19
  -2   8   3   37.76    1.23
   1  -8  -3    1.41    0.27
  -1   8   3    1.16    0.19
  -1   8   3    1.33    0.26
   0  -8  -3    2.62    0.35
   0  -8  -3    2.91    0.36
   0   8   3    2.59    0.30
  -1  -8  -3   24.20    0.91
  -1  -8  -3   23.54    0.91
   1   8   3   23.75    0.85
  -2  -8  -3   17.39    0.77
  -2  -8  -3   16.41    0.76
   2   8   3   18.80    0.77
  -3  -8  -3    0.84    0.23
   3   8   3    0.31    0.16
   3  -9  -3    1.56    0.29
  -3   9   3    2.29    0.38
   2  -9  -3    8.29    0.55
  -2   9   3    6.98    0.52
   1  -9  -3   34.70    1.17
  -1   9   3   30.12    1.15
   0  -9  -3   11.75    0.65
   0  -9  -3   11.22    0.64
   0   9   3   11.22    0.56
   1  10  -4   29.06    1.04
  -1 -10   4   29.15    1.07
   0  10  -4   12.42    0.63
   0 -10   4   13.50    0.68
  -1  10  -4    0.51    0.16
   1 -10   4    0.55    0.18
   2 -10   4   12.70    0.64
   2 -10   4   11.95    0.61
  -3  10  -4   36.04    1.21
   3 -10   4   37.84    1.21
   3   9  -4   36.91    1.23
  -3  -9   4   37.53    1.25
   2   9  -4    2.50    0.34
  -2  -9   4    3.10    0.39
   1   9  -4    0.17    0.11
  -1  -9   4    0.13    0.10
   0   9  -4   36.17    1.10
   0  -9   4   35.94    1.12
  -1   9  -4   39.41    1.11
   1  -9   4   37.62    1.08
   1  -9   4   36.11    1.12
  -2   9  -4    5.85    0.37
   2  -9   4    5.90    0.40
   2  -9   4    5.87    0.40
  -3   9  -4   14.71    0.67
   3  -9   4   15.56    0.62
   3  -9   4   15.31    0.69
  -4   9  -4   39.32    1.43
   4  -9   4   44.36    1.33
   4  -9   4   43.29    1.22
  -5   9  -4   27.52    1.06
   5  -9   4   28.43    1.00
   4   8  -4    5.60    0.44
  -4  -8   4    6.06    0.46
   3   8  -4    1.81    0.30
  -3  -8   4    1.64    0.29
   2   8  -4   30.70    1.01
  -2  -8   4   30.08    1.00
   1   8  -4   49.12    1.31
  -1  -8   4   49.37    1.32
   0   8  -4    3.78    0.30
   0  -8   4    3.50    0.41
   0  -8   4    3.90    0.31
  -1   8  -4   24.64    0.74
  -1   8  -4   24.42    0.79
   1  -8   4   25.79    0.79
   1  -8   4   24.84    0.82
   2  -8   4   58.06    1.36
   2  -8   4   58.82    1.44
   2  -8   4   61.14    1.46
  -3   8  -4   12.88    0.58
   3  -8   4   13.71    0.52
   3  -8   4   13.29    0.60
   3  -8   4   14.23    0.57
  -4   8  -4    0.35    0.13
   4  -8   4    0.44    0.14
   4  -8   4    0.44    0.15
  -5   8  -4   32.71    1.14
   5  -8   4   33.20    1.07
   5   7  -4    3.21    0.39
  -5  -7   4    3.94    0.46
   4   7  -4   40.13    1.21
  -4  -7   4   39.26    1.22
   3   7  -4   23.75    0.85
  -3  -7   4   23.48    0.85
   2   7  -4    3.40    0.29
  -2  -7   4    2.93    0.27
   1   7  -4   21.63    0.75
   1   7  -4   22.48    0.64
  -1  -7   4   22.73    0.75
  -1  -7   4   21.90    0.61
   0   7  -4   96.52    2.02
   0   7  -4   95.67    1.89
   0  -7   4   95.36    2.02
   0  -7   4   98.04    1.91
   1  -7   4   46.61    1.17
   1  -7   4   47.74    1.14
   1  -7   4   48.50    1.17
   2  -7   4    5.72    0.34
   2  -7   4    5.50    0.32
   2  -7   4    5.50    0.31
   2  -7   4    6.43    0.34
  -3   7  -4   73.53    1.64
   3  -7   4   74.10    1.55
   3  -7   4   73.60    1.70
   3  -7   4   73.29    1.63
  -4   7  -4   55.30    1.45
  -4   7  -4   54.54    1.33
   4  -7   4   54.07    1.37
  -5   7  -4   22.66    0.88
   5  -7   4   21.70    0.82
  -6   7  -4    3.71    0.45
   6  -7   4    3.31    0.40
   6   6  -4   32.16    1.08
  -6  -6   4   33.83    1.18
   5   6  -4    9.44    0.52
  -5  -6   4    7.95    0.51
   4   6  -4    0.46    0.15
   4   6  -4    0.40    0.13
  -4  -6   4    0.25    0.12
   3   6  -4   13.07    0.50
   3   6  -4   12.95    0.57
  -3  -6   4   13.22    0.58
   2   6  -4   82.07    1.80
   2   6  -4   81.26    1.67
  -2  -6   4   83.65    1.80
   1   6  -4   39.13    0.91
  -1  -6   4   38.07    0.84
  -1  -6   4   38.84    1.00
   0   6  -4    7.10    0.31
   0  -6   4    7.67    0.31
   0  -6   4    7.69    0.37
   0  -6   4    7.51    0.36
   1  -6   4  100.82    2.02
   1  -6   4  107.76    2.07
   1  -6   4  106.85    2.08
   1  -6   4  106.32    2.03
   2  -6   4  110.65    2.13
   2  -6   4  110.64    2.14
   2  -6   4  110.34    2.16
   2  -6   4  111.50    2.19
  -3   6  -4    0.83    0.15
   3  -6   4    0.59    0.13
   3  -6   4    0.50    0.11
   3  -6   4    0.40    0.11
  -4   6  -4   28.10    0.91
  -4   6  -4   26.73    0.78
   4  -6   4   26.64    0.85
   4  -6   4   27.60    0.78
  -5   6  -4   71.09    1.77
   5  -6   4   72.21    1.73
  -6   6  -4   46.10    1.39
   6  -6   4   45.69    1.34
  -7   6  -4    1.83    0.33
   7  -6   4    1.67    0.30
   6   5  -4   -0.05    0.09
   6   5  -4   -0.05    0.08
  -6  -5   4    0.06    0.10
   5   5  -4   28.14    0.90
   5   5  -4   26.88    0.88
  -5  -5   4   27.76    0.95
   4   5  -4   94.90    2.02
   4   5  -4   98.19    2.07
  -4  -5   4   96.52    2.11
   3   5  -4    1.41    0.19
   3   5  -4    0.98    0.17
  -3  -5   4    1.50    0.21
   2   5  -4    0.71    0.13
   2   5  -4    0.67    0.13
  -2  -5   4    1.11    0.18
  -2  -5   4    0.82    0.08
   1   5  -4   88.91    1.73
  -1  -5   4   91.49    1.61
  -1  -5   4   91.50    1.83
  -1  -5   4   87.72    1.79
   0   5  -4  172.67    3.08
   0  -5   4  173.30    3.01
   0  -5   4  175.16    3.15
   0  -5   4  174.65    3.11
   1  -5   4    6.27    0.30
   1  -5   4    6.40    0.28
   1  -5   4    6.41    0.29
   1  -5   4    6.42    0.28
   2  -5   4   61.03    1.27
   2  -5   4   59.85    1.30
   2  -5   4   60.13    1.30
   2  -5   4   60.64    1.24
  -3   5  -4  132.46    2.46
  -3   5  -4  134.25    2.61
   3  -5   4  136.95    2.46
   3  -5   4  134.36    2.57
  -4   5  -4   80.75    1.64
  -4   5  -4   81.12    1.81
   4  -5   4   81.96    1.78
   4  -5   4   79.18    1.58
  -5   5  -4    1.11    0.23
   5  -5   4    0.90    0.19
  -6   5  -4   23.74    0.91
   6  -5   4   24.57    0.90
  -7   5  -4   38.57    1.29
   7  -5   4   37.90    1.25
   7   4  -4   17.24    0.77
  -7  -4   4   17.27    0.81
   6   4  -4   41.71    1.13
   6   4  -4   41.77    1.22
  -6  -4   4   41.33    1.26
   5   4  -4    2.86    0.25
   5   4  -4    1.84    0.25
  -5  -4   4    1.98    0.29
   4   4  -4    9.37    0.44
   4   4  -4    8.22    0.40
  -4  -4   4    8.40    0.44
   3   4  -4   87.71    1.79
   3   4  -4   86.93    1.78
  -3  -4   4   88.54    1.51
  -3  -4   4   84.98    1.82
   2   4  -4  113.82    2.13
  -2  -4   4  112.47    2.17
  -2  -4   4  110.67    2.15
   1   4  -4    0.07    0.05
  -1  -4   4    0.24    0.04
  -1  -4   4    0.06    0.04
  -1  -4   4    0.38    0.10
   0   4  -4   53.75    1.12
   0  -4   4   53.64    1.10
   0  -4   4   54.57    1.15
   0  -4   4   54.26    1.02
   1  -4   4  255.35    4.47
   1  -4   4  259.57    4.40
   1  -4   4  263.81    4.48
   1  -4   4  267.72    4.42
  -2   4  -4   48.27    1.07
   2  -4   4   47.99    1.03
   2  -4   4   48.08    0.96
   2  -4   4   47.84    1.07
  -3   4  -4   12.56    0.47
  -3   4  -4   11.35    0.36
   3  -4   4   11.84    0.39
   3  -4   4   11.42    0.44
  -4   4  -4  123.12    2.44
  -4   4  -4  120.95    2.24
   4  -4   4  120.84    2.40
   4  -4   4  118.97    2.23
  -5   4  -4  106.53    2.29
   5  -4   4  105.69    2.24
  -6   4  -4   24.84    0.91
   6  -4   4   25.09    0.90
  -7   4  -4   10.49    0.62
   7  -4   4   10.21    0.59
   7   3  -4    0.95    0.23
  -7  -3   4    0.78    0.21
   6   3  -4    4.11    0.29
   6   3  -4    3.37    0.32
  -6  -3   4    4.10    0.36
   5   3  -4   92.96    2.02
   5   3  -4   92.80    1.88
  -5  -3   4   88.97    2.03
   4   3  -4   57.30    1.35
   4   3  -4   57.71    1.28
  -4  -3   4   57.73    1.11
  -4  -3   4   57.22    1.38
   3   3  -4    1.06    0.15
   3   3  -4    1.78    0.21
  -3  -3   4    1.17    0.07
  -3  -3   4    1.37    0.19
   2   3  -4   93.63    1.79
  -2  -3   4   93.24    1.81
  -2  -3   4   91.21    1.77
   1   3  -4  165.11    2.92
  -1  -3   4  170.52    2.95
  -1  -3   4  165.44    2.92
   0   3  -4   89.29    1.67
   0   3  -4   92.24    1.55
   0  -3   4   88.64    1.61
   0  -3   4   87.66    1.68
  -1   3  -4   28.28    0.64
   1  -3   4   28.54    0.68
   1  -3   4   28.97    0.59
  -2   3  -4  165.77    2.78
  -2   3  -4  164.25    2.94
   2  -3   4  169.53    2.95
   2  -3   4  163.10    2.92
  -3   3  -4  112.01    2.18
  -3   3  -4  111.85    1.99
   3  -3   4  116.18    2.18
   3  -3   4  113.62    2.11
  -4   3  -4   40.45    1.06
   4  -3   4   41.23    1.04
   4  -3   4   42.40    0.96
  -5   3  -4   29.53    0.92
   5  -3   4   28.50    0.88
   5  -3   4   28.16    0.76
  -6   3  -4   70.05    1.76
   6  -3   4   73.14    1.75
  -7   3  -4   18.26    0.80
   7  -3   4   19.02    0.81
   7   2  -4   30.00    1.06
  -7  -2   4   31.91    1.11
   6   2  -4   26.33    0.92
  -6  -2   4   25.32    0.92
   5   2  -4    1.47    0.22
   5   2  -4    1.97    0.17
  -5  -2   4    1.21    0.21
  -5  -2   4    1.47    0.17
   4   2  -4   55.22    1.19
   4   2  -4   59.15    1.35
  -4  -2   4   56.70    1.36
  -4  -2   4   55.23    1.11
   3   2  -4  124.26    2.35
  -3  -2   4  119.46    2.23
  -3  -2   4  123.96    2.37
  -3  -2   4  125.18    2.10
   2   2  -4  118.09    2.17
  -2  -2   4  118.57    2.11
  -2  -2   4  115.53    2.18
  -1  -2   4   96.84    1.76
  -1  -2   4   95.81    1.76
   0   2  -4  355.65    5.81
   0   2  -4  336.45    5.99
   0  -2   4  347.30    5.91
   0  -2   4  330.86    6.01
  -1   2  -4  110.44    1.96
   1  -2   4  112.05    2.00
   1  -2   4  112.72    1.84
   1  -2   4  108.00    2.00
  -2   2  -4    3.75    0.20
   2  -2   4    3.81    0.20
   2  -2   4    3.80    0.21
  -3   2  -4  129.30    2.44
  -3   2  -4  134.55    2.20
   3  -2   4  127.91    2.42
   3  -2   4  130.79    2.40
  -4   2  -4  152.47    2.61
  -4   2  -4  153.81    2.89
   4  -2   4  152.39    2.86
   4  -2   4  149.88    2.79
  -5   2  -4   71.47    1.66
   5  -2   4   73.48    1.64
   5  -2   4   71.35    1.53
  -6   2  -4    7.77    0.47
   6  -2   4    6.76    0.43
  -7   2  -4   62.17    1.68
   7  -2   4   63.04    1.65
   8   1  -4   11.04    0.66
  -8  -1   4   12.29    0.69
   7   1  -4    3.42    0.41
  -7  -1   4    3.81    0.38
   6   1  -4   38.85    1.17
  -6  -1   4   37.58    1.09
  -6  -1   4   40.47    1.20
   5   1  -4   74.05    1.71
  -5  -1   4   73.71    1.51
  -5  -1   4   72.59    1.72
   4   1  -4   24.82    0.77
   4   1  -4   26.20    0.62
  -4  -1   4   26.83    0.82
  -4  -1   4   25.36    0.64
   3   1  -4   21.58    0.51
   3   1  -4   22.86    0.66
  -3  -1   4   22.72    0.54
   2   1  -4  163.40    2.95
   2   1  -4  167.47    2.78
  -2  -1   4  167.14    2.85
  -2  -1   4  168.85    3.00
   1   1  -4  175.69    2.90
   1   1  -4  174.11    3.03
  -1  -1   4  177.30    2.99
  -1  -1   4  177.49    3.05
   0   1  -4   12.51    0.36
   0   1  -4   12.98    0.32
   0  -1   4   12.83    0.36
   0  -1   4   13.11    0.32
  -1   1  -4  375.44    6.38
   1  -1   4  371.88    6.58
   1  -1   4  372.35    6.46
  -2   1  -4   92.40    1.72
   2  -1   4   89.53    1.72
   2  -1   4   89.87    1.69
  -3   1  -4   78.06    1.30
  -3   1  -4   76.61    1.54
   3  -1   4   74.47    1.50
   3  -1   4   71.94    1.50
  -4   1  -4    0.86    0.15
  -4   1  -4    0.60    0.09
   4  -1   4    0.89    0.14
   4  -1   4    0.65    0.12
  -5   1  -4   77.73    1.77
   5  -1   4   80.96    1.75
   5  -1   4   80.64    1.70
  -6   1  -4   45.01    1.27
   6  -1   4   45.27    1.14
   6  -1   4   44.91    1.23
  -7   1  -4   12.98    0.66
   7  -1   4   14.57    0.67
   8   0  -4   23.90    0.99
  -8   0   4   25.61    1.03
   7   0  -4   40.34    1.28
  -7   0   4   41.78    1.14
  -7   0   4   39.74    1.28
   6   0  -4    2.46    0.33
  -6   0   4    2.21    0.30
  -6   0   4    2.08    0.25
   5   0  -4   35.79    1.02
  -5   0   4   34.31    1.04
  -5   0   4   33.78    0.89
   4   0  -4   93.25    1.94
   4   0  -4   91.09    1.64
   4   0  -4   92.71    1.78
  -4   0   4   92.70    2.00
   3   0  -4  137.95    2.63
   3   0  -4  140.69    2.50
  -3   0   4  143.15    2.72
  -3   0   4  143.91    2.40
   2   0  -4    2.04    0.15
   2   0  -4    2.21    0.13
  -2   0   4    2.00    0.11
  -2   0   4    2.43    0.19
   1   0  -4  198.91    3.41
   1   0  -4  200.07    3.36
  -1   0   4  204.68    3.47
  -1   0   4  198.14    3.36
   0   0  -4  406.42    7.07
   0   0  -4  403.18    6.89
   0   0   4  428.83    6.92
   0   0   4  398.93    7.07
   1   0   4   41.02    0.83
   1   0   4   44.59    0.77
   1   0   4   40.87    0.89
  -2   0  -4   69.78    1.17
  -2   0  -4   64.54    1.33
   2   0   4   66.85    1.27
   2   0   4   64.88    1.33
  -3   0  -4  212.90    3.53
  -3   0  -4  212.37    3.76
   3   0   4  208.31    3.73
   3   0   4  213.18    3.67
  -4   0  -4   89.66    1.67
  -4   0  -4   89.84    1.87
   4   0   4   89.43    1.83
   4   0   4   90.89    1.79
  -5   0  -4   38.80    1.07
   5   0   4   39.75    1.02
   5   0   4   37.10    1.00
  -6   0  -4   14.57    0.64
   6   0   4   14.20    0.58
   6   0   4   14.30    0.60
  -7   0  -4   35.39    1.17
   7   0   4   37.16    1.13
   8  -1  -4    1.51    0.31
  -8   1   4    1.26    0.28
   7  -1  -4   13.26    0.69
  -7   1   4   12.61    0.58
  -7   1   4   12.66    0.67
   6  -1  -4  106.66    2.35
  -6   1   4  103.74    2.21
  -6   1   4  107.25    2.41
   5  -1  -4   22.54    0.69
   5  -1  -4   21.97    0.78
  -5   1   4   22.47    0.82
   4  -1  -4    0.31    0.10
   4  -1  -4    0.29    0.08
  -4   1   4    0.01    0.06
   3  -1  -4   82.06    1.70
   3  -1  -4   84.87    1.63
  -3   1   4   84.96    1.43
  -3   1   4   82.84    1.78
   2  -1  -4  133.92    2.45
   2  -1  -4  137.41    2.41
  -2   1   4  134.61    2.28
  -2   1   4  134.07    2.51
   1  -1  -4   62.59    1.23
   1  -1  -4   63.67    1.21
  -1   1   4   63.45    1.18
  -1   1   4   64.37    1.27
   0  -1  -4   69.12    1.26
   0  -1  -4   70.83    1.34
   0   1   4   71.36    1.32
   0   1   4   69.29    1.32
  -1  -1  -4  164.51    2.89
  -1  -1  -4  164.80    2.78
   1   1   4  158.05    2.87
   1   1   4  166.87    2.75
  -2  -1  -4  124.99    2.19
  -2  -1  -4  126.57    2.33
   2   1   4  124.99    2.19
   2   1   4  126.39    2.32
  -3  -1  -4    2.39    0.20
  -3  -1  -4    2.50    0.15
   3   1   4    2.37    0.19
   3   1   4    2.79    0.17
  -4  -1  -4   45.03    1.14
  -4  -1  -4   46.55    0.98
   4   1   4   45.81    1.04
   4   1   4   44.61    1.11
  -5  -1  -4   79.71    1.79
   5   1   4   77.58    1.67
   5   1   4   78.59    1.74
  -6  -1  -4   19.16    0.76
   6   1   4   18.72    0.68
   6   1   4   19.24    0.71
  -7  -1  -4    0.77    0.21
   7   1   4    1.15    0.24
   7   1   4    0.59    0.17
   8  -2  -4   33.81    1.24
  -8   2   4   36.60    1.16
  -8   2   4   34.83    1.23
   7  -2  -4   19.21    0.83
  -7   2   4   18.10    0.74
  -7   2   4   18.29    0.83
   6  -2  -4    2.84    0.37
   6  -2  -4    3.31    0.28
  -6   2   4    2.41    0.33
   5  -2  -4   79.37    1.83
   5  -2  -4   80.00    1.74
  -5   2   4   82.10    1.91
   4  -2  -4  119.66    2.34
   4  -2  -4  121.71    2.42
   3  -2  -4   14.60    0.51
   3  -2  -4   14.63    0.49
  -3   2   4   15.11    0.56
   2  -2  -4   16.23    0.48
   2  -2  -4   16.49    0.50
  -2   2   4   16.43    0.54
  -2   2   4   16.41    0.38
   1  -2  -4  225.90    3.87
   1  -2  -4  232.81    3.97
  -1   2   4  231.57    3.86
  -1   2   4  228.60    3.98
   0  -2  -4  137.64    2.52
   0  -2  -4  137.34    2.36
   0   2   4  137.24    2.47
   0   2   4  147.08    2.51
  -1  -2  -4    0.49    0.09
  -1  -2  -4    0.67    0.06
  -1  -2  -4    0.56    0.10
   1   2   4    0.71    0.12
  -2  -2  -4  137.90    2.42
  -2  -2  -4  132.12    2.52
   2   2   4  133.57    2.51
   2   2   4  135.52    2.30
  -3  -2  -4  142.12    2.70
  -3  -2  -4  139.71    2.55
   3   2   4  146.07    2.70
   3   2   4  138.92    2.48
  -4  -2  -4   54.15    1.17
  -4  -2  -4   51.99    1.29
   4   2   4   54.18    1.30
   4   2   4   52.83    1.14
  -5  -2  -4    0.21    0.11
   5   2   4    0.26    0.11
   5   2   4    0.19    0.09
  -6  -2  -4   38.65    1.19
   6   2   4   40.41    1.17
  -7  -2  -4   16.88    0.78
   7   2   4   17.43    0.74
   7  -3  -4   44.36    1.38
  -7   3   4   41.81    1.37
  -7   3   4   44.51    1.31
   6  -3  -4   49.34    1.38
   6  -3  -4   48.08    1.30
  -6   3   4   48.33    1.42
   5  -3  -4    6.98    0.40
   5  -3  -4    7.35    0.43
  -5   3   4    7.44    0.47
   4  -3  -4   29.62    0.86
   4  -3  -4   29.95    0.87
  -4   3   4   28.89    0.92
   3  -3  -4  102.09    2.01
   3  -3  -4  100.17    2.04
  -3   3   4  103.78    2.13
   2  -3  -4   62.09    1.28
   2  -3  -4   62.11    1.36
  -2   3   4   63.93    1.40
  -2   3   4   63.54    1.18
   1  -3  -4    2.56    0.19
   1  -3  -4    2.29    0.13
  -1   3   4    2.30    0.15
  -1   3   4    2.19    0.18
   0  -3  -4  137.17    2.51
   0  -3  -4  135.42    2.53
   0   3   4  135.32    2.46
  -1  -3  -4   41.66    1.00
  -1  -3  -4   43.53    0.97
   1   3   4   41.42    0.98
  -2  -3  -4   44.80    1.08
  -2  -3  -4   43.91    1.01
   2   3   4   42.55    0.88
   2   3   4   45.34    1.07
  -3  -3  -4    7.95    0.35
  -3  -3  -4    7.68    0.39
   3   3   4    7.62    0.40
  -4  -3  -4   97.47    1.94
  -4  -3  -4   92.83    2.07
   4   3   4   98.68    2.08
  -5  -3  -4   37.01    1.14
  -5  -3  -4   37.48    1.13
   5   3   4   38.74    1.13
  -6  -3  -4    3.03    0.38
   6   3   4    2.70    0.36
   7  -4  -4    2.26    0.33
   7  -4  -4    1.76    0.31
  -7   4   4    2.10    0.35
   6  -4  -4   26.56    0.95
   6  -4  -4   25.97    0.92
  -6   4   4   25.43    0.98
   5  -4  -4   57.99    1.48
   5  -4  -4   59.16    1.48
  -5   4   4   56.55    1.55
   4  -4  -4   77.68    1.71
   4  -4  -4   79.16    1.77
  -4   4   4   77.39    1.83
   3  -4  -4    0.53    0.14
   3  -4  -4    0.93    0.15
  -3   4   4    0.36    0.12
   2  -4  -4   98.29    2.03
   2  -4  -4   99.05    1.86
  -2   4   4   98.67    2.06
  -2   4   4  101.48    1.81
   1  -4  -4   93.82    1.60
   1  -4  -4   89.34    1.86
  -1   4   4   86.98    1.85
  -1   4   4   89.66    1.72
   0  -4  -4   37.73    0.96
   0  -4  -4   38.47    0.98
   0   4   4   38.04    0.91
  -1  -4  -4   36.46    0.93
  -1  -4  -4   35.98    0.96
   1   4   4   36.26    0.92
  -2  -4  -4  106.73    2.17
  -2  -4  -4  106.92    2.12
   2   4   4  105.27    2.16
  -3  -4  -4   34.64    0.99
  -3  -4  -4   33.79    0.92
   3   4   4   34.32    0.99
  -4  -4  -4   27.91    0.84
  -4  -4  -4   29.33    0.93
   4   4   4   27.86    0.93
  -5  -4  -4   22.61    0.84
  -5  -4  -4   20.63    0.86
   5   4   4   20.79    0.81
  -6  -4  -4   28.45    1.03
   6   4   4   28.59    1.03
   7  -5  -4   32.76    1.15
   7  -5  -4   33.18    1.17
  -7   5   4   32.33    1.22
   6  -5  -4   19.24    0.81
   6  -5  -4   18.65    0.80
  -6   5   4   20.17    0.88
   5  -5  -4    4.47    0.36
   5  -5  -4    3.68    0.32
  -5   5   4    3.80    0.36
   4  -5  -4   43.47    1.23
   4  -5  -4   44.12    1.14
  -4   5   4   44.07    1.29
   3  -5  -4   52.46    1.36
   3  -5  -4   54.09    1.22
  -3   5   4   54.63    1.41
   2  -5  -4   31.20    0.94
   2  -5  -4   32.88    0.94
  -2   5   4   33.41    0.98
  -2   5   4   33.14    0.77
   1  -5  -4   83.35    1.83
  -1   5   4   86.16    1.68
  -1   5   4   82.37    1.84
   0  -5  -4   61.52    1.42
   0  -5  -4   59.70    1.43
   0   5   4   60.05    1.33
  -1  -5  -4   23.02    0.76
  -1  -5  -4   23.07    0.74
   1   5   4   21.44    0.70
  -2  -5  -4    1.52    0.22
  -2  -5  -4    1.06    0.20
   2   5   4    1.24    0.20
  -3  -5  -4   40.69    1.16
  -3  -5  -4   40.61    1.11
   3   5   4   40.88    1.16
  -4  -5  -4   50.72    1.31
  -4  -5  -4   48.33    1.36
   4   5   4   50.65    1.39
  -5  -5  -4    9.10    0.61
  -5  -5  -4   10.41    0.57
   5   5   4   10.35    0.59
   6  -6  -4   25.39    0.95
   6  -6  -4   22.67    0.94
  -6   6   4   24.52    1.03
   5  -6  -4   44.37    1.25
   5  -6  -4   42.94    1.32
  -5   6   4   44.97    1.40
   4  -6  -4   12.88    0.63
   4  -6  -4   12.66    0.54
  -4   6   4   12.57    0.65
   3  -6  -4   13.16    0.62
  -3   6   4   14.10    0.65
   2  -6  -4   65.64    1.59
  -2   6   4   63.99    1.48
  -2   6   4   64.95    1.62
  -1   6   4   41.34    1.02
  -1   6   4   43.30    1.21
   0  -6  -4    0.02    0.08
   0  -6  -4    0.23    0.10
   0   6   4    0.12    0.08
  -1  -6  -4   65.04    1.57
  -1  -6  -4   66.23    1.60
   1   6   4   63.83    1.52
  -2  -6  -4   34.28    1.06
  -2  -6  -4   34.82    1.04
   2   6   4   34.53    1.03
  -3  -6  -4   12.59    0.59
  -3  -6  -4   12.19    0.60
   3   6   4   11.34    0.58
  -4  -6  -4    0.16    0.11
  -4  -6  -4    0.30    0.12
   4   6   4    0.14    0.13
   5  -7  -4   18.74    0.85
  -5   7   4   20.80    0.93
   4  -7  -4   29.72    1.06
  -4   7   4   29.87    1.10
   3  -7  -4   23.51    0.90
  -3   7   4   23.84    0.93
   2  -7  -4    0.88    0.20
  -2   7   4    0.89    0.21
   1  -7  -4   50.70    1.39
  -1   7   4   49.39    1.40
  -1   7   4   49.66    1.21
   0  -7  -4   31.67    1.04
   0  -7  -4   32.36    1.05
   0   7   4   32.45    0.94
  -1  -7  -4    3.13    0.38
  -1  -7  -4    2.67    0.35
   1   7   4    2.94    0.34
  -2  -7  -4    4.97    0.40
  -2  -7  -4    5.06    0.39
   2   7   4    5.27    0.39
  -3  -7  -4   36.24    1.20
  -3  -7  -4   38.45    1.19
   3   7   4   38.54    1.21
   4  -8  -4    0.17    0.13
  -4   8   4    0.30    0.16
   3  -8  -4   25.29    0.99
  -3   8   4   24.64    1.00
   2  -8  -4   25.00    0.96
  -2   8   4   23.97    0.97
   1  -8  -4    4.44    0.39
  -1   8   4    5.12    0.43
  -1   8   4    4.66    0.39
   0  -8  -4    4.79    0.41
   0  -8  -4    5.30    0.42
   0   8   4    5.28    0.37
  -1  -8  -4   39.36    1.26
  -1  -8  -4   41.67    1.29
   1   8   4   39.82    1.19
  -2  -8  -4   11.06    0.64
  -2  -8  -4   12.29    0.66
   2   8   4   11.17    0.60
   2  10  -5    2.23    0.35
  -2 -10   5    1.76    0.31
   1  10  -5   17.06    0.78
  -1 -10   5   14.73    0.73
   0  10  -5    9.92    0.56
   0 -10   5    8.38    0.52
  -1  10  -5    0.19    0.12
   1 -10   5    0.22    0.12
  -2  10  -5   33.88    1.05
   2 -10   5   34.25    1.11
  -3  10  -5   35.19    1.17
   3 -10   5   37.90    1.19
   3   9  -5    9.23    0.58
  -3  -9   5    9.33    0.58
   2   9  -5   13.03    0.66
  -2  -9   5   13.83    0.68
   1   9  -5    0.17    0.13
  -1  -9   5    0.04    0.08
   0   9  -5   23.62    0.85
   0  -9   5   23.35    0.85
  -1   9  -5   17.48    0.70
   1  -9   5   17.62    0.71
  -2   9  -5    4.30    0.32
   2  -9   5    3.78    0.32
   2  -9   5    3.82    0.32
  -3   9  -5    5.45    0.39
   3  -9   5    5.73    0.40
   3  -9   5    5.60    0.37
  -4   9  -5   37.71    1.21
   4  -9   5   37.11    1.13
   4   8  -5   14.35    0.70
  -4  -8   5   14.05    0.71
   3   8  -5    1.21    0.24
  -3  -8   5    1.51    0.27
   2   8  -5   29.10    0.97
  -2  -8   5   27.78    0.95
   1   8  -5   33.61    1.04
  -1  -8   5   34.24    1.04
   0   8  -5    1.09    0.18
   0   8  -5    0.85    0.18
   0  -8   5    1.29    0.22
  -1   8  -5   13.89    0.55
   1  -8   5   14.50    0.59
   1  -8   5   14.48    0.59
   1  -8   5   13.87    0.53
   2  -8   5   76.44    1.72
   2  -8   5   73.99    1.68
   2  -8   5   74.99    1.71
   2  -8   5   79.22    1.71
  -3   8  -5   39.71    1.10
   3  -8   5   39.45    1.04
   3  -8   5   39.52    1.09
   3  -8   5   38.83    1.12
  -4   8  -5    1.17    0.23
   4  -8   5    1.10    0.20
  -5   8  -5   30.64    1.09
   5  -8   5   31.45    1.05
   5   7  -5    1.15    0.24
  -5  -7   5    1.25    0.25
   4   7  -5   25.70    0.92
  -4  -7   5   25.16    0.93
   3   7  -5   25.82    0.90
   3   7  -5   25.64    0.90
  -3  -7   5   27.54    0.92
   2   7  -5    6.26    0.34
   2   7  -5    6.00    0.39
  -2  -7   5    6.13    0.39
   1   7  -5   13.73    0.58
   1   7  -5   14.41    0.51
  -1  -7   5   14.57    0.58
   0   7  -5   66.69    1.44
   0  -7   5   65.67    1.50
   0  -7   5   65.49    1.36
   0  -7   5   66.20    1.53
  -1   7  -5   12.98    0.50
   1  -7   5   13.08    0.51
   1  -7   5   13.01    0.48
   1  -7   5   13.24    0.53
   2  -7   5    6.67    0.35
   2  -7   5    6.89    0.36
   2  -7   5    6.85    0.36
   2  -7   5    6.63    0.35
  -3   7  -5   16.64    0.65
  -3   7  -5   16.48    0.59
   3  -7   5   16.82    0.63
   3  -7   5   16.68    0.57
  -4   7  -5   88.06    2.01
   4  -7   5   85.41    1.94
  -5   7  -5   14.77    0.69
   5  -7   5   14.82    0.66
  -6   7  -5    4.36    0.49
   6  -7   5    4.14    0.38
   6   6  -5   24.65    0.91
  -6  -6   5   24.31    0.98
   5   6  -5   16.78    0.69
   5   6  -5   15.83    0.69
  -5  -6   5   16.10    0.73
   4   6  -5    1.81    0.25
   4   6  -5    1.68    0.26
  -4  -6   5    1.36    0.23
   3   6  -5    5.76    0.38
   3   6  -5    5.46    0.33
  -3  -6   5    5.47    0.37
   2   6  -5  135.70    2.68
   2   6  -5  134.57    2.56
  -2  -6   5  134.73    2.67
   1   6  -5   15.14    0.50
  -1  -6   5   14.51    0.56
  -1  -6   5   14.11    0.53
  -1  -6   5   13.89    0.38
   0   6  -5    2.45    0.20
   0  -6   5    2.45    0.20
   0  -6   5    2.43    0.22
   0  -6   5    2.66    0.17
   1  -6   5   83.85    1.73
   1  -6   5   89.61    1.81
   1  -6   5   88.02    1.71
   1  -6   5   85.27    1.76
   2  -6   5  126.75    2.43
   2  -6   5  123.92    2.35
   2  -6   5  124.89    2.40
  -3   6  -5   10.99    0.49
  -3   6  -5   12.18    0.44
   3  -6   5   11.36    0.48
   3  -6   5   11.39    0.44
  -4   6  -5    9.03    0.48
   4  -6   5    9.60    0.47
   4  -6   5    9.66    0.39
  -5   6  -5   56.53    1.50
   5  -6   5   54.96    1.46
  -6   6  -5   43.09    1.34
   6  -6   5   44.41    1.32
   7  -6   5    0.15    0.13
   6   5  -5    0.45    0.14
   6   5  -5    0.38    0.15
  -6  -5   5    0.60    0.19
   5   5  -5   23.90    0.82
   5   5  -5   23.38    0.83
  -5  -5   5   24.47    0.89
   4   5  -5   41.34    1.12
   4   5  -5   41.49    1.12
  -4  -5   5   42.90    1.19
   3   5  -5   12.59    0.50
   3   5  -5   11.70    0.50
  -3  -5   5   12.71    0.54
   2   5  -5    0.57    0.12
  -2  -5   5    0.40    0.11
   1   5  -5   85.83    1.71
  -1  -5   5   87.54    1.74
  -1  -5   5   84.55    1.77
  -1  -5   5   86.08    1.50
   0   5  -5  107.25    2.05
   0  -5   5  107.60    1.90
   0  -5   5  103.92    2.08
   0  -5   5  108.47    2.03
  -1   5  -5    3.28    0.20
   1  -5   5    3.39    0.20
   1  -5   5    3.41    0.22
   1  -5   5    3.70    0.23
  -2   5  -5   30.89    0.80
   2  -5   5   30.12    0.71
   2  -5   5   30.58    0.79
   2  -5   5   28.75    0.80
  -3   5  -5  106.46    2.14
  -3   5  -5  102.53    1.96
   3  -5   5  109.36    2.14
   3  -5   5  104.64    2.04
  -4   5  -5   57.67    1.42
   4  -5   5   58.57    1.27
   4  -5   5   57.36    1.40
  -5   5  -5    0.45    0.15
   5  -5   5    0.60    0.15
  -6   5  -5   23.62    0.90
   6  -5   5   21.31    0.85
  -7   5  -5   36.45    1.25
   7  -5   5   34.38    1.19
   7   4  -5   28.70    1.05
  -7  -4   5   28.28    1.09
   6   4  -5   33.17    1.07
   6   4  -5   32.25    0.96
  -6  -4   5   33.10    1.12
   5   4  -5    7.57    0.45
   5   4  -5    7.79    0.40
  -5  -4   5    7.85    0.47
   4   4  -5    3.17    0.27
   4   4  -5    2.87    0.24
  -4  -4   5    3.02    0.27
   3   4  -5   89.97    1.85
  -3  -4   5   89.72    1.88
  -3  -4   5   87.40    1.82
   2   4  -5   91.61    1.81
  -2  -4   5   92.53    1.84
  -2  -4   5   90.09    1.83
   1   4  -5    5.77    0.28
  -1  -4   5    5.89    0.27
  -1  -4   5    5.84    0.29
   0   4  -5   36.95    0.73
   0   4  -5   35.95    0.85
   0  -4   5   34.24    0.86
   0  -4   5   36.34    0.80
  -1   4  -5  229.24    3.92
   1  -4   5  231.74    4.00
   1  -4   5  225.40    4.00
   1  -4   5  233.66    3.89
  -2   4  -5   88.54    1.74
   2  -4   5   89.40    1.60
   2  -4   5   89.24    1.77
   2  -4   5   88.85    1.74
  -3   4  -5    1.17    0.10
  -3   4  -5    0.95    0.15
   3  -4   5    1.01    0.14
   3  -4   5    1.19    0.17
  -4   4  -5  101.15    2.11
   4  -4   5   99.29    2.08
   4  -4   5  101.79    1.98
  -5   4  -5   56.51    1.46
   5  -4   5   58.18    1.44
   5  -4   5   56.98    1.28
  -6   4  -5   10.55    0.58
   6  -4   5   10.95    0.57
  -7   4  -5    2.39    0.36
   7  -4   5    2.21    0.32
   7   3  -5    1.10    0.25
  -7  -3   5    2.06    0.33
   6   3  -5   19.46    0.78
   6   3  -5   20.00    0.66
  -6  -3   5   18.37    0.80
   5   3  -5   62.82    1.40
   5   3  -5   61.20    1.54
  -5  -3   5   63.86    1.59
   4   3  -5   33.70    0.95
   4   3  -5   33.88    0.86
  -4  -3   5   32.46    0.96
   3   3  -5    3.55    0.25
  -3  -3   5    3.20    0.24
  -3  -3   5    3.55    0.22
   2   3  -5   62.13    1.31
  -2  -3   5   59.79    1.27
  -2  -3   5   62.18    1.32
   1   3  -5  120.96    2.23
  -1  -3   5  120.61    2.23
  -1  -3   5  122.14    2.21
   0   3  -5   40.84    0.91
   0   3  -5   42.46    0.79
   0  -3   5   39.86    0.83
  -1   3  -5   17.74    0.46
   1  -3   5   17.69    0.51
   1  -3   5   17.25    0.51
   1  -3   5   17.97    0.40
  -2   3  -5  145.13    2.58
  -2   3  -5  138.53    2.36
   2  -3   5  141.11    2.59
   2  -3   5  142.42    2.60
  -3   3  -5  143.03    2.71
  -3   3  -5  146.66    2.44
   3  -3   5  142.87    2.70
   3  -3   5  147.14    2.68
  -4   3  -5   26.60    0.82
   4  -3   5   27.55    0.76
   4  -3   5   27.63    0.81
  -5   3  -5   11.72    0.55
   5  -3   5   13.04    0.56
   5  -3   5   12.98    0.49
  -6   3  -5   63.01    1.62
   6  -3   5   61.85    1.58
  -7   3  -5    8.87    0.57
   7  -3   5    8.86    0.54
   7   2  -5   27.96    1.03
  -7  -2   5   27.09    1.04
   6   2  -5   27.33    0.96
  -6  -2   5   29.05    1.01
   5   2  -5    1.33    0.23
   5   2  -5    1.13    0.16
  -5  -2   5    0.93    0.20
   4   2  -5   43.53    1.13
   4   2  -5   43.27    0.98
  -4  -2   5   44.35    1.16
  -4  -2   5   42.60    0.88
   3   2  -5  185.34    3.44
  -3  -2   5  188.06    3.32
  -3  -2   5  192.52    3.49
  -3  -2   5  192.88    3.15
   2   2  -5   26.79    0.70
  -2  -2   5   26.51    0.71
  -2  -2   5   26.74    0.65
   1   2  -5    4.96    0.14
  -1  -2   5    4.59    0.22
  -1  -2   5    5.58    0.24
   0   2  -5  175.82    3.03
   0   2  -5  174.37    2.90
   0  -2   5  172.76    2.92
   0  -2   5  168.12    3.02
  -1   2  -5  138.41    2.45
   1  -2   5  140.82    2.32
   1  -2   5  143.05    2.51
   1  -2   5  138.11    2.52
  -2   2  -5   75.05    1.47
   2  -2   5   75.04    1.49
   2  -2   5   70.80    1.45
  -3   2  -5   35.15    0.89
   3  -2   5   34.38    0.87
   3  -2   5   36.17    0.88
  -4   2  -5  128.91    2.57
   4  -2   5  132.97    2.53
   4  -2   5  131.93    2.52
  -5   2  -5   49.28    1.28
   5  -2   5   47.46    1.22
   5  -2   5   47.45    1.17
  -6   2  -5    0.28    0.13
   6  -2   5    0.39    0.11
   6  -2   5    0.38    0.14
  -7   2  -5   17.13    0.79
   7  -2   5   18.40    0.77
   8   1  -5    0.56    0.20
   7   1  -5    0.28    0.15
  -7  -1   5    0.36    0.17
   6   1  -5   51.32    1.42
  -6  -1   5   52.75    1.47
   5   1  -5   62.93    1.54
  -5  -1   5   65.59    1.61
  -5  -1   5   61.05    1.32
   4   1  -5   15.78    0.59
   4   1  -5   14.51    0.43
  -4  -1   5   14.94    0.45
  -4  -1   5   14.75    0.60
   3   1  -5    9.16    0.40
   3   1  -5    9.90    0.30
  -3  -1   5    9.52    0.43
  -3  -1   5   10.15    0.32
   2   1  -5  177.69    3.21
   2   1  -5  181.36    3.02
  -2  -1   5  183.04    3.27
  -2  -1   5  178.99    3.09
   1   1  -5  152.61    2.43
   1   1  -5  138.11    2.54
  -1  -1   5  144.42    2.52
  -1  -1   5  139.01    2.57
   0   1  -5   20.05    0.53
   0   1  -5   21.75    0.49
   0  -1   5   21.31    0.50
   0  -1   5   21.08    0.54
  -1   1  -5   42.70    0.89
   1  -1   5   39.73    0.92
   1  -1   5   43.80    0.89
  -2   1  -5  252.91    4.36
   2  -1   5  257.15    4.32
   2  -1   5  249.34    4.37
  -3   1  -5   89.83    1.81
   3  -1   5   90.68    1.80
   3  -1   5   88.52    1.75
  -4   1  -5    1.65    0.22
   4  -1   5    0.98    0.16
   4  -1   5    0.78    0.14
  -5   1  -5   46.03    1.22
   5  -1   5   45.34    1.15
   5  -1   5   45.36    1.15
  -6   1  -5   49.72    1.38
   6  -1   5   50.12    1.28
   6  -1   5   49.61    1.31
  -7   1  -5    4.24    0.39
   7  -1   5    3.64    0.34
   8   0  -5   38.38    1.34
  -8   0   5   40.71    1.37
   7   0  -5   20.65    0.87
  -7   0   5   21.91    0.91
   6   0  -5    1.28    0.24
  -6   0   5    1.34    0.26
  -6   0   5    1.37    0.20
   5   0  -5    0.07    0.09
  -5   0   5    0.05    0.07
   4   0  -5  153.87    2.78
   4   0  -5  154.10    2.97
  -4   0   5  154.79    3.06
   3   0  -5  106.08    2.09
   3   0  -5  106.18    1.95
  -3   0   5  108.30    2.18
  -3   0   5  104.92    1.87
   2   0  -5    0.79    0.09
   2   0  -5    0.46    0.11
  -2   0   5    0.82    0.08
  -2   0   5    0.49    0.12
   1   0  -5   61.77    1.17
   1   0  -5   60.77    1.20
  -1   0   5   60.84    1.26
  -1   0   5   61.45    1.18
   0   0  -5  294.45    5.21
   0   0  -5  310.44    5.09
   0   0   5  307.14    5.29
   0   0   5  306.60    5.23
  -1   0  -5   40.15    0.88
   1   0   5   41.26    0.77
   1   0   5   40.72    0.83
   1   0   5   38.53    0.89
  -2   0  -5    0.00    0.05
  -2   0  -5    0.07    0.04
   2   0   5    0.15    0.06
   2   0   5    0.33    0.09
  -3   0  -5   78.07    1.40
  -3   0  -5   81.45    1.66
   3   0   5   78.02    1.55
   3   0   5   79.45    1.64
  -4   0  -5  122.75    2.41
   4   0   5  116.25    2.29
   4   0   5  122.31    2.38
  -5   0  -5    7.22    0.41
   5   0   5    7.53    0.38
   5   0   5    6.79    0.39
  -6   0  -5   10.34    0.55
   6   0   5   10.04    0.49
   6   0   5    9.96    0.50
  -7   0  -5   19.10    0.84
   7   0   5   20.24    0.78
   8  -1  -5   -0.05    0.10
  -8   1   5    0.18    0.15
   7  -1  -5   17.55    0.80
  -7   1   5   17.22    0.69
  -7   1   5   17.23    0.80
   6  -1  -5   87.39    2.06
  -6   1   5   88.86    2.14
  -6   1   5   88.05    1.92
   5  -1  -5   13.58    0.59
   5  -1  -5   14.06    0.53
  -5   1   5   14.62    0.66
   4  -1  -5    1.11    0.19
   4  -1  -5    0.90    0.14
  -4   1   5    1.04    0.21
   3  -1  -5   56.33    1.27
   3  -1  -5   56.42    1.19
  -3   1   5   55.13    1.34
  -3   1   5   55.85    1.02
   2  -1  -5  246.21    4.32
   2  -1  -5  258.49    4.29
  -2   1   5  242.64    4.17
  -2   1   5  253.49    4.42
   1  -1  -5   18.72    0.51
   1  -1  -5   18.22    0.49
  -1   1   5   19.62    0.49
  -1   1   5   19.06    0.55
   0  -1  -5   39.25    0.79
   0   1   5   38.95    0.86
   0   1   5   38.42    0.84
  -1  -1  -5  196.13    3.42
  -1  -1  -5  195.13    3.28
   1   1   5  188.83    3.40
   1   1   5  193.88    3.30
  -2  -1  -5  190.11    3.39
  -2  -1  -5  190.13    3.21
   2   1   5  185.65    3.37
   2   1   5  187.37    3.22
  -3  -1  -5   10.12    0.32
  -3  -1  -5    9.27    0.42
   3   1   5    9.95    0.42
   3   1   5   10.80    0.36
  -4  -1  -5    9.21    0.45
  -4  -1  -5    8.98    0.43
   4   1   5   10.53    0.40
   4   1   5    8.54    0.42
  -5  -1  -5   53.04    1.38
   5   1   5   53.84    1.24
   5   1   5   52.03    1.34
  -6  -1  -5   18.61    0.77
   6   1   5   18.46    0.67
   6   1   5   20.01    0.75
  -7  -1  -5    0.28    0.15
   7   1   5   -0.02    0.08
   7  -2  -5    5.21    0.45
  -7   2   5    5.14    0.39
  -7   2   5    5.49    0.47
   6  -2  -5    0.11    0.10
   6  -2  -5    0.41    0.14
  -6   2   5    0.22    0.13
   5  -2  -5   36.27    0.99
   5  -2  -5   34.45    1.05
  -5   2   5   37.65    1.15
   4  -2  -5  105.03    2.16
   4  -2  -5  104.64    2.09
  -4   2   5  104.10    2.26
   3  -2  -5   17.34    0.58
   3  -2  -5   18.84    0.58
  -3   2   5   17.97    0.41
  -3   2   5   18.87    0.66
   2  -2  -5   10.84    0.41
   2  -2  -5   10.93    0.39
  -2   2   5   11.27    0.45
  -2   2   5   10.62    0.32
   1  -2  -5  146.86    2.62
   1  -2  -5  150.71    2.73
  -1   2   5  154.55    2.75
  -1   2   5  146.97    2.62
   0  -2  -5  115.44    2.06
   0   2   5  123.24    2.21
   0   2   5  117.79    2.18
  -1  -2  -5   18.41    0.57
  -1  -2  -5   17.67    0.51
  -1  -2  -5   18.42    0.42
  -2  -2  -5   63.29    1.48
  -2  -2  -5   73.61    1.40
   2   2   5   72.08    1.30
   2   2   5   72.43    1.51
  -3  -2  -5   96.93    1.84
  -3  -2  -5   94.96    2.01
   3   2   5   96.28    1.78
   3   2   5   99.02    2.01
  -4  -2  -5   41.25    0.95
  -4  -2  -5   39.23    1.10
   4   2   5   39.91    1.09
   4   2   5   39.26    0.92
  -5  -2  -5    1.05    0.21
   5   2   5    1.22    0.23
  -6  -2  -5   19.26    0.80
   6   2   5   19.77    0.79
   7  -3  -5   46.79    1.34
   7  -3  -5   48.54    1.46
  -7   3   5   47.67    1.51
   6  -3  -5   45.19    1.27
   6  -3  -5   47.75    1.37
  -6   3   5   46.69    1.42
   5  -3  -5    5.96    0.37
   5  -3  -5    5.66    0.39
  -5   3   5    5.87    0.43
   4  -3  -5   27.58    0.83
   4  -3  -5   27.51    0.84
  -4   3   5   27.50    0.92
   3  -3  -5   82.51    1.74
   3  -3  -5   79.65    1.70
  -3   3   5   82.92    1.82
   2  -3  -5   99.65    1.97
   2  -3  -5   97.68    1.87
  -2   3   5   94.45    2.00
  -2   3   5   97.68    1.77
   1  -3  -5    0.56    0.09
   1  -3  -5    0.45    0.11
  -1   3   5    0.36    0.10
  -1   3   5    0.36    0.08
   0  -3  -5   84.91    1.50
   0  -3  -5   86.90    1.76
   0   3   5   87.32    1.75
   0   3   5   84.33    1.68
  -1  -3  -5  140.76    2.60
  -1  -3  -5  138.75    2.67
   1   3   5  143.00    2.64
  -2  -3  -5   79.70    1.72
  -2  -3  -5   80.38    1.62
   2   3   5   78.78    1.70
  -3  -3  -5    0.89    0.14
  -3  -3  -5    0.74    0.16
   3   3   5    0.96    0.18
  -4  -3  -5   51.81    1.21
  -4  -3  -5   50.78    1.34
   4   3   5   51.97    1.35
  -5  -3  -5   10.11    0.55
   5   3   5   11.53    0.57
  -6  -3  -5    8.28    0.53
   6   3   5    8.69    0.53
   7  -4  -5    0.09    0.12
   7  -4  -5    0.21    0.13
  -7   4   5    0.05    0.12
   6  -4  -5    6.80    0.45
   6  -4  -5    7.36    0.48
  -6   4   5    7.59    0.53
   5  -4  -5   60.90    1.53
   5  -4  -5   59.77    1.53
  -5   4   5   62.50    1.67
   4  -4  -5   43.75    1.15
   4  -4  -5   42.11    1.17
  -4   4   5   44.01    1.26
   3  -4  -5    1.98    0.23
   3  -4  -5    2.04    0.27
  -3   4   5    1.95    0.26
   2  -4  -5   73.37    1.48
   2  -4  -5   73.10    1.64
  -2   4   5   75.22    1.43
  -2   4   5   74.13    1.68
   1  -4  -5   60.33    1.39
   1  -4  -5   57.71    1.13
  -1   4   5   59.99    1.25
  -1   4   5   59.86    1.40
   0   4   5   37.74    0.93
  -1  -4  -5    9.32    0.45
  -1  -4  -5    9.76    0.43
   1   4   5   10.15    0.44
  -2  -4  -5   71.29    1.63
  -2  -4  -5   70.40    1.54
   2   4   5   69.37    1.59
  -3  -4  -5   63.61    1.45
  -3  -4  -5   63.30    1.54
   3   4   5   62.33    1.53
  -4  -4  -5    7.79    0.41
  -4  -4  -5    7.28    0.45
   4   4   5    7.19    0.45
  -5  -4  -5   21.86    0.86
   5   4   5   22.60    0.88
   6  -5  -5   18.38    0.80
   6  -5  -5   18.24    0.79
  -6   5   5   18.91    0.87
   5  -5  -5    0.55    0.16
   5  -5  -5    0.61    0.17
  -5   5   5    0.53    0.18
   4  -5  -5   48.48    1.24
   4  -5  -5   49.53    1.35
  -4   5   5   49.02    1.40
   3  -5  -5   81.78    1.87
   3  -5  -5   81.48    1.70
  -3   5   5   81.46    1.92
   2  -5  -5    6.33    0.39
  -2   5   5    6.52    0.29
  -2   5   5    5.58    0.38
   1  -5  -5   25.15    0.82
  -1   5   5   25.33    0.83
  -1   5   5   24.73    0.70
   0  -5  -5   66.40    1.58
   0   5   5   68.94    1.50
   0   5   5   67.55    1.60
  -1  -5  -5   72.27    1.68
  -1  -5  -5   71.02    1.62
   1   5   5   70.43    1.60
  -2  -5  -5    7.83    0.42
  -2  -5  -5    7.37    0.44
   2   5   5    7.53    0.43
  -3  -5  -5   13.96    0.64
  -3  -5  -5   14.27    0.59
   3   5   5   14.20    0.64
  -4  -5  -5   25.29    0.93
  -4  -5  -5   25.49    0.86
   4   5   5   26.02    0.94
  -5  -5  -5    8.80    0.55
   5   5   5    8.46    0.55
   6  -6  -5   22.91    0.90
   6  -6  -5   22.28    0.93
  -6   6   5   22.59    1.01
   5  -6  -5   37.32    1.23
  -5   6   5   39.48    1.33
   4  -6  -5    3.98    0.35
  -4   6   5    3.96    0.38
   3  -6  -5   13.85    0.65
  -3   6   5   14.63    0.69
   2  -6  -5   80.75    1.91
  -2   6   5   81.89    1.95
  -1   6   5   20.92    0.66
  -1   6   5   20.36    0.79
   0  -6  -5    0.07    0.09
   0   6   5    0.09    0.08
   0   6   5    0.09    0.08
  -1  -6  -5   26.94    0.93
  -1  -6  -5   26.88    0.90
   1   6   5   29.05    0.89
  -2  -6  -5   43.83    1.28
  -2  -6  -5   43.90    1.23
   2   6   5   44.37    1.24
  -3  -6  -5   23.75    0.91
  -3  -6  -5   24.74    0.87
   3   6   5   24.75    0.91
  -4  -6  -5    1.86    0.32
  -4  -6  -5    1.57    0.27
   4   6   5    1.63    0.29
   5  -7  -5    5.92    0.48
  -5   7   5    6.94    0.54
   4  -7  -5   45.97    1.41
  -4   7   5   44.97    1.45
   3  -7  -5   22.38    0.89
  -3   7   5   21.34    0.90
   2  -7  -5    2.10    0.31
  -2   7   5    1.54    0.29
   1  -7  -5   31.21    1.05
  -1   7   5   30.85    0.89
  -1   7   5   30.83    1.07
   0  -7  -5   52.31    1.46
   0   7   5   51.27    1.46
   0   7   5   51.51    1.32
  -1  -7  -5   11.18    0.61
  -1  -7  -5   11.52    0.59
   1   7   5   11.18    0.55
  -2  -7  -5    1.25    0.25
  -2  -7  -5    1.71    0.29
   2   7   5    1.33    0.26
  -3  -7  -5   16.25    0.74
  -3  -7  -5   17.02    0.80
   3   7   5   18.13    0.79
   3  -8  -5   31.10    1.13
  -3   8   5   28.88    1.13
   2  -8  -5   21.71    0.91
  -2   8   5   23.40    0.98
   1  -8  -5    8.20    0.54
  -1   8   5    7.66    0.54
   0   8   5   13.50    0.62
   0   8   5   13.73    0.71
  -1  -8  -5   23.75    0.95
  -1  -8  -5   24.71    0.98
   1   8   5   24.98    0.91
   1  10  -6   22.93    0.92
  -1 -10   6   21.04    0.88
   0  10  -6    2.58    0.34
   0 -10   6    2.91    0.38
  -1  10  -6    3.17    0.38
   1 -10   6    2.77    0.35
  -2  10  -6   27.17    0.93
   2 -10   6   27.45    0.96
  -3  10  -6   21.79    0.93
   3 -10   6   21.43    1.10
   3   9  -6    4.06    0.46
  -3  -9   6    4.51    0.41
   2   9  -6    1.64    0.29
  -2  -9   6    1.39    0.26
   1   9  -6    7.79    0.49
  -1  -9   6    8.81    0.51
   0   9  -6   19.99    0.78
   0  -9   6   20.70    0.79
  -1   9  -6   61.72    1.49
   1  -9   6   60.14    1.53
   1  -9   6   62.42    1.57
  -2   9  -6    5.95    0.40
   2  -9   6    5.45    0.36
   2  -9   6    6.15    0.39
   2  -9   6    5.84    0.38
  -3   9  -6    6.04    0.42
   3  -9   6    6.37    0.41
   3  -9   6    7.07    0.40
  -4   9  -6   39.86    1.25
   4  -9   6   39.83    1.21
   4   8  -6    0.41    0.18
  -4  -8   6    0.81    0.22
   3   8  -6    0.83    0.21
  -3  -8   6    0.84    0.21
   2   8  -6   24.83    0.90
  -2  -8   6   24.02    0.88
   1   8  -6   22.44    0.71
   1   8  -6   22.66    0.82
  -1  -8   6   21.63    0.79
   0   8  -6    2.41    0.23
   0  -8   6    2.57    0.25
   0  -8   6    1.83    0.26
  -1   8  -6   22.55    0.75
   1  -8   6   23.41    0.80
   1  -8   6   23.32    0.77
   2  -8   6   54.80    1.36
   2  -8   6   54.00    1.32
   2  -8   6   54.93    1.35
  -3   8  -6   46.19    1.27
   3  -8   6   46.74    1.25
   3  -8   6   47.01    1.19
  -4   8  -6    3.89    0.34
   4  -8   6    4.08    0.34
  -5   8  -6   10.29    0.59
   5  -8   6   10.94    0.59
   5   7  -6    0.11    0.12
  -5  -7   6    0.05    0.10
   4   7  -6   17.41    0.78
   4   7  -6   18.70    0.77
  -4  -7   6   18.93    0.80
   3   7  -6   18.17    0.73
   3   7  -6   18.72    0.68
  -3  -7   6   19.28    0.76
   2   7  -6   12.00    0.56
   2   7  -6   12.65    0.51
  -2  -7   6   11.79    0.55
   1   7  -6   16.28    0.58
  -1  -7   6   17.26    0.67
  -1  -7   6   17.23    0.64
   0   7  -6   69.31    1.52
   0  -7   6   69.48    1.60
   0  -7   6   67.00    1.53
   0  -7   6   67.39    1.41
  -1   7  -6   44.48    1.12
   1  -7   6   43.65    1.14
   1  -7   6   44.18    1.09
  -2   7  -6    0.67    0.14
   2  -7   6    0.82    0.16
   2  -7   6    0.56    0.14
   2  -7   6    0.46    0.11
  -3   7  -6   25.91    0.84
   3  -7   6   27.44    0.81
   3  -7   6   26.28    0.84
  -4   7  -6   98.47    2.19
   4  -7   6   99.28    2.01
   4  -7   6   95.66    2.15
  -5   7  -6    8.34    0.51
   5  -7   6    8.17    0.49
  -6   7  -6    5.96    0.46
   6  -7   6    5.41    0.43
   6   6  -6   14.59    0.67
   6   6  -6   13.93    0.69
  -6  -6   6   14.44    0.75
   5   6  -6   14.05    0.65
   5   6  -6   14.92    0.66
  -5  -6   6   15.32    0.72
   4   6  -6    0.01    0.08
   4   6  -6    0.14    0.11
  -4  -6   6    0.00    0.07
   3   6  -6   13.17    0.58
   3   6  -6   13.25    0.55
  -3  -6   6   13.40    0.59
   2   6  -6   64.16    1.44
  -2  -6   6   64.52    1.52
  -2  -6   6   64.57    1.51
   1   6  -6    1.82    0.21
  -1  -6   6    1.50    0.21
  -1  -6   6    1.36    0.19
   0   6  -6   35.77    0.78
   0   6  -6   34.19    0.91
   0  -6   6   35.24    0.96
   0  -6   6   34.69    0.89
  -1   6  -6   72.29    1.42
  -1   6  -6   65.96    1.49
   1  -6   6   69.52    1.53
   1  -6   6   66.54    1.42
  -2   6  -6   84.07    1.73
   2  -6   6   82.08    1.64
   2  -6   6   84.14    1.76
   2  -6   6   83.29    1.77
  -3   6  -6    8.15    0.41
   3  -6   6    8.09    0.42
   3  -6   6    8.54    0.39
  -4   6  -6   15.35    0.63
   4  -6   6   15.90    0.64
   4  -6   6   15.09    0.54
  -5   6  -6   35.58    1.11
   5  -6   6   33.46    1.07
  -6   6  -6   20.65    0.87
   6  -6   6   20.84    0.85
   6   5  -6    0.06    0.12
   6   5  -6    0.04    0.09
  -6  -5   6    0.16    0.12
   5   5  -6    5.49    0.39
   5   5  -6    6.50    0.40
  -5  -5   6    6.61    0.45
   4   5  -6   27.33    0.86
   4   5  -6   29.54    0.91
  -4  -5   6   27.39    0.92
   3   5  -6   10.49    0.48
  -3  -5   6   11.20    0.50
  -3  -5   6   10.59    0.49
   2   5  -6   32.93    0.88
  -2  -5   6   33.90    0.92
  -2  -5   6   32.35    0.90
   1   5  -6   65.58    1.43
  -1  -5   6   67.13    1.43
  -1  -5   6   67.13    1.48
   0   5  -6   82.73    1.46
   0   5  -6   78.41    1.63
   0  -5   6   76.30    1.65
   0  -5   6   77.92    1.56
  -1   5  -6    7.67    0.30
   1  -5   6    7.57    0.36
   1  -5   6    8.59    0.37
   1  -5   6    7.90    0.30
  -2   5  -6   17.72    0.56
   2  -5   6   17.67    0.59
   2  -5   6   17.57    0.47
   2  -5   6   17.62    0.58
  -3   5  -6  103.28    2.10
   3  -5   6  104.63    2.13
   3  -5   6  103.13    2.06
  -4   5  -6   49.39    1.25
   4  -5   6   47.25    1.13
   4  -5   6   46.48    1.23
  -5   5  -6    2.39    0.31
   5  -5   6    2.19    0.28
   5  -5   6    2.77    0.29
  -6   5  -6   22.87    0.91
   6  -5   6   24.30    0.90
  -7   5  -6   33.65    1.20
   7  -5   6   31.45    1.14
   7   4  -6    7.07    0.51
  -7  -4   6    8.61    0.59
   6   4  -6   23.56    0.78
   6   4  -6   22.15    0.87
  -6  -4   6   23.78    0.94
   5   4  -6    5.70    0.35
   5   4  -6    5.68    0.40
  -5  -4   6    5.96    0.42
   4   4  -6    6.08    0.38
   4   4  -6    7.19    0.37
  -4  -4   6    6.35    0.40
   3   4  -6   44.86    1.13
  -3  -4   6   44.97    1.10
  -3  -4   6   44.62    1.15
   2   4  -6   32.50    0.85
  -2  -4   6   32.33    0.85
  -2  -4   6   32.83    0.86
   1   4  -6    1.88    0.17
  -1  -4   6    1.99    0.18
  -1  -4   6    1.78    0.16
   0   4  -6  176.36    2.91
   0   4  -6  172.92    3.11
   0  -4   6  163.71    3.10
   0  -4   6  172.82    3.00
  -1   4  -6  125.27    2.28
   1  -4   6  128.69    2.40
   1  -4   6  127.14    2.40
   1  -4   6  127.89    2.23
  -2   4  -6   53.99    1.18
   2  -4   6   55.22    1.23
   2  -4   6   55.81    1.24
   2  -4   6   53.67    1.02
  -3   4  -6    7.51    0.37
   3  -4   6    7.47    0.36
   3  -4   6   10.10    0.43
  -4   4  -6   49.70    1.26
   4  -4   6   50.17    1.19
   4  -4   6   49.84    1.25
  -5   4  -6   40.69    1.18
   5  -4   6   41.38    1.06
   5  -4   6   41.78    1.17
  -6   4  -6    4.46    0.38
   6  -4   6    4.79    0.38
  -7   4  -6    3.68    0.45
   7  -4   6    4.73    0.41
   7   3  -6    1.60    0.30
  -7  -3   6    1.97    0.36
   6   3  -6    9.12    0.54
  -6  -3   6    9.66    0.57
   5   3  -6   18.47    0.62
   5   3  -6   19.31    0.75
  -5  -3   6   19.60    0.78
   4   3  -6   33.17    0.96
  -4  -3   6   31.79    0.97
   3   3  -6    4.25    0.28
  -3  -3   6    4.14    0.29
  -3  -3   6    4.44    0.26
   2   3  -6   45.51    1.07
  -2  -3   6   46.43    1.05
  -2  -3   6   46.58    1.08
   1   3  -6   98.94    1.92
  -1  -3   6   99.18    1.90
  -1  -3   6   98.85    1.87
   0   3  -6   51.09    0.96
   0  -3   6   51.49    1.01
   0  -3   6   50.15    1.11
   1  -3   6    0.56    0.11
   1  -3   6    0.55    0.11
   1  -3   6    0.26    0.05
  -2   3  -6  104.64    2.01
   2  -3   6  106.08    2.07
   2  -3   6  108.05    2.06
  -3   3  -6  128.38    2.43
   3  -3   6  124.94    2.43
   3  -3   6  125.85    2.43
  -4   3  -6   10.07    0.46
   4  -3   6   10.03    0.44
   4  -3   6    9.92    0.45
  -5   3  -6    8.48    0.47
   5  -3   6    8.64    0.46
   5  -3   6    8.36    0.42
  -6   3  -6   28.62    1.00
   6  -3   6   30.10    0.99
  -7   3  -6   27.55    1.04
   7  -3   6   27.77    1.01
   7   2  -6   30.66    1.11
  -7  -2   6   32.04    1.17
   6   2  -6   19.21    0.80
  -6  -2   6   20.99    0.87
   5   2  -6    0.65    0.12
   5   2  -6    0.52    0.15
  -5  -2   6    0.41    0.15
   4   2  -6   36.25    1.01
  -4  -2   6   36.17    0.86
  -4  -2   6   35.50    0.75
  -4  -2   6   34.23    1.03
   3   2  -6   75.75    1.62
  -3  -2   6   72.15    1.47
  -3  -2   6   75.57    1.65
   2   2  -6    0.29    0.09
  -2  -2   6    0.27    0.07
  -2  -2   6    0.20    0.08
   1   2  -6   35.85    0.85
   1   2  -6   37.24    0.69
  -1  -2   6   35.90    0.83
  -1  -2   6   34.40    0.82
   0   2  -6  222.60    3.72
   0   2  -6  226.56    3.86
   0  -2   6  215.37    3.85
   0  -2   6  222.45    3.73
  -1   2  -6  223.41    3.83
   1  -2   6  223.29    3.92
   1  -2   6  228.36    3.72
   1  -2   6  221.21    3.88
  -2   2  -6    0.66    0.12
   2  -2   6    0.76    0.14
  -3   2  -6   47.10    1.12
   3  -2   6   46.98    1.10
   3  -2   6   47.99    1.13
  -4   2  -6   75.83    1.69
   4  -2   6   77.74    1.68
   4  -2   6   75.97    1.65
  -5   2  -6   26.62    0.88
   5  -2   6   26.74    0.85
   5  -2   6   27.55    0.85
  -6   2  -6    3.66    0.41
   6  -2   6    3.94    0.33
   6  -2   6    4.50    0.33
  -7   2  -6   11.49    0.65
   7  -2   6   12.53    0.64
   7   1  -6    0.30    0.16
  -7  -1   6   -0.02    0.08
   6   1  -6   21.16    0.83
  -6  -1   6   20.16    0.85
   5   1  -6   58.13    1.49
  -5  -1   6   57.73    1.54
  -5  -1   6   59.80    1.26
   4   1  -6    2.00    0.15
   4   1  -6    2.42    0.29
  -4  -1   6    2.25    0.29
  -4  -1   6    2.26    0.16
   3   1  -6   20.45    0.50
   3   1  -6   20.54    0.66
  -3  -1   6   20.71    0.54
  -3  -1   6   20.53    0.70
   2   1  -6   96.66    1.77
   2   1  -6  102.41    1.96
  -2  -1   6  103.25    2.03
  -2  -1   6  101.06    1.85
   1   1  -6   48.46    0.95
   1   1  -6   48.73    1.06
  -1  -1   6   50.10    1.09
  -1  -1   6   50.79    1.04
   0   1  -6   -0.01    0.05
   0   1  -6    0.08    0.06
   0  -1   6    0.04    0.06
   0  -1   6    0.24    0.07
  -1   1  -6    0.62    0.10
   1  -1   6    0.58    0.10
   1  -1   6    0.57    0.10
   1  -1   6    0.76    0.06
  -2   1  -6  233.37    4.05
   2  -1   6  231.53    4.08
   2  -1   6  228.73    4.00
  -3   1  -6   59.20    1.34
   3  -1   6   60.31    1.36
   3  -1   6   61.29    1.30
  -4   1  -6    1.49    0.21
   4  -1   6    1.91    0.22
   4  -1   6    1.67    0.22
  -5   1  -6   26.18    0.88
   5  -1   6   26.38    0.82
   5  -1   6   26.68    0.84
  -6   1  -6   33.78    1.10
   6  -1   6   34.42    1.03
   6  -1   6   33.48    1.02
  -7   1  -6    8.19    0.54
   7  -1   6    8.54    0.51
   7   0  -6   29.07    1.05
  -7   0   6   26.11    1.05
   6   0  -6    5.50    0.41
  -6   0   6    4.46    0.39
  -6   0   6    4.17    0.29
   5   0  -6    4.56    0.27
   5   0  -6    4.51    0.34
  -5   0   6    5.04    0.39
   4   0  -6  114.91    2.37
   4   0  -6  116.81    2.18
  -4   0   6  119.75    2.49
  -4   0   6  113.68    2.05
   3   0  -6   19.16    0.52
   3   0  -6   19.60    0.63
  -3   0   6   18.92    0.68
  -3   0   6   19.02    0.48
   2   0  -6   10.07    0.39
   2   0  -6    9.48    0.32
  -2   0   6    9.43    0.31
  -2   0   6    9.34    0.42
   1   0  -6  128.23    2.35
   1   0  -6  136.15    2.32
  -1   0   6  127.12    2.33
  -1   0   6  128.58    2.41
   0   0  -6  242.50    4.12
   0   0  -6  232.96    4.10
   0   0   6  243.01    4.12
   0   0   6  248.01    4.17
  -1   0  -6   53.35    1.14
  -1   0  -6   51.32    1.08
   1   0   6   53.87    1.16
   1   0   6   53.80    1.02
  -2   0  -6   11.77    0.44
   2   0   6   11.36    0.29
   2   0   6   11.94    0.45
   2   0   6   11.79    0.38
  -3   0  -6   68.12    1.51
   3   0   6   68.06    1.40
   3   0   6   69.44    1.52
  -4   0  -6   77.84    1.77
   4   0   6   84.15    1.68
   4   0   6   79.49    1.77
  -5   0  -6    0.92    0.19
   5   0   6    1.00    0.19
   5   0   6    0.81    0.16
  -6   0  -6    9.37    0.54
   6   0   6    9.50    0.51
   6   0   6    9.24    0.47
  -7   0  -6   33.83    1.18
   7   0   6   33.37    1.06
   7   0   6   34.49    1.09
   7  -1  -6    7.95    0.54
  -7   1   6    8.80    0.58
  -7   1   6    8.21    0.51
   6  -1  -6   23.21    0.76
   6  -1  -6   22.99    0.88
  -6   1   6   23.53    0.94
   5  -1  -6   34.43    1.04
   5  -1  -6   33.83    0.92
  -5   1   6   33.18    1.10
   4  -1  -6    1.38    0.18
   4  -1  -6    1.61    0.23
  -4   1   6    1.53    0.24
   3  -1  -6   61.69    1.37
   3  -1  -6   61.26    1.28
  -3   1   6   59.33    1.13
  -3   1   6   58.16    1.44
   2  -1  -6   93.48    1.86
   2  -1  -6   99.20    1.91
  -2   1   6   98.87    1.78
  -2   1   6   99.58    2.00
   1  -1  -6    1.84    0.15
   1  -1  -6    1.17    0.14
  -1   1   6    1.35    0.17
  -1   1   6    0.96    0.12
   0  -1  -6    2.65    0.18
   0  -1  -6    2.57    0.15
   0   1   6    3.00    0.19
   0   1   6    2.39    0.17
  -1  -1  -6   99.49    1.92
  -1  -1  -6   96.81    1.78
   1   1   6   98.90    1.91
   1   1   6   97.16    1.80
  -2  -1  -6   70.59    1.52
  -2  -1  -6   69.54    1.33
   2   1   6   69.36    1.50
   2   1   6   71.31    1.35
  -3  -1  -6   15.89    0.58
  -3  -1  -6   15.83    0.43
   3   1   6   15.29    0.47
   3   1   6   14.62    0.56
  -4  -1  -6   16.52    0.65
   4   1   6   17.52    0.55
   4   1   6   17.08    0.65
  -5  -1  -6   34.24    1.07
   5   1   6   36.15    1.07
   5   1   6   36.31    0.95
  -6  -1  -6   15.30    0.70
   6   1   6   14.32    0.66
   7  -2  -6   13.61    0.71
  -7   2   6   14.17    0.65
  -7   2   6   14.56    0.77
   6  -2  -6    0.27    0.14
   6  -2  -6    0.29    0.11
  -6   2   6    0.07    0.12
   5  -2  -6   40.00    1.08
   5  -2  -6   40.46    1.17
  -5   2   6   39.71    1.24
   4  -2  -6   50.81    1.22
   4  -2  -6   48.65    1.26
  -4   2   6   52.05    1.38
   3  -2  -6    9.62    0.42
   3  -2  -6    9.07    0.39
  -3   2   6    8.76    0.45
  -3   2   6    8.62    0.27
   2  -2  -6   53.72    1.19
   2  -2  -6   55.06    1.22
  -2   2   6   53.16    1.27
  -2   2   6   54.08    1.08
   1  -2  -6  172.63    3.09
   1  -2  -6  165.57    2.97
  -1   2   6  164.72    3.09
  -1   2   6  174.02    3.00
   0  -2  -6  120.87    2.16
   0  -2  -6  124.07    2.33
   0   2   6  123.55    2.29
   0   2   6  120.09    2.28
  -1  -2  -6    2.22    0.13
  -1  -2  -6    2.42    0.20
   1   2   6    2.79    0.19
   1   2   6    2.20    0.19
  -2  -2  -6   62.35    1.44
  -2  -2  -6   63.88    1.30
  -2  -2  -6   64.70    1.22
   2   2   6   62.76    1.42
  -3  -2  -6   58.38    1.41
  -3  -2  -6   58.58    1.22
   3   2   6   56.30    1.33
   3   2   6   59.10    1.40
  -4  -2  -6   14.72    0.63
   4   2   6   15.06    0.62
  -5  -2  -6    0.03    0.09
   5   2   6   -0.10    0.06
  -6  -2  -6   28.16    1.04
   6   2   6   31.66    1.06
   7  -3  -6   17.05    0.73
   7  -3  -6   17.61    0.81
  -7   3   6   15.79    0.83
   6  -3  -6   25.85    0.95
   6  -3  -6   24.53    0.87
  -6   3   6   25.63    1.01
   5  -3  -6    2.24    0.30
   5  -3  -6    2.63    0.31
  -5   3   6    2.85    0.38
   4  -3  -6   16.39    0.62
   4  -3  -6   16.51    0.63
  -4   3   6   16.11    0.70
   3  -3  -6   62.80    1.41
   3  -3  -6   63.42    1.45
  -3   3   6   64.01    1.55
   2  -3  -6   26.11    0.70
   2  -3  -6   26.19    0.78
  -2   3   6   26.71    0.65
  -2   3   6   26.82    0.83
   1  -3  -6    0.33    0.08
   1  -3  -6    0.15    0.08
  -1   3   6    0.31    0.08
  -1   3   6    0.27    0.10
   0  -3  -6   39.51    1.01
   0  -3  -6   38.54    0.79
   0   3   6   38.17    0.98
   0   3   6   41.15    0.96
  -1  -3  -6   95.82    1.99
   1   3   6   94.86    1.94
  -2  -3  -6   19.07    0.67
  -2  -3  -6   19.34    0.60
   2   3   6   19.34    0.67
  -3  -3  -6    1.84    0.26
  -3  -3  -6    1.85    0.18
   3   3   6    1.43    0.22
  -4  -3  -6   27.24    0.92
   4   3   6   26.76    0.91
  -5  -3  -6   13.99    0.66
   5   3   6   11.95    0.62
  -6  -3  -6    5.89    0.46
   6   3   6    5.01    0.42
   7  -4  -6    3.39    0.41
   7  -4  -6    2.82    0.39
  -7   4   6    3.24    0.46
   6  -4  -6   10.37    0.56
   6  -4  -6   10.31    0.58
  -6   4   6   10.21    0.63
   5  -4  -6   62.09    1.57
   5  -4  -6   62.11    1.58
  -5   4   6   60.28    1.69
   4  -4  -6    8.35    0.46
   4  -4  -6    8.38    0.44
  -4   4   6    8.67    0.51
   3  -4  -6    1.64    0.21
   3  -4  -6    1.73    0.24
  -3   4   6    1.50    0.24
   2  -4  -6   51.51    1.32
  -2   4   6   53.02    1.36
  -2   4   6   55.74    1.14
   1  -4  -6  124.47    2.51
  -1   4   6  122.25    2.34
  -1   4   6  126.54    2.52
   0  -4  -6   31.48    0.92
   0   4   6   29.47    0.82
   0   4   6   31.54    0.90
  -1  -4  -6    7.57    0.39
  -1  -4  -6    8.86    0.45
   1   4   6    7.72    0.40
  -2  -4  -6   58.37    1.46
  -2  -4  -6   57.86    1.36
   2   4   6   59.38    1.44
  -3  -4  -6   36.54    1.10
  -3  -4  -6   35.97    0.99
   3   4   6   36.32    1.09
  -4  -4  -6    0.57    0.16
   4   4   6    0.11    0.11
  -5  -4  -6    3.33    0.41
   5   4   6    3.48    0.42
   6  -5  -6    5.03    0.42
   6  -5  -6    5.34    0.42
  -6   5   6    4.99    0.46
   5  -5  -6    0.77    0.20
   5  -5  -6    0.86    0.20
  -5   5   6    0.46    0.18
   4  -5  -6   40.65    1.20
   4  -5  -6   41.22    1.11
  -4   5   6   38.14    1.25
   3  -5  -6   41.51    1.18
  -3   5   6   38.62    1.21
   2  -5  -6    2.26    0.30
  -2   5   6    2.32    0.25
  -2   5   6    1.41    0.25
   1  -5  -6    0.86    0.18
  -1   5   6    1.07    0.17
  -1   5   6    0.88    0.18
   0  -5  -6   59.75    1.52
   0   5   6   60.94    1.42
   0   5   6   64.15    1.53
  -1  -5  -6   38.91    1.12
  -1  -5  -6   37.95    1.07
   1   5   6   34.83    1.02
  -2  -5  -6    0.91    0.18
  -2  -5  -6    0.96    0.21
   2   5   6    0.59    0.16
  -3  -5  -6    9.47    0.49
  -3  -5  -6   10.69    0.57
   3   5   6    9.72    0.54
  -4  -5  -6   20.44    0.84
   4   5   6   20.21    0.84
   5  -6  -6   23.89    0.94
  -5   6   6   22.63    0.99
   4  -6  -6    0.06    0.10
  -4   6   6    0.21    0.13
   3  -6  -6   11.79    0.60
  -3   6   6   10.86    0.61
   2  -6  -6   61.32    1.60
  -2   6   6   61.14    1.62
   1  -6  -6   33.59    1.08
  -1   6   6   35.94    1.12
  -1   6   6   34.35    0.94
   0  -6  -6    0.63    0.17
   0   6   6    0.86    0.21
   0   6   6    0.60    0.15
  -1  -6  -6   12.40    0.60
  -1  -6  -6   13.81    0.65
   1   6   6   12.92    0.58
  -2  -6  -6   42.12    1.22
  -2  -6  -6   42.80    1.29
   2   6   6   41.13    1.22
  -3  -6  -6    3.59    0.43
  -3  -6  -6    3.11    0.37
   3   6   6    4.42    0.39
   4  -7  -6   44.15    1.39
  -4   7   6   43.81    1.46
   3  -7  -6    3.83    0.45
  -3   7   6    3.29    0.44
   2  -7  -6    2.95    0.39
  -2   7   6    2.73    0.38
   1  -7  -6   23.00    0.90
  -1   7   6   23.34    0.79
  -1   7   6   20.74    0.88
   0  -7  -6   25.84    0.97
   0   7   6   24.43    0.94
   0   7   6   25.19    0.85
  -1  -7  -6    7.16    0.50
   1   7   6    6.65    0.44
  -2  -7  -6    1.16    0.25
  -2  -7  -6    1.12    0.24
   2   7   6    1.35    0.27
   2  -8  -6   28.15    1.08
  -2   8   6   27.25    1.09
   1  -8  -6   10.16    0.62
  -1   8   6    9.89    0.63
   0  -8  -6    6.06    0.49
   1  10  -7   13.78    0.70
  -1 -10   7   12.94    0.67
   0  10  -7    7.54    0.51
   0 -10   7    8.01    0.50
  -1  10  -7    0.02    0.11
   1 -10   7    0.32    0.14
   2 -10   7   20.72    0.82
   2 -10   7   20.35    0.94
   3   9  -7   14.41    0.74
  -3  -9   7   14.98    0.75
   2   9  -7   13.70    0.69
  -2  -9   7   13.31    0.66
   1   9  -7    1.35    0.26
  -1  -9   7    1.46    0.25
   0   9  -7   45.88    1.21
   0  -9   7   45.60    1.32
   0  -9   7   42.68    1.24
  -1   9  -7   53.32    1.37
   1  -9   7   52.31    1.41
   1  -9   7   50.32    1.35
  -2   9  -7    0.98    0.20
   2  -9   7    1.59    0.24
   2  -9   7    1.49    0.25
  -3   9  -7    8.49    0.49
   3  -9   7    8.16    0.48
   3  -9   7    8.61    0.47
  -4   9  -7   24.55    0.93
   4  -9   7   24.87    0.92
   4   8  -7    0.24    0.14
  -4  -8   7    0.07    0.10
   3   8  -7   20.67    0.85
  -3  -8   7   22.14    0.87
   2   8  -7   49.39    1.27
   2   8  -7   51.79    1.41
  -2  -8   7   48.78    1.36
   1   8  -7   22.36    0.74
  -1  -8   7   20.92    0.81
  -1  -8   7   22.11    0.79
   0   8  -7    2.66    0.26
   0  -8   7    3.07    0.35
   0  -8   7    3.04    0.27
  -1   8  -7   14.62    0.61
   1  -8   7   15.11    0.63
   1  -8   7   15.04    0.59
  -2   8  -7   56.22    1.35
   2  -8   7   55.46    1.40
   2  -8   7   55.32    1.33
   2  -8   7   56.80    1.41
  -3   8  -7   17.04    0.68
   3  -8   7   18.63    0.68
   3  -8   7   17.30    0.69
  -4   8  -7    6.80    0.44
   4  -8   7    6.67    0.44
  -5   8  -7    4.78    0.40
   5  -8   7    5.41    0.42
   5   7  -7   15.44    0.71
  -5  -7   7   13.54    0.73
   4   7  -7   20.85    0.78
   4   7  -7   19.92    0.80
  -4  -7   7   19.79    0.83
   3   7  -7   14.04    0.60
   3   7  -7   12.77    0.61
  -3  -7   7   13.49    0.63
   2   7  -7    0.63    0.16
  -2  -7   7    0.24    0.12
  -2  -7   7    0.64    0.17
   1   7  -7   22.37    0.73
  -1  -7   7   23.69    0.77
  -1  -7   7   22.60    0.80
   0   7  -7  105.65    2.17
   0  -7   7  106.79    2.25
   0  -7   7  104.26    2.14
  -1   7  -7   30.42    0.92
  -1   7  -7   33.17    0.83
   1  -7   7   31.76    0.94
   1  -7   7   31.38    0.86
  -2   7  -7    1.03    0.18
   2  -7   7    1.29    0.21
   2  -7   7    1.24    0.17
   2  -7   7    1.31    0.21
  -3   7  -7   51.91    1.32
   3  -7   7   53.71    1.31
   3  -7   7   52.92    1.37
  -4   7  -7   36.61    1.09
   4  -7   7   35.58    0.99
   4  -7   7   35.65    1.10
  -5   7  -7    0.13    0.11
   5  -7   7    0.36    0.15
  -6   7  -7   17.65    0.82
   6  -7   7   16.69    0.78
   6   6  -7   10.74    0.58
   6   6  -7   12.72    0.66
  -6  -6   7   11.67    0.69
   5   6  -7    9.68    0.55
   5   6  -7    9.21    0.51
  -5  -6   7    9.70    0.58
   4   6  -7    3.60    0.32
   4   6  -7    3.18    0.31
  -4  -6   7    3.81    0.34
   3   6  -7  127.57    2.55
  -3  -6   7  124.39    2.59
  -3  -6   7  121.33    2.57
   2   6  -7   39.80    1.05
  -2  -6   7   40.26    1.11
  -2  -6   7   38.18    1.07
   1   6  -7   15.87    0.58
  -1  -6   7   15.62    0.57
  -1  -6   7   16.29    0.62
   0   6  -7    3.04    0.25
   0  -6   7    3.38    0.23
   0  -6   7    3.23    0.26
  -1   6  -7   58.09    1.37
  -1   6  -7   59.15    1.24
   1  -6   7   56.70    1.38
   1  -6   7   61.05    1.27
  -2   6  -7   71.34    1.51
   2  -6   7   70.53    1.41
   2  -6   7   69.36    1.58
   2  -6   7   70.82    1.58
  -3   6  -7    2.06    0.25
   3  -6   7    2.41    0.24
   3  -6   7    2.02    0.24
  -4   6  -7   11.63    0.56
   4  -6   7   12.91    0.58
   4  -6   7   12.61    0.52
  -5   6  -7   35.58    1.12
   5  -6   7   34.44    1.10
  -6   6  -7   17.77    0.80
   6  -6   7   15.85    0.75
   6   5  -7    0.77    0.18
   6   5  -7    0.78    0.22
  -6  -5   7    0.66    0.21
   5   5  -7   33.85    1.01
   5   5  -7   33.07    1.07
  -5  -5   7   32.13    1.11
   4   5  -7   21.11    0.73
   4   5  -7   22.12    0.78
  -4  -5   7   19.63    0.78
   3   5  -7    8.11    0.43
  -3  -5   7    8.02    0.42
  -3  -5   7    8.20    0.44
   2   5  -7   19.30    0.65
  -2  -5   7   19.73    0.66
  -2  -5   7   19.03    0.66
   1   5  -7  120.06    2.34
  -1  -5   7  118.29    2.36
  -1  -5   7  119.21    2.29
   0   5  -7   89.31    1.84
   0   5  -7   91.62    1.62
   0  -5   7   88.97    1.86
   0  -5   7   86.71    1.73
  -1   5  -7   11.90    0.40
  -1   5  -7   11.77    0.48
   1  -5   7   12.04    0.39
   1  -5   7   11.65    0.48
  -2   5  -7   37.77    0.92
   2  -5   7   36.91    0.80
   2  -5   7   36.52    0.98
   2  -5   7   37.56    0.99
  -3   5  -7   76.29    1.69
   3  -5   7   80.09    1.71
   3  -5   7   79.61    1.75
  -4   5  -7   24.81    0.81
   4  -5   7   22.97    0.80
   4  -5   7   23.65    0.76
  -5   5  -7    5.78    0.41
   5  -5   7    6.97    0.38
   5  -5   7    5.79    0.40
  -6   5  -7   42.10    1.32
   6  -5   7   45.91    1.34
   7   4  -7   14.34    0.74
  -7  -4   7   15.24    0.81
   6   4  -7    9.65    0.57
   6   4  -7    9.78    0.48
  -6  -4   7   10.60    0.63
   5   4  -7    4.22    0.30
   5   4  -7    4.29    0.37
  -5  -4   7    3.83    0.36
   4   4  -7   51.93    1.34
  -4  -4   7   51.32    1.37
  -4  -4   7   51.49    1.26
   3   4  -7  140.85    2.77
  -3  -4   7  140.19    2.70
  -3  -4   7  142.36    2.79
   2   4  -7   48.87    1.19
  -2  -4   7   50.73    1.18
  -2  -4   7   50.23    1.19
   1   4  -7    0.51    0.12
  -1  -4   7    0.47    0.11
  -1  -4   7    0.54    0.11
   0   4  -7   50.29    0.95
   0   4  -7   48.95    1.14
   0  -4   7   47.38    1.14
   0  -4   7   48.76    1.02
  -1   4  -7  100.05    1.86
   1  -4   7   98.78    1.99
   1  -4   7  101.29    1.78
   1  -4   7   97.99    1.98
  -2   4  -7   36.38    0.89
   2  -4   7   36.77    0.95
   2  -4   7   36.19    0.96
   2  -4   7   35.50    0.69
  -3   4  -7    7.59    0.38
   3  -4   7    8.65    0.41
   3  -4   7    7.72    0.39
  -4   4  -7   15.73    0.62
   4  -4   7   17.89    0.64
   4  -4   7   17.59    0.65
  -5   4  -7   51.17    1.36
   5  -4   7   47.81    1.31
   5  -4   7   50.74    1.28
  -6   4  -7    5.74    0.44
   6  -4   7    5.86    0.43
  -7   4  -7    5.61    0.47
   7  -4   7    5.29    0.44
   7   3  -7    0.84    0.23
  -7  -3   7    0.84    0.24
   6   3  -7   13.01    0.66
  -6  -3   7   13.29    0.70
   5   3  -7   37.77    1.13
   5   3  -7   37.19    0.97
  -5  -3   7   36.22    1.16
   4   3  -7   10.37    0.50
  -4  -3   7   10.18    0.43
  -4  -3   7   10.40    0.53
   3   3  -7    4.13    0.30
  -3  -3   7    5.17    0.28
  -3  -3   7    4.79    0.32
   2   3  -7   48.83    1.15
  -2  -3   7   48.25    1.11
  -2  -3   7   48.40    1.14
   1   3  -7  287.73    5.05
   1   3  -7  294.52    4.80
  -1  -3   7  290.91    5.03
  -1  -3   7  292.33    4.98
   0   3  -7   44.08    1.04
   0   3  -7   43.87    0.88
   0  -3   7   44.86    1.05
   0  -3   7   44.79    0.92
  -1   3  -7   16.67    0.48
   1  -3   7   17.47    0.57
   1  -3   7   17.92    0.56
   1  -3   7   16.71    0.38
  -2   3  -7   82.98    1.68
   2  -3   7   84.08    1.77
   2  -3   7   85.70    1.74
  -3   3  -7   85.16    1.78
   3  -3   7   86.08    1.79
   3  -3   7   84.79    1.82
   4  -3   7    0.26    0.10
   4  -3   7    0.23    0.10
  -5   3  -7   29.75    0.95
   5  -3   7   28.12    0.89
   5  -3   7   28.06    0.90
  -6   3  -7   41.91    1.28
   6  -3   7   41.19    1.23
   6  -3   7   43.64    1.19
  -7   3  -7   36.54    1.25
   7  -3   7   36.31    1.20
   7   2  -7   31.26    1.13
  -7  -2   7   30.51    1.17
   6   2  -7    2.22    0.33
  -6  -2   7    2.40    0.35
   5   2  -7    5.56    0.40
   5   2  -7    6.62    0.31
  -5  -2   7    6.43    0.45
   4   2  -7  102.66    2.16
  -4  -2   7   99.74    1.95
  -4  -2   7   99.63    2.21
   3   2  -7  129.55    2.51
   3   2  -7  123.67    2.17
  -3  -2   7  127.12    2.55
  -3  -2   7  126.20    2.35
   2   2  -7    5.20    0.18
   2   2  -7    4.70    0.28
  -2  -2   7    5.64    0.27
  -2  -2   7    6.75    0.34
   1   2  -7   23.19    0.66
   1   2  -7   22.96    0.51
  -1  -2   7   23.31    0.64
  -1  -2   7   22.96    0.63
   0   2  -7  100.76    1.84
   0   2  -7  104.36    1.98
   0  -2   7  102.99    1.85
   0  -2   7  100.81    1.98
  -1   2  -7  187.97    3.32
  -1   2  -7  190.82    3.39
   1  -2   7  195.12    3.13
   1  -2   7  185.46    3.43
  -2   2  -7   11.91    0.43
   2  -2   7   11.37    0.46
   2  -2   7   11.50    0.43
  -3   2  -7   12.22    0.49
   3  -2   7   12.48    0.50
   3  -2   7   12.46    0.47
  -4   2  -7   39.41    1.08
   4  -2   7   39.77    1.07
   4  -2   7   38.11    1.02
  -5   2  -7   20.44    0.77
   5  -2   7   20.76    0.73
   5  -2   7   21.00    0.75
  -6   2  -7    1.10    0.24
   6  -2   7    0.87    0.20
   6  -2   7    1.28    0.24
  -7   2  -7    8.60    0.57
   7  -2   7    8.22    0.52
   7   1  -7    1.62    0.30
  -7  -1   7    2.21    0.36
   6   1  -7   36.16    1.17
  -6  -1   7   36.39    1.22
  -5  -1   7   37.25    1.18
   4   1  -7    6.29    0.38
   4   1  -7    5.84    0.26
  -4  -1   7    5.23    0.38
  -4  -1   7    5.84    0.27
   3   1  -7   21.96    0.55
   3   1  -7   21.55    0.70
  -3  -1   7   21.43    0.75
  -3  -1   7   23.31    0.59
   2   1  -7  166.03    3.05
   2   1  -7  167.95    2.86
  -2  -1   7  161.23    3.11
  -2  -1   7  167.71    2.94
   1   1  -7  197.49    3.43
   1   1  -7  194.15    3.30
  -1  -1   7  190.42    3.45
  -1  -1   7  187.71    3.39
   0   1  -7    5.40    0.24
   0   1  -7    5.47    0.26
   0  -1   7    5.30    0.27
   0  -1   7    4.83    0.23
  -1   1  -7   78.18    1.52
  -1   1  -7   76.97    1.53
   1  -1   7   74.73    1.57
   1  -1   7   75.21    1.37
  -2   1  -7  151.32    2.79
   2  -1   7  150.58    2.74
   2  -1   7  149.80    2.83
  -3   1  -7   27.09    0.79
   3  -1   7   26.36    0.80
   3  -1   7   27.50    0.75
  -4   1  -7   17.29    0.65
   4  -1   7   16.37    0.63
   4  -1   7   17.60    0.60
  -5   1  -7   39.10    1.14
   5  -1   7   38.31    1.11
   5  -1   7   38.19    1.05
  -6   1  -7   47.47    1.39
   6  -1   7   47.87    1.30
   6  -1   7   49.13    1.34
  -7   1  -7    2.15    0.33
   7  -1   7    2.71    0.35
   7   0  -7   20.83    0.90
  -7   0   7   20.44    0.93
   6   0  -7    0.81    0.21
  -6   0   7    0.42    0.15
   5   0  -7   61.02    1.33
   5   0  -7   59.01    1.53
  -5   0   7   60.36    1.63
   4   0  -7  115.14    2.14
   4   0  -7  114.01    2.34
  -4   0   7  107.69    2.43
   3   0  -7   46.67    1.03
   3   0  -7   46.75    1.16
  -3   0   7   48.76    0.99
  -3   0   7   47.99    1.26
   2   0  -7   12.74    0.47
   2   0  -7   12.81    0.41
  -2   0   7   12.72    0.41
  -2   0   7   13.19    0.52
   1   0  -7   65.39    1.36
   1   0  -7   64.65    1.32
  -1   0   7   66.25    1.34
  -1   0   7   66.86    1.42
   0   0  -7  138.34    2.45
   0   0  -7  131.89    2.42
   0   0   7  130.95    2.43
   0   0   7  134.15    2.48
  -1   0  -7   37.74    0.91
  -1   0  -7   36.98    0.85
   1   0   7   37.79    0.80
   1   0   7   37.12    0.93
  -2   0  -7   13.50    0.50
   2   0   7   14.39    0.53
   2   0   7   14.81    0.46
   2   0   7   13.59    0.35
  -3   0  -7   44.74    1.14
   3   0   7   44.63    1.15
   3   0   7   46.61    1.05
  -4   0  -7   26.47    0.86
   4   0   7   26.79    0.86
   4   0   7   27.50    0.77
  -5   0  -7    0.67    0.17
   5   0   7    0.94    0.20
   5   0   7    0.66    0.15
  -6   0  -7    7.81    0.51
   6   0   7    7.14    0.46
   6   0   7    7.80    0.44
   7  -1  -7   11.18    0.64
  -7   1   7   11.34    0.68
   6  -1  -7   33.65    1.11
   6  -1  -7   33.67    0.97
  -6   1   7   32.58    1.17
   5  -1  -7   14.26    0.54
   5  -1  -7   14.24    0.64
  -5   1   7   13.90    0.69
   4  -1  -7   31.33    0.94
   4  -1  -7   30.11    0.82
  -4   1   7   30.73    1.01
   3  -1  -7   86.85    1.73
   3  -1  -7   87.90    1.83
  -3   1   7   86.13    1.60
  -3   1   7   84.20    1.92
   2  -1  -7  125.69    2.40
   2  -1  -7  130.98    2.45
  -2   1   7  129.61    2.33
  -2   1   7  129.94    2.55
   1  -1  -7   61.54    1.33
   1  -1  -7   62.45    1.31
  -1   1   7   64.19    1.39
  -1   1   7   65.00    1.31
   0  -1  -7   15.79    0.46
   0  -1  -7   15.49    0.51
   0   1   7   15.64    0.49
   0   1   7   15.38    0.51
  -1  -1  -7  111.81    2.20
  -1  -1  -7  116.29    2.07
   1   1   7  110.92    2.20
   1   1   7  111.75    2.06
  -2  -1  -7   69.07    1.54
   2   1   7   70.22    1.35
   2   1   7   70.43    1.55
  -3  -1  -7    3.68    0.28
   3   1   7    3.16    0.21
   3   1   7    3.44    0.27
  -4  -1  -7   36.54    1.08
   4   1   7   37.53    1.09
   4   1   7   38.10    0.93
  -5  -1  -7   49.94    1.39
   5   1   7   50.25    1.38
  -6  -1  -7   19.17    0.83
   6   1   7   19.31    0.81
   7  -2  -7    9.29    0.59
  -7   2   7    8.41    0.60
   6  -2  -7    9.25    0.55
   6  -2  -7    9.43    0.49
  -6   2   7    8.81    0.59
   5  -2  -7   63.62    1.47
   5  -2  -7   59.44    1.54
  -5   2   7   59.93    1.66
   4  -2  -7   75.71    1.66
   4  -2  -7   76.97    1.74
  -4   2   7   75.06    1.85
   3  -2  -7    2.99    0.23
   3  -2  -7    3.13    0.25
  -3   2   7    3.42    0.23
  -3   2   7    3.17    0.29
   2  -2  -7   72.37    1.55
   2  -2  -7   71.90    1.51
  -2   2   7   72.41    1.42
  -2   2   7   69.85    1.61
   1  -2  -7   90.17    1.73
   1  -2  -7   87.75    1.83
  -1   2   7   89.42    1.75
  -1   2   7   90.25    1.86
   0  -2  -7   61.10    1.23
   0  -2  -7   61.72    1.38
   0   2   7   62.18    1.34
   0   2   7   62.50    1.34
  -1  -2  -7    2.75    0.23
  -1  -2  -7    2.44    0.15
   1   2   7    2.54    0.19
   1   2   7    3.33    0.24
  -2  -2  -7   15.28    0.46
  -2  -2  -7   16.12    0.61
   2   2   7   16.70    0.61
  -3  -2  -7   37.99    1.08
   3   2   7   36.61    1.06
  -4  -2  -7    7.12    0.45
   4   2   7    7.02    0.44
  -5  -2  -7    3.09    0.39
   5   2   7    2.53    0.35
  -6  -2  -7   15.81    0.76
   6   2   7   16.04    0.75
   7  -3  -7   15.18    0.70
   7  -3  -7   14.91    0.76
  -7   3   7   15.84    0.84
   6  -3  -7   23.01    0.84
   6  -3  -7   24.39    0.92
  -6   3   7   22.79    0.98
   5  -3  -7    3.41    0.30
   5  -3  -7    3.72    0.32
  -5   3   7    3.87    0.46
   4  -3  -7   29.56    0.91
   4  -3  -7   29.65    0.91
  -4   3   7   28.90    1.01
   3  -3  -7  107.30    2.19
   3  -3  -7  109.89    2.24
  -3   3   7  108.82    2.36
   2  -3  -7   68.66    1.58
   2  -3  -7   69.29    1.48
  -2   3   7   71.79    1.42
  -2   3   7   71.07    1.65
   1  -3  -7    0.47    0.12
   1  -3  -7    0.79    0.14
  -1   3   7    0.82    0.13
   0  -3  -7   49.95    1.23
   0   3   7   49.00    1.16
   0   3   7   47.98    1.18
  -1  -3  -7   96.85    2.05
   1   3   7   95.44    1.94
   1   3   7   95.85    1.99
  -2  -3  -7   11.49    0.53
  -2  -3  -7   11.49    0.46
   2   3   7   11.81    0.52
  -3  -3  -7    4.79    0.36
   3   3   7    5.50    0.38
  -4  -3  -7   18.49    0.77
   4   3   7   19.35    0.77
  -5  -3  -7   50.49    1.46
   5   3   7   49.48    1.45
   6  -4  -7   20.91    0.86
   6  -4  -7   21.38    0.85
  -6   4   7   21.08    0.95
   5  -4  -7   52.12    1.41
   5  -4  -7   53.11    1.42
  -5   4   7   50.39    1.54
   4  -4  -7   13.22    0.61
   4  -4  -7   14.35    0.59
  -4   4   7   14.17    0.69
   3  -4  -7    7.44    0.38
   3  -4  -7    7.20    0.42
  -3   4   7    7.58    0.47
   2  -4  -7   54.36    1.38
  -2   4   7   55.27    1.19
  -2   4   7   53.10    1.40
   1  -4  -7  113.33    2.39
  -1   4   7  118.17    2.25
  -1   4   7  113.46    2.38
   0  -4  -7    0.54    0.14
   0   4   7    0.73    0.15
   0   4   7    0.43    0.13
  -1  -4  -7   11.61    0.54
   1   4   7   10.71    0.49
   1   4   7   10.09    0.48
  -2  -4  -7   26.99    0.82
  -2  -4  -7   25.86    0.89
   2   4   7   25.80    0.86
  -3  -4  -7   14.17    0.66
  -3  -4  -7   13.26    0.81
   3   4   7   15.01    0.66
  -4  -4  -7    1.30    0.25
   4   4   7    1.17    0.24
  -5  -4  -7    4.32    0.40
   6  -5  -7    0.37    0.16
   6  -5  -7    0.16    0.12
  -6   5   7    0.52    0.21
   5  -5  -7   10.87    0.60
   5  -5  -7   12.55    0.63
  -5   5   7   11.03    0.67
   4  -5  -7   44.38    1.29
  -4   5   7   41.06    1.34
   3  -5  -7   49.05    1.37
  -3   5   7   52.22    1.47
   2  -5  -7   11.45    0.57
  -2   5   7   11.92    0.60
   1  -5  -7    2.58    0.32
  -1   5   7    2.39    0.30
  -1   5   7    2.90    0.23
   0  -5  -7   66.63    1.66
   0   5   7   65.67    1.62
   0   5   7   67.56    1.55
  -1  -5  -7   34.15    1.08
   1   5   7   34.56    1.02
   1   5   7   33.92    1.03
  -2  -5  -7    0.30    0.12
  -2  -5  -7    0.20    0.13
   2   5   7    0.42    0.14
  -3  -5  -7    9.10    0.62
  -3  -5  -7    8.86    0.54
   3   5   7    9.14    0.53
  -4  -5  -7   23.34    0.95
   4   5   7   22.91    0.93
   5  -6  -7   19.40    0.85
  -5   6   7   19.48    0.93
   4  -6  -7    0.22    0.13
  -4   6   7    0.13    0.13
   3  -6  -7   25.07    0.93
  -3   6   7   22.64    0.95
   2  -6  -7   51.29    1.44
  -2   6   7   48.64    1.45
   1  -6  -7   25.36    0.94
  -1   6   7   26.61    0.96
  -1   6   7   24.23    0.78
   0  -6  -7    2.60    0.36
   0   6   7    2.09    0.27
   0   6   7    1.93    0.30
  -1  -6  -7   17.63    0.78
   1   6   7   17.56    0.75
   1   6   7   17.89    0.72
  -2  -6  -7   18.12    0.81
  -2  -6  -7   18.47    0.76
   2   6   7   18.41    0.77
  -3  -6  -7    0.76    0.21
   3   6   7    0.59    0.19
   3  -7  -7   12.22    0.67
  -3   7   7   12.19    0.71
   2  -7  -7   -0.08    0.08
  -2   7   7    0.04    0.10
   1  -7  -7   17.54    0.80
  -1   7   7   15.89    0.78
   0  -7  -7   19.66    0.87
   0   7   7   20.97    0.78
   0   7   7   22.09    0.90
  -1  -7  -7    9.87    0.61
   1   7   7    9.07    0.56
   1   7   7    8.84    0.52
   1  10  -8   14.12    0.73
  -1 -10   8   13.29    0.68
   0  10  -8   17.99    0.81
   0 -10   8   20.24    0.81
   1 -10   8    2.41    0.31
   1 -10   8    2.76    0.36
  -2  10  -8   16.11    0.73
   2 -10   8   16.74    0.73
   3   9  -8   35.61    1.23
  -3  -9   8   36.75    1.23
   2   9  -8    4.57    0.41
  -2  -9   8    4.68    0.40
   1   9  -8    9.65    0.51
  -1  -9   8   10.16    0.55
  -1  -9   8    9.54    0.57
   0   9  -8   44.59    1.23
   0  -9   8   43.39    1.24
   0  -9   8   44.39    1.31
  -1   9  -8   24.18    0.86
   1  -9   8   23.55    0.81
   1  -9   8   24.83    0.90
  -2   9  -8    0.68    0.19
   2  -9   8    0.85    0.19
   3  -9   8   30.59    0.98
   3  -9   8   30.06    1.02
  -4   9  -8   26.29    0.96
   4  -9   8   28.59    1.01
   4   8  -8    3.64    0.42
  -4  -8   8    4.84    0.43
   3   8  -8    2.37    0.34
   3   8  -8    2.52    0.32
  -3  -8   8    2.59    0.35
   2   8  -8    9.60    0.50
  -2  -8   8    9.57    0.53
  -2  -8   8    9.25    0.55
   1   8  -8   36.26    1.05
  -1  -8   8   36.62    1.08
  -1  -8   8   34.79    1.12
   0   8  -8    4.73    0.35
   0  -8   8    5.12    0.38
   0  -8   8    4.85    0.33
  -1   8  -8   33.39    1.02
   1  -8   8   32.36    1.03
   1  -8   8   33.98    0.95
  -2   8  -8   37.52    1.13
   2  -8   8   38.17    1.12
  -3   8  -8   14.63    0.61
   3  -8   8   13.20    0.62
   3  -8   8   13.52    0.60
  -4   8  -8    1.21    0.23
   4  -8   8    1.98    0.38
   4  -8   8    1.17    0.23
  -5   8  -8   37.53    1.22
   5  -8   8   38.31    1.24
   5   7  -8   12.00    0.63
   5   7  -8   11.80    0.63
  -5  -7   8   12.35    0.69
   4   7  -8   25.28    0.91
   4   7  -8   24.78    0.92
  -4  -7   8   26.66    0.99
   3   7  -8   32.99    1.03
  -3  -7   8   33.69    1.08
  -3  -7   8   34.69    1.10
   2   7  -8    3.50    0.30
  -2  -7   8    4.08    0.34
  -2  -7   8    3.99    0.32
   1   7  -8   76.48    1.72
  -1  -7   8   73.62    1.77
  -1  -7   8   76.09    1.70
   0   7  -8   55.52    1.37
   0  -7   8   55.07    1.42
   0  -7   8   56.22    1.31
  -1   7  -8   20.29    0.73
   1  -7   8   20.49    0.75
   1  -7   8   21.42    0.65
  -2   7  -8   12.35    0.49
   2  -7   8   11.48    0.54
   2  -7   8   12.05    0.54
  -3   7  -8   98.96    2.11
   3  -7   8   99.06    2.18
   3  -7   8   99.01    2.14
  -4   7  -8   21.43    0.80
   4  -7   8   21.87    0.83
   4  -7   8   22.82    0.77
  -5   7  -8    5.08    0.41
   5  -7   8    5.83    0.44
   6   6  -8   12.40    0.67
   6   6  -8   12.75    0.62
  -6  -6   8   11.24    0.69
   5   6  -8   13.28    0.62
   5   6  -8   14.30    0.68
  -5  -6   8   12.39    0.68
   4   6  -8    0.99    0.22
   4   6  -8    1.29    0.23
  -4  -6   8    1.13    0.23
   3   6  -8   20.61    0.76
  -3  -6   8   21.23    0.77
  -3  -6   8   20.97    0.78
   2   6  -8   10.49    0.50
  -2  -6   8   10.61    0.52
  -2  -6   8   10.93    0.50
   1   6  -8   54.23    1.31
  -1  -6   8   52.20    1.33
  -1  -6   8   52.60    1.26
   0   6  -8    7.26    0.39
   0  -6   8    7.01    0.34
   0  -6   8    7.20    0.40
  -1   6  -8   95.59    2.03
  -1   6  -8   96.06    1.84
   1  -6   8   92.32    1.84
   1  -6   8   97.09    2.05
  -2   6  -8   29.35    0.82
   2  -6   8   30.46    0.91
   2  -6   8   30.17    0.91
  -3   6  -8    7.15    0.39
   3  -6   8    6.34    0.38
   3  -6   8    6.01    0.39
  -4   6  -8   20.90    0.76
   4  -6   8   20.07    0.72
   4  -6   8   19.88    0.76
  -5   6  -8   79.41    1.93
   5  -6   8   81.86    1.95
   5  -6   8   78.09    2.04
  -6   6  -8   20.42    0.87
   6  -6   8   21.63    0.89
   6   5  -8    3.77    0.46
   6   5  -8    3.71    0.32
  -6  -5   8    2.90    0.41
   5   5  -8   35.87    1.14
   5   5  -8   36.93    1.07
  -5  -5   8   34.91    1.18
   4   5  -8   56.59    1.46
  -4  -5   8   53.64    1.47
  -4  -5   8   56.25    1.40
   3   5  -8   28.89    0.90
  -3  -5   8   28.73    0.91
  -3  -5   8   26.43    0.85
   2   5  -8   26.12    0.82
  -2  -5   8   26.26    0.81
  -2  -5   8   25.81    0.80
   1   5  -8  108.53    2.22
  -1  -5   8  109.58    2.24
  -1  -5   8  110.56    2.15
   0   5  -8   54.97    1.30
   0   5  -8   55.88    1.07
   0  -5   8   55.00    1.18
   0  -5   8   53.86    1.31
  -1   5  -8    5.02    0.32
  -1   5  -8    5.19    0.25
   1  -5   8    5.30    0.23
   1  -5   8    4.92    0.32
  -2   5  -8  100.47    1.98
   2  -5   8   99.13    2.09
   2  -5   8   99.85    2.09
  -3   5  -8   98.57    2.07
   3  -5   8  104.21    2.16
   3  -5   8   99.51    2.13
  -4   5  -8   25.60    0.83
   4  -5   8   24.21    0.81
   4  -5   8   23.97    0.84
  -5   5  -8    6.02    0.42
   5  -5   8    5.80    0.41
   5  -5   8    5.82    0.38
  -6   5  -8   22.82    0.93
   6  -5   8   24.57    0.93
   6   4  -8   24.40    0.96
  -6  -4   8   24.00    1.00
   5   4  -8    3.49    0.34
   5   4  -8    3.47    0.28
  -5  -4   8    4.02    0.46
   4   4  -8   30.48    0.96
  -4  -4   8   27.44    0.84
  -4  -4   8   28.57    0.97
   3   4  -8   29.76    0.91
  -3  -4   8   29.10    0.84
  -3  -4   8   28.59    0.90
   2   4  -8   50.47    1.24
  -2  -4   8   50.49    1.22
  -2  -4   8   50.45    1.21
   1   4  -8    0.60    0.13
  -1  -4   8    0.67    0.14
  -1  -4   8    0.66    0.12
   0   4  -8   53.22    1.23
   0   4  -8   51.71    1.02
   0  -4   8   51.56    1.08
   0  -4   8   50.39    1.22
  -1   4  -8   98.33    1.83
  -1   4  -8   96.32    1.98
   1  -4   8   95.22    1.99
   1  -4   8   95.28    1.72
  -2   4  -8   17.22    0.55
   2  -4   8   16.68    0.60
   2  -4   8   17.43    0.63
  -3   4  -8    2.72    0.23
   3  -4   8    2.70    0.25
   3  -4   8    3.49    0.27
  -4   4  -8   70.59    1.65
   4  -4   8   70.04    1.66
   4  -4   8   71.08    1.66
  -5   4  -8   93.00    2.14
   5  -4   8   94.82    2.13
   5  -4   8   95.56    2.10
  -6   4  -8    4.00    0.37
   6  -4   8    4.61    0.39
   7   3  -8    0.77    0.23
  -7  -3   8    0.85    0.24
   6   3  -8   12.89    0.68
  -6  -3   8   12.18    0.69
   5   3  -8   68.47    1.51
   5   3  -8   70.34    1.74
  -5  -3   8   65.73    1.77
   4   3  -8   73.99    1.74
  -4  -3   8   73.36    1.58
  -4  -3   8   73.30    1.80
   3   3  -8    1.70    0.24
  -3  -3   8    2.34    0.29
  -3  -3   8    1.92    0.22
   2   3  -8  121.91    2.41
  -2  -3   8  122.35    2.40
  -2  -3   8  120.66    2.33
   1   3  -8  132.31    2.56
   1   3  -8  137.15    2.29
  -1  -3   8  132.99    2.48
  -1  -3   8  132.02    2.53
   0   3  -8   19.82    0.50
   0   3  -8   18.99    0.61
   0  -3   8   19.56    0.63
   0  -3   8   19.24    0.51
  -1   3  -8   33.68    0.89
  -1   3  -8   32.69    0.79
   1  -3   8   32.58    0.90
   1  -3   8   33.05    0.65
  -2   3  -8  109.10    2.10
   2  -3   8  108.02    2.15
   2  -3   8  105.09    2.19
  -3   3  -8   88.34    1.88
   3  -3   8   90.29    1.95
   3  -3   8   90.23    1.89
  -4   3  -8    0.30    0.11
   4  -3   8    0.27    0.11
   4  -3   8    0.85    0.18
  -5   3  -8   22.88    0.84
   5  -3   8   22.95    0.81
   5  -3   8   22.60    0.81
  -6   3  -8   40.05    1.30
   6  -3   8   46.22    1.27
   6  -3   8   44.35    1.29
   7   2  -8   17.63    0.84
  -7  -2   8   18.65    0.91
   6   2  -8   15.91    0.75
  -6  -2   8   15.25    0.77
   5   2  -8    8.35    0.50
  -5  -2   8    8.82    0.54
   4   2  -8   52.05    1.35
  -4  -2   8   51.32    1.16
  -4  -2   8   50.09    1.39
  -3  -2   8   45.32    1.21
  -3  -2   8   45.05    1.04
   2   2  -8   34.29    0.92
   2   2  -8   35.04    0.71
  -2  -2   8   33.13    0.85
  -2  -2   8   34.48    0.94
   1   2  -8   28.23    0.64
   1   2  -8   28.61    0.78
  -1  -2   8   27.83    0.75
  -1  -2   8   28.61    0.77
   0   2  -8  137.75    2.60
   0   2  -8  141.46    2.48
   0  -2   8  138.27    2.46
   0  -2   8  136.92    2.62
  -1   2  -8   36.01    0.85
  -1   2  -8   34.92    0.90
   1  -2   8   34.30    0.93
   1  -2   8   35.65    0.68
  -2   2  -8    0.05    0.05
   2  -2   8    0.10    0.07
   2  -2   8    0.06    0.06
  -3   2  -8   27.59    0.82
   3  -2   8   28.07    0.86
   3  -2   8   28.14    0.81
  -4   2  -8  109.81    2.30
   4  -2   8  109.21    2.24
   4  -2   8  109.32    2.32
  -5   2  -8   44.80    1.28
   5  -2   8   46.54    1.27
   5  -2   8   45.14    1.22
  -6   2  -8    1.19    0.24
   6  -2   8    1.76    0.27
   6  -2   8    1.63    0.26
   7   1  -8   10.15    0.62
  -7  -1   8   10.88    0.68
   6   1  -8   38.05    1.22
  -6  -1   8   37.87    1.29
  -5  -1   8   45.80    1.37
   4   1  -8   51.86    1.37
  -4  -1   8   55.28    1.16
  -4  -1   8   53.31    1.45
   3   1  -8   31.53    0.91
   3   1  -8   30.94    0.72
  -3  -1   8   30.36    0.76
  -3  -1   8   30.77    0.97
   2   1  -8  168.34    2.88
   2   1  -8  160.50    3.07
  -2  -1   8  169.07    3.16
  -2  -1   8  159.90    2.96
   1   1  -8   76.13    1.57
   1   1  -8   75.82    1.46
  -1  -1   8   73.81    1.54
  -1  -1   8   74.18    1.58
   0   1  -8    0.45    0.10
   0   1  -8    0.66    0.11
   0  -1   8    1.09    0.14
   0  -1   8    0.57    0.12
  -1   1  -8  163.12    2.95
  -1   1  -8  166.30    2.96
   1  -1   8  159.20    2.78
   1  -1   8  159.58    3.02
  -2   1  -8   87.14    1.81
   2  -1   8   89.26    1.77
   2  -1   8   87.32    1.86
  -3   1  -8   16.16    0.61
   3  -1   8   16.55    0.63
   3  -1   8   16.82    0.57
  -4   1  -8   11.29    0.54
   4  -1   8   11.67    0.54
   4  -1   8   11.94    0.49
  -5   1  -8   45.09    1.29
   5  -1   8   43.85    1.17
   5  -1   8   43.56    1.25
  -6   1  -8   33.94    1.16
   6  -1   8   34.35    1.05
   6  -1   8   35.30    1.12
   7   0  -8   24.14    0.99
  -7   0   8   23.20    1.02
   6   0  -8    1.18    0.24
  -6   0   8    1.24    0.28
   5   0  -8   87.99    2.04
  -5   0   8   84.66    2.12
   4   0  -8   30.30    0.79
   4   0  -8   30.51    0.95
  -4   0   8   30.74    1.03
   3   0  -8   45.90    1.03
   3   0  -8   45.06    1.16
  -3   0   8   45.29    0.99
  -3   0   8   46.80    1.26
   2   0  -8    1.93    0.18
   2   0  -8    2.10    0.17
  -2   0   8    1.56    0.22
  -2   0   8    1.83    0.16
   1   0  -8   99.86    1.90
   1   0  -8   97.76    1.94
  -1   0   8   99.31    2.00
  -1   0   8   98.65    1.92
   0   0  -8   99.80    1.94
   0   0  -8   99.83    1.95
   0   0   8  101.25    1.99
   0   0   8  101.55    1.95
  -1   0  -8    7.63    0.33
  -1   0  -8    7.36    0.35
   1   0   8    7.70    0.37
   1   0   8    7.86    0.29
  -2   0  -8   13.60    0.52
   2   0   8   12.99    0.53
  -3   0  -8   87.34    1.91
   3   0   8   87.81    1.77
   3   0   8   89.43    1.94
  -4   0  -8   58.13    1.51
   4   0   8   61.47    1.38
   4   0   8   62.08    1.53
  -5   0  -8    7.40    0.47
   5   0   8    7.93    0.41
   5   0   8    8.21    0.49
  -6   0  -8   16.70    0.77
   6   0   8   15.76    0.73
   7  -1  -8   31.99    1.16
  -7   1   8   31.59    1.22
   6  -1  -8   42.45    1.29
  -6   1   8   40.95    1.37
   5  -1  -8   42.10    1.09
   5  -1  -8   43.34    1.25
  -5   1   8   40.83    1.32
   4  -1  -8    0.81    0.15
   4  -1  -8    0.80    0.18
  -4   1   8    0.58    0.17
   3  -1  -8   94.06    1.93
   3  -1  -8   97.74    2.04
  -3   1   8   98.57    1.82
  -3   1   8   96.69    2.14
   2  -1  -8   87.05    1.83
   2  -1  -8   89.26    1.80
  -2   1   8   90.86    1.94
  -2   1   8   88.97    1.73
   1  -1  -8   28.73    0.79
   1  -1  -8   29.33    0.77
  -1   1   8   29.65    0.83
  -1   1   8   29.98    0.78
   0  -1  -8   32.66    0.87
   0  -1  -8   32.46    0.79
   0   1   8   31.79    0.83
   0   1   8   32.86    0.86
  -1  -1  -8  108.67    2.04
  -1  -1  -8  110.24    2.18
   1   1   8  107.21    2.18
   1   1   8  108.42    2.04
  -2  -1  -8   75.26    1.47
  -2  -1  -8   68.30    1.61
   2   1   8   72.62    1.64
   2   1   8   73.01    1.43
  -3  -1  -8    4.02    0.31
   3   1   8    3.94    0.31
   3   1   8    3.89    0.24
  -4  -1  -8   36.93    1.12
   4   1   8   36.93    1.12
  -5  -1  -8   42.19    1.28
   5   1   8   41.32    1.26
  -6  -1  -8    7.23    0.52
   6   1   8    7.69    0.52
   7  -2  -8   13.50    0.72
  -7   2   8   13.18    0.77
   6  -2  -8   18.75    0.81
   6  -2  -8   17.77    0.70
  -6   2   8   18.17    0.87
   5  -2  -8   75.51    1.81
   5  -2  -8   74.23    1.70
  -5   2   8   71.16    1.91
   4  -2  -8   51.37    1.26
   4  -2  -8   49.64    1.31
  -4   2   8   50.42    1.43
   3  -2  -8    2.99    0.25
   3  -2  -8    3.37    0.26
  -3   2   8    3.01    0.30
   2  -2  -8   10.81    0.44
   2  -2  -8   10.86    0.46
  -2   2   8   10.11    0.49
  -2   2   8   10.62    0.39
   1  -2  -8  103.33    2.09
   1  -2  -8  102.27    1.97
  -1   2   8  100.04    2.10
  -1   2   8  101.62    2.00
   0  -2  -8   34.29    0.95
   0   2   8   34.27    0.91
   0   2   8   35.64    0.92
  -1  -2  -8    2.49    0.24
   1   2   8    2.51    0.20
   1   2   8    2.77    0.24
  -2  -2  -8   20.15    0.71
   2   2   8   18.92    0.69
   2   2   8   19.14    0.58
  -3  -2  -8   85.99    1.98
   3   2   8   89.00    1.99
  -4  -2  -8   28.62    0.98
   4   2   8   27.76    0.96
  -5  -2  -8    7.60    0.51
   5   2   8    6.92    0.49
   6  -3  -8   28.11    0.96
   6  -3  -8   28.57    1.03
  -6   3   8   26.70    1.10
   5  -3  -8   12.14    0.57
   5  -3  -8   12.09    0.60
  -5   3   8   11.17    0.65
   4  -3  -8   13.04    0.57
   4  -3  -8   12.42    0.56
  -4   3   8   12.29    0.64
   3  -3  -8  117.20    2.45
   3  -3  -8  121.08    2.42
  -3   3   8  121.26    2.60
   2  -3  -8   37.36    1.04
   2  -3  -8   36.19    0.94
  -2   3   8   36.45    1.08
  -2   3   8   37.09    0.90
   1  -3  -8    3.91    0.29
  -1   3   8    3.98    0.26
  -1   3   8    4.13    0.30
   0  -3  -8   33.31    0.99
   0   3   8   35.21    0.96
   0   3   8   35.61    0.95
  -1  -3  -8   78.97    1.82
   1   3   8   81.10    1.78
   1   3   8   79.51    1.71
  -2  -3  -8    5.03    0.37
   2   3   8    5.51    0.32
   2   3   8    4.89    0.35
  -3  -3  -8   20.45    0.79
   3   3   8   20.32    0.79
  -4  -3  -8   34.38    1.14
   4   3   8   36.74    1.17
  -5  -3  -8   33.44    1.17
   5   3   8   34.15    1.18
   6  -4  -8   36.73    1.23
   6  -4  -8   37.06    1.19
  -6   4   8   37.97    1.36
   5  -4  -8   56.58    1.52
   5  -4  -8   56.13    1.51
  -5   4   8   57.84    1.69
   4  -4  -8   19.22    0.76
   4  -4  -8   18.62    0.71
  -4   4   8   20.30    0.86
   3  -4  -8    1.11    0.22
  -3   4   8    1.28    0.25
   2  -4  -8   41.59    1.17
  -2   4   8   38.24    1.02
  -2   4   8   42.51    1.22
   1  -4  -8   64.86    1.62
  -1   4   8   65.30    1.61
  -1   4   8   68.99    1.50
   0  -4  -8    0.18    0.11
   0   4   8    0.52    0.14
   0   4   8    0.26    0.12
  -1  -4  -8    7.66    0.46
   1   4   8    6.96    0.41
   1   4   8    6.68    0.40
  -2  -4  -8   30.71    1.02
   2   4   8   30.85    0.99
   2   4   8   29.77    0.91
  -3  -4  -8   34.67    1.14
   3   4   8   35.11    1.12
  -4  -4  -8    1.79    0.31
   4   4   8    2.07    0.34
   5  -5  -8    0.15    0.12
  -5   5   8    0.08    0.13
   4  -5  -8   40.14    1.23
  -4   5   8   35.80    1.27
   3  -5  -8   61.60    1.62
  -3   5   8   62.44    1.72
   2  -5  -8    8.55    0.51
  -2   5   8    9.18    0.54
   1  -5  -8   27.49    0.96
  -1   5   8   28.27    0.97
  -1   5   8   28.62    0.85
   0  -5  -8   38.35    1.18
   0   5   8   38.38    1.15
   0   5   8   37.78    1.07
  -1  -5  -8   21.83    0.86
   1   5   8   21.58    0.81
   1   5   8   22.72    0.81
  -2  -5  -8    4.07    0.38
   2   5   8    4.04    0.35
   2   5   8    3.68    0.32
  -3  -5  -8   24.01    0.96
   3   5   8   24.41    0.94
   4  -6  -8    1.15    0.26
  -4   6   8    1.42    0.31
   3  -6  -8   10.05    0.59
  -3   6   8   10.31    0.64
   2  -6  -8   33.95    1.16
  -2   6   8   36.23    1.22
   1  -6  -8   15.06    0.73
  -1   6   8   14.15    0.66
  -1   6   8   15.80    0.73
   0  -6  -8    2.45    0.36
   0   6   8    1.86    0.27
   0   6   8    2.17    0.32
  -1  -6  -8   17.67    0.81
   1   6   8   16.82    0.75
   1   6   8   18.74    0.76
  -2  -6  -8   14.70    0.75
   2   6   8   15.21    0.71
   2   6   8   12.59    0.65
   2  -7  -8    2.25    0.37
  -2   7   8    1.19    0.27
  -1   7   8   15.17    0.77
   0 -10   9   11.42    0.65
   0 -10   9   11.52    0.59
  -1  10  -9   -0.02    0.10
   1 -10   9   -0.01    0.09
   3   9  -9   10.79    0.64
  -3  -9   9   11.50    0.65
   2   9  -9    2.81    0.40
   2   9  -9    3.48    0.39
  -2  -9   9    2.99    0.38
   1   9  -9    2.57    0.34
  -1  -9   9    2.13    0.32
  -1  -9   9    2.76    0.35
   0   9  -9   30.75    1.00
   0  -9   9   30.76    0.98
   0  -9   9   29.81    1.05
  -1   9  -9   14.92    0.67
   1  -9   9   14.18    0.68
  -2   9  -9    7.07    0.47
   2  -9   9    7.60    0.48
   3  -9   9    1.48    0.27
   3  -9   9    1.15    0.22
   4   8  -9    7.83    0.51
   4   8  -9    8.53    0.55
  -4  -8   9    7.40    0.53
   3   8  -9    5.49    0.43
   3   8  -9    4.97    0.39
  -3  -8   9    4.64    0.40
   2   8  -9   55.09    1.43
  -2  -8   9   51.88    1.44
  -2  -8   9   54.64    1.51
   1   8  -9   31.10    0.99
  -1  -8   9   31.65    0.99
  -1  -8   9   31.95    1.06
   0   8  -9    4.26    0.34
   0  -8   9    4.68    0.33
   0  -8   9    4.56    0.37
  -1   8  -9   20.66    0.78
   1  -8   9   19.52    0.78
  -2   8  -9   67.39    1.68
   2  -8   9   64.14    1.65
  -3   8  -9   23.61    0.81
   3  -8   9   23.14    0.87
   3  -8   9   23.77    0.85
  -4   8  -9    0.35    0.15
   4  -8   9    0.48    0.15
   4  -8   9    0.32    0.14
   5   7  -9    6.04    0.46
   5   7  -9    5.56    0.43
  -5  -7   9    5.69    0.48
   4   7  -9   21.89    0.85
   4   7  -9   19.81    0.82
  -4  -7   9   20.97    0.87
   3   7  -9    8.50    0.50
  -3  -7   9    9.34    0.53
  -3  -7   9    9.13    0.53
   2   7  -9    1.39    0.24
  -2  -7   9    1.53    0.27
  -2  -7   9    1.32    0.22
   1   7  -9   55.62    1.41
  -1  -7   9   55.47    1.45
  -1  -7   9   54.04    1.35
   0   7  -9   39.82    1.11
   0  -7   9   37.90    1.01
   0  -7   9   38.10    1.13
  -1   7  -9   12.81    0.59
   1  -7   9   13.10    0.60
  -2   7  -9    0.50    0.13
  -2   7  -9    0.29    0.13
   2  -7   9    0.20    0.11
  -3   7  -9   18.30    0.68
   3  -7   9   17.72    0.71
   3  -7   9   17.82    0.73
  -4   7  -9   28.87    0.96
   4  -7   9   29.78    0.96
   4  -7   9   29.90    1.02
  -5   7  -9    8.43    0.53
   5  -7   9    9.44    0.57
   5   6  -9    5.33    0.40
   5   6  -9    5.53    0.45
  -5  -6   9    5.64    0.46
   4   6  -9    0.49    0.17
  -4  -6   9    0.39    0.15
  -4  -6   9    0.30    0.14
   3   6  -9   22.06    0.82
  -3  -6   9   22.98    0.82
  -3  -6   9   22.53    0.83
   2   6  -9   96.58    2.11
  -2  -6   9   97.57    2.12
  -2  -6   9   94.54    2.07
   1   6  -9   27.38    0.86
  -1  -6   9   25.41    0.85
  -1  -6   9   25.37    0.78
   0   6  -9    5.60    0.36
   0  -6   9    5.68    0.30
   0  -6   9    5.91    0.38
  -1   6  -9   90.14    1.96
  -1   6  -9   84.46    1.78
   1  -6   9   90.64    1.88
   1  -6   9   88.27    1.97
  -2   6  -9   80.06    1.67
   2  -6   9   80.11    1.82
   2  -6   9   77.90    1.81
  -3   6  -9   14.27    0.56
   3  -6   9   12.40    0.58
   3  -6   9   13.29    0.59
  -4   6  -9   29.04    0.93
   4  -6   9   27.82    0.92
   4  -6   9   28.12    0.96
  -5   6  -9   45.33    1.33
   5  -6   9   45.40    1.26
   5  -6   9   46.13    1.36
   6   5  -9    0.70    0.18
   6   5  -9    0.81    0.23
  -6  -5   9    0.54    0.20
   5   5  -9   22.91    0.91
   5   5  -9   23.76    0.82
  -5  -5   9   21.42    0.92
   4   5  -9   23.10    0.86
  -4  -5   9   22.50    0.79
  -4  -5   9   23.13    0.88
   3   5  -9    1.45    0.24
  -3  -5   9    1.08    0.20
  -3  -5   9    1.19    0.22
   2   5  -9   14.89    0.61
  -2  -5   9   14.68    0.59
  -2  -5   9   15.19    0.59
   1   5  -9   70.69    1.63
  -1  -5   9   71.80    1.54
  -1  -5   9   72.68    1.65
   0   5  -9   65.28    1.53
   0  -5   9   66.74    1.37
   0  -5   9   66.87    1.55
  -1   5  -9    0.28    0.08
  -1   5  -9    0.26    0.11
   1  -5   9    0.57    0.14
  -2   5  -9   23.16    0.69
   2  -5   9   23.24    0.79
   2  -5   9   23.24    0.78
  -3   5  -9   42.51    1.11
   3  -5   9   43.51    1.19
   3  -5   9   41.25    1.16
  -4   5  -9   29.03    0.93
   4  -5   9   29.77    0.97
   4  -5   9   29.77    0.96
  -5   5  -9    1.44    0.26
   5  -5   9    1.31    0.23
   5  -5   9    1.18    0.23
  -6   5  -9   22.32    0.92
   6  -5   9   23.07    0.92
   6   4  -9   13.73    0.71
  -6  -4   9   13.53    0.76
   5   4  -9    0.36    0.16
   5   4  -9    0.65    0.16
  -5  -4   9    0.39    0.17
   4   4  -9    3.24    0.32
  -4  -4   9    3.52    0.28
  -4  -4   9    3.54    0.33
   3   4  -9   77.40    1.79
  -3  -4   9   75.82    1.69
  -3  -4   9   78.33    1.80
   2   4  -9   80.45    1.80
  -2  -4   9   81.46    1.76
  -2  -4   9   80.67    1.75
   1   4  -9    0.94    0.16
  -1  -4   9    0.91    0.16
  -1  -4   9    1.24    0.17
   0   4  -9   41.22    0.86
   0   4  -9   39.50    1.05
   0  -4   9   39.82    1.06
   0  -4   9   38.82    0.89
  -1   4  -9  147.06    2.87
  -1   4  -9  148.09    2.69
   1  -4   9  151.18    2.91
  -2   4  -9   85.37    1.77
   2  -4   9   86.34    1.92
   2  -4   9   86.86    1.87
  -3   4  -9    3.85    0.28
   3  -4   9    2.73    0.31
   3  -4   9    2.84    0.26
  -4   4  -9   83.72    1.91
   4  -4   9   84.28    1.95
   4  -4   9   84.54    1.92
  -5   4  -9   38.44    1.18
   5  -4   9   38.98    1.17
   5  -4   9   39.37    1.18
  -6   4  -9    4.92    0.42
   6  -4   9    4.40    0.39
   6  -4   9    5.95    0.46
   6   3  -9   10.17    0.61
  -6  -3   9   10.14    0.64
   5   3  -9   48.32    1.38
  -5  -3   9   46.99    1.17
  -5  -3   9   46.20    1.43
   4   3  -9   12.72    0.60
  -4  -3   9   13.14    0.52
  -4  -3   9   13.14    0.64
   3   3  -9    7.24    0.42
  -3  -3   9    6.31    0.34
  -3  -3   9    6.83    0.42
   2   3  -9   92.30    1.96
  -2  -3   9   90.93    1.94
  -2  -3   9   92.86    1.89
   1   3  -9   63.29    1.18
   1   3  -9   61.49    1.42
  -1  -3   9   61.33    1.39
  -1  -3   9   60.93    1.34
   0   3  -9   31.96    0.88
   0   3  -9   32.06    0.74
   0  -3   9   30.95    0.73
   0  -3   9   30.33    0.88
  -1   3  -9   21.11    0.60
  -1   3  -9   21.14    0.69
  -2   3  -9   66.39    1.45
   2  -3   9   65.84    1.56
   2  -3   9   66.57    1.50
  -3   3  -9   52.73    1.29
   3  -3   9   53.04    1.30
   3  -3   9   52.92    1.36
  -4   3  -9    7.30    0.43
   4  -3   9    7.27    0.44
   4  -3   9    6.82    0.40
  -5   3  -9   19.08    0.78
   5  -3   9   21.17    0.80
   5  -3   9   19.91    0.76
  -6   3  -9   44.83    1.38
   6  -3   9   45.65    1.33
   6  -3   9   44.07    1.31
   7   2  -9    6.82    0.52
  -7  -2   9    8.21    0.61
   6   2  -9   14.65    0.73
  -6  -2   9   14.28    0.76
   5   2  -9    0.37    0.15
  -5  -2   9    0.01    0.10
   4   2  -9   34.35    1.06
  -4  -2   9   34.75    1.12
  -4  -2   9   37.03    0.92
   3   2  -9   93.00    2.02
  -3  -2   9   89.38    1.84
  -3  -2   9   93.35    2.07
   2   2  -9   37.11    1.01
   2   2  -9   38.31    0.80
  -2  -2   9   36.84    1.02
  -2  -2   9   39.07    0.96
   1   2  -9   27.59    0.66
   1   2  -9   27.26    0.79
  -1  -2   9   28.57    0.79
  -1  -2   9   26.79    0.76
   0   2  -9  108.18    2.11
   0   2  -9  107.96    1.98
   0  -2   9  103.26    1.94
   0  -2   9   98.67    2.10
  -1   2  -9   84.61    1.76
  -1   2  -9   83.63    1.68
   1  -2   9   82.41    1.80
  -2   2  -9   62.90    1.42
   2  -2   9   63.97    1.51
   2  -2   9   65.32    1.45
  -3   2  -9   72.91    1.66
   3  -2   9   73.85    1.63
   3  -2   9   73.11    1.71
  -4   2  -9   85.43    1.96
   4  -2   9   86.61    1.90
   4  -2   9   88.09    1.99
  -5   2  -9   17.88    0.76
   5  -2   9   20.15    0.79
   5  -2   9   19.28    0.73
  -6   2  -9    0.41    0.18
   6  -2   9    0.30    0.13
   6  -2   9    0.49    0.17
   7   1  -9    2.79    0.42
  -7  -1   9    2.74    0.44
   6   1  -9   25.57    0.98
  -6  -1   9   23.80    1.01
   5   1  -9   28.31    0.98
  -5  -1   9   26.75    1.02
   4   1  -9   10.75    0.54
  -4  -1   9    9.59    0.39
  -4  -1   9   10.10    0.56
   3   1  -9   84.67    1.91
   3   1  -9   86.89    1.68
  -3  -1   9   89.25    2.02
  -3  -1   9   90.49    1.76
   2   1  -9   88.68    1.90
   2   1  -9   92.51    1.73
  -2  -1   9   89.88    1.81
  -2  -1   9   88.50    1.96
   1   1  -9   59.24    1.34
   1   1  -9   58.54    1.23
  -1  -1   9   59.87    1.32
  -1  -1   9   58.02    1.35
   0   1  -9    0.55    0.11
   0   1  -9    0.47    0.11
   0  -1   9    0.72    0.13
   0  -1   9    1.19    0.18
  -1   1  -9  100.44    1.99
  -1   1  -9   97.60    1.99
   1  -1   9  101.51    1.84
   1  -1   9   99.52    2.06
  -2   1  -9   54.13    1.24
  -2   1  -9   52.96    1.26
   2  -1   9   51.42    1.31
  -3   1  -9   27.87    0.88
   3  -1   9   28.47    0.82
   3  -1   9   28.25    0.90
  -4   1  -9    0.10    0.10
   4  -1   9    0.05    0.08
   4  -1   9    0.18    0.10
  -5   1  -9   56.17    1.53
   5  -1   9   55.40    1.51
   5  -1   9   56.74    1.41
  -6   1  -9   22.00    0.92
   6  -1   9   24.03    0.92
   6  -1   9   23.62    0.84
   7   0  -9   10.59    0.65
  -7   0   9   10.53    0.69
   6   0  -9    0.53    0.18
  -6   0   9    0.72    0.22
   5   0  -9    6.69    0.45
  -5   0   9    4.81    0.43
   4   0  -9   44.50    1.23
   4   0  -9   44.96    1.06
  -4   0   9   42.05    1.30
   3   0  -9   78.47    1.60
   3   0  -9   76.46    1.75
  -3   0   9   79.18    1.58
  -3   0   9   80.38    1.87
   2   0  -9    0.25    0.09
   2   0  -9    0.29    0.09
  -2   0   9    0.44    0.14
  -2   0   9    0.46    0.11
   1   0  -9  100.68    2.02
   1   0  -9  100.61    1.98
  -1   0   9  105.29    2.09
  -1   0   9   98.47    2.00
   0   0  -9   77.43    1.61
   0   0  -9   81.65    1.65
   0   0   9   78.50    1.61
   0   0   9   73.33    1.64
  -1   0  -9   72.29    1.57
  -1   0  -9   72.95    1.51
   1   0   9   69.88    1.59
   1   0   9   72.83    1.44
  -2   0  -9    3.39    0.23
  -2   0  -9    3.58    0.28
   2   0   9    3.55    0.28
  -3   0  -9   89.06    1.98
   3   0   9   88.50    2.00
   3   0   9   89.99    1.83
  -4   0  -9   48.29    1.34
   4   0   9   48.28    1.19
   4   0   9   49.35    1.36
  -5   0  -9    3.11    0.38
   5   0   9    3.38    0.38
  -6   0  -9   11.53    0.66
   6   0   9   12.36    0.66
   7  -1  -9   14.37    0.76
   6  -1  -9   36.52    1.21
  -6   1   9   36.38    1.30
   5  -1  -9   16.71    0.73
   5  -1  -9   16.96    0.62
  -5   1   9   16.29    0.79
   4  -1  -9   10.36    0.52
   4  -1  -9    9.84    0.44
  -4   1   9   10.22    0.58
   3  -1  -9   83.22    1.76
   3  -1  -9   83.34    1.86
  -3   1   9   84.92    1.67
  -3   1   9   85.46    1.98
   2  -1  -9   83.18    1.76
   2  -1  -9   83.16    1.79
  -2   1   9   87.61    1.91
  -2   1   9   83.81    1.71
   1  -1  -9   16.01    0.56
   1  -1  -9   15.50    0.53
  -1   1   9   14.55    0.53
  -1   1   9   15.69    0.59
   0  -1  -9   47.86    1.10
   0  -1  -9   49.28    1.19
   0   1   9   48.88    1.18
   0   1   9   48.24    1.15
  -1  -1  -9   97.61    2.06
  -1  -1  -9  100.94    1.92
   1   1   9   98.26    1.93
   1   1   9  100.29    2.08
  -2  -1  -9   47.17    1.24
  -2  -1  -9   47.98    1.09
   2   1   9   48.30    1.26
  -3  -1  -9    0.29    0.12
   3   1   9    0.13    0.10
  -4  -1  -9   13.54    0.64
   4   1   9   12.18    0.62
  -5  -1  -9   36.18    1.21
   5   1   9   38.81    1.24
   6  -2  -9    2.44    0.36
  -6   2   9    1.81    0.35
   5  -2  -9   16.17    0.71
   5  -2  -9   15.28    0.63
  -5   2   9   15.81    0.78
   4  -2  -9   43.46    1.17
   4  -2  -9   45.21    1.25
  -4   2   9   46.12    1.37
   3  -2  -9   11.28    0.51
   3  -2  -9   12.39    0.52
  -3   2   9   11.67    0.59
   2  -2  -9   15.91    0.60
   2  -2  -9   16.74    0.59
  -2   2   9   15.74    0.65
  -2   2   9   16.25    0.54
   1  -2  -9   83.74    1.82
   1  -2  -9   81.09    1.69
  -1   2   9   82.97    1.73
  -1   2   9   82.97    1.82
   0  -2  -9   59.26    1.42
   0   2   9   56.28    1.35
   0   2   9   60.55    1.39
  -1  -2  -9   10.82    0.51
   1   2   9   12.10    0.46
   1   2   9   10.52    0.50
  -2  -2  -9   45.33    1.25
   2   2   9   48.27    1.28
  -3  -2  -9   74.33    1.83
   3   2   9   78.83    1.87
  -4  -2  -9   12.08    0.63
   4   2   9   12.19    0.63
  -5  -2  -9    5.28    0.44
   5   2   9    5.31    0.45
   6  -3  -9   30.54    1.03
   6  -3  -9   30.52    1.09
  -6   3   9   31.14    1.22
   5  -3  -9    1.90    0.28
   5  -3  -9    2.77    0.36
  -5   3   9    2.36    0.39
   4  -3  -9   58.90    1.50
   4  -3  -9   59.76    1.50
  -4   3   9   59.70    1.66
   3  -3  -9   60.15    1.42
   3  -3  -9   56.31    1.45
  -3   3   9   58.04    1.57
   2  -3  -9   30.08    1.00
   2  -3  -9   29.94    0.95
  -2   3   9   32.77    0.85
  -2   3   9   31.14    1.01
   1  -3  -9    2.05    0.27
  -1   3   9    1.31    0.22
  -1   3   9    1.65    0.22
   0  -3  -9   68.15    1.63
   0   3   9   67.74    1.57
   0   3   9   66.55    1.55
  -1  -3  -9   68.33    1.66
   1   3   9   67.25    1.54
   1   3   9   66.77    1.60
  -2  -3  -9    9.51    0.52
   2   3   9    8.74    0.49
  -3  -3  -9    3.03    0.38
   3   3   9    3.29    0.38
  -4  -3  -9   31.29    1.11
   4   3   9   33.81    1.14
   5  -4  -9   16.11    0.73
   5  -4  -9   16.29    0.71
  -5   4   9   15.00    0.80
   4  -4  -9   26.59    0.94
  -4   4   9   26.98    1.05
   3  -4  -9    2.26    0.31
  -3   4   9    1.65    0.30
   2  -4  -9   58.71    1.52
  -2   4   9   57.41    1.57
   1  -4  -9   17.44    0.73
  -1   4   9   17.82    0.64
  -1   4   9   18.00    0.73
   0  -4  -9   28.14    0.97
   0   4   9   27.41    0.88
   0   4   9   28.60    0.92
  -1  -4  -9    3.17    0.38
   1   4   9    3.41    0.37
   1   4   9    3.20    0.29
  -2  -4  -9   57.38    1.57
   2   4   9   57.66    1.53
  -3  -4  -9   33.46    1.15
   3   4   9   32.99    1.12
   4  -5  -9   51.72    1.48
  -4   5   9   48.51    1.56
   3  -5  -9   28.89    1.02
  -3   5   9   28.14    1.07
   2  -5  -9    5.23    0.41
  -2   5   9    5.35    0.44
   1  -5  -9   34.05    1.13
  -1   5   9   33.65    0.99
  -1   5   9   33.42    1.11
   0  -5  -9   44.63    1.34
   0   5   9   43.42    1.21
   0   5   9   43.91    1.28
  -1  -5  -9   15.64    0.75
   1   5   9   17.03    0.71
   1   5   9   16.16    0.69
  -2  -5  -9    0.21    0.14
   2   5   9    0.33    0.15
   3  -6  -9   19.57    0.86
  -3   6   9   18.79    0.90
   2  -6  -9   29.40    1.08
  -2   6   9   27.31    1.08
   1  -6  -9   10.58    0.62
  -1   6   9    9.96    0.60
   0  -6  -9    0.18    0.15
   0   6   9    0.33    0.14
   0   6   9    0.63    0.18
  -1  -6  -9   16.48    0.81
   1   6   9   17.57    0.78
   1   6   9   18.35    0.77
   2   9 -10    6.05    0.43
  -2  -9  10    6.18    0.48
  -2  -9  10    6.24    0.45
   1   9 -10    1.54    0.27
  -1  -9  10    1.18    0.22
  -1  -9  10    1.64    0.30
   0   9 -10    8.68    0.52
   0  -9  10    7.94    0.53
   0  -9  10    8.46    0.47
  -1   9 -10   16.59    0.73
   1  -9  10   14.64    0.71
  -2   9 -10    4.26    0.39
   2  -9  10    4.66    0.39
  -3   9 -10   18.70    0.84
   3  -9  10   18.85    0.80
   3   8 -10    5.63    0.43
  -3  -8  10    5.88    0.46
  -3  -8  10    5.63    0.44
   2   8 -10   28.15    0.97
  -2  -8  10   27.38    1.01
  -2  -8  10   28.06    0.97
   1   8 -10   13.16    0.62
  -1  -8  10   13.35    0.59
  -1  -8  10   13.07    0.66
   0   8 -10    2.56    0.34
   0  -8  10    2.02    0.26
   0  -8  10    1.89    0.30
  -1   8 -10   19.73    0.79
   1  -8  10   18.35    0.78
  -2   8 -10   22.09    0.86
   2  -8  10   21.13    0.84
   3  -8  10    5.16    0.40
   3  -8  10    5.20    0.40
  -4   8 -10    2.14    0.31
   4  -8  10    3.40    0.39
   4  -8  10    2.56    0.35
   4   7 -10   22.90    0.90
  -4  -7  10   21.32    0.90
   3   7 -10   20.22    0.81
  -3  -7  10   20.79    0.83
  -3  -7  10   19.62    0.80
   2   7 -10    1.78    0.28
  -2  -7  10    1.31    0.25
  -2  -7  10    1.29    0.23
   1   7 -10    8.83    0.49
  -1  -7  10    9.18    0.45
  -1  -7  10    8.41    0.50
   0   7 -10   20.08    0.77
   0  -7  10   19.46    0.78
   0  -7  10   20.43    0.67
  -1   7 -10   16.29    0.69
   1  -7  10   16.96    0.71
  -2   7 -10    0.46    0.16
   2  -7  10    0.43    0.15
  -3   7 -10   54.55    1.37
   3  -7  10   54.65    1.47
   3  -7  10   53.34    1.47
  -4   7 -10   48.46    1.34
   4  -7  10   47.16    1.39
   4  -7  10   50.35    1.37
  -5   7 -10    3.52    0.41
   5  -7  10    3.97    0.39
   5   6 -10   13.41    0.65
   5   6 -10   14.08    0.72
  -5  -6  10   14.66    0.77
   4   6 -10    0.45    0.17
  -4  -6  10    0.43    0.17
  -4  -6  10    0.52    0.16
   3   6 -10   20.15    0.80
  -3  -6  10   21.69    0.80
  -3  -6  10   20.77    0.81
   2   6 -10   62.98    1.59
  -2  -6  10   64.56    1.54
  -2  -6  10   61.51    1.56
   1   6 -10    5.11    0.36
  -1  -6  10    5.11    0.32
  -1  -6  10    4.61    0.35
   0   6 -10    6.69    0.41
   0  -6  10    6.59    0.33
   0  -6  10    7.17    0.43
  -1   6 -10   38.98    1.12
   1  -6  10   37.14    1.12
  -2   6 -10   18.54    0.62
  -2   6 -10   18.29    0.73
   2  -6  10   18.85    0.74
  -3   6 -10    0.15    0.09
   3  -6  10    0.37    0.14
   3  -6  10    0.17    0.11
  -4   6 -10   23.73    0.85
   4  -6  10   24.99    0.91
   4  -6  10   24.36    0.89
  -5   6 -10   41.89    1.28
   5  -6  10   41.67    1.30
   5  -6  10   42.71    1.26
   6   5 -10    2.26    0.36
  -6  -5  10    3.76    0.50
   5   5 -10   15.37    0.65
   5   5 -10   14.63    0.73
  -5  -5  10   14.82    0.77
   4   5 -10   40.76    1.24
  -4  -5  10   39.62    1.25
  -4  -5  10   38.51    1.12
   3   5 -10    7.15    0.45
  -3  -5  10    7.18    0.42
  -3  -5  10    6.92    0.44
   2   5 -10    7.51    0.45
  -2  -5  10    8.33    0.44
  -2  -5  10    7.60    0.41
   1   5 -10   32.96    0.99
  -1  -5  10   33.32    0.89
  -1  -5  10   32.59    0.98
   0  -5  10   35.71    0.86
   0  -5  10   35.48    1.04
  -1   5 -10    1.64    0.23
  -1   5 -10    2.01    0.17
   1  -5  10    1.66    0.25
  -2   5 -10   16.48    0.57
  -2   5 -10   14.48    0.62
   2  -5  10   15.74    0.66
  -3   5 -10   83.57    1.86
   3  -5  10   87.31    2.01
   3  -5  10   85.52    1.96
  -4   5 -10   16.44    0.68
   4  -5  10   16.80    0.72
   4  -5  10   16.66    0.71
  -5   5 -10    0.12    0.11
   5  -5  10    0.23    0.14
   5  -5  10    0.32    0.14
   6   4 -10   22.28    0.95
  -6  -4  10   22.05    1.00
   5   4 -10    1.40    0.28
  -5  -4  10    1.68    0.25
  -5  -4  10    1.48    0.30
   4   4 -10   10.77    0.57
  -4  -4  10    9.82    0.48
  -4  -4  10   10.37    0.58
   3   4 -10   60.25    1.55
  -3  -4  10   62.41    1.57
  -3  -4  10   63.92    1.48
   2   4 -10   30.68    0.95
  -2  -4  10   32.45    0.93
  -2  -4  10   29.54    0.90
   1   4 -10    3.46    0.28
  -1  -4  10    3.56    0.28
  -1  -4  10    3.18    0.23
   0   4 -10   60.84    1.49
   0   4 -10   65.20    1.28
   0  -4  10   63.80    1.51
   0  -4  10   63.17    1.29
  -1   4 -10   53.33    1.19
  -1   4 -10   56.37    1.37
   1  -4  10   54.50    1.39
  -2   4 -10    2.79    0.22
  -2   4 -10    2.16    0.27
   2  -4  10    2.70    0.32
  -3   4 -10   14.77    0.59
   3  -4  10   15.87    0.68
   3  -4  10   15.15    0.63
  -4   4 -10   60.34    1.53
   4  -4  10   62.71    1.57
   4  -4  10   60.27    1.60
  -5   4 -10   32.26    1.07
   5  -4  10   31.22    1.06
   5  -4  10   29.93    1.03
  -6   4 -10    2.77    0.38
   6  -4  10    2.69    0.37
   6  -4  10    3.55    0.41
   6   3 -10   27.01    1.05
  -6  -3  10   27.82    1.13
   5   3 -10   27.16    1.00
  -5  -3  10   25.56    1.03
   4   3 -10   25.53    0.91
  -4  -3  10   24.40    0.94
  -4  -3  10   24.47    0.77
   3   3 -10    0.19    0.11
  -3  -3  10    0.32    0.13
  -3  -3  10    0.23    0.10
   2   3 -10   35.52    1.02
  -2  -3  10   34.74    0.99
  -2  -3  10   34.99    0.95
   1   3 -10   32.74    0.95
  -1  -3  10   33.11    0.88
  -1  -3  10   33.39    0.93
   0   3 -10   28.33    0.85
   0   3 -10   27.36    0.70
   0  -3  10   28.77    0.70
   0  -3  10   27.28    0.85
  -1   3 -10    0.16    0.07
  -1   3 -10    0.09    0.07
   1  -3  10    0.40    0.12
  -2   3 -10  110.57    2.15
  -2   3 -10  104.12    2.21
   2  -3  10  103.09    2.27
  -3   3 -10   36.81    1.04
   3  -3  10   39.12    1.08
   3  -3  10   38.02    1.13
  -4   3 -10    4.71    0.36
   4  -3  10    4.34    0.34
   4  -3  10    5.00    0.39
  -5   3 -10   10.84    0.59
   5  -3  10   10.90    0.56
   5  -3  10   12.00    0.62
  -6   3 -10   42.97    1.36
   6  -3  10   42.88    1.32
   6  -3  10   39.71    1.26
   6   2 -10   16.83    0.80
  -6  -2  10   15.28    0.81
   5   2 -10    2.24    0.33
  -5  -2  10    3.12    0.42
   4   2 -10   70.94    1.74
  -4  -2  10   69.06    1.52
  -4  -2  10   69.08    1.80
   3   2 -10   40.84    1.17
  -3  -2  10   40.34    1.20
  -3  -2  10   42.94    1.05
   2   2 -10   18.10    0.66
  -2  -2  10   17.93    0.61
  -2  -2  10   16.61    0.65
   1   2 -10   13.07    0.42
   1   2 -10   13.25    0.53
  -1  -2  10   12.98    0.50
  -1  -2  10   12.14    0.51
   0   2 -10   90.29    1.78
   0   2 -10   90.08    1.90
   0  -2  10   90.47    1.75
   0  -2  10   89.11    1.92
  -1   2 -10   34.28    0.89
  -1   2 -10   34.04    0.94
   1  -2  10   33.75    0.98
  -2   2 -10    0.19    0.09
  -2   2 -10    0.43    0.12
   2  -2  10    0.20    0.10
  -3   2 -10   71.62    1.67
   3  -2  10   72.42    1.74
   3  -2  10   74.09    1.66
  -4   2 -10   59.42    1.53
   4  -2  10   59.28    1.46
   4  -2  10   59.23    1.56
  -5   2 -10   11.77    0.61
   5  -2  10   11.51    0.61
   5  -2  10   11.87    0.57
  -6   2 -10    0.33    0.17
   6  -2  10    0.38    0.15
   6  -2  10    0.57    0.18
   6   1 -10   35.63    1.22
  -6  -1  10   35.59    1.29
   5   1 -10   36.04    1.16
  -5  -1  10   35.54    1.22
   4   1 -10    4.86    0.38
  -4  -1  10    5.41    0.43
   3   1 -10   20.81    0.76
  -3  -1  10   21.54    0.65
  -3  -1  10   20.72    0.81
   2   1 -10   43.93    1.01
   2   1 -10   45.17    1.18
  -2  -1  10   44.92    1.22
  -2  -1  10   44.83    1.10
   1   1 -10   24.34    0.69
   1   1 -10   26.28    0.79
  -1  -1  10   26.96    0.78
  -1  -1  10   24.99    0.78
   0   1 -10    4.12    0.25
   0   1 -10    4.42    0.28
   0  -1  10    4.04    0.25
   0  -1  10    4.36    0.30
  -1   1 -10   11.98    0.48
  -1   1 -10   12.02    0.48
   1  -1  10   12.06    0.52
  -2   1 -10   84.06    1.85
  -2   1 -10   86.07    1.81
   2  -1  10   85.49    1.92
  -3   1 -10   21.94    0.77
   3  -1  10   20.39    0.69
   3  -1  10   20.72    0.79
  -4   1 -10    2.64    0.32
   4  -1  10    2.45    0.34
   4  -1  10    2.58    0.25
  -5   1 -10   32.18    1.11
   5  -1  10   34.39    1.14
   5  -1  10   31.86    1.00
   6   0 -10    1.26    0.26
  -6   0  10    1.65    0.31
   5   0 -10   14.47    0.69
  -5   0  10   13.46    0.72
   4   0 -10  104.38    2.32
  -4   0  10  107.20    2.46
   3   0 -10   24.89    0.72
   3   0 -10   25.34    0.85
  -3   0  10   25.36    0.72
  -3   0  10   27.38    0.94
   2   0 -10    0.11    0.07
   2   0 -10    0.25    0.10
  -2   0  10    1.12    0.21
  -2   0  10    0.26    0.10
   1   0 -10   49.41    1.20
   1   0 -10   50.32    1.18
  -1   0  10   50.77    1.26
  -1   0  10   50.89    1.22
   0   0 -10   80.06    1.69
   0   0 -10   81.70    1.72
   0   0  10   81.03    1.70
   0   0  10   80.02    1.75
  -1   0 -10    7.93    0.37
  -1   0 -10    7.85    0.40
   1   0  10    7.31    0.41
  -2   0 -10   31.47    0.94
  -2   0 -10   30.86    0.85
   2   0  10   30.39    0.95
  -3   0 -10   52.67    1.41
  -3   0 -10   54.40    1.28
   3   0  10   53.64    1.43
  -4   0 -10   47.82    1.37
   4   0  10   49.23    1.40
  -5   0 -10    0.66    0.19
   5   0  10    0.40    0.16
   6  -1 -10   34.73    1.20
  -6   1  10   36.85    1.33
   5  -1 -10   11.26    0.61
  -5   1  10   11.72    0.68
   4  -1 -10    0.79    0.18
   4  -1 -10    1.23    0.20
  -4   1  10    1.25    0.26
   3  -1 -10   35.33    1.04
   3  -1 -10   34.30    0.95
  -3   1  10   36.28    1.14
   2  -1 -10   55.51    1.36
   2  -1 -10   56.98    1.34
  -2   1  10   57.37    1.29
  -2   1  10   56.22    1.45
   1  -1 -10    2.26    0.27
   1  -1 -10    2.07    0.20
  -1   1  10    1.94    0.22
  -1   1  10    2.41    0.29
   0  -1 -10    1.59    0.23
   0  -1 -10    1.38    0.18
   0   1  10    1.09    0.18
   0   1  10    0.95    0.17
  -1  -1 -10   36.30    1.03
  -1  -1 -10   37.05    0.92
   1   1  10   35.57    1.03
  -2  -1 -10   31.80    0.98
   2   1  10   30.99    0.98
  -3  -1 -10    1.35    0.24
   3   1  10    1.54    0.26
  -4  -1 -10   16.24    0.73
   4   1  10   14.50    0.70
  -5  -1 -10   26.84    1.04
   5   1  10   25.48    1.01
   6  -2 -10    1.09    0.26
  -6   2  10    0.69    0.23
   5  -2 -10   50.92    1.35
   5  -2 -10   52.98    1.48
  -5   2  10   50.98    1.58
   4  -2 -10   44.65    1.21
   4  -2 -10   45.61    1.29
  -4   2  10   46.27    1.41
   3  -2 -10   10.69    0.51
   3  -2 -10   10.72    0.50
  -3   2  10   10.51    0.58
   2  -2 -10   15.67    0.63
   2  -2 -10   16.70    0.61
  -2   2  10   16.31    0.69
  -2   2  10   18.06    0.59
   1  -2 -10   68.94    1.52
   1  -2 -10   72.16    1.66
  -1   2  10   68.90    1.65
  -1   2  10   70.59    1.57
   0  -2 -10   45.56    1.24
   0   2  10   46.86    1.20
   0   2  10   47.63    1.22
  -1  -2 -10    2.23    0.29
   1   2  10    2.29    0.28
  -2  -2 -10   58.49    1.52
   2   2  10   57.59    1.51
  -3  -2 -10   31.93    1.07
   3   2  10   32.15    1.08
  -4  -2 -10    8.76    0.55
   4   2  10    9.10    0.57
   5  -3 -10    0.28    0.13
   5  -3 -10    0.25    0.13
  -5   3  10    0.06    0.15
   4  -3 -10   19.63    0.76
   4  -3 -10   18.59    0.74
  -4   3  10   18.57    0.86
   3  -3 -10   24.97    0.87
   3  -3 -10   24.09    1.00
  -3   3  10   25.86    0.97
   2  -3 -10   20.04    0.76
  -2   3  10   20.60    0.81
  -2   3  10   19.25    0.69
   1  -3 -10    0.50    0.16
  -1   3  10    0.47    0.15
  -1   3  10    0.37    0.12
   0  -3 -10   25.95    0.90
   0   3  10   26.25    0.85
   0   3  10   25.78    0.86
  -1  -3 -10   20.11    0.79
   1   3  10   19.89    0.85
   1   3  10   19.10    0.74
  -2  -3 -10    9.94    0.56
   2   3  10   10.12    0.56
  -3  -3 -10    4.93    0.41
   3   3  10    4.47    0.40
  -4  -3 -10   24.46    0.97
   4   3  10   22.06    0.94
   5  -4 -10   38.34    1.23
  -5   4  10   36.90    1.37
   4  -4 -10   20.99    0.84
  -4   4  10   20.23    0.93
   3  -4 -10    0.77    0.20
  -3   4  10    0.85    0.23
   2  -4 -10   30.97    1.03
  -2   4  10   29.79    1.05
   1  -4 -10   35.91    1.14
  -1   4  10   34.57    1.12
  -1   4  10   34.84    1.01
   0  -4 -10   24.48    0.93
   0   4  10   24.19    0.84
   0   4  10   25.99    0.90
  -1  -4 -10   28.42    1.03
   1   4  10   29.03    1.01
   1   4  10   29.74    0.99
  -2  -4 -10   41.42    1.31
   2   4  10   41.71    1.28
  -3  -4 -10   12.11    0.68
   3   4  10   11.89    0.66
   3  -5 -10   15.26    0.74
  -3   5  10   16.16    0.81
   2  -5 -10    1.32    0.27
  -2   5  10    1.59    0.30
   1  -5 -10    5.74    0.45
  -1   5  10    4.62    0.54
  -1   5  10    4.46    0.40
   0  -5 -10   14.51    0.72
   0   5  10   13.86    0.63
   0   5  10   13.44    0.67
  -1  -5 -10   10.45    0.62
   1   5  10    9.57    0.55
   2   9 -11    3.63    0.36
  -2  -9  11    3.74    0.47
  -2  -9  11    2.87    0.37
   1   9 -11    1.73    0.29
  -1  -9  11    1.42    0.25
  -1  -9  11    1.07    0.25
   0   9 -11   29.04    1.02
   0  -9  11   25.76    1.02
  -1   9 -11   31.81    1.10
   1  -9  11   30.97    1.12
  -2   9 -11    0.92    0.24
   2  -9  11    0.83    0.22
   3   8 -11    5.98    0.46
  -3  -8  11    5.16    0.43
  -3  -8  11    5.37    0.44
   2   8 -11   15.22    0.71
  -2  -8  11   16.24    0.76
  -2  -8  11   15.43    0.69
   1   8 -11   11.78    0.61
  -1  -8  11   12.42    0.57
  -1  -8  11   12.69    0.66
   0   8 -11    4.53    0.38
   0  -8  11    4.18    0.38
  -1   8 -11   24.69    0.92
   1  -8  11   23.19    0.92
  -2   8 -11   47.96    1.41
   2  -8  11   46.67    1.40
  -3   8 -11   21.39    0.90
   3  -8  11   21.15    0.87
   4   7 -11   22.57    0.93
  -4  -7  11   23.03    0.96
  -4  -7  11   22.98    0.91
   3   7 -11   13.27    0.67
  -3  -7  11   13.53    0.66
  -3  -7  11   13.40    0.66
   2   7 -11    3.46    0.34
  -2  -7  11    3.23    0.39
  -2  -7  11    3.17    0.30
   1   7 -11    2.47    0.33
  -1  -7  11    1.69    0.28
  -1  -7  11    2.19    0.27
   0   7 -11   67.22    1.70
   0  -7  11   68.80    1.74
  -1   7 -11   10.83    0.58
   1  -7  11   10.78    0.58
  -2   7 -11   20.04    0.83
   2  -7  11   22.31    0.87
  -3   7 -11   37.55    1.15
  -3   7 -11   38.72    1.24
   3  -7  11   37.72    1.20
  -4   7 -11   39.29    1.16
   4  -7  11   35.46    1.21
   4  -7  11   38.03    1.21
   5   6 -11    4.34    0.50
   5   6 -11    4.31    0.37
  -5  -6  11    4.08    0.53
   4   6 -11    7.10    0.50
  -4  -6  11    6.31    0.44
  -4  -6  11    7.23    0.51
   3   6 -11   23.28    0.90
  -3  -6  11   23.11    0.87
  -3  -6  11   23.57    0.86
   2   6 -11   32.80    1.06
  -2  -6  11   31.54    0.98
  -2  -6  11   30.97    1.02
   1   6 -11    0.15    0.11
  -1  -6  11    0.08    0.07
  -1  -6  11    0.12    0.10
   0   6 -11   24.57    0.87
   0  -6  11   24.66    0.88
  -1   6 -11   43.40    1.24
   1  -6  11   41.80    1.24
  -2   6 -11   73.30    1.81
  -2   6 -11   70.18    1.72
   2  -6  11   75.54    1.84
  -3   6 -11    0.78    0.18
   3  -6  11    1.09    0.23
   3  -6  11    0.77    0.19
  -4   6 -11   17.36    0.72
   4  -6  11   16.52    0.75
   4  -6  11   16.42    0.74
  -5   6 -11   26.14    0.98
   5  -6  11   27.55    1.03
   5  -6  11   27.81    1.01
   5   5 -11   11.33    0.65
  -5  -5  11   10.76    0.56
  -5  -5  11   10.19    0.65
   4   5 -11   35.60    1.17
  -4  -5  11   33.38    1.16
  -4  -5  11   34.53    1.06
   3   5 -11    0.40    0.16
  -3  -5  11    0.59    0.17
  -3  -5  11    0.43    0.15
   2   5 -11    5.61    0.40
  -2  -5  11    6.29    0.40
  -2  -5  11    5.84    0.37
   1   5 -11   47.31    1.28
  -1  -5  11   44.32    1.24
  -1  -5  11   44.48    1.12
   0  -5  11   36.45    1.09
  -1   5 -11    1.29    0.22
   1  -5  11    1.49    0.24
  -2   5 -11   58.47    1.52
  -2   5 -11   57.67    1.35
   2  -5  11   59.59    1.56
  -3   5 -11   58.03    1.42
   3  -5  11   57.90    1.52
   3  -5  11   56.63    1.56
  -4   5 -11   24.45    0.87
   4  -5  11   23.57    0.89
   4  -5  11   24.14    0.93
  -5   5 -11    0.18    0.13
   5  -5  11   -0.06    0.09
   5  -5  11    0.27    0.14
   6   4 -11   20.07    0.91
  -6  -4  11   17.98    0.92
   5   4 -11    0.26    0.16
  -5  -4  11    0.53    0.19
  -5  -4  11    0.50    0.18
   4   4 -11   19.84    0.83
  -4  -4  11   20.89    0.74
  -4  -4  11   20.32    0.86
   3   4 -11   48.10    1.35
  -3  -4  11   48.95    1.26
  -3  -4  11   46.73    1.33
   2   4 -11   18.61    0.73
  -2  -4  11   18.24    0.68
  -2  -4  11   17.57    0.67
   1   4 -11    7.85    0.45
  -1  -4  11    7.57    0.43
  -1  -4  11    7.43    0.37
   0   4 -11   78.14    1.79
   0  -4  11   77.43    1.80
  -1   4 -11   58.06    1.45
  -1   4 -11   57.96    1.28
   1  -4  11   56.18    1.48
  -2   4 -11   20.36    0.77
  -2   4 -11   22.61    0.71
   2  -4  11   21.83    0.82
  -3   4 -11    3.40    0.29
   3  -4  11    3.08    0.35
   3  -4  11    3.17    0.37
  -4   4 -11   41.30    1.20
   4  -4  11   39.70    1.20
   4  -4  11   40.96    1.28
  -5   4 -11   20.50    0.84
   5  -4  11   20.91    0.88
   5  -4  11   22.84    0.88
   6   3 -11    7.17    0.53
  -6  -3  11    7.00    0.57
   5   3 -11   20.13    0.87
  -5  -3  11   19.85    0.91
   4   3 -11   13.32    0.66
  -4  -3  11   13.00    0.55
  -4  -3  11   12.92    0.68
   3   3 -11    1.53    0.25
  -3  -3  11    1.68    0.24
  -3  -3  11    1.74    0.29
   2   3 -11   21.35    0.77
  -2  -3  11   20.14    0.73
  -2  -3  11   21.85    0.73
   1   3 -11   72.23    1.66
  -1  -3  11   70.61    1.62
  -1  -3  11   67.90    1.53
   0   3 -11    7.83    0.34
   0   3 -11    7.89    0.43
   0  -3  11    7.36    0.43
  -1   3 -11   47.39    1.23
  -1   3 -11   45.49    1.10
   1  -3  11   44.96    1.25
  -2   3 -11  108.61    2.31
  -2   3 -11  109.65    2.23
   2  -3  11  108.70    2.38
  -3   3 -11   29.21    0.92
   3  -3  11   29.89    1.01
   3  -3  11   29.12    0.93
  -4   3 -11   12.05    0.59
   4  -3  11   11.71    0.62
   4  -3  11   12.11    0.58
  -5   3 -11   12.01    0.64
   5  -3  11   13.52    0.69
   5  -3  11   13.19    0.64
   6   2 -11    3.18    0.43
  -6  -2  11    3.59    0.47
   5   2 -11    5.83    0.45
  -5  -2  11    5.54    0.47
   4   2 -11   32.68    1.08
  -4  -2  11   33.22    0.91
  -4  -2  11   31.71    1.12
   3   2 -11   42.79    1.24
  -3  -2  11   43.60    1.10
  -3  -2  11   42.14    1.25
   2   2 -11    0.94    0.18
  -2  -2  11    1.05    0.18
  -2  -2  11    1.27    0.22
   1   2 -11   40.43    1.12
   1   2 -11   42.53    0.97
  -1  -2  11   41.91    1.12
  -1  -2  11   40.35    1.06
   0   2 -11   76.30    1.59
   0   2 -11   75.28    1.71
   0  -2  11   77.27    1.75
  -1   2 -11   58.53    1.34
  -1   2 -11   57.59    1.40
   1  -2  11   57.18    1.45
  -2   2 -11    0.51    0.14
  -2   2 -11    0.60    0.15
   2  -2  11    0.66    0.18
  -3   2 -11   27.43    0.88
  -3   2 -11   26.68    0.89
   3  -2  11   27.12    0.95
  -4   2 -11   37.88    1.16
   4  -2  11   34.99    1.16
   4  -2  11   38.73    1.11
  -5   2 -11   11.13    0.61
   5  -2  11   11.86    0.64
   5  -2  11    9.64    0.53
   6   1 -11   22.53    0.95
  -6  -1  11   20.00    0.96
   5   1 -11   32.24    1.13
  -5  -1  11   34.05    1.21
   4   1 -11    3.75    0.35
  -4  -1  11    4.47    0.40
   3   1 -11    2.97    0.29
  -3  -1  11    2.87    0.36
  -3  -1  11    3.79    0.26
   2   1 -11   45.45    1.23
   2   1 -11   47.49    1.09
  -2  -1  11   48.03    1.18
  -2  -1  11   44.83    1.26
   1   1 -11   37.76    1.06
   1   1 -11   39.26    0.98
  -1  -1  11   39.50    1.07
  -1  -1  11   38.82    1.06
   0   1 -11    4.28    0.30
   0   1 -11    4.20    0.28
   0  -1  11    4.44    0.32
  -1   1 -11   95.97    2.02
  -1   1 -11   97.18    2.01
   1  -1  11   94.18    2.09
  -2   1 -11   92.70    2.01
  -2   1 -11   91.35    1.97
   2  -1  11   92.20    2.08
  -3   1 -11   17.23    0.71
  -3   1 -11   17.60    0.67
   3  -1  11   19.40    0.77
  -4   1 -11    2.17    0.32
   4  -1  11    1.56    0.28
   4  -1  11    2.06    0.27
  -5   1 -11   26.05    0.99
   5  -1  11   24.73    0.98
   6   0 -11    0.04    0.12
  -6   0  11    0.12    0.12
   5   0 -11   16.79    0.77
  -5   0  11   18.10    0.86
   4   0 -11   53.54    1.46
  -4   0  11   53.19    1.56
   3   0 -11   11.86    0.57
   3   0 -11   11.10    0.46
  -3   0  11   11.80    0.47
  -3   0  11   12.40    0.63
   2   0 -11   13.88    0.58
   2   0 -11   12.60    0.51
  -2   0  11   13.52    0.53
  -2   0  11   12.85    0.60
   1   0 -11   45.60    1.18
   1   0 -11   45.85    1.15
  -1   0  11   44.42    1.20
  -1   0  11   48.19    1.20
   0   0 -11   58.53    1.41
   0   0 -11   60.64    1.39
   0   0  11   61.00    1.46
   0   0  11   59.28    1.43
  -1   0 -11    6.53    0.38
  -1   0 -11    6.72    0.36
   1   0  11    6.47    0.40
  -2   0 -11    8.55    0.47
  -2   0 -11    7.95    0.40
   2   0  11    8.29    0.48
  -3   0 -11   52.46    1.29
  -3   0 -11   50.72    1.40
   3   0  11   50.77    1.43
  -4   0 -11   21.34    0.87
   4   0  11   22.31    0.89
  -5   0 -11    1.49    0.28
   5   0  11    0.97    0.24
   6  -1 -11   32.39    1.17
  -6   1  11   31.58    1.25
   5  -1 -11    6.45    0.47
  -5   1  11    5.30    0.48
   4  -1 -11    4.98    0.42
   4  -1 -11    5.12    0.39
  -4   1  11    4.64    0.41
   3  -1 -11   26.05    0.82
   3  -1 -11   26.36    0.89
  -3   1  11   25.98    0.96
   2  -1 -11   31.41    0.92
   2  -1 -11   30.59    0.94
  -2   1  11   31.83    1.02
  -2   1  11   31.03    0.88
   1  -1 -11    3.53    0.27
   1  -1 -11    3.61    0.29
  -1   1  11    4.09    0.32
  -1   1  11    3.72    0.28
   0  -1 -11   33.65    0.99
   0  -1 -11   31.11    0.91
   0   1  11   34.88    1.00
   0   1  11   32.83    0.98
  -1  -1 -11  106.50    2.31
   1   1  11  109.33    2.33
  -2  -1 -11   26.85    0.92
   2   1  11   26.99    0.94
  -3  -1 -11    7.65    0.48
   3   1  11    7.27    0.48
  -4  -1 -11   18.09    0.80
   4   1  11   17.18    0.80
   5  -2 -11   30.33    1.06
  -5   2  11   28.00    1.13
   4  -2 -11   23.63    0.83
   4  -2 -11   24.88    0.90
  -4   2  11   24.09    0.99
   3  -2 -11    2.70    0.32
   3  -2 -11    2.21    0.30
  -3   2  11    2.38    0.35
   2  -2 -11   47.44    1.28
   2  -2 -11   48.36    1.24
  -2   2  11   48.44    1.37
  -2   2  11   47.70    1.19
   1  -2 -11   46.25    1.27
  -1   2  11   46.67    1.28
  -1   2  11   46.01    1.20
   0  -2 -11    8.24    0.47
   0   2  11    8.86    0.45
   0   2  11    8.39    0.46
  -1  -2 -11    0.35    0.14
   1   2  11    0.59    0.16
  -2  -2 -11   29.70    1.03
   2   2  11   31.84    1.05
  -3  -2 -11   29.80    1.05
   3   2  11   28.45    1.04
   5  -3 -11    0.22    0.12
   5  -3 -11    0.20    0.13
  -5   3  11   -0.04    0.13
   4  -3 -11   11.88    0.59
  -4   3  11   11.57    0.69
   3  -3 -11   23.53    0.86
  -3   3  11   22.56    0.94
   2  -3 -11   12.32    0.61
  -2   3  11   13.96    0.67
   1  -3 -11    0.84    0.20
  -1   3  11    0.94    0.19
  -1   3  11    1.00    0.21
   0  -3 -11   85.10    2.03
   0   3  11   87.03    1.96
   0   3  11   83.05    1.95
  -1  -3 -11   37.23    1.19
   1   3  11   38.17    1.16
  -2  -3 -11    8.67    0.54
   2   3  11    8.99    0.54
  -3  -3 -11    0.62    0.21
   3   3  11    0.74    0.22
   4  -4 -11    7.67    0.51
  -4   4  11    8.39    0.60
   3  -4 -11    3.43    0.41
  -3   4  11    2.75    0.39
   2  -4 -11   38.23    1.21
  -2   4  11   36.91    1.24
   1  -4 -11   27.12    1.00
  -1   4  11   26.12    0.87
  -1   4  11   25.57    0.96
   0  -4 -11    0.17    0.13
   0   4  11    0.16    0.11
   0   4  11    0.47    0.15
  -1  -4 -11   13.02    0.69
   1   4  11   13.45    0.65
   2   4  11   29.25    1.06
   1  -5 -11    9.42    0.59
  -1   5  11    9.33    0.59
   0   9 -12   34.75    1.18
   0  -9  12   33.58    1.21
  -1   9 -12   23.16    0.94
   1  -9  12   21.04    0.93
   2   8 -12   17.81    0.79
  -2  -8  12   15.24    0.76
  -2  -8  12   16.02    0.71
   1   8 -12   37.29    1.20
  -1  -8  12   35.58    1.21
   0   8 -12    1.99    0.32
   0  -8  12    2.16    0.34
  -1   8 -12   14.98    0.73
   1  -8  12   15.35    0.75
  -2   8 -12   38.20    1.26
   2  -8  12   37.18    1.25
  -3   8 -12   12.86    0.71
   3  -8  12   12.20    0.67
   3   7 -12    9.73    0.60
  -3  -7  12    9.41    0.56
  -3  -7  12    9.52    0.57
   2   7 -12    1.23    0.26
  -2  -7  12    0.93    0.22
  -2  -7  12    1.18    0.22
   1   7 -12   35.94    1.15
  -1  -7  12   34.48    1.15
   0   7 -12   72.85    1.81
   0  -7  12   68.46    1.81
  -1   7 -12    7.78    0.50
   1  -7  12    8.38    0.53
  -2   7 -12    9.97    0.59
   2  -7  12   10.14    0.59
  -3   7 -12   30.70    1.11
   3  -7  12   29.61    1.08
   4   6 -12    0.58    0.21
  -4  -6  12    0.29    0.16
  -4  -6  12    0.21    0.13
   3   6 -12   13.41    0.69
  -3  -6  12   12.51    0.63
  -3  -6  12   13.65    0.66
   2   6 -12   25.66    0.95
  -2  -6  12   25.38    0.92
  -2  -6  12   25.21    0.87
   1   6 -12    8.06    0.50
  -1  -6  12    8.88    0.52
  -1  -6  12    8.38    0.63
   0   6 -12    9.42    0.53
   0  -6  12    9.22    0.54
  -1   6 -12   55.09    1.49
   1  -6  12   53.37    1.50
  -2   6 -12   39.55    1.22
   2  -6  12   37.46    1.22
  -3   6 -12    0.09    0.11
  -3   6 -12    0.21    0.12
   3  -6  12    0.35    0.16
  -4   6 -12    8.13    0.50
   4  -6  12    8.25    0.54
   4  -6  12    8.02    0.53
   5   5 -12   28.37    1.09
  -5  -5  12   26.99    1.12
  -5  -5  12   27.74    0.95
   4   5 -12   24.96    0.97
  -4  -5  12   24.47    0.87
  -4  -5  12   22.49    0.94
   3   5 -12    2.29    0.35
  -3  -5  12    3.02    0.36
  -3  -5  12    1.50    0.26
   2   5 -12   20.40    0.82
  -2  -5  12   20.66    0.78
  -2  -5  12   19.95    0.74
   1   5 -12   87.08    2.07
  -1  -5  12   90.23    2.10
  -1  -5  12   92.37    2.08
   0   5 -12   37.12    1.13
   0  -5  12   36.77    1.14
  -1   5 -12    1.07    0.22
   1  -5  12    0.59    0.18
  -2   5 -12   32.05    1.05
  -2   5 -12   32.27    0.92
   2  -5  12   32.68    1.10
  -3   5 -12   57.75    1.56
  -3   5 -12   57.11    1.44
   3  -5  12   55.40    1.59
  -4   5 -12   14.65    0.67
   4  -5  12   13.72    0.68
   4  -5  12   15.71    0.76
   5   4 -12    1.77    0.32
  -5  -4  12    1.92    0.35
   4   4 -12   13.45    0.69
  -4  -4  12   12.86    0.58
  -4  -4  12   13.68    0.71
   3   4 -12   30.60    1.05
  -3  -4  12   30.87    0.96
  -3  -4  12   30.70    1.03
   2   4 -12   20.83    0.81
  -2  -4  12   20.80    0.75
  -2  -4  12   20.81    0.77
   1   4 -12    4.77    0.36
  -1  -4  12    4.39    0.32
  -1  -4  12    4.94    0.37
   0   4 -12   32.68    1.03
   0  -4  12   34.02    1.05
  -1   4 -12   76.02    1.59
  -1   4 -12   71.16    1.75
   1  -4  12   74.84    1.83
  -2   4 -12   10.63    0.55
  -2   4 -12   11.29    0.50
   2  -4  12   11.24    0.59
  -3   4 -12    2.29    0.29
  -3   4 -12    2.79    0.35
   3  -4  12    2.68    0.38
  -4   4 -12   26.87    0.95
   4  -4  12   26.34    0.96
   4  -4  12   27.72    1.04
   5   3 -12   47.39    1.48
  -5  -3  12   49.64    1.57
   4   3 -12   17.06    0.78
  -4  -3  12   15.93    0.77
  -4  -3  12   16.57    0.65
   3   3 -12    2.87    0.37
  -3  -3  12    3.00    0.38
  -3  -3  12    3.54    0.29
   2   3 -12   66.64    1.66
  -2  -3  12   64.76    1.60
  -2  -3  12   66.35    1.58
   1   3 -12  113.75    2.43
  -1  -3  12  112.47    2.28
  -1  -3  12  114.43    2.40
   0   3 -12    4.88    0.30
   0   3 -12    4.85    0.36
   0  -3  12    4.59    0.36
  -1   3 -12   16.02    0.58
  -1   3 -12   15.90    0.65
   1  -3  12   15.54    0.68
  -2   3 -12   29.26    0.96
  -2   3 -12   30.32    0.91
   2  -3  12   31.25    1.04
  -3   3 -12   68.92    1.69
  -3   3 -12   66.87    1.65
   3  -3  12   66.33    1.75
  -4   3 -12    0.25    0.14
   4  -3  12    0.30    0.15
   4  -3  12    0.16    0.10
   5  -3  12   18.37    0.85
   5   2 -12    2.74    0.39
  -5  -2  12    2.37    0.39
   4   2 -12   16.11    0.75
  -4  -2  12   17.04    0.79
   3   2 -12   59.37    1.58
  -3  -2  12   58.55    1.59
  -3  -2  12   60.67    1.42
   2   2 -12    0.29    0.12
  -2  -2  12    0.17    0.11
  -2  -2  12    0.05    0.09
   1   2 -12   22.88    0.81
  -1  -2  12   21.88    0.79
  -1  -2  12   23.45    0.75
   0   2 -12   80.14    1.82
   0   2 -12   78.69    1.69
   0  -2  12   80.17    1.85
  -1   2 -12   57.53    1.37
  -1   2 -12   57.13    1.43
   1  -2  12   58.58    1.50
  -2   2 -12    3.33    0.29
  -2   2 -12    3.85    0.31
   2  -2  12    3.76    0.34
  -3   2 -12    7.74    0.46
  -3   2 -12    6.90    0.43
   3  -2  12    7.84    0.50
  -4   2 -12   32.38    1.08
   4  -2  12   31.73    1.12
   5   1 -12   32.24    1.14
  -5  -1  12   31.07    1.18
   4   1 -12    0.37    0.16
  -4  -1  12    0.25    0.14
   3   1 -12    9.93    0.54
  -3  -1  12   10.50    0.47
  -3  -1  12   10.08    0.57
   2   1 -12  120.48    2.55
  -2  -1  12  124.30    2.47
  -2  -1  12  118.16    2.57
   1   1 -12   54.65    1.29
   1   1 -12   54.97    1.39
  -1  -1  12   54.98    1.37
  -1  -1  12   55.14    1.39
   0   1 -12    5.95    0.35
   0   1 -12    5.65    0.36
   0  -1  12    5.45    0.38
  -1   1 -12   28.38    0.88
  -1   1 -12   29.14    0.89
   1  -1  12   29.24    0.95
  -2   1 -12   56.62    1.43
  -2   1 -12   55.13    1.38
   2  -1  12   55.25    1.49
  -3   1 -12   14.91    0.68
  -3   1 -12   15.42    0.64
   3  -1  12   15.92    0.72
  -4   1 -12   10.45    0.54
  -4   1 -12   10.84    0.60
   4  -1  12   10.21    0.60
   5   0 -12   16.51    0.78
  -5   0  12   14.64    0.79
   4   0 -12   31.12    1.07
  -4   0  12   30.39    1.12
   3   0 -12   11.73    0.59
  -3   0  12   12.18    0.64
   2   0 -12    9.60    0.51
   2   0 -12   10.26    0.47
  -2   0  12   10.23    0.55
  -2   0  12    9.77    0.47
   1   0 -12   46.44    1.23
   1   0 -12   47.28    1.21
  -1   0  12   46.34    1.23
  -1   0  12   46.34    1.25
   0   0 -12   92.34    2.01
   0   0 -12   93.13    1.99
   0   0  12   93.39    2.07
  -1   0 -12    7.00    0.39
  -1   0 -12    7.88    0.44
   1   0  12    6.91    0.44
  -2   0 -12    8.97    0.48
  -2   0 -12    9.14    0.50
   2   0  12    8.50    0.51
  -3   0 -12   32.38    1.07
   3   0  12   31.11    1.09
  -4   0 -12   12.55    0.67
   4   0  12   13.06    0.70
   5  -1 -12    7.70    0.53
  -5   1  12    7.65    0.57
   4  -1 -12    3.83    0.35
  -4   1  12    3.21    0.44
   3  -1 -12   51.13    1.40
   3  -1 -12   51.82    1.32
  -3   1  12   51.20    1.49
   2  -1 -12   62.44    1.54
   2  -1 -12   61.47    1.51
  -2   1  12   63.70    1.48
  -2   1  12   60.59    1.61
   1  -1 -12    7.92    0.43
   1  -1 -12    7.41    0.44
  -1   1  12    7.70    0.43
  -1   1  12    8.29    0.47
   0  -1 -12   23.48    0.83
   0   1  12   23.86    0.83
  -1  -1 -12   38.48    1.15
   1   1  12   37.32    1.15
  -2  -1 -12   36.06    1.14
   2   1  12   36.35    1.16
  -3  -1 -12    0.27    0.15
   3   1  12    0.06    0.10
   4  -2 -12   27.55    0.99
   4  -2 -12   27.05    0.92
  -4   2  12   26.29    1.07
   3  -2 -12    1.64    0.32
   3  -2 -12    1.80    0.27
  -3   2  12    1.56    0.29
   2  -2 -12   30.34    0.97
  -2   2  12   25.84    1.05
  -2   2  12   27.73    1.00
   1  -2 -12   55.67    1.48
  -1   2  12   55.93    1.41
  -1   2  12   56.29    1.50
   0  -2 -12   34.04    1.08
   0   2  12   32.36    1.04
  -1  -2 -12    0.45    0.17
   1   2  12   -0.05    0.08
  -2  -2 -12   20.99    0.86
   2   2  12   21.49    0.87
  -3  -2 -12   19.51    0.86
   3   2  12   19.57    0.86
   4  -3 -12   11.93    0.62
  -4   3  12   10.93    0.69
   3  -3 -12   63.37    1.65
  -3   3  12   60.54    1.74
   2  -3 -12   20.56    0.84
  -2   3  12   20.76    0.88
   1  -3 -12    9.63    0.56
  -1   3  12    9.12    0.49
  -1   3  12    8.65    0.53
   0  -3 -12   21.83    0.88
   0   3  12   21.74    0.82
  -1  -3 -12   29.75    1.07
   1   3  12   30.43    1.04
  -2  -3 -12   10.28    0.62
   2   3  12   11.00    0.62
   2  -4 -12   32.48    1.14
  -2   4  12   32.23    1.17
   1  -4 -12   50.43    1.49
  -1   4  12   48.49    1.46
   0  -4 -12    0.76    0.23
   0   4  12    0.85    0.22
   1   8 -13   13.74    0.71
  -1  -8  13   14.83    0.75
   0   8 -13    0.13    0.13
   0  -8  13    0.31    0.16
  -1   8 -13   12.88    0.70
   1  -8  13   14.92    0.76
   2  -8  13   35.87    1.27
   3   7 -13    9.43    0.60
  -3  -7  13    9.18    0.56
  -3  -7  13    8.50    0.55
   2   7 -13    0.37    0.17
  -2  -7  13    0.61    0.18
  -2  -7  13    0.39    0.17
   1   7 -13   45.44    1.37
  -1  -7  13   45.46    1.39
   0   7 -13   28.25    1.03
   0  -7  13   30.06    1.09
  -1   7 -13   10.08    0.59
   1  -7  13    9.83    0.60
  -2   7 -13    1.73    0.31
   2  -7  13    2.38    0.36
  -3   7 -13   22.68    0.96
   3  -7  13   22.82    0.97
   4   6 -13    0.25    0.16
  -4  -6  13    0.35    0.15
  -4  -6  13    0.38    0.17
   3   6 -13   32.97    1.17
  -3  -6  13   32.43    1.11
  -3  -6  13   32.87    1.10
   2   6 -13   30.83    1.10
  -2  -6  13   33.01    1.09
  -2  -6  13   30.35    0.99
   1   6 -13    7.31    0.49
  -1  -6  13    7.04    0.49
   0   6 -13    9.88    0.56
   0  -6  13    9.14    0.55
  -1   6 -13   59.01    1.61
   1  -6  13   58.63    1.63
  -2   6 -13   28.01    1.04
   2  -6  13   30.42    1.09
  -3   6 -13    3.19    0.41
   3  -6  13    2.91    0.40
   4   5 -13    5.78    0.48
  -4  -5  13    5.32    0.41
  -4  -5  13    6.06    0.48
   3   5 -13    5.78    0.46
  -3  -5  13    5.71    0.43
  -3  -5  13    5.04    0.40
   2   5 -13   16.53    0.75
  -2  -5  13   15.90    0.66
  -2  -5  13   15.07    0.69
   1   5 -13   44.47    1.31
  -1  -5  13   43.81    1.29
   0   5 -13   35.64    1.13
   0  -5  13   35.57    1.15
  -1   5 -13    0.10    0.10
   1  -5  13    0.07    0.10
  -2   5 -13   26.18    0.97
   2  -5  13   23.92    0.96
  -3   5 -13   39.44    1.16
  -3   5 -13   41.72    1.30
   3  -5  13   39.41    1.32
  -4   5 -13   12.75    0.63
  -4   5 -13   12.09    0.68
   4  -5  13   10.88    0.66
   4   4 -13   13.32    0.72
  -4  -4  13   14.49    0.64
  -4  -4  13   12.69    0.70
   3   4 -13   47.42    1.42
  -3  -4  13   46.13    1.36
  -3  -4  13   47.49    1.31
   2   4 -13   24.10    0.91
  -2  -4  13   24.24    0.87
  -2  -4  13   24.56    0.85
   1   4 -13    1.34    0.24
  -1  -4  13    1.84    0.28
   0   4 -13   23.68    0.87
   0  -4  13   24.41    0.89
  -1   4 -13   74.11    1.82
   1  -4  13   74.53    1.88
  -2   4 -13   24.77    0.91
  -2   4 -13   25.65    0.82
   2  -4  13   24.33    0.95
  -3   4 -13    9.49    0.56
  -3   4 -13    9.95    0.53
   3  -4  13   10.19    0.61
  -4   4 -13   39.70    1.23
  -4   4 -13   39.76    1.28
   4  -4  13   40.45    1.34
   5   3 -13   21.95    0.96
  -5  -3  13   22.67    1.02
   4   3 -13    6.29    0.49
  -4  -3  13    5.74    0.39
  -4  -3  13    5.84    0.47
   3   3 -13    5.31    0.43
  -3  -3  13    5.24    0.42
  -3  -3  13    5.06    0.37
   2   3 -13   38.24    1.18
  -2  -3  13   36.60    1.10
  -2  -3  13   36.50    1.10
   1   3 -13   54.75    1.46
  -1  -3  13   52.75    1.41
   0   3 -13    6.87    0.44
   0  -3  13    8.00    0.48
  -1   3 -13   10.58    0.48
  -1   3 -13   11.13    0.56
   1  -3  13   10.77    0.58
  -2   3 -13   35.18    1.04
  -2   3 -13   34.80    1.10
   2  -3  13   37.10    1.18
  -3   3 -13   50.55    1.40
  -3   3 -13   52.95    1.45
   3  -3  13   52.88    1.53
  -4   3 -13    0.71    0.22
  -4   3 -13    0.99    0.23
   4  -3  13    0.56    0.19
   5   2 -13    1.02    0.26
  -5  -2  13    0.98    0.26
   4   2 -13   33.40    1.16
  -4  -2  13   33.65    1.19
   3   2 -13   60.83    1.65
  -3  -2  13   62.24    1.50
  -3  -2  13   60.02    1.64
   2   2 -13    0.62    0.18
  -2  -2  13    0.95    0.20
  -2  -2  13    0.82    0.19
   1   2 -13   11.86    0.58
  -1  -2  13   13.11    0.60
   0   2 -13   56.02    1.32
   0   2 -13   55.50    1.44
   0  -2  13   54.39    1.46
  -1   2 -13   40.86    1.11
  -1   2 -13   40.90    1.17
   1  -2  13   41.06    1.23
  -2   2 -13    1.88    0.27
  -2   2 -13    2.22    0.30
   2  -2  13    1.78    0.28
  -3   2 -13   26.30    0.93
  -3   2 -13   27.85    0.97
   3  -2  13   25.68    0.99
  -4   2 -13   50.01    1.41
  -4   2 -13   48.72    1.44
   4  -2  13   47.17    1.48
   5   1 -13   10.05    0.63
  -5  -1  13   10.85    0.68
   4   1 -13    3.07    0.40
  -4  -1  13    2.65    0.38
   3   1 -13   34.61    1.13
  -3  -1  13   34.15    0.99
  -3  -1  13   33.78    1.15
   2   1 -13   58.61    1.54
  -2  -1  13   59.65    1.56
  -2  -1  13   57.67    1.46
   1   1 -13   23.95    0.78
   1   1 -13   25.58    0.86
  -1  -1  13   24.35    0.85
   0   1 -13    1.31    0.22
   0   1 -13    1.52    0.23
   0  -1  13    2.16    0.31
  -1   1 -13   32.93    0.99
  -1   1 -13   30.92    0.97
   1  -1  13   33.18    1.07
  -2   1 -13   47.68    1.28
  -2   1 -13   48.60    1.33
   2  -1  13   46.56    1.38
  -3   1 -13    4.70    0.36
  -3   1 -13    4.84    0.39
   3  -1  13    4.37    0.39
   4   0 -13   38.23    1.25
  -4   0  13   39.52    1.33
   3   0 -13   25.21    0.92
  -3   0  13   23.68    0.95
   2   0 -13    1.02    0.20
   2   0 -13    1.04    0.21
  -2   0  13    1.09    0.21
  -2   0  13    1.17    0.25
   1   0 -13   51.65    1.34
   1   0 -13   51.88    1.37
  -1   0  13   50.86    1.35
   0   0 -13   44.49    1.21
   0   0 -13   42.61    1.17
   0   0  13   41.51    1.22
  -1   0 -13   11.03    0.55
   1   0  13   11.00    0.58
  -2   0 -13    5.45    0.41
   2   0  13    6.14    0.45
  -3   0 -13   39.45    1.26
   3   0  13   41.46    1.32
   4  -1 -13    6.74    0.48
  -4   1  13    6.74    0.54
   3  -1 -13   42.77    1.27
  -3   1  13   42.16    1.35
   2  -1 -13   41.92    1.20
   2  -1 -13   39.75    1.17
  -2   1  13   40.41    1.26
  -2   1  13   41.52    1.14
   1  -1 -13    3.64    0.33
  -1   1  13    3.71    0.32
   0  -1 -13   14.98    0.67
   0   1  13   15.06    0.67
  -1  -1 -13   46.52    1.36
   1   1  13   50.80    1.41
  -2  -1 -13   23.18    0.91
   2   1  13   23.68    0.94
   3  -2 -13    0.29    0.14
  -3   2  13   -0.01    0.11
   2  -2 -13    7.27    0.47
  -2   2  13    5.81    0.45
   1  -2 -13   47.40    1.36
  -1   2  13   45.11    1.27
   0  -2 -13   23.28    0.90
   0   2  13   23.83    0.88
  -1  -2 -13    0.47    0.18
   1   2  13    0.31    0.15
   2  -3 -13   10.78    0.61
  -2   3  13   10.02    0.62
   1  -3 -13    3.70    0.44
  -1   3  13    2.36    0.31
   0   3  13   10.31    0.57
   2   7 -14    0.58    0.20
  -2  -7  14    0.60    0.19
   1   7 -14   25.87    1.01
  -1  -7  14   24.97    1.00
   0   7 -14   17.27    0.80
   0  -7  14   15.24    0.78
  -1   7 -14    6.32    0.48
   1  -7  14    7.95    0.56
   3   6 -14   23.32    0.98
  -3  -6  14   22.48    0.90
  -3  -6  14   21.03    0.88
   2   6 -14   18.49    0.85
  -2  -6  14   19.90    0.84
   1   6 -14    6.79    0.50
  -1  -6  14    7.55    0.51
   0   6 -14    2.55    0.38
   0  -6  14    2.31    0.35
  -1   6 -14   24.52    0.97
   1  -6  14   24.61    0.99
  -2   6 -14   16.87    0.80
   2  -6  14   17.73    0.84
   3   5 -14    2.23    0.36
  -3  -5  14    1.98    0.30
  -3  -5  14    1.75    0.30
   2   5 -14   17.98    0.81
  -2  -5  14   16.32    0.74
   1   5 -14   31.84    1.11
  -1  -5  14   32.79    1.10
   0   5 -14   30.96    1.08
   0  -5  14   31.81    1.10
  -1   5 -14    0.50    0.18
   1  -5  14    0.66    0.20
  -2   5 -14   17.96    0.81
   2  -5  14   17.30    0.82
  -3   5 -14   35.12    1.20
  -3   5 -14   32.34    1.31
   3  -5  14   33.34    1.23
   4   4 -14    7.05    0.54
  -4  -4  14    7.44    0.54
  -4  -4  14    7.57    0.47
   3   4 -14   25.98    1.03
  -3  -4  14   26.20    0.98
  -3  -4  14   29.05    0.97
   2   4 -14   14.19    0.71
  -2  -4  14   15.09    0.68
   1   4 -14    0.59    0.18
  -1  -4  14    0.34    0.15
   0   4 -14   20.97    0.84
   0  -4  14   20.09    0.83
  -1   4 -14   39.43    1.22
   1  -4  14   37.77    1.25
  -2   4 -14    8.19    0.52
  -2   4 -14    7.52    0.65
   2  -4  14    8.26    0.56
  -3   4 -14    8.89    0.56
  -3   4 -14    8.79    0.51
   3  -4  14    8.81    0.59
   4   3 -14   10.95    0.66
  -4  -3  14   11.07    0.67
   3   3 -14    3.61    0.43
  -3  -3  14    3.73    0.37
  -3  -3  14    3.54    0.32
   2   3 -14   30.52    1.07
  -2  -3  14   28.91    0.98
   1   3 -14   42.75    1.29
  -1  -3  14   42.98    1.26
   0   3 -14   11.54    0.60
   0  -3  14   12.27    0.62
  -1   3 -14    5.42    0.40
   1  -3  14    5.75    0.44
  -2   3 -14   47.09    1.36
  -2   3 -14   46.75    1.28
   2  -3  14   46.80    1.43
  -3   3 -14   25.42    0.95
  -3   3 -14   23.25    0.89
   3  -3  14   23.96    0.99
   4   2 -14   35.64    1.24
  -4  -2  14   36.45    1.27
   3   2 -14   10.76    0.62
  -3  -2  14   10.92    0.54
  -3  -2  14   10.61    0.61
   2   2 -14    6.89    0.47
  -2  -2  14    6.61    0.43
   1   2 -14    7.26    0.46
  -1  -2  14    7.41    0.47
   0   2 -14   37.01    1.14
   0  -2  14   38.92    1.19
  -1   2 -14   21.85    0.78
  -1   2 -14   23.29    0.85
   1  -2  14   22.84    0.90
  -2   2 -14    0.10    0.10
  -2   2 -14    0.23    0.13
   2  -2  14    0.43    0.16
  -3   2 -14   22.38    0.87
  -3   2 -14   24.66    0.92
   4   1 -14    2.69    0.39
  -4  -1  14    3.87    0.47
   3   1 -14   34.03    1.16
  -3  -1  14   34.66    1.17
   2   1 -14   34.17    1.12
  -2  -1  14   34.03    1.05
   1   1 -14   20.81    0.80
  -1  -1  14   20.00    0.79
   0   1 -14    0.96    0.19
   0   1 -14    0.78    0.19
   0  -1  14    0.78    0.20
  -1   1 -14   25.72    0.90
  -1   1 -14   25.82    0.89
   1  -1  14   27.38    0.99
  -2   1 -14   35.97    1.15
  -2   1 -14   36.01    1.14
   2  -1  14   36.93    1.22
   3   0 -14   10.24    0.58
  -3   0  14    9.34    0.59
   2   0 -14    0.58    0.17
  -2   0  14    0.65    0.18
   1   0 -14   31.64    1.02
   1   0 -14   31.13    1.00
  -1   0  14   31.06    1.02
   0   0 -14   25.71    0.90
   0   0  14   25.95    0.94
  -1   0 -14    6.45    0.44
   1   0  14    8.73    0.53
  -2   0 -14   10.68    0.59
   2   0  14   10.92    0.62
   3  -1 -14   25.87    1.08
  -3   1  14   28.11    1.07
   2  -1 -14   41.21    1.22
   1  -1 -14    2.18    0.32
  -1   1  14    1.96    0.30
   0  -1 -14    7.17    0.47
   0   1  14    6.18    0.44
  -1  -1 -14   28.88    1.04
   1   1  14   29.98    1.06
  -1  -6  15    2.38    0.38
   0   6 -15   10.97    0.64
   0  -6  15   10.63    0.64
  -1   6 -15   36.59    1.25
   1  -6  15   34.33    1.24
   2   5 -15    7.71    0.54
  -2  -5  15    7.46    0.51
   1   5 -15   30.05    1.11
  -1  -5  15   30.67    1.08
   0   5 -15    6.57    0.49
   0  -5  15    6.50    0.49
  -1   5 -15    0.68    0.21
   1  -5  15    1.09    0.26
   3   4 -15   28.46    1.12
  -3  -4  15   29.60    1.03
   2   4 -15    9.17    0.59
  -2  -4  15    9.37    0.55
   1   4 -15    0.38    0.17
  -1  -4  15    0.26    0.13
   0   4 -15   45.25    1.38
   0  -4  15   44.81    1.38
  -1   4 -15   33.54    1.15
   1  -4  15   35.36    1.21
  -2   4 -15    2.70    0.37
   3   3 -15    0.41    0.18
  -3  -3  15    0.19    0.13
   2   3 -15   34.86    1.19
  -2  -3  15   32.18    1.08
   1   3 -15   19.24    0.83
  -1  -3  15   18.33    0.79
   0   3 -15    0.75    0.21
   0  -3  15    0.36    0.17
  -1   3 -15   11.21    0.61
   1  -3  15   10.86    0.63
  -2   3 -15   32.71    1.13
  -2   3 -15   32.98    1.06
   2  -3  15   35.18    1.22
   3   2 -15    8.09    0.56
  -3  -2  15    8.11    0.53
   2   2 -15    9.62    0.58
  -2  -2  15    9.74    0.54
   1   2 -15   17.46    0.76
  -1  -2  15   17.57    0.76
   0   2 -15   48.65    1.39
   0  -2  15   48.42    1.42
  -1   2 -15   15.67    0.71
  -1   2 -15   16.66    0.73
   1  -2  15   17.37    0.80
   2   1 -15   25.55    0.97
  -2  -1  15   24.54    0.89
   1   1 -15    5.62    0.43
  -1  -1  15    5.90    0.43
   0   1 -15    1.62    0.27
   0  -1  15    1.53    0.28
  -1   1 -15   31.75    1.04
   1  -1  15   32.05    1.13
  -2   0  15    1.20    0.26
  -1   0  15   23.38    0.89
   0   0 -15   31.37    1.05
   0   0  15   32.86    1.11
   0   0   0    0.00    0.00
;
_shelx_hkl_checksum              60947
_shelx_res_file
;
    F:\SOLVED~1\EB551-~1\EB5822~1\eb582_pl.res created by SHELXL-2014/7
REM TRMX  1.000  0.000  0.000  0.000  1.000  0.000  0.000  0.000  1.000 aP  1
REM SPGR P-1
TITL eb582 in P1                 New: New: P-1
CELL 0.71073 6.4606 8.2346 12.3451 108.064 94.174 95.366
ZERR 2.0000 0.0008 0.0010 0.0014 0.001 0.002 0.002
LATT 1
SFAC C H I N
UNIT 28 22 2 4
MERG 2
FMAP 2
GRID
PLAN -20
TEMP -173
BOND $H
CONF
L.S. 20
ACTA
WGHT    0.019400    0.332900
FVAR       0.18452
I1    3    0.365048    0.211758   -0.004448    11.00000    0.01853    0.01995 =
         0.01172    0.00460    0.00073    0.00853
N1    4    0.677892    0.277875    0.205123    11.00000    0.01236    0.01181 =
         0.01180    0.00380    0.00185    0.00089
C1    1    0.470651    0.234451    0.163333    11.00000    0.01447    0.01185 =
         0.01203    0.00358    0.00028    0.00313
N2    4    0.347087    0.202317    0.235686    11.00000    0.01294    0.01681 =
         0.01606    0.00689    0.00049    0.00122
C2    1    0.481705    0.226289    0.334799    11.00000    0.01384    0.01297 =
         0.01575    0.00578    0.00156    0.00177
C3    1    0.439358    0.205420    0.439559    11.00000    0.01551    0.02356 =
         0.01823    0.00992    0.00499    0.00178
AFIX  43
H3    2    0.301240    0.172386    0.453075    11.00000   -1.20000
AFIX   0
C4    1    0.607070    0.234876    0.522967    11.00000    0.02290    0.02378 =
         0.01441    0.00975    0.00357    0.00346
AFIX  43
H4    2    0.582840    0.220129    0.594515    11.00000   -1.20000
AFIX   0
C5    1    0.811802    0.285922    0.504556    11.00000    0.01931    0.01786 =
         0.01443    0.00478   -0.00265    0.00253
AFIX  43
H5    2    0.922090    0.305714    0.564111    11.00000   -1.20000
AFIX   0
C6    1    0.856566    0.308092    0.401273    11.00000    0.01334    0.01364 =
         0.01696    0.00378    0.00015    0.00051
AFIX  43
H6    2    0.994260    0.343773    0.388541    11.00000   -1.20000
AFIX   0
C7    1    0.687544    0.274893    0.317485    11.00000    0.01578    0.00986 =
         0.01133    0.00353    0.00253    0.00210
C8    1    0.852485    0.338892    0.153535    11.00000    0.01206    0.01346 =
         0.01475    0.00485    0.00462    0.00164
AFIX  23
H8B   2    0.822267    0.293819    0.069063    11.00000   -1.20000
H8A   2    0.979908    0.292857    0.174945    11.00000   -1.20000
AFIX   0
C9    1    0.894039    0.534321    0.190921    11.00000    0.01303    0.01281 =
         0.01024    0.00511    0.00027    0.00218
C10   1    1.081123    0.609473    0.166853    11.00000    0.01423    0.01645 =
         0.01739    0.00491    0.00512    0.00398
AFIX  43
H10   2    1.178903    0.538349    0.129048    11.00000   -1.20000
AFIX   0
C11   1    1.125029    0.787697    0.197897    11.00000    0.01555    0.01898 =
         0.01936    0.00777    0.00404   -0.00083
AFIX  43
H11   2    1.252313    0.837553    0.181074    11.00000   -1.20000
AFIX   0
C12   1    0.983203    0.892838    0.253413    11.00000    0.01989    0.01295 =
         0.01514    0.00482    0.00109    0.00103
AFIX  43
H12   2    1.012880    1.014411    0.274162    11.00000   -1.20000
AFIX   0
C13   1    0.797218    0.819169    0.278526    11.00000    0.01612    0.01425 =
         0.01504    0.00431    0.00283    0.00452
AFIX  43
H13   2    0.700625    0.890662    0.317289    11.00000   -1.20000
AFIX   0
C14   1    0.752601    0.640124    0.246732    11.00000    0.01225    0.01590 =
         0.01405    0.00631    0.00294    0.00207
AFIX  43
H14   2    0.625000    0.590434    0.263329    11.00000   -1.20000
AFIX   0
HKLF 4
REM  eb582 in P1                 New: New: P-1
REM R1 =  0.0154 for    2725 Fo > 4sig(Fo)  and  0.0159 for all    2777 data
REM    154 parameters refined using      0 restraints
END
WGHT      0.0194      0.3329
REM Highest difference peak  0.735,  deepest hole -0.346,  1-sigma level  0.069
Q1    1   0.2348  0.1963  0.0053  11.00000  0.05    0.73
Q2    1   0.5079  0.2329  0.0029  11.00000  0.05    0.53
Q3    1   0.3505  0.1596 -0.0757  11.00000  0.05    0.51
Q4    1   0.3886  0.2675  0.0802  11.00000  0.05    0.49
Q5    1   0.5910  0.2638  0.3353  11.00000  0.05    0.39
Q6    1   0.7658  0.2935  0.3632  11.00000  0.05    0.39
Q7    1   0.9664  0.5827  0.1633  11.00000  0.05    0.35
Q8    1   0.8739  0.4433  0.1704  11.00000  0.05    0.35
Q9    1   1.1039  0.6967  0.1939  11.00000  0.05    0.34
Q10   1   0.7772  0.7278  0.2528  11.00000  0.05    0.34
Q11   1   0.8280  0.5937  0.2173  11.00000  0.05    0.33
Q12   1   1.0030  0.5719  0.1943  11.00000  0.05    0.33
Q13   1   0.3976  0.3039 -0.0030  11.00000  0.05    0.32
Q14   1   0.8290  0.2847  0.4405  11.00000  0.05    0.32
Q15   1   0.4131  0.2208  0.2926  11.00000  0.05    0.32
Q16   1   1.0355  0.8297  0.2197  11.00000  0.05    0.30
Q17   1   0.6912  0.2798  0.2646  11.00000  0.05    0.30
Q18   1   0.4682  0.1875  0.3752  11.00000  0.05    0.30
Q19   1   0.6998  0.2563  0.5030  11.00000  0.05    0.30
Q20   1   0.8944  0.8493  0.2622  11.00000  0.05    0.29
;
_shelx_res_checksum              7652
loop_
_space_group_symop_operation_xyz
'x, y, z'
'-x, -y, -z'
loop_
_atom_site_type_symbol
_atom_site_label
_atom_site_fract_x
_atom_site_fract_y
_atom_site_fract_z
_atom_site_U_iso_or_equiv
_atom_site_adp_type
_atom_site_calc_flag
_atom_site_occupancy
I I1 0.36505(2) 0.21176(2) -0.00445(2) 0.01647(5) Uani d 1
N N1 0.6779(2) 0.27787(17) 0.20512(12) 0.0120(3) Uani d 1
C C1 0.4707(3) 0.2345(2) 0.16333(14) 0.0128(3) Uani d 1
N N2 0.3471(2) 0.20232(18) 0.23569(12) 0.0150(3) Uani d 1
C C2 0.4817(3) 0.2263(2) 0.33480(14) 0.0139(3) Uani d 1
C C3 0.4394(3) 0.2054(2) 0.43956(15) 0.0182(3) Uani d 1
H H3 0.3012 0.1724 0.4531 0.022 Uiso calc 1
C C4 0.6071(3) 0.2349(2) 0.52297(15) 0.0194(4) Uani d 1
H H4 0.5828 0.2201 0.5945 0.023 Uiso calc 1
C C5 0.8118(3) 0.2859(2) 0.50456(15) 0.0175(3) Uani d 1
H H5 0.9221 0.3057 0.5641 0.021 Uiso calc 1
C C6 0.8566(3) 0.3081(2) 0.40127(15) 0.0151(3) Uani d 1
H H6 0.9943 0.3438 0.3885 0.018 Uiso calc 1
C C7 0.6875(3) 0.2749(2) 0.31748(14) 0.0122(3) Uani d 1
C C8 0.8525(3) 0.3389(2) 0.15353(14) 0.0132(3) Uani d 1
H H8B 0.8223 0.2938 0.0691 0.016 Uiso calc 1
H H8A 0.9799 0.2929 0.1749 0.016 Uiso calc 1
C C9 0.8940(3) 0.5343(2) 0.19092(13) 0.0117(3) Uani d 1
C C10 1.0811(3) 0.6095(2) 0.16685(15) 0.0158(3) Uani d 1
H H10 1.1789 0.5383 0.1290 0.019 Uiso calc 1
C C11 1.1250(3) 0.7877(2) 0.19790(15) 0.0177(3) Uani d 1
H H11 1.2523 0.8376 0.1811 0.021 Uiso calc 1
C C12 0.9832(3) 0.8928(2) 0.25341(15) 0.0160(3) Uani d 1
H H12 1.0129 1.0144 0.2742 0.019 Uiso calc 1
C C13 0.7972(3) 0.8192(2) 0.27853(14) 0.0150(3) Uani d 1
H H13 0.7006 0.8907 0.3173 0.018 Uiso calc 1
C C14 0.7526(3) 0.6401(2) 0.24673(14) 0.0136(3) Uani d 1
H H14 0.6250 0.5904 0.2633 0.016 Uiso calc 1
loop_
_atom_site_aniso_label
_atom_site_aniso_U_11
_atom_site_aniso_U_22
_atom_site_aniso_U_33
_atom_site_aniso_U_12
_atom_site_aniso_U_13
_atom_site_aniso_U_23
I1 0.01853(7) 0.01995(7) 0.01172(6) 0.00853(4) 0.00073(4) 0.00460(4)
N1 0.0124(6) 0.0118(6) 0.0118(6) 0.0009(5) 0.0018(5) 0.0038(5)
C1 0.0145(8) 0.0118(7) 0.0120(7) 0.0031(6) 0.0003(6) 0.0036(6)
N2 0.0129(7) 0.0168(7) 0.0161(7) 0.0012(5) 0.0005(5) 0.0069(6)
C2 0.0138(8) 0.0130(7) 0.0157(8) 0.0018(6) 0.0016(6) 0.0058(6)
C3 0.0155(8) 0.0236(9) 0.0182(8) 0.0018(7) 0.0050(7) 0.0099(7)
C4 0.0229(9) 0.0238(9) 0.0144(8) 0.0035(7) 0.0036(7) 0.0098(7)
C5 0.0193(9) 0.0179(8) 0.0144(8) 0.0025(7) -0.0026(7) 0.0048(6)
C6 0.0133(8) 0.0136(7) 0.0170(8) 0.0005(6) 0.0001(6) 0.0038(6)
C7 0.0158(8) 0.0099(7) 0.0113(7) 0.0021(6) 0.0025(6) 0.0035(6)
C8 0.0121(7) 0.0135(7) 0.0148(8) 0.0016(6) 0.0046(6) 0.0049(6)
C9 0.0130(7) 0.0128(7) 0.0102(7) 0.0022(6) 0.0003(6) 0.0051(6)
C10 0.0142(8) 0.0165(8) 0.0174(8) 0.0040(6) 0.0051(6) 0.0049(6)
C11 0.0155(8) 0.0190(8) 0.0194(8) -0.0008(6) 0.0040(7) 0.0078(7)
C12 0.0199(8) 0.0129(7) 0.0151(8) 0.0010(6) 0.0011(6) 0.0048(6)
C13 0.0161(8) 0.0142(8) 0.0150(8) 0.0045(6) 0.0028(6) 0.0043(6)
C14 0.0122(7) 0.0159(8) 0.0141(8) 0.0021(6) 0.0029(6) 0.0063(6)
loop_
_atom_type_symbol
_atom_type_description
_atom_type_scat_dispersion_real
_atom_type_scat_dispersion_imag
_atom_type_scat_source
C C 0.0033 0.0016 'International Tables Vol C Tables 4.2.6.8 and 6.1.1.4'
H H 0.0000 0.0000 'International Tables Vol C Tables 4.2.6.8 and 6.1.1.4'
I I -0.4742 1.8119 'International Tables Vol C Tables 4.2.6.8 and 6.1.1.4'
N N 0.0061 0.0033 'International Tables Vol C Tables 4.2.6.8 and 6.1.1.4'
loop_
_geom_angle_atom_site_label_1
_geom_angle_atom_site_label_2
_geom_angle_atom_site_label_3
_geom_angle
C1 N1 C7 105.30(13)
C1 N1 C8 129.42(14)
C7 N1 C8 124.77(14)
N2 C1 N1 114.90(14)
N2 C1 I1 122.95(12)
N1 C1 I1 122.10(12)
C1 N2 C2 103.99(14)
N2 C2 C3 130.02(16)
N2 C2 C7 110.06(14)
C3 C2 C7 119.90(16)
C4 C3 C2 117.39(16)
C4 C3 H3 121.3
C2 C3 H3 121.3
C3 C4 C5 121.86(16)
C3 C4 H4 119.1
C5 C4 H4 119.1
C6 C5 C4 121.53(16)
C6 C5 H5 119.2
C4 C5 H5 119.2
C5 C6 C7 116.04(16)
C5 C6 H6 122.0
C7 C6 H6 122.0
N1 C7 C6 131.00(15)
N1 C7 C2 105.74(14)
C6 C7 C2 123.26(15)
N1 C8 C9 112.67(13)
N1 C8 H8B 109.1
C9 C8 H8B 109.1
N1 C8 H8A 109.1
C9 C8 H8A 109.1
H8B C8 H8A 107.8
C14 C9 C10 119.12(15)
C14 C9 C8 122.54(14)
C10 C9 C8 118.33(14)
C11 C10 C9 120.50(16)
C11 C10 H10 119.8
C9 C10 H10 119.8
C12 C11 C10 120.19(16)
C12 C11 H11 119.9
C10 C11 H11 119.9
C11 C12 C13 119.71(15)
C11 C12 H12 120.1
C13 C12 H12 120.1
C12 C13 C14 120.09(16)
C12 C13 H13 120.0
C14 C13 H13 120.0
C9 C14 C13 120.39(15)
C9 C14 H14 119.8
C13 C14 H14 119.8
loop_
_geom_bond_atom_site_label_1
_geom_bond_atom_site_label_2
_geom_bond_distance
I1 C1 2.0787(16)
N1 C1 1.372(2)
N1 C7 1.392(2)
N1 C8 1.459(2)
C1 N2 1.310(2)
N2 C2 1.398(2)
C2 C3 1.399(2)
C2 C7 1.403(2)
C3 C4 1.388(3)
C3 H3 0.9500
C4 C5 1.406(3)
C4 H4 0.9500
C5 C6 1.390(2)
C5 H5 0.9500
C6 C7 1.393(2)
C6 H6 0.9500
C8 C9 1.522(2)
C8 H8B 0.9900
C8 H8A 0.9900
C9 C14 1.392(2)
C9 C10 1.399(2)
C10 C11 1.392(2)
C10 H10 0.9500
C11 C12 1.389(2)
C11 H11 0.9500
C12 C13 1.394(2)
C12 H12 0.9500
C13 C14 1.399(2)
C13 H13 0.9500
C14 H14 0.9500
loop_
_geom_torsion_atom_site_label_1
_geom_torsion_atom_site_label_2
_geom_torsion_atom_site_label_3
_geom_torsion_atom_site_label_4
_geom_torsion
C7 N1 C1 N2 -0.68(19)
C8 N1 C1 N2 -172.65(15)
C7 N1 C1 I1 -178.20(11)
C8 N1 C1 I1 9.8(2)
N1 C1 N2 C2 0.12(19)
I1 C1 N2 C2 177.62(11)
C1 N2 C2 C3 -178.00(18)
C1 N2 C2 C7 0.49(18)
N2 C2 C3 C4 178.48(17)
C7 C2 C3 C4 0.1(3)
C2 C3 C4 C5 0.8(3)
C3 C4 C5 C6 -0.5(3)
C4 C5 C6 C7 -0.7(3)
C1 N1 C7 C6 -179.98(17)
C8 N1 C7 C6 -7.5(3)
C1 N1 C7 C2 0.92(17)
C8 N1 C7 C2 173.37(14)
C5 C6 C7 N1 -177.29(16)
C5 C6 C7 C2 1.7(2)
N2 C2 C7 N1 -0.90(18)
C3 C2 C7 N1 177.77(15)
N2 C2 C7 C6 179.92(15)
C3 C2 C7 C6 -1.4(3)
C1 N1 C8 C9 93.38(19)
C7 N1 C8 C9 -77.17(19)
N1 C8 C9 C14 -13.4(2)
N1 C8 C9 C10 167.25(14)
C14 C9 C10 C11 -0.2(2)
C8 C9 C10 C11 179.10(15)
C9 C10 C11 C12 0.1(3)
C10 C11 C12 C13 0.4(3)
C11 C12 C13 C14 -0.8(3)
C10 C9 C14 C13 -0.1(2)
C8 C9 C14 C13 -179.45(15)
C12 C13 C14 C9 0.6(3)
