#------------------------------------------------------------------------------
#$Date: 2017-07-25 12:06:57 +0300 (Tue, 25 Jul 2017) $
#$Revision: 199090 $
#$URL: file:///home/coder/svn-repositories/cod/cif/2/02/08/2020801.cif $
#------------------------------------------------------------------------------
#
# This file is available in the Crystallography Open Database (COD),
# http://www.crystallography.net/. The original data for this entry
# were provided by IUCr Journals, http://journals.iucr.org/.
#
# The file may be used within the scientific community so long as
# proper attribution is given to the journal article from which the
# data were obtained.
#
data_2020801
loop_
_publ_author_name
'Ridenour, J. August'
'Pyrch, Mikaela M.'
'Manning, Zachery J.'
'Bertke, Jeffery A.'
'Cahill, Christopher L.'
_publ_section_title
;
 Two novel bimetallic transition metal--uranyl one-dimensional
 coordination polymers with manganese(II) and cobalt(II) incorporating
 bridging diglycolate (2,2&#x2032;-oxydiacetate) ligands
;
_journal_coeditor_code           FN3236
_journal_issue                   8
_journal_name_full
'Acta Crystallographica Section C Structural Chemistry'
_journal_paper_doi               10.1107/S2053229617009263
_journal_volume                  73
_journal_year                    2017
_chemical_formula_iupac          '[Mn U (C4 H4 O5)2 O2 (H2 O)4], 2H2 O'
_chemical_formula_moiety         'C8 H16 Mn O16 U, 2(H2 O)'
_chemical_formula_sum            'C8 H20 Mn O18 U'
_chemical_formula_weight         697.21
_chemical_name_systematic
'<i>catena</i>-Poly[[[tetraaquamanganese(II)]-\m-2,2'-oxydiacetato-[dioxidouranium(VI)]-\m-2,2'-oxydiacetato] dihydrate]'
_space_group_crystal_system      triclinic
_space_group_IT_number           2
_space_group_name_Hall           '-P 1'
_space_group_name_H-M_alt        'P -1'
_symmetry_space_group_name_Hall  '-P 1'
_symmetry_space_group_name_H-M   'P -1'
_atom_sites_solution_hydrogens   mixed
_audit_creation_method           SHELXL-2014/7
_cell_angle_alpha                106.356(12)
_cell_angle_beta                 93.891(10)
_cell_angle_gamma                115.130(16)
_cell_formula_units_Z            1
_cell_length_a                   6.997(2)
_cell_length_b                   7.185(3)
_cell_length_c                   11.043(3)
_cell_measurement_reflns_used    9945
_cell_measurement_temperature    100(2)
_cell_measurement_theta_max      29.62
_cell_measurement_theta_min      3.30
_cell_volume                     470.9(3)
_computing_cell_refinement
;
SAINT (Bruker, 2005)
;
_computing_data_collection
;
APEX3 (Bruker, 2016)
;
_computing_data_reduction
;
SAINT (Bruker, 2005)
;
_computing_molecular_graphics
;
CrystalMaker (Palmer, 2014)
;
_computing_publication_material
;
WinGX (Farrugia, 2012), PLATON (Spek, 2009)
and publCIF (Westrip, 2010)
;
_computing_structure_refinement
;
SHELXL2014 (Sheldrick, 2015)
;
_computing_structure_solution
;
SIR92 (Altomare <i>et al.</i>,  1994)
;
_diffrn_ambient_temperature      100(2)
_diffrn_measured_fraction_theta_full 0.999
_diffrn_measured_fraction_theta_max 0.996
_diffrn_measurement_device_type  'Bruker D8 Quest/Photon 100'
_diffrn_measurement_method       omega
_diffrn_radiation_type           MoK\a
_diffrn_radiation_wavelength     0.71073
_diffrn_reflns_av_R_equivalents  0.0314
_diffrn_reflns_limit_h_max       9
_diffrn_reflns_limit_h_min       -9
_diffrn_reflns_limit_k_max       9
_diffrn_reflns_limit_k_min       -10
_diffrn_reflns_limit_l_max       15
_diffrn_reflns_limit_l_min       -15
_diffrn_reflns_number            20833
_diffrn_reflns_theta_full        25.242
_diffrn_reflns_theta_max         29.658
_diffrn_reflns_theta_min         3.294
_diffrn_standards_decay_%        0
_diffrn_standards_interval_count 0
_diffrn_standards_number         0
_exptl_absorpt_coefficient_mu    9.346
_exptl_absorpt_correction_T_max  0.66071
_exptl_absorpt_correction_T_min  0.31485
_exptl_absorpt_correction_type   multi-scan
_exptl_absorpt_process_details
;
(SADABS; Sheldrick, 1999)
;
_exptl_crystal_colour            Yellow
_exptl_crystal_density_diffrn    2.458
_exptl_crystal_description       Rod
_exptl_crystal_F_000             329
_exptl_crystal_size_max          0.200
_exptl_crystal_size_mid          0.130
_exptl_crystal_size_min          0.080
_refine_diff_density_max         0.506
_refine_diff_density_min         -1.162
_refine_ls_extinction_method     none
_refine_ls_goodness_of_fit_ref   1.133
_refine_ls_hydrogen_treatment    mixed
_refine_ls_matrix_type           full
_refine_ls_number_parameters     148
_refine_ls_number_reflns         2656
_refine_ls_number_restraints     0
_refine_ls_restrained_S_all      1.133
_refine_ls_R_factor_all          0.0114
_refine_ls_R_factor_gt           0.0114
_refine_ls_shift/su_max          0.001
_refine_ls_shift/su_mean         0.000
_refine_ls_structure_factor_coef Fsqd
_refine_ls_weighting_details
'w=1/[\s^2^(Fo^2^)+(0.0175P)^2^+0.0378P] where P=(Fo^2^+2Fc^2^)/3'
_refine_ls_weighting_scheme      calc
_refine_ls_wR_factor_gt          0.0282
_refine_ls_wR_factor_ref         0.0282
_reflns_number_gt                2656
_reflns_number_total             2656
_reflns_threshold_expression     'I > 2\s(I)'
_cod_data_source_file            fn3236sup1.cif
_cod_data_source_block           compound_1
_cod_database_code               2020801
_shelx_space_group_comment
;
The symmetry employed for this shelxl refinement is uniquely defined
by the following loop, which should always be used as a source of
symmetry information in preference to the above space-group names.
They are only intended as comments.
;
_shelx_estimated_absorpt_t_min   0.257
_shelx_estimated_absorpt_t_max   0.522
_shelx_hkl_file
;
  -1   0   0  130.01    4.33
  -1   0   0  130.67    4.33
  -1   0   0  132.53    4.29
  -1   0   0  143.46    4.33
   1   0   0  128.85    4.33
   1   0   0  154.53    4.33
   1   0   0  132.07    4.30
   1   0   0  114.30    4.32
  -2   0   0  153.13    5.33
  -2   0   0  162.14    5.26
  -2   0   0  175.62    5.33
  -2   0   0  159.16    5.29
   2   0   0  153.23    5.26
   2   0   0  163.11    5.36
   2   0   0  155.85    5.26
   2   0   0  163.90    5.35
   2   0   0  169.54    5.31
  -3   0   0   49.41    1.96
  -3   0   0   51.64    1.92
  -3   0   0   53.94    1.85
  -3   0   0   50.26    1.95
  -3   0   0   46.92    1.87
   3   0   0   51.96    1.98
   3   0   0   52.27    1.84
   3   0   0   53.24    1.98
   3   0   0   51.86    1.84
   3   0   0   55.27    1.92
   3   0   0   52.07    1.85
  -4   0   0  190.93    6.89
  -4   0   0  201.76    6.81
  -4   0   0  209.05    6.91
  -4   0   0  199.72    6.72
  -4   0   0  207.86    6.86
   4   0   0  227.35    6.84
   4   0   0  194.48    6.67
   4   0   0  202.85    6.73
   4   0   0  216.94    6.94
   4   0   0  200.87    6.93
   4   0   0  193.67    6.71
   4   0   0  198.97    6.71
  -5   0   0   65.50    2.72
  -5   0   0   70.86    2.73
  -5   0   0   65.70    2.63
  -5   0   0   66.63    2.50
  -5   0   0   68.49    2.66
   5   0   0   66.40    2.49
   5   0   0   68.80    2.49
   5   0   0   69.30    2.73
   5   0   0   66.55    2.44
   5   0   0   68.20    2.51
   5   0   0   69.26    2.59
   5   0   0   69.06    2.78
  -6   0   0   97.53    3.84
  -6   0   0   98.16    3.75
  -6   0   0  102.04    3.59
  -6   0   0   93.43    3.87
  -6   0   0   98.10    3.78
   6   0   0  100.41    3.55
   6   0   0   93.98    3.47
   6   0   0  102.39    3.86
   6   0   0   98.73    3.57
   6   0   0  102.19    3.59
   6   0   0   98.99    3.94
   6   0   0   99.15    3.67
  -7   0   0   21.86    1.43
  -7   0   0   23.86    1.71
  -7   0   0   24.30    1.72
  -7   0   0   22.04    1.40
  -7   0   0   23.83    1.58
   7   0   0   24.03    1.76
   7   0   0   22.43    1.40
   7   0   0   24.07    1.93
   7   0   0   23.62    1.30
   7   0   0   21.51    1.69
   7   0   0   24.89    1.32
   7   0   0   23.16    1.20
  -8   0   0   64.21    2.97
  -8   0   0   72.35    2.91
  -8   0   0   55.77    3.33
  -8   0   0   70.60    3.41
   8   0   0   67.65    2.65
   8   0   0   63.44    3.33
   8   0   0   64.72    2.85
   8   0   0   67.52    2.88
   9  -1   0   33.29    3.25
   9  -1   0   36.57    1.90
  -9   1   0   31.99    3.07
  -9   1   0   40.13    2.63
   8  -1   0   35.38    2.29
   8  -1   0   33.53    1.74
   8  -1   0   33.36    1.77
   8  -1   0   35.04    1.64
   8  -1   0   35.71    1.66
   8  -1   0   32.81    1.94
  -8   1   0   34.63    1.96
  -8   1   0   32.16    1.94
  -8   1   0   35.80    1.79
  -8   1   0   34.24    2.30
   7  -1   0  115.78    4.18
   7  -1   0  116.01    4.62
   7  -1   0  123.19    4.33
   7  -1   0  117.70    4.13
   7  -1   0  118.53    4.11
   7  -1   0  113.95    4.24
   7  -1   0  121.12    4.53
  -7   1   0  113.39    4.59
  -7   1   0  119.51    4.57
  -7   1   0  115.02    4.47
  -7   1   0  107.87    4.32
  -7   1   0  120.32    4.19
   6  -1   0   70.84    2.59
   6  -1   0   70.12    2.69
   6  -1   0   73.98    2.77
   6  -1   0   71.03    2.58
   6  -1   0   72.06    2.91
   6  -1   0   70.74    2.66
   6  -1   0   67.99    2.94
  -6   1   0   75.34    2.96
  -6   1   0   67.55    2.84
  -6   1   0   69.19    2.80
  -6   1   0   69.23    2.95
  -6   1   0   72.91    2.63
   5  -1   0  153.25    5.26
   5  -1   0  162.72    5.32
   5  -1   0  148.47    5.49
   5  -1   0  154.21    5.50
   5  -1   0  156.50    5.21
   5  -1   0  159.04    5.35
   5  -1   0  159.51    5.20
  -5   1   0  152.75    5.44
  -5   1   0  162.58    5.55
  -5   1   0  153.04    5.50
  -5   1   0  150.59    5.22
  -5   1   0  155.99    5.40
   4  -1   0   85.70    3.15
   4  -1   0   86.64    3.12
   4  -1   0   87.90    2.93
   4  -1   0   85.56    3.04
   4  -1   0   89.89    3.01
   4  -1   0   84.16    2.92
  -4   1   0   87.29    3.14
  -4   1   0   85.15    2.94
  -4   1   0   80.93    3.04
  -4   1   0   83.13    3.14
  -4   1   0   88.22    3.12
   3  -1   0  270.31    8.91
   3  -1   0  293.70    8.99
   3  -1   0  283.08    9.06
   3  -1   0  248.76    9.06
   3  -1   0  283.91    8.93
  -3   1   0  284.71    9.00
  -3   1   0  280.52    9.09
  -3   1   0  269.37    8.92
  -3   1   0  276.81    9.08
   2  -1   0   30.50    1.07
   2  -1   0   29.11    1.16
   2  -1   0   33.52    1.14
   2  -1   0   31.37    1.09
  -2   1   0   29.44    1.17
  -2   1   0   30.71    1.11
  -2   1   0   31.17    1.07
  -2   1   0   33.13    1.19
  -2   1   0   30.10    1.17
   1  -1   0  154.51    5.15
   1  -1   0  151.67    5.17
   1  -1   0  150.61    5.12
   1  -1   0  161.04    5.17
  -1   1   0  164.62    5.17
  -1   1   0  168.87    5.20
  -1   1   0  168.49    5.15
  -1   1   0  162.13    5.18
  -1   1   0  159.67    5.12
  -1   1   0  158.28    5.15
   0  -1   0   82.99    2.84
   0  -1   0   86.10    2.85
   0  -1   0   85.29    2.84
   0  -1   0   89.21    2.86
   0   1   0   86.33    2.83
   0   1   0   83.11    2.84
   0   1   0   96.18    2.88
   0   1   0   86.59    2.87
  -1  -1   0   73.40    2.47
  -1  -1   0   76.96    2.51
  -1  -1   0   73.26    2.49
  -1  -1   0   75.97    2.46
  -1  -1   0   71.43    2.50
   1   1   0   78.55    2.53
   1   1   0   75.04    2.49
   1   1   0   73.12    2.48
   1   1   0   66.90    2.50
   1   1   0   70.81    2.50
  -2  -1   0   42.33    1.57
  -2  -1   0   44.66    1.55
  -2  -1   0   40.75    1.59
  -2  -1   0   40.82    1.60
  -2  -1   0   40.36    1.53
   2   1   0   42.20    1.55
   2   1   0   42.22    1.61
   2   1   0   44.31    1.61
   2   1   0   41.02    1.61
   2   1   0   40.21    1.54
   2   1   0   43.70    1.44
   2   1   0   42.46    1.41
  -3  -1   0  121.35    4.14
  -3  -1   0  118.63    4.23
  -3  -1   0  116.26    4.16
  -3  -1   0  128.03    4.17
  -3  -1   0  129.02    4.25
   3   1   0  124.90    4.22
   3   1   0  122.68    4.02
   3   1   0  121.52    4.14
   3   1   0  124.32    4.14
   3   1   0  112.93    4.24
   3   1   0  117.08    3.98
   3   1   0  123.00    4.25
  -4  -1   0   48.61    1.99
  -4  -1   0   48.54    2.06
  -4  -1   0   50.47    1.94
  -4  -1   0   52.56    2.08
  -4  -1   0   50.92    1.97
   4   1   0   49.19    1.75
   4   1   0   50.03    1.81
   4   1   0   48.91    1.93
   4   1   0   50.09    1.93
   4   1   0   48.78    2.01
   4   1   0   50.44    2.08
   4   1   0   45.94    2.08
  -5  -1   0  147.60    5.40
  -5  -1   0  146.02    5.36
  -5  -1   0  157.36    5.50
  -5  -1   0  151.16    5.51
  -5  -1   0  156.41    5.31
   5   1   0  157.99    5.30
   5   1   0  157.32    5.51
   5   1   0  153.93    5.57
   5   1   0  155.19    5.18
   5   1   0  156.21    5.43
   5   1   0  152.18    5.09
   5   1   0  150.24    5.30
  -6  -1   0   18.83    1.41
  -6  -1   0   20.24    1.39
  -6  -1   0   21.04    1.27
  -6  -1   0   19.52    1.20
  -6  -1   0   20.65    1.48
   6   1   0   21.51    1.48
   6   1   0   20.65    1.19
   6   1   0   20.63    1.53
   6   1   0   20.49    1.28
   6   1   0   20.14    1.08
   6   1   0   17.90    0.95
   6   1   0   18.52    1.17
  -7  -1   0   55.38    2.69
  -7  -1   0   53.60    2.47
  -7  -1   0   53.91    2.81
  -7  -1   0   58.39    2.48
   7   1   0   52.03    2.89
   7   1   0   52.68    2.23
   7   1   0   55.60    2.46
   7   1   0   53.97    2.50
   7   1   0   53.44    2.09
  -8  -1   0   23.79    2.15
  -8  -1   0   24.57    2.18
  -8  -1   0   25.73    2.42
  -8  -1   0   20.83    1.61
   8   1   0   23.80    1.73
   8   1   0   22.97    2.49
   9  -2   0   26.98    2.34
   9  -2   0   25.31    1.36
   9  -2   0   24.53    1.68
   9  -2   0   24.54    2.27
   9  -2   0   24.62    1.53
  -9   2   0   21.85    1.77
  -9   2   0   21.95    2.38
  -9   2   0   24.49    1.75
   8  -2   0   41.14    2.39
   8  -2   0   40.59    1.78
   8  -2   0   46.14    1.93
   8  -2   0   43.50    2.01
   8  -2   0   40.97    1.75
   8  -2   0   41.14    2.52
   8  -2   0   43.47    2.19
  -8   2   0   39.15    2.20
  -8   2   0   41.96    1.84
  -8   2   0   43.30    2.50
  -8   2   0   42.06    1.99
  -8   2   0   41.92    2.49
   7  -2   0   18.99    1.40
   7  -2   0   19.88    1.00
   7  -2   0   20.48    0.99
   7  -2   0   21.29    1.20
   7  -2   0   20.34    1.12
   7  -2   0   20.42    1.48
   7  -2   0   19.91    1.36
  -7   2   0   19.11    1.18
  -7   2   0   20.94    1.08
  -7   2   0   18.76    1.33
  -7   2   0   20.79    1.58
  -7   2   0   20.41    1.46
   6  -2   0   50.60    2.38
   6  -2   0   55.88    2.52
   6  -2   0   55.06    2.04
   6  -2   0   56.88    2.07
   6  -2   0   53.35    2.20
   6  -2   0   63.86    2.21
   6  -2   0   55.77    2.37
  -6   2   0   56.24    2.43
  -6   2   0   56.44    2.41
  -6   2   0   55.47    2.19
  -6   2   0   57.98    2.11
  -6   2   0   55.41    2.47
   5  -2   0   71.25    2.67
   5  -2   0   67.77    2.41
   5  -2   0   67.89    2.40
   5  -2   0   79.70    2.55
   5  -2   0   69.12    2.63
   5  -2   0   63.24    2.68
  -5   2   0   70.38    2.72
  -5   2   0   65.68    2.49
  -5   2   0   67.19    2.70
  -5   2   0   69.00    2.44
  -5   2   0   68.76    2.73
   4  -2   0  112.60    3.94
   4  -2   0  106.95    3.97
   4  -2   0  115.99    3.95
   4  -2   0  109.90    3.75
   4  -2   0  121.61    3.86
   4  -2   0  110.14    3.76
  -4   2   0  112.39    4.00
  -4   2   0  112.74    3.76
  -4   2   0  114.74    4.00
  -4   2   0  109.05    3.81
  -4   2   0  117.13    4.02
   3  -2   0   23.15    0.88
   3  -2   0   24.32    1.02
   3  -2   0   26.50    0.99
   3  -2   0   22.99    1.03
   3  -2   0   24.69    0.92
  -3   2   0   23.83    1.04
  -3   2   0   21.95    1.03
  -3   2   0   24.47    1.07
  -3   2   0   23.86    0.88
  -3   2   0   23.35    0.93
   2  -2   0  207.12    7.37
   2  -2   0  223.39    7.36
   2  -2   0  229.28    7.33
   2  -2   0  212.51    7.26
  -2   2   0  243.28    7.43
  -2   2   0  242.51    7.33
  -2   2   0  225.89    7.38
  -2   2   0  226.24    7.33
  -1   2   0  121.78    4.04
  -1   2   0  122.32    4.04
   0  -2   0  104.36    3.59
   0  -2   0  106.72    3.50
   0  -2   0  104.37    3.56
   0  -2   0  103.33    3.60
   0  -2   0  113.31    3.63
   0   2   0  105.53    3.56
   0   2   0  107.65    3.64
   0   2   0  117.78    3.66
  -1  -2   0  164.35    5.61
  -1  -2   0  172.65    5.62
  -1  -2   0  172.86    5.65
  -1  -2   0  181.08    5.59
  -1  -2   0  168.86    5.64
   1   2   0  169.03    5.62
   1   2   0  185.75    5.72
   1   2   0  171.05    5.64
   1   2   0  161.76    5.62
   1   2   0  153.71    5.66
  -2  -2   0  266.89    8.65
  -2  -2   0  262.26    8.63
  -2  -2   0  258.72    8.58
  -2  -2   0  247.05    8.60
  -2  -2   0  272.43    8.55
   2   2   0  273.95    8.66
   2   2   0  251.89    8.67
   2   2   0  258.97    8.60
   2   2   0  263.90    8.68
   2   2   0  258.70    8.59
  -3  -2   0   72.94    2.60
  -3  -2   0   64.96    2.64
  -3  -2   0   65.33    2.60
  -3  -2   0   72.40    2.54
  -3  -2   0   73.19    2.67
   3   2   0   70.57    2.59
   3   2   0   71.39    2.69
   3   2   0   69.12    2.58
   3   2   0   73.13    2.70
   3   2   0   62.45    2.66
  -4  -2   0   68.37    2.71
  -4  -2   0   76.02    2.80
  -4  -2   0   68.14    2.76
  -4  -2   0   70.79    2.62
   4   2   0   71.75    2.66
   4   2   0   63.06    2.80
   4   2   0   68.50    2.76
   4   2   0   67.70    2.33
   4   2   0   69.64    2.78
  -5  -2   0   29.53    1.71
  -5  -2   0   31.42    1.70
  -5  -2   0   32.52    1.66
  -5  -2   0   32.54    1.59
  -5  -2   0   31.42    1.52
   5   2   0   33.47    1.58
   5   2   0   28.93    1.62
   5   2   0   31.77    1.73
   5   2   0   31.21    1.81
  -6  -2   0   72.45    3.12
  -6  -2   0   73.01    2.94
  -6  -2   0   74.66    3.19
  -6  -2   0   70.52    2.90
  -6  -2   0   72.22    3.17
   6   2   0   71.28    3.05
   6   2   0   71.37    3.17
   6   2   0   63.80    3.23
   6   2   0   69.37    2.94
  -7  -2   0   34.99    2.27
  -7  -2   0   31.29    2.18
  -7  -2   0   32.19    1.79
  -7  -2   0   35.75    2.35
   7   2   0   32.04    2.51
   7   2   0   30.51    1.93
   9  -3   0   82.25    3.01
   9  -3   0   70.32    3.18
   9  -3   0   71.53    2.91
   9  -3   0   70.61    3.60
   9  -3   0   73.55    2.71
  -9   3   0   73.37    3.45
  -9   3   0   74.68    2.92
  -9   3   0   71.32    3.70
   8  -3   0   40.94    2.34
   8  -3   0   44.55    1.71
   8  -3   0   45.14    2.29
   8  -3   0   44.72    1.74
   8  -3   0   45.73    2.43
   8  -3   0   47.76    1.93
   8  -3   0   40.24    2.06
  -8   3   0   44.05    1.88
  -8   3   0   43.52    1.80
  -8   3   0   42.84    2.46
  -8   3   0   40.16    2.24
  -8   3   0   41.90    2.44
   7  -3   0  133.53    4.87
   7  -3   0  126.42    4.94
   7  -3   0  130.15    4.44
   7  -3   0  129.99    4.73
   7  -3   0  138.39    4.60
   7  -3   0  132.83    4.88
   7  -3   0  128.06    4.42
  -7   3   0  137.37    4.99
  -7   3   0  129.85    5.03
  -7   3   0  134.74    4.56
  -7   3   0  124.10    4.96
  -7   3   0  131.35    4.47
   6  -3   0   56.86    2.14
   6  -3   0   54.73    1.98
   6  -3   0   57.07    2.34
   6  -3   0   55.38    2.34
   6  -3   0   50.22    2.34
   6  -3   0   54.91    1.99
  -6   3   0   57.03    2.45
  -6   3   0   55.63    2.00
  -6   3   0   55.61    2.42
  -6   3   0   54.45    2.08
  -6   3   0   56.87    2.41
   5  -3   0  174.88    6.37
   5  -3   0  199.76    6.23
   5  -3   0  190.62    6.38
   5  -3   0  174.60    6.09
   5  -3   0  190.87    6.34
   5  -3   0  182.41    6.08
  -5   3   0  183.41    6.44
  -5   3   0  183.31    6.14
  -5   3   0  184.24    6.06
  -5   3   0  190.06    6.44
  -5   3   0  185.50    6.40
   4  -3   0   33.24    1.25
   4  -3   0   31.94    1.42
   4  -3   0   34.05    1.40
   4  -3   0   32.31    1.20
   4  -3   0   33.76    1.44
  -4   3   0   31.38    1.42
  -4   3   0   33.01    1.18
  -4   3   0   32.20    1.26
  -4   3   0   30.36    1.41
   3  -3   0  393.33   12.83
   3  -3   0  405.04   12.92
   3  -3   0  379.48   13.00
   3  -3   0  413.50   12.99
  -3   3   0  409.47   13.02
  -3   3   0  400.91   13.08
   2  -3   0  282.91    9.56
   2  -3   0  283.95    9.53
  -2   3   0  301.50    9.60
  -2   3   0  305.20    9.55
   1  -3   0  277.00    9.10
   1  -3   0  272.20    9.03
   1  -3   0  276.17    9.01
   1  -3   0  260.58    8.99
  -1   3   0  290.25    9.07
  -1   3   0  293.11    9.12
   0  -3   0   15.33    0.74
   0  -3   0   14.57    0.75
   0  -3   0   16.13    0.62
   0  -3   0   14.90    0.69
   0  -3   0   16.43    0.58
   0  -3   0   13.54    0.73
   0   3   0   15.00    0.79
   0   3   0   15.76    0.82
   0   3   0   14.86    0.70
  -1  -3   0  207.12    6.96
  -1  -3   0  197.89    6.90
  -1  -3   0  200.88    6.96
  -1  -3   0  218.75    6.88
  -1  -3   0  210.78    6.94
   1   3   0  207.93    7.04
   1   3   0  201.43    6.94
   1   3   0  217.22    6.93
   1   3   0  215.22    7.05
  -2  -3   0   78.29    3.01
  -2  -3   0   87.79    2.92
  -2  -3   0   79.47    3.02
  -2  -3   0   83.54    3.02
  -2  -3   0   79.62    2.98
   2   3   0   80.97    3.12
   2   3   0   82.44    3.02
   2   3   0   85.68    3.03
   2   3   0   81.32    3.10
  -3  -3   0  199.80    6.79
  -3  -3   0  193.65    6.85
  -3  -3   0  188.93    6.83
  -3  -3   0  211.26    6.99
  -3  -3   0  206.13    6.70
   3   3   0  202.87    6.96
   3   3   0  207.83    6.91
   3   3   0  192.81    6.79
   3   3   0  190.57    6.94
  -4  -3   0   36.57    1.61
  -4  -3   0   35.58    1.82
  -4  -3   0   38.24    1.85
  -4  -3   0   35.78    1.73
  -4  -3   0   36.56    1.81
   4   3   0   35.87    1.93
   4   3   0   37.10    1.75
   4   3   0   35.73    1.85
   4   3   0   37.77    1.92
  -5  -3   0   74.64    3.22
  -5  -3   0   75.97    3.23
  -5  -3   0   76.91    3.22
  -5  -3   0   76.55    3.09
  -5  -3   0   77.65    2.96
   5   3   0   75.85    3.27
   5   3   0   71.71    3.18
   5   3   0   73.22    3.36
  -6  -3   0   23.90    1.88
  -6  -3   0   20.52    1.37
  -6  -3   0   23.11    1.85
  -6  -3   0   22.30    1.81
   6   3   0   19.91    2.05
   6   3   0   18.84    1.54
   9  -4   0   62.80    3.22
   9  -4   0   61.97    2.26
   9  -4   0   60.31    2.29
   9  -4   0   61.30    2.52
   9  -4   0   60.93    2.91
  -9   4   0   62.56    3.43
  -9   4   0   61.34    3.11
  -9   4   0   66.74    2.37
   8  -4   0   70.04    2.56
   8  -4   0   73.22    3.06
   8  -4   0   72.68    2.59
   8  -4   0   75.06    3.25
   8  -4   0   77.56    2.79
   8  -4   0   71.80    3.24
   8  -4   0   71.33    3.24
  -8   4   0   73.87    3.41
  -8   4   0   70.19    2.56
  -8   4   0   74.13    2.68
  -8   4   0   71.29    3.27
  -8   4   0   75.64    3.38
   7  -4   0   21.91    0.99
   7  -4   0   24.41    1.17
   7  -4   0   22.16    0.99
   7  -4   0   21.36    1.46
   7  -4   0   21.93    1.47
   7  -4   0   22.98    1.43
   7  -4   0   20.46    1.43
  -7   4   0   24.17    1.09
  -7   4   0   21.35    0.96
  -7   4   0   23.84    1.51
  -7   4   0   20.88    1.51
  -7   4   0   23.47    1.62
   6  -4   0  154.58    5.11
   6  -4   0  157.59    5.43
   6  -4   0  151.80    5.46
   6  -4   0  145.82    5.47
   6  -4   0  151.21    5.09
  -6   4   0  151.44    5.57
  -6   4   0  152.96    5.56
  -6   4   0  157.92    5.54
  -6   4   0  152.54    5.15
   5  -4   0   21.11    0.95
   5  -4   0   20.88    1.20
   5  -4   0   21.14    1.16
   5  -4   0   19.77    1.11
   5  -4   0   19.63    0.87
  -5   4   0   20.78    1.20
  -5   4   0   21.05    1.18
  -5   4   0   19.95    1.17
   4  -4   0  198.04    6.94
   4  -4   0  206.82    6.96
   4  -4   0  207.13    6.81
   4  -4   0  213.01    6.90
   4  -4   0  199.15    6.70
  -4   4   0  207.41    7.02
  -4   4   0  204.22    6.95
   3  -4   0   92.17    3.29
   3  -4   0   95.05    3.28
   3  -4   0   88.61    3.11
   3  -4   0   87.95    3.23
   3  -4   0   91.04    3.28
  -3   4   0   92.63    3.33
  -3   4   0   96.02    3.23
   2  -4   0  243.00    8.09
   2  -4   0  239.82    8.05
  -2   4   0  245.38    8.16
  -2   4   0  253.54    8.15
   1  -4   0   21.53    0.95
   1  -4   0   21.73    1.02
   1  -4   0   22.40    1.07
   1  -4   0   22.27    0.95
   1  -4   0   22.48    1.03
  -1   4   0   22.97    1.11
  -1   4   0   23.01    1.02
   0  -4   0   50.50    1.76
   0  -4   0   48.72    1.93
   0  -4   0   52.69    1.82
   0  -4   0   53.52    2.03
   0  -4   0   53.07    2.03
   0   4   0   52.46    1.94
   0   4   0   53.84    2.14
  -1  -4   0   37.14    1.63
  -1  -4   0   38.82    1.63
  -1  -4   0   36.18    1.54
  -1  -4   0   33.74    1.57
  -1  -4   0   38.30    1.51
   1   4   0   37.29    1.56
   1   4   0   37.85    1.72
   1   4   0   37.83    1.73
  -2  -4   0  185.89    6.61
  -2  -4   0  195.93    6.58
  -2  -4   0  199.59    6.61
  -2  -4   0  184.58    6.55
   2   4   0  185.91    6.72
   2   4   0  194.21    6.57
   2   4   0  193.79    6.77
  -3  -4   0   27.46    1.48
  -3  -4   0   28.24    1.57
  -3  -4   0   28.92    1.55
  -3  -4   0   28.98    1.31
  -3  -4   0   30.33    1.56
   3   4   0   27.93    1.66
   3   4   0   25.14    1.57
   3   4   0   28.52    1.56
  -4  -4   0   69.65    2.96
  -4  -4   0   69.00    2.97
  -4  -4   0   67.54    2.95
  -4  -4   0   64.73    2.62
  -4  -4   0   64.93    2.84
   4   4   0   66.54    3.01
   4   4   0   73.33    3.02
   4   4   0   68.12    3.14
  -5  -4   0   16.71    1.71
  -5  -4   0   16.00    1.60
  -5  -4   0   16.56    1.66
  -5  -4   0   17.14    1.17
   5   4   0   14.02    1.44
   5   4   0   18.98    1.88
   5   4   0   15.39    1.82
   9  -5   0   58.09    2.77
   9  -5   0   52.64    2.90
   9  -5   0   59.96    2.32
   9  -5   0   54.31    1.99
  -9   5   0   52.85    3.23
  -9   5   0   54.37    2.92
   8  -5   0   22.29    1.89
   8  -5   0   20.53    0.98
   8  -5   0   23.23    1.53
   8  -5   0   21.18    1.00
   8  -5   0   23.49    1.79
   8  -5   0   20.58    1.65
   8  -5   0   22.49    1.21
  -8   5   0   20.00    1.60
  -8   5   0   23.78    1.88
  -8   5   0   21.53    1.81
   7  -5   0   83.23    2.89
   7  -5   0   87.43    3.08
   7  -5   0   81.15    3.40
   7  -5   0   79.97    3.25
   7  -5   0   85.69    3.33
   7  -5   0   82.55    2.90
   7  -5   0   78.58    3.38
  -7   5   0   80.12    3.47
  -7   5   0   80.06    3.51
   6  -5   0   33.35    1.56
   6  -5   0   34.00    1.68
   6  -5   0   34.18    1.37
   6  -5   0   36.35    1.78
   6  -5   0   30.83    1.70
   6  -5   0   34.80    1.43
  -6   5   0   34.29    1.80
  -6   5   0   34.13    1.80
   5  -5   0   63.28    2.44
   5  -5   0   61.16    2.31
   5  -5   0   56.49    2.47
   5  -5   0   61.36    2.52
   5  -5   0   61.39    2.20
  -5   5   0   62.53    2.60
   4  -5   0   82.06    3.00
   4  -5   0   88.69    3.18
   4  -5   0   87.59    3.19
   4  -5   0   85.79    3.24
   4  -5   0   87.37    3.26
  -4   5   0   89.59    3.15
  -4   5   0   86.90    3.31
   3  -5   0   48.52    1.89
   3  -5   0   48.64    1.99
   3  -5   0   49.18    1.84
   3  -5   0   50.00    1.96
   3  -5   0   50.40    2.04
   3  -5   0   46.65    1.96
  -3   5   0   50.28    1.98
  -3   5   0   50.01    2.04
   2  -5   0   47.70    1.92
   2  -5   0   41.59    1.69
   2  -5   0   45.45    1.81
   2  -5   0   45.19    1.79
   2  -5   0   43.84    1.73
   2  -5   0   44.77    1.80
  -2   5   0   45.41    1.91
  -2   5   0   47.07    1.87
   1  -5   0  200.18    6.82
   1  -5   0  206.18    6.93
   1  -5   0  203.21    6.94
   1  -5   0  200.74    6.71
   1  -5   0  207.90    6.79
   1  -5   0  214.96    6.99
  -1   5   0  201.66    7.05
   0  -5   0   71.17    2.39
   0  -5   0   66.10    2.69
   0  -5   0   67.87    2.59
   0  -5   0   68.66    2.33
   0  -5   0   71.94    2.70
   0  -5   0   71.71    2.70
   0   5   0   70.54    2.85
  -1  -5   0  123.91    4.81
  -1  -5   0  132.87    4.47
  -1  -5   0  128.32    4.54
  -1  -5   0  125.92    4.66
  -1  -5   0  130.98    4.63
   1   5   0  134.59    4.56
   1   5   0  121.26    4.78
   1   5   0  128.44    4.79
  -2  -5   0   23.31    1.44
  -2  -5   0   24.53    1.44
  -2  -5   0   25.79    1.23
  -2  -5   0   25.30    1.41
  -2  -5   0   24.60    1.42
   2   5   0   27.17    1.44
   2   5   0   25.45    1.62
   2   5   0   24.16    1.61
  -3  -5   0   61.42    2.65
  -3  -5   0   57.78    2.68
  -3  -5   0   63.73    2.35
  -3  -5   0   55.34    2.62
  -3  -5   0   56.05    3.02
   3   5   0   55.22    2.87
   3   5   0   56.34    2.78
   3   5   0   63.67    2.64
  -4  -5   0   45.38    2.49
  -4  -5   0   42.69    2.45
  -4  -5   0   43.88    1.94
  -4  -5   0   44.46    2.35
   4   5   0   43.17    2.45
   4   5   0   42.64    2.65
   4   5   0   42.04    2.42
   9  -6   0   16.34    1.66
   9  -6   0   17.55    1.92
   9  -6   0   18.04    1.20
  -9   6   0   18.90    2.41
   8  -6   0   88.27    3.21
   8  -6   0   76.36    3.49
   8  -6   0   86.11    3.64
   8  -6   0   88.34    3.00
   8  -6   0   85.39    2.98
   8  -6   0   88.91    3.71
  -8   6   0   82.61    3.89
  -8   6   0   81.06    3.73
   7  -6   0   74.31    2.72
   7  -6   0   74.25    3.06
   7  -6   0   74.38    3.24
   7  -6   0   73.45    3.15
   7  -6   0   71.27    3.03
   7  -6   0   73.39    2.65
   7  -6   0   75.35    2.87
  -7   6   0   68.14    3.22
   6  -6   0   98.55    3.79
   6  -6   0  101.76    3.71
   6  -6   0   95.69    3.67
   6  -6   0   93.92    3.37
   6  -6   0   99.41    3.82
   6  -6   0   94.39    3.49
  -6   6   0   90.10    3.84
   5  -6   0   58.22    2.20
   5  -6   0   60.44    2.26
   5  -6   0   60.28    2.54
   5  -6   0   55.47    2.38
   5  -6   0   60.98    2.44
   5  -6   0   61.32    2.40
   5  -6   0   57.28    2.49
  -5   6   0   59.10    2.60
   4  -6   0  202.07    7.00
   4  -6   0  202.98    7.42
   4  -6   0  198.94    7.11
   4  -6   0  205.16    7.12
   4  -6   0  212.90    6.96
   4  -6   0  220.15    7.16
   4  -6   0  207.08    6.89
  -4   6   0  202.05    7.20
  -4   6   0  209.95    7.07
   3  -6   0   57.22    2.26
   3  -6   0   61.66    2.47
   3  -6   0   56.63    2.45
   3  -6   0   58.09    2.33
   3  -6   0   59.15    2.20
   3  -6   0   57.40    2.30
   3  -6   0   54.71    2.20
   3  -6   0   55.08    2.22
   3  -6   0   58.29    2.39
  -3   6   0   57.84    2.40
  -3   6   0   58.12    2.39
   2  -6   0   88.65    3.27
   2  -6   0   97.27    3.57
   2  -6   0   90.17    3.35
   2  -6   0   94.97    3.40
   2  -6   0   90.89    3.45
   2  -6   0   91.19    3.45
  -2   6   0  101.38    3.51
  -2   6   0   94.31    3.61
   1  -6   0   40.11    1.77
   1  -6   0   35.34    1.61
   1  -6   0   36.27    1.43
   1  -6   0   38.95    1.57
   1  -6   0   38.71    1.76
   1  -6   0   38.88    1.79
  -1   6   0   38.24    1.90
   0  -6   0  122.75    4.50
   0  -6   0  128.24    4.65
   0  -6   0  132.91    4.54
   0  -6   0  124.33    4.13
   0  -6   0  128.31    4.63
   0   6   0  126.36    4.84
  -1  -6   0   41.51    1.77
  -1  -6   0   40.95    1.91
  -1  -6   0   40.82    2.02
  -1  -6   0   39.35    2.02
  -1  -6   0   44.02    2.02
   1   6   0   40.67    2.20
   1   6   0   41.90    1.91
  -2  -6   0   27.48    1.76
  -2  -6   0   26.49    1.68
  -2  -6   0   26.86    1.76
  -2  -6   0   26.66    1.70
  -2  -6   0   27.75    1.36
   2   6   0   26.40    1.87
   2   6   0   28.91    2.02
   2   6   0   30.97    1.68
  -3  -6   0   26.87    2.06
  -3  -6   0   33.03    2.15
  -3  -6   0   31.05    1.51
  -3  -6   0   29.67    1.92
   3   6   0   29.26    2.38
   3   6   0   29.78    2.10
   3   6   0   33.89    2.08
   9  -7   0   57.17    2.95
   9  -7   0   57.64    3.12
  -9   7   0   51.23    2.95
   8  -7   0   16.14    1.59
   8  -7   0   16.13    1.05
   8  -7   0   15.15    1.09
   8  -7   0   15.77    0.99
   8  -7   0   16.04    0.92
   8  -7   0   17.25    1.30
   8  -7   0   19.86    1.80
  -8   7   0   15.10    1.56
   7  -7   0   79.77    2.84
   7  -7   0   74.09    3.23
   7  -7   0   73.98    3.18
   7  -7   0   75.00    2.79
   7  -7   0   72.85    3.44
   7  -7   0   77.20    2.92
   7  -7   0   74.27    3.29
  -7   7   0   74.26    3.40
   6  -7   0   38.57    1.98
   6  -7   0   41.81    1.76
   6  -7   0   38.67    1.66
   6  -7   0   38.55    1.94
   6  -7   0   40.13    1.89
   6  -7   0   40.36    2.08
   6  -7   0   38.78    1.66
   6  -7   0   39.56    2.15
  -6   7   0   38.11    2.12
   5  -7   0  112.53    4.18
   5  -7   0  108.91    3.97
   5  -7   0  108.38    4.18
   5  -7   0  115.05    4.30
   5  -7   0  107.90    4.22
   5  -7   0  109.09    3.93
   5  -7   0  114.12    4.02
  -5   7   0  111.85    4.13
  -5   7   0  113.55    4.36
   4  -7   0   18.20    1.22
   4  -7   0   20.05    1.25
   4  -7   0   19.85    1.12
   4  -7   0   17.76    1.04
   4  -7   0   18.25    1.10
   4  -7   0   20.33    1.19
   4  -7   0   18.43    1.31
   4  -7   0   18.66    1.11
   4  -7   0   18.87    1.39
  -4   7   0   19.51    1.25
  -4   7   0   17.76    1.29
   3  -7   0   83.99    3.29
   3  -7   0   85.79    3.21
   3  -7   0   85.27    3.32
   3  -7   0   90.55    3.50
   3  -7   0   90.59    3.34
   3  -7   0   82.44    3.54
   3  -7   0   86.81    3.22
   3  -7   0   86.45    3.17
   3  -7   0   87.37    3.33
  -3   7   0   85.05    3.47
  -3   7   0   88.59    3.42
   2  -7   0   17.11    1.03
   2  -7   0   18.18    1.20
   2  -7   0   16.31    0.89
   2  -7   0   17.05    1.09
   2  -7   0   16.28    1.24
   2  -7   0   16.71    1.45
  -2   7   0   15.12    1.26
   1  -7   0  126.03    4.55
   1  -7   0  129.74    4.57
   1  -7   0  119.99    4.36
   1  -7   0  120.41    4.07
   1  -7   0  121.56    4.17
   1  -7   0  109.99    4.49
  -1   7   0  119.96    4.75
   0  -7   0   57.82    2.64
   0  -7   0   56.56    2.41
   0  -7   0   55.76    2.59
   0  -7   0   55.81    2.34
   0  -7   0   57.92    2.57
   0   7   0   55.89    2.77
  -1  -7   0   85.56    3.46
  -1  -7   0   81.46    3.62
  -1  -7   0   88.89    3.58
  -1  -7   0   89.34    3.25
   1   7   0   84.06    3.87
  -2  -7   0   19.29    1.80
  -2  -7   0   20.18    1.71
  -2  -7   0   19.13    1.22
  -2  -7   0   18.40    1.84
   2   7   0   13.70    1.80
   8  -8   0   53.84    2.51
   8  -8   0   52.65    2.80
   8  -8   0   53.30    2.94
   8  -8   0   55.87    2.18
   8  -8   0   54.96    2.25
  -8   8   0   56.65    3.67
   7  -8   0   29.29    1.62
   7  -8   0   25.51    2.02
   7  -8   0   28.64    1.45
   7  -8   0   30.20    1.49
   7  -8   0   25.47    1.97
   7  -8   0   30.98    1.83
   7  -8   0   29.21    1.89
  -7   8   0   28.99    1.99
   6  -8   0   87.51    3.52
   6  -8   0   85.64    3.46
   6  -8   0   84.27    3.22
   6  -8   0   86.23    3.53
   6  -8   0   84.95    3.30
   6  -8   0   82.91    3.73
   6  -8   0   85.15    3.61
   6  -8   0   81.80    3.18
  -6   8   0   86.03    3.74
   5  -8   0   37.23    1.89
   5  -8   0   41.40    2.21
   5  -8   0   39.53    1.84
   5  -8   0   37.77    2.14
   5  -8   0   38.00    2.05
   5  -8   0   42.55    1.96
   5  -8   0   41.69    1.88
   5  -8   0   37.42    1.91
   5  -8   0   40.30    2.13
  -5   8   0   39.99    2.01
  -5   8   0   38.12    2.14
   4  -8   0   67.84    3.14
   4  -8   0   66.53    2.86
   4  -8   0   71.52    3.13
   4  -8   0   65.39    2.71
   4  -8   0   70.92    2.85
   4  -8   0   65.52    2.77
   4  -8   0   70.24    2.95
   4  -8   0   64.52    2.68
   4  -8   0   64.12    2.96
  -4   8   0   67.74    2.98
  -4   8   0   67.66    2.96
   3  -8   0   30.29    1.42
   3  -8   0   30.54    1.87
   3  -8   0   25.03    1.69
   3  -8   0   29.41    2.07
   3  -8   0   28.26    1.71
   3  -8   0   30.16    1.69
   3  -8   0   29.56    1.66
   3  -8   0   27.26    1.51
   3  -8   0   28.46    1.55
  -3   8   0   31.30    1.84
   2  -8   0   64.61    2.44
   2  -8   0   63.25    2.83
   2  -8   0   70.39    2.99
   2  -8   0   64.06    3.38
   2  -8   0   56.76    3.00
   2  -8   0   67.55    2.64
   2  -8   0   71.14    3.00
  -2   8   0   65.42    3.09
   1  -8   0   31.89    1.70
   1  -8   0   32.40    1.96
   1  -8   0   31.08    1.35
   1  -8   0   31.94    1.24
   1  -8   0   30.65    1.91
  -1   8   0   31.74    2.07
   0  -8   0   36.46    1.96
   0  -8   0   31.08    2.11
   0  -8   0   37.72    1.77
   0  -8   0   32.29    2.14
   0   8   0   32.77    2.28
   7  -9   0   40.70    2.33
   7  -9   0   38.89    1.97
   7  -9   0   35.57    2.50
   7  -9   0   36.78    1.95
  -7   9   0   37.38    2.42
   6  -9   0   28.61    1.81
   6  -9   0   25.43    1.73
   6  -9   0   24.87    1.61
   6  -9   0   25.77    1.59
   6  -9   0   26.82    1.83
   6  -9   0   23.38    2.19
   6  -9   0   27.52    2.06
  -6   9   0   24.52    1.88
   5  -9   0   65.38    2.78
   5  -9   0   60.21    2.74
   5  -9   0   61.67    2.95
   5  -9   0   61.26    3.16
   5  -9   0   65.25    3.06
   5  -9   0   63.59    2.68
   5  -9   0   61.86    3.03
   5  -9   0   64.30    3.33
   5  -9   0   60.86    2.74
   5  -9   0   65.04    3.38
  -5   9   0   65.69    2.94
  -5   9   0   65.07    3.06
   4  -9   0   20.06    2.03
   4  -9   0   20.83    1.56
   4  -9   0   21.23    1.44
   4  -9   0   22.00    1.70
   4  -9   0   15.85    1.94
   4  -9   0   17.28    1.87
   4  -9   0   16.69    1.42
   4  -9   0   20.99    1.80
   4  -9   0   20.36    1.38
  -4   9   0   20.80    1.70
   3  -9   0   76.32    3.54
   3  -9   0   77.64    3.19
   3  -9   0   74.32    3.10
   3  -9   0   72.70    3.18
   3  -9   0   77.67    2.91
   3  -9   0   72.72    3.31
   3  -9   0   73.94    3.35
  -3   9   0   75.33    3.54
   2  -9   0   39.65    2.50
   2  -9   0   46.48    1.99
   2  -9   0   41.67    2.59
   2  -9   0   39.41    2.37
   2  -9   0   41.40    2.14
  -2   9   0   42.86    2.62
  -1   9  -1   27.39    2.15
   1  -9   1   32.74    1.96
   1  -9   1   34.79    1.86
   1  -9   1   26.83    2.18
   1  -9   1   28.32    2.22
  -2   9  -1   76.68    3.69
   2  -9   1   76.91    2.87
   2  -9   1   78.26    3.47
   2  -9   1   79.70    3.47
   2  -9   1   81.26    3.28
  -3   9  -1   38.84    2.32
   3  -9   1   38.36    2.37
   3  -9   1   34.51    2.14
   3  -9   1   38.17    1.80
   3  -9   1   40.01    2.03
   3  -9   1   40.17    2.29
   3  -9   1   39.76    2.04
   3  -9   1   43.06    2.21
   3  -9   1   42.07    2.21
  -4   9  -1   36.35    2.03
  -4   9  -1   35.32    2.13
   4  -9   1   33.57    1.96
   4  -9   1   33.30    2.24
   4  -9   1   38.20    2.28
   4  -9   1   37.25    2.16
   4  -9   1   35.17    2.08
   4  -9   1   38.89    1.93
   4  -9   1   34.84    2.15
   4  -9   1   37.74    1.86
   4  -9   1   35.20    1.81
   4  -9   1   33.09    2.70
  -5   9  -1   30.72    1.94
  -5   9  -1   28.63    1.84
   5  -9   1   30.89    2.29
   5  -9   1   30.98    2.11
   5  -9   1   32.87    1.66
   5  -9   1   27.57    1.85
   5  -9   1   33.84    2.27
   5  -9   1   31.68    1.81
   5  -9   1   28.05    1.92
   5  -9   1   29.06    1.74
   5  -9   1   28.39    2.36
   5  -9   1   28.40    1.69
  -6   9  -1   38.29    2.32
   6  -9   1   42.72    2.18
   6  -9   1   37.79    2.13
   6  -9   1   37.37    2.01
   6  -9   1   41.91    2.14
   6  -9   1   39.48    2.28
   6  -9   1   41.65    1.93
   6  -9   1   38.90    2.51
  -7   9  -1   24.89    1.98
   7  -9   1   24.26    1.48
   7  -9   1   25.79    1.88
   7  -9   1   23.32    1.57
   7  -9   1   24.11    1.98
   7  -9   1   23.32    2.24
   1   8  -1   34.21    2.36
  -1  -8   1   35.34    2.41
  -1  -8   1   35.02    2.25
  -1  -8   1   35.68    2.15
   0   8  -1   12.61    1.53
   0  -8   1   15.48    1.57
   0  -8   1   14.02    1.45
   0  -8   1   17.01    1.10
   0  -8   1   15.72    1.37
  -1   8  -1   55.86    2.88
   1  -8   1   57.45    2.52
   1  -8   1   58.36    2.09
   1  -8   1   60.24    2.22
   1  -8   1   59.27    2.72
   1  -8   1   56.73    2.60
  -2   8  -1   27.23    1.79
   2  -8   1   27.22    1.67
   2  -8   1   25.95    1.63
   2  -8   1   27.24    1.24
   2  -8   1   25.47    1.50
   2  -8   1   27.84    1.47
   2  -8   1   26.51    1.71
   2  -8   1   24.18    2.07
  -3   8  -1   47.38    2.38
  -3   8  -1   46.45    2.20
   3  -8   1   48.41    1.98
   3  -8   1   43.97    2.29
   3  -8   1   50.59    2.21
   3  -8   1   46.36    2.55
   3  -8   1   47.60    2.22
   3  -8   1   46.26    2.17
   3  -8   1   47.68    2.32
   3  -8   1   48.68    2.29
   3  -8   1   47.69    2.22
  -4   8  -1   13.94    1.24
  -4   8  -1   14.04    1.19
   4  -8   1   13.41    1.04
   4  -8   1   13.98    1.03
   4  -8   1   12.47    1.41
   4  -8   1   13.25    1.16
   4  -8   1   15.06    1.22
   4  -8   1   11.63    1.08
   4  -8   1   12.00    1.08
   4  -8   1   13.95    1.30
   4  -8   1   12.30    1.27
   4  -8   1   12.76    1.51
  -5   8  -1   97.73    3.81
  -5   8  -1   94.99    3.90
   5  -8   1   95.56    3.58
   5  -8   1   95.60    3.79
   5  -8   1   90.31    3.83
   5  -8   1   95.86    3.68
   5  -8   1   98.44    3.64
   5  -8   1   96.54    3.48
   5  -8   1   95.59    3.90
   5  -8   1   90.33    3.63
  -6   8  -1   24.36    1.70
   6  -8   1   24.97    1.79
   6  -8   1   25.61    1.97
   6  -8   1   26.44    1.58
   6  -8   1   26.92    1.30
   6  -8   1   24.93    1.68
   6  -8   1   25.68    1.40
   6  -8   1   26.42    1.42
   6  -8   1   21.96    1.72
  -7   8  -1   98.33    4.30
   7  -8   1   99.62    4.14
   7  -8   1   99.60    4.03
   7  -8   1   99.73    3.60
   7  -8   1  102.09    3.96
   7  -8   1  104.28    3.66
  -8   8  -1   35.42    2.40
   8  -8   1   40.34    2.12
   8  -8   1   38.38    1.92
   8  -8   1   37.35    2.28
   8  -8   1   38.24    2.42
   2   7  -1   58.01    2.93
   2   7  -1   59.74    3.12
  -2  -7   1   56.58    2.75
  -2  -7   1   58.52    2.92
  -2  -7   1   59.23    2.76
   1   7  -1   28.43    1.96
  -1  -7   1   29.66    1.85
  -1  -7   1   29.60    1.71
  -1  -7   1   29.12    1.38
  -1  -7   1   27.86    1.70
   0   7  -1   66.51    3.25
   0  -7   1   73.49    2.97
   0  -7   1   76.39    3.15
   0  -7   1   78.08    2.83
   0  -7   1   76.22    3.14
   0  -7   1   76.22    3.04
  -1   7  -1   49.88    2.47
   1  -7   1   51.66    2.34
   1  -7   1   52.64    2.04
   1  -7   1   53.63    2.26
   1  -7   1   54.35    2.66
   1  -7   1   52.05    2.32
   1  -7   1   53.48    2.21
   1  -7   1   51.34    1.91
  -2   7  -1  157.83    5.88
   2  -7   1  152.42    5.40
   2  -7   1  170.20    5.99
   2  -7   1  168.85    5.57
   2  -7   1  145.13    5.91
   2  -7   1  170.30    5.69
   2  -7   1  158.44    5.57
   2  -7   1  157.73    5.71
  -3   7  -1   85.43    3.19
  -3   7  -1   78.85    3.26
   3  -7   1   81.14    3.11
   3  -7   1   80.10    3.26
   3  -7   1   79.01    3.15
   3  -7   1   77.50    2.95
   3  -7   1   81.65    3.08
   3  -7   1   79.69    3.05
   3  -7   1   80.08    3.35
   3  -7   1   79.76    3.16
   3  -7   1   80.91    3.10
  -4   7  -1  149.43    5.43
  -4   7  -1  152.70    5.49
   4  -7   1  142.66    5.33
   4  -7   1  149.40    5.15
   4  -7   1  155.39    5.41
   4  -7   1  151.22    5.23
   4  -7   1  147.13    5.28
   4  -7   1  154.12    5.52
   4  -7   1  148.35    5.39
   4  -7   1  152.50    5.27
  -5   7  -1   12.29    1.11
   5  -7   1   11.70    1.14
   5  -7   1    9.67    1.16
   5  -7   1   12.42    1.10
   5  -7   1   14.26    1.10
   5  -7   1   12.82    0.88
   5  -7   1   12.55    1.11
   5  -7   1   11.85    0.77
  -6   7  -1   93.95    3.88
   6  -7   1   98.09    3.69
   6  -7   1   93.93    3.33
   6  -7   1   94.77    3.38
   6  -7   1   96.27    3.69
   6  -7   1   97.13    3.75
   6  -7   1   98.13    3.86
   6  -7   1   79.46    4.38
  -7   7  -1   48.78    2.49
   7  -7   1   46.86    2.12
   7  -7   1   42.42    2.22
   7  -7   1   46.74    2.55
   7  -7   1   47.23    2.36
   7  -7   1   48.76    1.83
   7  -7   1   46.73    1.84
   7  -7   1   46.37    2.42
  -8   7  -1   68.46    3.33
   8  -7   1   65.53    3.17
   8  -7   1   71.12    2.89
   8  -7   1   69.50    2.39
   8  -7   1   67.08    2.70
   8  -7   1   66.63    3.08
   8  -7   1   67.82    2.39
  -9   7  -1   17.13    1.79
   9  -7   1   20.87    1.45
   9  -7   1   18.21    1.93
   9  -7   1   21.84    2.08
   4   6  -1   49.45    2.78
   4   6  -1   49.18    3.29
  -4  -6   1   51.32    2.91
  -4  -6   1   49.67    2.81
   3   6  -1   41.42    2.61
   3   6  -1   43.66    2.50
   3   6  -1   46.39    2.47
  -3  -6   1   44.39    2.34
  -3  -6   1   45.30    1.84
  -3  -6   1   43.60    2.33
  -3  -6   1   43.09    2.43
   2   6  -1   32.05    2.09
   2   6  -1   31.63    1.98
   2   6  -1   36.30    1.88
  -2  -6   1   36.34    1.94
  -2  -6   1   31.83    1.77
  -2  -6   1   34.16    1.87
  -2  -6   1   35.87    1.83
  -2  -6   1   34.32    1.84
   1   6  -1   92.85    3.34
   1   6  -1   79.99    3.52
  -1  -6   1   84.31    3.27
  -1  -6   1   83.31    3.08
  -1  -6   1   86.44    3.42
  -1  -6   1   84.06    3.26
  -1  -6   1   81.69    3.32
   0   6  -1   66.60    3.00
   0  -6   1   72.58    2.89
   0  -6   1   70.68    2.83
   0  -6   1   72.92    2.77
   0  -6   1   75.11    2.80
   0  -6   1   68.53    2.40
   0  -6   1   75.22    2.46
   0  -6   1   70.30    2.83
  -1   6  -1   86.16    3.61
   1  -6   1   89.39    3.50
   1  -6   1   94.60    3.31
   1  -6   1   99.70    3.50
   1  -6   1   94.59    3.21
   1  -6   1   98.16    3.50
   1  -6   1   93.14    3.40
  -2   6  -1    8.88    0.70
  -2   6  -1    6.45    0.78
   2  -6   1    6.76    0.73
   2  -6   1    6.71    0.84
   2  -6   1    7.34    0.63
   2  -6   1    7.59    0.77
   2  -6   1    6.59    0.66
   2  -6   1    7.57    0.55
   2  -6   1    7.51    0.70
  -3   6  -1  133.63    4.67
  -3   6  -1  123.98    4.65
   3  -6   1  130.94    4.66
   3  -6   1  130.62    4.50
   3  -6   1  127.84    4.53
   3  -6   1  131.59    4.53
   3  -6   1  132.30    4.62
   3  -6   1  130.76    4.75
   3  -6   1  126.68    4.57
  -4   6  -1   62.86    2.61
  -4   6  -1   63.88    2.53
   4  -6   1   64.33    2.60
   4  -6   1   59.75    2.50
   4  -6   1   62.37    2.30
   4  -6   1   64.93    2.59
   4  -6   1   66.96    2.39
   4  -6   1   59.02    2.43
   4  -6   1   67.19    2.55
  -5   6  -1   57.68    2.48
   5  -6   1   57.60    2.38
   5  -6   1   55.99    2.09
   5  -6   1   51.59    2.26
   5  -6   1   57.14    2.31
   5  -6   1   56.87    2.43
   5  -6   1   56.27    2.35
   5  -6   1   53.91    2.04
  -6   6  -1   67.53    3.02
   6  -6   1   68.40    2.90
   6  -6   1   69.56    2.51
   6  -6   1   69.75    2.49
   6  -6   1   68.61    2.98
   6  -6   1   73.23    2.75
   6  -6   1   75.26    2.93
   6  -6   1   71.18    2.86
  -7   6  -1   76.02    3.49
   7  -6   1   85.68    3.35
   7  -6   1   84.46    3.51
   7  -6   1   82.58    2.84
   7  -6   1   84.73    3.10
   7  -6   1   81.88    2.84
   7  -6   1   83.03    3.39
   7  -6   1   78.52    3.39
   7  -6   1   84.86    3.23
  -8   6  -1   38.50    2.45
  -8   6  -1   35.65    2.20
   8  -6   1   36.77    2.04
   8  -6   1   38.31    1.83
   8  -6   1   37.06    1.65
   8  -6   1   38.88    2.20
  -9   6  -1   46.68    3.11
   9  -6   1   47.41    2.68
   9  -6   1   46.79    2.09
   9  -6   1   41.85    2.48
   5   5  -1    7.90    1.57
  -5  -5   1    9.23    1.31
  -5  -5   1    8.47    1.32
  -5  -5   1    8.25    1.18
   4   5  -1   32.27    2.02
   4   5  -1   31.42    2.25
   4   5  -1   30.20    2.17
  -4  -5   1   36.19    2.06
  -4  -5   1   31.29    1.99
  -4  -5   1   36.10    1.58
  -4  -5   1   35.03    2.10
   3   5  -1   13.37    1.41
   3   5  -1   15.57    1.31
   3   5  -1   14.37    1.29
  -3  -5   1   16.97    1.31
  -3  -5   1   15.02    1.27
  -3  -5   1   16.12    0.93
  -3  -5   1   14.60    1.28
  -3  -5   1   15.21    1.23
   2   5  -1   94.89    3.79
   2   5  -1   95.01    3.74
   2   5  -1   98.16    3.61
  -2  -5   1   87.89    4.22
  -2  -5   1   87.90    3.54
  -2  -5   1   95.85    3.53
  -2  -5   1   95.24    3.29
  -2  -5   1   92.96    3.56
   1   5  -1   56.83    2.58
   1   5  -1   53.20    2.42
   1   5  -1   51.77    2.37
  -1  -5   1   55.98    2.23
  -1  -5   1   53.19    2.27
  -1  -5   1   54.79    2.23
  -1  -5   1   55.49    2.30
  -1  -5   1   59.85    2.07
   0   5  -1  115.18    4.37
   0  -5   1  116.87    3.90
   0  -5   1  123.02    4.20
   0  -5   1  118.25    4.26
   0  -5   1  119.88    3.96
   0  -5   1  117.89    4.17
   0  -5   1  121.42    4.24
  -1   5  -1   30.26    1.48
   1  -5   1   28.03    1.29
   1  -5   1   29.76    1.25
   1  -5   1   32.75    1.38
   1  -5   1   31.61    1.37
   1  -5   1   30.08    1.17
   1  -5   1   30.31    1.38
  -2   5  -1   80.78    2.94
   2  -5   1   75.14    2.95
   2  -5   1   79.02    2.80
   2  -5   1   76.32    2.72
   2  -5   1   76.10    2.78
   2  -5   1   75.42    2.85
  -3   5  -1   76.08    2.76
  -3   5  -1   75.13    2.80
   3  -5   1   71.20    2.66
   3  -5   1   71.47    2.72
   3  -5   1   73.98    2.75
   3  -5   1   71.85    2.62
   3  -5   1   75.01    2.82
  -4   5  -1  184.93    6.39
   4  -5   1  177.31    6.22
   4  -5   1  181.57    6.29
   4  -5   1  178.22    6.03
   4  -5   1  186.37    6.28
   4  -5   1  184.93    6.08
   4  -5   1  193.60    6.30
  -5   5  -1   85.07    3.30
   5  -5   1   84.09    2.87
   5  -5   1   82.02    2.85
   5  -5   1   84.66    3.07
   5  -5   1   80.60    3.17
   5  -5   1   84.29    3.16
   5  -5   1   83.07    3.11
  -6   5  -1   91.64    3.69
  -6   5  -1   92.05    3.67
   6  -5   1   94.49    3.46
   6  -5   1   88.57    3.56
   6  -5   1   91.87    3.54
   6  -5   1   95.27    3.62
   6  -5   1   94.44    3.49
   6  -5   1   92.56    3.33
   6  -5   1   90.50    3.12
  -7   5  -1    6.65    0.87
  -7   5  -1    6.06    0.75
  -7   5  -1    5.03    0.85
  -7   5  -1    5.92    0.88
   7  -5   1    5.56    0.69
   7  -5   1    4.95    0.83
   7  -5   1    6.79    0.81
   7  -5   1    6.59    0.44
   7  -5   1    4.99    0.76
   7  -5   1    7.44    0.82
   7  -5   1    6.95    0.91
  -8   5  -1   67.48    3.36
  -8   5  -1   72.13    3.37
  -8   5  -1   75.07    2.79
  -8   5  -1   68.35    3.28
   8  -5   1   73.68    2.85
   8  -5   1   73.62    2.66
   8  -5   1   71.29    3.27
   8  -5   1   70.96    3.21
   8  -5   1   72.12    3.24
   8  -5   1   73.11    3.06
  -9   5  -1   41.45    2.53
  -9   5  -1   42.43    1.95
  -9   5  -1   43.41    2.85
   9  -5   1   46.08    2.02
   9  -5   1   39.87    2.54
   9  -5   1   40.26    2.35
   9  -5   1   46.76    2.11
   6   4  -1   23.85    1.91
   6   4  -1   25.30    2.55
  -6  -4   1   25.82    2.20
  -6  -4   1   22.17    2.18
  -6  -4   1   26.00    1.52
   5   4  -1   70.15    3.46
   5   4  -1   70.70    3.28
   5   4  -1   77.69    3.52
   5   4  -1   77.24    3.28
  -5  -4   1   74.78    3.34
  -5  -4   1   78.99    2.94
  -5  -4   1   70.87    3.27
  -5  -4   1   77.31    3.34
  -5  -4   1   78.49    3.34
   4   4  -1   27.91    1.84
   4   4  -1   29.15    1.66
   4   4  -1   29.13    1.80
   4   4  -1   26.26    1.67
  -4  -4   1   30.27    1.38
  -4  -4   1   26.89    1.72
  -4  -4   1   32.07    1.70
  -4  -4   1   31.29    1.71
  -4  -4   1   30.34    1.65
   3   4  -1   91.98    3.51
   3   4  -1   91.86    3.62
   3   4  -1   89.31    3.61
   3   4  -1  100.11    3.60
  -3  -4   1   81.62    3.50
  -3  -4   1   90.97    3.53
  -3  -4   1   90.42    3.50
  -3  -4   1   91.26    3.47
  -3  -4   1   94.70    3.47
   2   4  -1   67.54    2.68
   2   4  -1   71.40    2.70
   2   4  -1   64.12    2.73
   2   4  -1   69.00    2.80
  -2  -4   1   70.05    2.45
  -2  -4   1   67.17    2.66
  -2  -4   1   66.93    2.69
  -2  -4   1   71.25    2.65
  -2  -4   1   70.67    2.66
   1   4  -1  250.93    8.43
   1   4  -1  253.52    8.49
   1   4  -1  243.33    8.52
   1   4  -1  259.61    8.41
  -1  -4   1  238.97    8.37
  -1  -4   1  244.78    8.43
  -1  -4   1  258.38    8.23
  -1  -4   1  260.74    8.38
  -1  -4   1  258.94    8.42
   0   4  -1   20.79    1.08
   0   4  -1   20.59    0.99
   0   4  -1   19.79    0.95
   0  -4   1   20.95    0.82
   0  -4   1   18.98    0.94
   0  -4   1   19.58    0.97
   0  -4   1   21.73    0.97
   0  -4   1   20.72    0.77
   0  -4   1   19.56    0.99
  -1   4  -1  326.01   10.84
  -1   4  -1  339.43   10.71
   1  -4   1  312.16   10.70
   1  -4   1  345.87   10.76
   1  -4   1  319.64   10.62
   1  -4   1  332.75   10.73
  -2   4  -1   78.55    2.77
   2  -4   1   76.83    2.69
   2  -4   1   80.01    2.70
   2  -4   1   73.23    2.82
  -3   4  -1  198.57    6.37
  -3   4  -1  196.63    6.45
   3  -4   1  191.47    6.40
   3  -4   1  185.92    6.20
   3  -4   1  190.00    6.23
   3  -4   1  189.30    6.39
   3  -4   1  186.12    6.33
   3  -4   1  185.17    6.36
  -4   4  -1   48.75    1.88
  -4   4  -1   49.33    2.01
   4  -4   1   46.55    1.92
   4  -4   1   47.96    1.86
   4  -4   1   48.21    1.88
   4  -4   1   47.09    1.92
   4  -4   1   48.16    1.68
  -5   4  -1  225.18    7.60
  -5   4  -1  236.24    7.59
  -5   4  -1  223.25    7.40
  -5   4  -1  221.01    7.63
   5  -4   1  184.52    7.95
   5  -4   1  217.34    7.54
   5  -4   1  232.97    7.48
   5  -4   1  223.05    7.45
   5  -4   1  222.11    7.18
   5  -4   1  225.33    7.36
  -6   4  -1   56.87    2.46
  -6   4  -1   49.33    2.40
  -6   4  -1   58.53    2.45
  -6   4  -1   55.68    2.17
   6  -4   1   55.02    2.22
   6  -4   1   55.12    2.37
   6  -4   1   53.37    2.09
   6  -4   1   56.68    2.39
   6  -4   1   54.61    1.90
   6  -4   1   58.43    2.36
   6  -4   1   52.84    2.23
  -7   4  -1   83.92    3.57
  -7   4  -1   82.23    3.54
  -7   4  -1   86.83    3.17
  -7   4  -1   90.41    3.55
   7  -4   1   83.19    3.57
   7  -4   1   86.30    3.44
   7  -4   1   82.15    3.19
   7  -4   1   84.44    2.85
   7  -4   1   87.07    3.05
   7  -4   1   86.88    3.44
   7  -4   1   83.09    3.46
  -8   4  -1   20.76    1.78
  -8   4  -1   21.92    1.27
  -8   4  -1   21.81    1.84
  -8   4  -1   21.37    1.60
   8  -4   1   21.03    1.11
   8  -4   1   21.87    1.65
   8  -4   1   18.80    1.23
   8  -4   1   20.25    1.40
   8  -4   1   21.55    1.69
   8  -4   1   22.82    1.73
  -9   4  -1   87.46    3.32
  -9   4  -1   86.90    4.10
  -9   4  -1   78.56    3.79
   9  -4   1   84.78    3.09
   9  -4   1   87.23    3.57
   9  -4   1   82.33    3.30
   9  -4   1   86.45    3.92
   6   3  -1   64.84    3.04
   6   3  -1   67.18    3.03
   6   3  -1   65.70    3.36
  -6  -3   1   69.36    3.13
  -6  -3   1   72.41    3.25
  -6  -3   1   73.14    3.10
  -6  -3   1   73.02    3.29
  -6  -3   1   68.53    2.80
   5   3  -1   35.13    1.86
   5   3  -1   35.23    2.08
   5   3  -1   39.25    2.06
   5   3  -1   34.96    1.88
  -5  -3   1   35.35    1.92
  -5  -3   1   38.93    1.90
  -5  -3   1   37.29    1.67
  -5  -3   1   37.36    1.94
  -5  -3   1   36.32    2.02
   4   3  -1   74.57    2.94
   4   3  -1   68.64    2.98
   4   3  -1   79.51    3.11
   4   3  -1   67.92    3.04
  -4  -3   1   77.27    2.77
  -4  -3   1   79.28    3.08
  -4  -3   1   74.48    2.97
  -4  -3   1   74.44    2.97
  -4  -3   1   76.31    2.93
   3   3  -1   45.94    2.02
   3   3  -1   41.20    2.47
   3   3  -1   44.01    1.93
   3   3  -1   47.01    2.04
  -3  -3   1   49.11    1.96
  -3  -3   1   44.11    1.93
  -3  -3   1   45.06    1.92
  -3  -3   1   50.49    1.79
  -3  -3   1   46.73    2.01
   2   3  -1  260.48    8.69
   2   3  -1  267.60    8.73
   2   3  -1  268.69    8.66
   2   3  -1  258.89    8.63
  -2  -3   1  246.14    8.62
  -2  -3   1  245.25    8.62
  -2  -3   1  264.90    8.61
  -2  -3   1  274.90    8.46
  -2  -3   1  248.54    8.58
   1   3  -1   57.77    2.18
   1   3  -1   62.19    2.25
   1   3  -1   56.33    2.14
   1   3  -1   56.49    2.16
  -1  -3   1   56.48    2.11
  -1  -3   1   57.67    2.15
  -1  -3   1   62.31    2.02
  -1  -3   1   56.62    2.16
  -1  -3   1   56.09    2.14
   0   3  -1  187.54    6.11
   0   3  -1  182.00    6.02
   0   3  -1  178.91    6.03
   0   3  -1  183.50    6.01
   0  -3   1  172.15    5.86
   0  -3   1  188.67    6.00
   0  -3   1  186.19    6.02
   0  -3   1  176.70    6.00
  -1   3  -1  140.71    4.41
  -1   3  -1  136.68    4.49
   1  -3   1  125.06    4.50
   1  -3   1  129.95    4.40
   1  -3   1  130.69    4.36
   1  -3   1  132.54    4.40
  -2   3  -1  110.96    3.65
  -2   3  -1  110.14    3.63
   2  -3   1  102.71    3.62
   2  -3   1  102.02    3.64
   2  -3   1  107.34    3.52
   2  -3   1  105.17    3.59
   2  -3   1  106.37    3.58
  -3   3  -1   37.52    1.46
  -3   3  -1   35.68    1.49
  -3   3  -1   36.72    1.52
  -3   3  -1   37.58    1.48
   3  -3   1   36.67    1.47
   3  -3   1   36.61    1.28
   3  -3   1   38.74    1.45
   3  -3   1   37.72    1.45
  -4   3  -1  183.75    6.16
  -4   3  -1  194.84    6.33
  -4   3  -1  185.40    6.29
  -4   3  -1  188.35    6.28
   4  -3   1  182.01    5.97
   4  -3   1  177.32    6.17
   4  -3   1  176.77    6.12
   4  -3   1  172.35    6.24
   4  -3   1  187.03    6.24
   4  -3   1  198.51    6.23
  -5   3  -1   68.24    2.83
  -5   3  -1   70.96    2.85
  -5   3  -1   74.80    2.43
  -5   3  -1   71.64    2.67
  -5   3  -1   77.61    2.86
   5  -3   1   74.93    2.62
   5  -3   1   69.44    2.80
   5  -3   1   78.07    2.80
   5  -3   1   69.00    2.68
   5  -3   1   73.60    2.45
   5  -3   1   72.69    2.89
  -6   3  -1  153.90    5.58
  -6   3  -1  151.15    5.31
  -6   3  -1  152.02    5.04
  -6   3  -1  150.48    5.56
  -6   3  -1  158.25    5.56
   6  -3   1  149.43    5.34
   6  -3   1  147.73    5.51
   6  -3   1  151.07    5.04
   6  -3   1  157.13    5.49
   6  -3   1  163.05    5.35
   6  -3   1  156.93    5.20
   6  -3   1  156.48    5.47
  -7   3  -1   30.50    1.53
  -7   3  -1   30.31    1.22
  -7   3  -1   32.34    1.77
  -7   3  -1   31.20    1.85
  -7   3  -1   30.27    1.78
   7  -3   1   30.71    1.20
   7  -3   1   32.59    1.37
   7  -3   1   31.49    1.73
   7  -3   1   33.97    1.74
   7  -3   1   31.85    1.57
   7  -3   1   30.27    1.79
   7  -3   1   29.48    1.48
  -8   3  -1   79.26    3.54
  -8   3  -1   78.50    3.45
  -8   3  -1   75.73    3.55
  -8   3  -1   79.21    2.76
  -8   3  -1   78.48    3.13
   8  -3   1   73.02    3.46
   8  -3   1   78.39    3.17
   8  -3   1   78.57    2.73
   8  -3   1   77.91    3.45
   8  -3   1   80.66    2.91
   8  -3   1   81.76    3.37
   8  -3   1   82.60    3.11
  -9   3  -1   35.76    2.00
  -9   3  -1   34.39    2.24
  -9   3  -1   35.09    2.62
   9  -3   1   35.78    2.04
   9  -3   1   37.31    1.86
   9  -3   1   37.18    2.61
   9  -3   1   35.23    1.74
   7   2  -1   24.22    2.24
   7   2  -1   26.28    1.71
   7   2  -1   27.87    1.80
  -7  -2   1   28.57    1.64
  -7  -2   1   31.95    2.23
  -7  -2   1   28.50    1.98
  -7  -2   1   26.61    2.07
   6   2  -1   26.43    1.77
   6   2  -1   24.17    1.82
   6   2  -1   26.17    1.56
   6   2  -1   29.33    1.62
   6   2  -1   27.94    1.08
   6   2  -1   27.20    1.18
  -6  -2   1   25.99    1.73
  -6  -2   1   30.54    1.88
  -6  -2   1   27.32    1.58
  -6  -2   1   26.58    1.45
  -6  -2   1   27.88    1.69
   5   2  -1   59.57    2.21
   5   2  -1   60.56    2.66
   5   2  -1   60.28    2.14
   5   2  -1   61.39    2.76
   5   2  -1   61.50    2.60
   5   2  -1   61.81    2.56
  -5  -2   1   64.68    2.60
  -5  -2   1   65.90    2.78
  -5  -2   1   65.34    2.55
  -5  -2   1   62.91    2.46
  -5  -2   1   64.40    2.65
   4   2  -1   29.82    1.18
   4   2  -1   30.05    1.48
   4   2  -1   31.74    1.58
   4   2  -1   31.98    1.12
   4   2  -1   31.41    1.56
   4   2  -1   31.90    1.46
  -4  -2   1   30.91    1.52
  -4  -2   1   32.48    1.37
  -4  -2   1   32.60    1.71
  -4  -2   1   29.65    1.45
  -4  -2   1   31.05    1.58
   3   2  -1  191.79    6.36
   3   2  -1  191.01    6.66
   3   2  -1  211.06    6.79
   3   2  -1  208.29    6.43
   3   2  -1  186.52    6.73
   3   2  -1  203.80    6.74
  -3  -2   1  192.44    6.65
  -3  -2   1  211.52    6.57
  -3  -2   1  189.52    6.65
  -3  -2   1  195.15    6.75
  -3  -2   1  200.28    6.69
   2   2  -1   35.64    1.42
   2   2  -1   34.58    1.43
   2   2  -1   36.35    1.47
  -2  -2   1   32.85    1.39
  -2  -2   1   34.83    1.44
  -2  -2   1   35.50    1.41
  -2  -2   1   36.30    1.30
   1   2  -1   27.65    1.10
   1   2  -1   26.37    0.86
   1   2  -1   26.63    1.05
   1   2  -1   24.00    1.03
   1   2  -1   25.68    1.05
  -1  -2   1   26.23    1.02
  -1  -2   1   26.61    0.94
  -1  -2   1   25.99    1.04
  -1  -2   1   24.01    1.04
  -1  -2   1   26.19    1.05
   0   2  -1   86.47    2.98
   0   2  -1   87.18    2.99
   0   2  -1   88.55    2.90
   0   2  -1   94.12    3.04
   0   2  -1   94.72    2.91
   0   2  -1   87.81    2.97
   0  -2   1   88.46    2.98
   0  -2   1   84.92    2.89
   0  -2   1   92.80    2.96
   0  -2   1   84.86    2.97
  -1   2  -1  309.76    9.48
  -1   2  -1  314.52    9.52
   1  -2   1  271.46    9.44
   1  -2   1  285.72    9.52
   1  -2   1  289.72    9.43
  -2   2  -1  342.09   10.80
  -2   2  -1  357.14   10.82
  -2   2  -1  323.56   10.77
  -2   2  -1  318.44   10.76
   2  -2   1  309.83   10.75
   2  -2   1  346.46   10.79
   2  -2   1  336.82   10.77
  -3   2  -1  214.69    7.48
  -3   2  -1  224.02    7.44
  -3   2  -1  223.65    7.25
  -3   2  -1  234.89    7.51
  -3   2  -1  227.18    7.52
   3  -2   1  224.16    7.42
   3  -2   1  208.36    7.46
   3  -2   1  231.83    7.42
   3  -2   1  232.87    7.48
   3  -2   1  246.71    7.49
  -4   2  -1   26.73    1.00
  -4   2  -1   27.36    1.19
  -4   2  -1   28.82    1.28
  -4   2  -1   27.38    1.26
   4  -2   1   26.29    1.24
   4  -2   1   27.46    0.99
   4  -2   1   29.23    1.22
   4  -2   1   26.18    1.14
   4  -2   1   28.16    1.12
   4  -2   1   26.49    1.22
  -5   2  -1   88.63    3.28
  -5   2  -1   87.30    2.94
  -5   2  -1   84.69    3.17
  -5   2  -1   85.40    3.27
  -5   2  -1   86.04    3.29
   5  -2   1   85.55    3.27
   5  -2   1   83.70    2.91
   5  -2   1   90.29    3.24
   5  -2   1   82.62    3.09
   5  -2   1   89.34    3.14
   5  -2   1   88.10    3.04
  -6   2  -1   31.44    1.58
  -6   2  -1   35.31    1.72
  -6   2  -1   32.43    1.72
  -6   2  -1   29.30    1.63
  -6   2  -1   32.98    1.32
   6  -2   1   35.60    1.69
   6  -2   1   32.70    1.50
   6  -2   1   31.74    1.64
   6  -2   1   33.30    1.40
   6  -2   1   33.88    1.48
   6  -2   1   32.84    1.28
   6  -2   1   33.95    1.72
  -7   2  -1   76.22    3.15
  -7   2  -1   70.61    2.64
  -7   2  -1   71.28    2.95
  -7   2  -1   69.66    3.18
  -7   2  -1   68.25    3.06
   7  -2   1   74.00    2.97
   7  -2   1   67.17    2.83
   7  -2   1   74.88    2.84
   7  -2   1   73.65    3.17
   7  -2   1   74.33    2.60
   7  -2   1   73.68    2.71
   7  -2   1   78.36    3.13
  -8   2  -1   31.26    2.27
  -8   2  -1   35.00    2.01
  -8   2  -1   34.17    1.93
  -8   2  -1   33.10    1.58
   8  -2   1   35.60    2.01
   8  -2   1   38.01    1.64
   8  -2   1   35.66    1.49
   8  -2   1   36.16    1.80
   8  -2   1   34.66    2.22
   8  -2   1   34.09    1.76
  -9   2  -1   30.40    2.12
  -9   2  -1   29.68    2.01
  -9   2  -1   29.45    2.52
   9  -2   1   28.18    2.48
   9  -2   1   22.31    2.34
   9  -2   1   25.00    1.78
   9  -2   1   29.32    1.69
   8   1  -1   56.37    3.26
   8   1  -1   50.54    2.56
   8   1  -1   56.71    2.58
  -8  -1   1   49.83    3.16
  -8  -1   1   53.81    2.83
  -8  -1   1   51.11    2.53
  -8  -1   1   55.64    2.80
   7   1  -1    7.61    0.98
   7   1  -1    8.15    0.75
   7   1  -1    8.05    1.44
   7   1  -1    7.69    1.01
   7   1  -1    9.77    1.29
   7   1  -1    7.82    0.94
  -7  -1   1    4.98    0.93
  -7  -1   1    7.43    0.93
  -7  -1   1    7.65    1.11
  -7  -1   1    9.23    1.29
  -7  -1   1    9.43    1.13
   6   1  -1   95.47    3.32
   6   1  -1   95.12    3.78
   6   1  -1   94.51    3.61
   6   1  -1   97.90    3.60
   6   1  -1   95.94    3.42
   6   1  -1   89.79    3.85
  -6  -1   1   96.28    3.58
  -6  -1   1   93.84    3.84
  -6  -1   1   91.24    3.59
  -6  -1   1   99.13    3.67
  -6  -1   1   96.64    3.77
   5   1  -1   67.61    2.70
   5   1  -1   64.23    2.52
   5   1  -1   65.27    2.33
   5   1  -1   64.21    2.40
   5   1  -1   62.87    2.71
   5   1  -1   65.03    2.56
  -5  -1   1   68.61    2.76
  -5  -1   1   62.84    2.55
  -5  -1   1   69.72    2.54
  -5  -1   1   65.62    2.66
  -5  -1   1   62.86    2.52
   4   1  -1  311.36   10.03
   4   1  -1  292.69    9.97
   4   1  -1  300.06    9.87
   4   1  -1  302.42   10.14
   4   1  -1  298.79    9.92
   4   1  -1  318.15   10.14
  -4  -1   1  296.38    9.99
  -4  -1   1  303.28    9.97
  -4  -1   1  303.26    9.98
  -4  -1   1  311.42   10.09
  -4  -1   1  299.41   10.14
   3   1  -1   98.30    3.23
   3   1  -1   88.51    3.18
   3   1  -1   89.06    3.27
   3   1  -1   92.46    3.09
   3   1  -1   89.34    3.13
   3   1  -1   90.36    3.27
  -3  -1   1   87.13    3.16
  -3  -1   1   98.19    3.17
  -3  -1   1   91.51    3.24
  -3  -1   1   88.61    3.17
  -3  -1   1   90.52    3.30
   2   1  -1  100.00    3.42
   2   1  -1  110.34    3.41
   2   1  -1   97.19    3.29
   2   1  -1  100.28    3.44
   2   1  -1   96.94    3.38
  -2  -1   1  103.72    3.33
  -2  -1   1   95.41    3.38
  -2  -1   1  101.56    3.46
  -2  -1   1   92.87    3.35
  -2  -1   1   98.61    3.38
   1   1  -1  187.98    5.98
   1   1  -1  178.65    5.90
   1   1  -1  189.27    6.00
   1   1  -1  196.06    5.99
   1   1  -1  175.08    5.95
  -1  -1   1  184.06    5.95
  -1  -1   1  170.86    5.95
  -1  -1   1  188.04    5.97
  -1  -1   1  196.01    5.90
  -1  -1   1  179.35    5.90
  -1  -1   1  174.60    5.98
  -1   1  -1   10.57    0.43
  -1   1  -1   10.32    0.46
  -1   1  -1   11.12    0.46
   1  -1   1   10.92    0.46
   1  -1   1   10.21    0.43
   1  -1   1   10.83    0.36
  -2   1  -1  462.10   15.14
  -2   1  -1  476.99   15.14
  -2   1  -1  484.15   15.14
  -2   1  -1  437.77   15.13
   2  -1   1  491.65   15.12
   2  -1   1  499.71   15.16
   2  -1   1  444.16   15.13
   2  -1   1  473.09   15.13
  -3   1  -1   21.26    0.94
  -3   1  -1   20.65    0.93
  -3   1  -1   19.01    0.91
  -3   1  -1   19.49    0.75
  -3   1  -1   19.43    0.92
   3  -1   1   18.50    0.83
   3  -1   1   20.93    0.91
   3  -1   1   19.54    0.82
   3  -1   1   18.88    0.73
   3  -1   1   20.19    0.91
   3  -1   1   20.43    0.93
  -4   1  -1  143.90    4.86
  -4   1  -1  135.95    4.83
  -4   1  -1  137.03    4.61
  -4   1  -1  148.11    4.88
  -4   1  -1  137.92    4.85
   4  -1   1  138.45    4.82
   4  -1   1  147.49    4.81
   4  -1   1  137.37    4.69
   4  -1   1  135.24    4.59
   4  -1   1  138.42    4.87
   4  -1   1  136.22    4.68
  -5   1  -1   31.55    1.55
  -5   1  -1   28.18    1.44
  -5   1  -1   29.50    1.23
  -5   1  -1   29.81    1.48
  -5   1  -1   30.70    1.52
   5  -1   1   30.70    1.30
   5  -1   1   30.03    1.37
   5  -1   1   29.55    1.29
   5  -1   1   32.07    1.23
   5  -1   1   33.63    1.42
   5  -1   1   31.50    1.53
  -6   1  -1  135.82    4.87
  -6   1  -1  124.86    4.81
  -6   1  -1  130.89    4.90
  -6   1  -1  132.41    4.52
  -6   1  -1  137.76    4.91
   6  -1   1  129.36    4.49
   6  -1   1  130.79    4.94
   6  -1   1  128.48    4.66
   6  -1   1  129.32    4.57
   6  -1   1  130.85    4.70
   6  -1   1  134.38    4.58
   6  -1   1  138.66    4.88
  -7   1  -1  102.61    4.15
  -7   1  -1  111.23    4.32
  -7   1  -1  108.39    4.21
  -7   1  -1  103.11    4.27
  -7   1  -1  110.31    3.86
   7  -1   1  107.64    4.04
   7  -1   1  106.11    3.78
   7  -1   1  108.00    4.36
   7  -1   1  104.54    3.87
   7  -1   1  105.52    4.01
   7  -1   1  109.12    4.25
   7  -1   1  111.43    3.88
  -8   1  -1   68.77    3.39
  -8   1  -1   66.66    3.18
  -8   1  -1   67.40    3.11
  -8   1  -1   72.01    2.80
   8  -1   1   70.27    2.81
   8  -1   1   70.20    2.80
   8  -1   1   71.37    2.95
   8  -1   1   65.74    3.40
   8  -1   1   69.39    2.97
   8   0  -1   54.48    2.53
   8   0  -1   57.00    3.08
   8   0  -1   56.93    2.49
   8   0  -1   56.27    2.32
   8   0  -1   55.27    2.48
  -8   0   1   54.08    2.64
  -8   0   1   50.00    3.02
  -8   0   1   55.30    2.62
  -8   0   1   57.76    2.57
   7   0  -1   86.77    3.36
   7   0  -1   86.21    3.23
   7   0  -1   86.33    3.48
   7   0  -1   91.17    3.66
   7   0  -1   92.98    3.38
   7   0  -1   88.73    3.77
  -7   0   1   87.48    3.36
  -7   0   1   85.23    3.49
  -7   0   1   87.21    3.75
  -7   0   1   91.19    3.68
  -7   0   1   82.97    3.42
   6   0  -1   13.46    1.13
   6   0  -1   14.05    0.90
   6   0  -1   12.20    0.93
   6   0  -1   12.86    1.16
   6   0  -1   12.95    0.80
   6   0  -1   12.70    0.79
   6   0  -1   12.59    0.90
  -6   0   1   12.59    0.94
  -6   0   1   14.69    1.11
  -6   0   1   11.80    0.98
  -6   0   1   11.03    1.14
  -6   0   1   13.22    0.91
   5   0  -1  126.49    4.34
   5   0  -1  132.97    4.55
   5   0  -1  122.20    4.33
   5   0  -1  122.90    4.56
   5   0  -1  122.32    4.24
   5   0  -1  116.28    4.33
  -5   0   1  123.58    4.57
  -5   0   1  127.33    4.34
  -5   0   1  123.11    4.55
  -5   0   1  129.48    4.45
  -5   0   1  129.43    4.40
   4   0  -1   80.93    2.86
   4   0  -1   81.94    2.94
   4   0  -1   76.73    3.07
   4   0  -1   90.40    2.96
   4   0  -1   83.10    3.08
   4   0  -1   81.74    2.94
  -4   0   1   82.73    2.93
  -4   0   1   90.27    3.03
  -4   0   1   82.52    3.10
  -4   0   1   79.86    2.93
  -4   0   1   87.05    3.08
   3   0  -1  273.09    8.24
   3   0  -1  247.59    8.24
   3   0  -1  242.67    8.34
   3   0  -1  258.20    8.25
   3   0  -1  259.64    8.36
   3   0  -1  246.46    8.17
  -3   0   1  239.66    8.20
  -3   0   1  268.32    8.30
  -3   0   1  253.11    8.33
  -3   0   1  250.46    8.37
  -3   0   1  243.03    8.23
   2   0  -1    9.17    0.45
   2   0  -1   10.39    0.44
   2   0  -1    9.44    0.40
   2   0  -1    9.46    0.46
   2   0  -1    9.25    0.49
  -2   0   1    9.86    0.46
  -2   0   1   10.02    0.41
  -2   0   1    9.23    0.51
  -2   0   1    8.78    0.44
  -2   0   1    9.69    0.47
  -2   0   1    9.68    0.49
   1   0  -1  428.85   13.71
  -1   0  -1  310.72   10.02
  -1   0  -1  277.02   10.01
  -1   0  -1  339.01   10.03
   1   0   1  357.21   10.06
   1   0   1  293.58   10.02
   1   0   1  303.44    9.99
   1   0   1  301.21   10.01
  -2   0  -1  112.56    3.52
  -2   0  -1   98.44    3.51
  -2   0  -1  103.51    3.50
  -2   0  -1  102.92    3.50
  -2   0  -1  104.93    3.41
   2   0   1  104.21    3.53
   2   0   1  105.38    3.48
   2   0   1   99.10    3.40
   2   0   1  103.01    3.50
   2   0   1  105.21    3.52
   2   0   1   98.58    3.39
  -3   0  -1  375.31   12.61
  -3   0  -1  390.06   12.49
  -3   0  -1  364.10   12.62
  -3   0  -1  400.27   12.64
  -3   0  -1  407.08   12.63
   3   0   1  397.82   12.55
   3   0   1  403.05   12.63
   3   0   1  406.82   12.65
   3   0   1  384.04   12.48
   3   0   1  371.68   12.65
   3   0   1  365.34   12.45
  -4   0  -1  135.87    4.64
  -4   0  -1  128.86    4.63
  -4   0  -1  134.50    4.47
  -4   0  -1  134.45    4.68
  -4   0  -1  128.21    4.65
   4   0   1  140.40    4.64
   4   0   1  143.06    4.71
   4   0   1  122.27    4.68
   4   0   1  132.49    4.52
   4   0   1  130.72    4.46
   4   0   1  128.88    4.42
  -5   0  -1  112.80    4.12
  -5   0  -1  115.30    4.17
  -5   0  -1  112.78    3.89
  -5   0  -1  113.58    4.10
  -5   0  -1  108.64    4.14
   5   0   1  115.39    4.15
   5   0   1  111.64    3.88
   5   0   1  110.32    4.20
   5   0   1  109.88    3.83
   5   0   1  109.09    3.94
   5   0   1  112.48    3.91
   5   0   1  113.10    4.06
  -6   0  -1   13.85    1.18
  -6   0  -1   12.60    1.13
  -6   0  -1   13.61    0.89
  -6   0  -1   11.91    1.17
  -6   0  -1   12.31    0.99
   6   0   1   11.44    0.90
   6   0   1   10.37    1.17
   6   0   1   11.66    0.94
   6   0   1   13.22    0.88
   6   0   1   11.45    0.76
   6   0   1    9.60    1.09
   6   0   1   12.69    0.84
  -7   0  -1  100.21    4.13
  -7   0  -1   94.37    4.00
  -7   0  -1   97.91    3.68
  -7   0  -1   95.75    4.07
  -7   0  -1   97.21    3.92
   7   0   1   98.38    3.71
   7   0   1  100.24    3.56
   7   0   1  105.36    3.80
   7   0   1  102.10    4.09
   7   0   1  101.16    3.64
   7   0   1   94.99    3.85
   7   0   1   96.71    4.14
  -8   0  -1   14.08    1.35
  -8   0  -1   15.78    1.95
  -8   0  -1   13.05    1.43
  -8   0  -1   16.13    1.76
   8   0   1   14.88    1.34
   8   0   1   11.05    1.37
   8   0   1   15.52    1.18
   8   0   1   13.83    1.76
   9  -1  -1   12.69    1.27
   9  -1  -1   12.93    1.42
   9  -1  -1   10.41    1.62
   9  -1  -1    9.99    1.14
  -9   1   1   13.18    1.82
  -9   1   1   11.08    1.40
   8  -1  -1   48.27    2.12
   8  -1  -1   46.70    2.20
   8  -1  -1   46.72    2.12
   8  -1  -1   45.62    2.67
   8  -1  -1   46.41    2.36
  -8   1   1   52.19    2.75
  -8   1   1   45.07    2.19
  -8   1   1   47.75    2.38
  -8   1   1   51.47    2.22
   7  -1  -1   22.37    1.38
   7  -1  -1   22.08    1.05
   7  -1  -1   23.51    1.22
   7  -1  -1   20.85    1.18
   7  -1  -1   21.71    1.56
   7  -1  -1   21.01    1.49
   7  -1  -1   22.43    1.19
  -7   1   1   21.42    1.27
  -7   1   1   19.65    1.60
  -7   1   1   24.44    1.25
  -7   1   1   22.40    1.53
  -7   1   1   21.18    1.36
   6  -1  -1  116.20    4.10
   6  -1  -1  113.98    3.97
   6  -1  -1  109.71    3.85
   6  -1  -1  111.28    4.29
   6  -1  -1  119.04    4.25
   6  -1  -1  110.96    3.96
  -6   1   1  114.92    4.21
  -6   1   1  103.25    4.00
  -6   1   1  108.96    4.30
  -6   1   1  123.22    4.30
  -6   1   1  115.24    4.00
   5  -1  -1   87.94    3.05
   5  -1  -1   88.96    3.27
   5  -1  -1   89.73    3.17
   5  -1  -1   90.88    3.41
   5  -1  -1   92.68    3.16
   5  -1  -1   94.35    3.37
  -5   1   1   93.40    3.19
  -5   1   1   89.00    3.20
  -5   1   1   84.17    3.40
  -5   1   1   88.99    3.37
  -5   1   1   91.05    3.35
   4  -1  -1  106.30    3.72
   4  -1  -1  104.77    3.52
   4  -1  -1  105.04    3.80
   4  -1  -1  115.82    3.61
   4  -1  -1  107.37    3.77
   4  -1  -1  106.45    3.62
  -4   1   1  101.87    3.80
  -4   1   1  105.48    3.76
  -4   1   1  107.77    3.79
  -4   1   1  105.48    3.63
  -4   1   1  106.65    3.63
   3  -1  -1  137.20    4.72
   3  -1  -1  133.66    4.53
   3  -1  -1  140.90    4.64
   3  -1  -1  136.68    4.76
   3  -1  -1  143.33    4.59
   3  -1  -1  143.51    4.73
  -3   1   1  139.54    4.65
  -3   1   1  143.09    4.77
  -3   1   1  148.95    4.76
  -3   1   1  139.96    4.59
  -3   1   1  139.57    4.76
   2  -1  -1  209.73    7.09
   2  -1  -1  234.37    6.96
   2  -1  -1  216.39    7.08
   2  -1  -1  209.35    7.01
   2  -1  -1  212.26    7.05
  -2   1   1  224.21    7.10
  -2   1   1  197.12    7.08
  -2   1   1  212.30    7.01
  -2   1   1  219.54    7.08
  -2   1   1  237.01    7.12
   1  -1  -1   99.90    3.28
   1  -1  -1  102.17    3.36
   1  -1  -1   92.14    3.31
   1  -1  -1  101.45    3.30
  -1   1   1  101.82    3.31
  -1   1   1   91.97    3.31
  -1   1   1  113.61    3.29
  -1   1   1  103.40    3.37
  -1   1   1  108.30    3.38
   0  -1  -1  246.18    8.15
   0  -1  -1  238.48    8.04
   0   1   1  253.39    8.11
   0   1   1  267.35    8.13
   0   1   1  254.37    8.16
  -1  -1  -1   43.88    1.49
  -1  -1  -1   41.36    1.59
  -1  -1  -1   43.03    1.65
  -1  -1  -1   48.87    1.65
  -1  -1  -1   42.04    1.59
   1   1   1   45.07    1.51
   1   1   1   45.83    1.64
   1   1   1   49.22    1.62
   1   1   1   48.78    1.68
   1   1   1   46.68    1.68
  -2  -1  -1  101.04    3.54
  -2  -1  -1  100.98    3.52
  -2  -1  -1  100.88    3.45
  -2  -1  -1   99.08    3.49
  -2  -1  -1  107.40    3.51
   2   1   1  102.45    3.52
   2   1   1  100.13    3.50
   2   1   1  103.65    3.57
   2   1   1  106.03    3.56
   2   1   1  100.24    3.45
   2   1   1  100.69    3.32
  -3  -1  -1   29.22    1.32
  -3  -1  -1   31.49    1.25
  -3  -1  -1   29.45    1.32
  -3  -1  -1   30.83    1.37
   3   1   1   32.09    1.11
   3   1   1   30.50    1.35
   3   1   1   30.17    1.24
   3   1   1   29.61    1.36
   3   1   1   29.12    1.27
   3   1   1   31.20    1.41
  -4  -1  -1   70.33    2.82
  -4  -1  -1   75.10    2.80
  -4  -1  -1   79.92    3.24
  -4  -1  -1   69.37    2.82
  -4  -1  -1   78.34    2.73
   4   1   1   73.48    2.57
   4   1   1   71.15    2.52
   4   1   1   73.12    2.69
   4   1   1   73.56    2.74
   4   1   1   75.07    2.85
   4   1   1   73.88    2.86
   4   1   1   75.04    2.94
  -5  -1  -1   56.07    2.45
  -5  -1  -1   57.09    2.46
  -5  -1  -1   58.86    2.28
  -5  -1  -1   54.89    2.37
  -5  -1  -1   61.51    2.53
   5   1   1   56.92    2.13
   5   1   1   58.23    2.45
   5   1   1   59.58    2.50
   5   1   1   55.60    2.55
   5   1   1   58.57    2.32
   5   1   1   58.67    2.08
   5   1   1   58.49    2.27
  -6  -1  -1   61.56    2.67
  -6  -1  -1   63.38    2.56
  -6  -1  -1   61.84    2.81
  -6  -1  -1   66.72    2.88
  -6  -1  -1   65.60    2.86
   6   1   1   64.56    2.61
   6   1   1   59.56    2.71
   6   1   1   61.91    2.39
   6   1   1   62.92    2.53
   6   1   1   65.24    2.83
   6   1   1   64.78    2.31
   6   1   1   60.42    2.92
  -7  -1  -1   21.57    1.79
  -7  -1  -1   23.02    1.53
  -7  -1  -1   21.98    1.82
  -7  -1  -1   20.18    1.46
   7   1   1   19.08    1.23
   7   1   1   19.62    1.47
   7   1   1   18.37    1.44
   7   1   1   20.93    1.07
   7   1   1   18.66    1.93
   9  -2  -1   55.74    2.34
   9  -2  -1   49.09    3.06
   9  -2  -1   52.49    2.32
   9  -2  -1   54.34    3.05
   9  -2  -1   59.66    2.59
  -9   2   1   51.22    2.74
  -9   2   1   56.60    3.02
  -9   2   1   50.88    3.24
   8  -2  -1   33.34    1.53
   8  -2  -1   32.37    1.52
   8  -2  -1   33.40    2.08
   8  -2  -1   31.64    1.89
   8  -2  -1   31.42    1.71
   8  -2  -1   31.89    2.04
  -8   2   1   31.74    1.64
  -8   2   1   28.78    2.15
  -8   2   1   33.37    1.89
  -8   2   1   31.43    2.09
  -8   2   1   32.76    1.54
   7  -2  -1  117.32    4.03
   7  -2  -1  119.35    4.39
   7  -2  -1  110.28    4.43
   7  -2  -1  115.32    3.88
   7  -2  -1  115.04    4.29
   7  -2  -1  115.31    4.03
  -7   2   1  120.22    4.46
  -7   2   1  116.19    4.06
  -7   2   1  110.25    4.51
  -7   2   1  108.04    4.37
  -7   2   1  114.24    4.01
   6  -2  -1  100.43    3.73
   6  -2  -1   99.66    3.32
   6  -2  -1   98.10    3.46
   6  -2  -1   91.44    3.75
   6  -2  -1  104.14    3.46
   6  -2  -1  101.87    3.69
  -6   2   1   99.35    3.42
  -6   2   1  101.72    3.80
  -6   2   1   97.08    3.77
  -6   2   1   97.18    3.48
  -6   2   1   95.37    3.81
   5  -2  -1   87.94    2.90
   5  -2  -1   85.26    3.11
   5  -2  -1   82.82    3.10
   5  -2  -1   80.54    3.15
   5  -2  -1   82.29    2.91
   5  -2  -1   83.83    2.79
  -5   2   1   86.59    3.18
  -5   2   1   85.09    2.95
  -5   2   1   80.12    3.15
  -5   2   1   83.01    2.86
  -5   2   1   82.17    3.19
   4  -2  -1    2.51    0.36
   4  -2  -1    3.99    0.34
   4  -2  -1    3.99    0.34
   4  -2  -1    3.39    0.46
   4  -2  -1    3.49    0.42
   4  -2  -1    3.30    0.23
  -4   2   1    3.19    0.44
  -4   2   1    3.27    0.44
  -4   2   1    3.23    0.33
  -4   2   1    3.05    0.40
  -4   2   1    3.85    0.27
   3  -2  -1  165.39    5.38
   3  -2  -1  161.55    5.42
   3  -2  -1  162.90    5.22
   3  -2  -1  150.04    5.28
   3  -2  -1  155.86    5.43
  -3   2   1  164.92    5.44
  -3   2   1  162.03    5.42
  -3   2   1  162.62    5.29
  -3   2   1  168.06    5.46
   2  -2  -1  177.23    5.74
   2  -2  -1  169.73    5.70
   2  -2  -1  173.56    5.70
   2  -2  -1  173.85    5.80
   2  -2  -1  167.16    5.79
  -2   2   1  179.63    5.83
  -2   2   1  170.88    5.70
  -2   2   1  190.90    5.69
  -2   2   1  176.99    5.76
   1  -2  -1  493.40   16.10
  -1   2   1  520.70   16.16
  -1   2   1  479.68   16.10
  -1   2   1  515.68   16.10
   0  -2  -1   73.87    2.70
   0  -2  -1   77.48    2.64
   0  -2  -1   76.85    2.72
   0  -2  -1   75.96    2.76
   0  -2  -1   81.43    2.63
   0   2   1   82.31    2.73
   0   2   1   77.36    2.79
   0   2   1   82.24    2.62
   0   2   1   79.43    2.63
   0   2   1   83.95    2.77
  -1  -2  -1  104.50    3.46
  -1  -2  -1   97.59    3.43
  -1  -2  -1   92.34    3.45
  -1  -2  -1  101.80    3.42
  -1  -2  -1   96.90    3.49
   1   2   1  100.42    3.53
   1   2   1  101.66    3.41
   1   2   1  104.59    3.54
   1   2   1  104.74    3.49
  -2  -2  -1   72.92    2.66
  -2  -2  -1   73.77    2.65
  -2  -2  -1   71.28    2.73
  -2  -2  -1   72.44    2.67
  -2  -2  -1   71.63    2.70
   2   2   1   79.44    2.80
   2   2   1   78.49    2.71
   2   2   1   73.52    2.70
   2   2   1   72.87    2.77
  -3  -2  -1  127.97    4.57
  -3  -2  -1  137.43    4.55
  -3  -2  -1  130.22    4.62
  -3  -2  -1  122.09    4.57
  -3  -2  -1  132.89    4.52
   3   2   1  122.20    4.66
   3   2   1  131.78    4.67
   3   2   1  125.37    4.50
   3   2   1  136.85    4.64
   3   2   1  135.71    4.57
  -4  -2  -1   80.18    3.12
  -4  -2  -1   79.38    3.02
  -4  -2  -1   85.15    3.19
  -4  -2  -1   81.66    3.01
  -4  -2  -1   78.61    3.09
   4   2   1   79.98    3.04
   4   2   1   78.96    2.99
   4   2   1   78.46    3.14
   4   2   1   82.48    3.19
   4   2   1   75.89    3.21
  -5  -2  -1  148.32    5.24
  -5  -2  -1  151.75    5.43
  -5  -2  -1  147.73    5.27
  -5  -2  -1  155.98    5.48
  -5  -2  -1  145.61    5.38
   5   2   1  143.20    5.56
   5   2   1  142.29    5.42
   5   2   1  145.33    5.27
   5   2   1  148.76    5.42
  -6  -2  -1   28.61    1.91
  -6  -2  -1   24.67    1.58
  -6  -2  -1   23.48    1.50
  -6  -2  -1   25.26    1.72
  -6  -2  -1   24.80    1.77
   6   2   1   22.41    1.58
   6   2   1   23.05    1.80
   6   2   1   27.63    1.99
  -7  -2  -1   39.61    2.49
  -7  -2  -1   37.01    2.61
  -7  -2  -1   38.99    2.29
  -7  -2  -1   35.89    2.00
   7   2   1   33.75    2.14
   7   2   1   33.31    2.69
   9  -3  -1   20.27    1.26
   9  -3  -1   20.35    2.05
   9  -3  -1   19.02    1.22
   9  -3  -1   18.96    1.62
  -9   3   1   22.30    1.55
  -9   3   1   18.54    2.24
  -9   3   1   18.00    1.64
   8  -3  -1   56.42    2.53
   8  -3  -1   58.58    2.26
   8  -3  -1   60.05    2.27
   8  -3  -1   59.38    2.72
   8  -3  -1   56.76    2.79
   8  -3  -1   55.76    2.76
  -8   3   1   58.26    2.88
  -8   3   1   59.08    2.12
  -8   3   1   54.40    2.89
  -8   3   1   60.02    2.36
  -8   3   1   55.64    2.73
   7  -3  -1   64.48    2.79
   7  -3  -1   70.00    2.81
   7  -3  -1   67.02    2.46
   7  -3  -1   64.31    2.88
   7  -3  -1   66.61    2.53
   7  -3  -1   65.12    2.27
  -7   3   1   67.77    2.35
  -7   3   1   64.34    2.87
  -7   3   1   61.74    2.95
  -7   3   1   64.48    2.49
  -7   3   1   72.32    2.95
   6  -3  -1  175.28    6.07
   6  -3  -1  174.26    5.66
   6  -3  -1  177.85    6.12
   6  -3  -1  167.05    5.80
   6  -3  -1  176.81    5.79
   6  -3  -1  164.62    6.13
  -6   3   1  174.26    6.19
  -6   3   1  174.89    5.83
  -6   3   1  175.72    5.71
  -6   3   1  185.96    6.22
  -6   3   1  165.78    6.18
   5  -3  -1   31.32    1.22
   5  -3  -1   27.35    1.43
   5  -3  -1   30.32    1.22
   5  -3  -1   29.40    1.10
   5  -3  -1   31.12    1.46
   5  -3  -1   31.44    1.40
  -5   3   1   29.30    1.21
  -5   3   1   30.04    1.48
  -5   3   1   28.58    1.47
  -5   3   1   32.99    1.50
   4  -3  -1  231.01    8.16
   4  -3  -1  243.68    8.16
   4  -3  -1  244.30    8.09
   4  -3  -1  237.57    7.96
   4  -3  -1  257.13    7.92
  -4   3   1  245.85    8.22
  -4   3   1  252.10    7.96
  -4   3   1  241.52    8.15
   3  -3  -1   72.45    2.61
   3  -3  -1   73.00    2.48
   3  -3  -1   68.83    2.45
   3  -3  -1   71.02    2.53
   3  -3  -1   65.66    2.59
  -3   3   1   71.93    2.66
  -3   3   1   75.17    2.46
  -3   3   1   72.19    2.57
   2  -3  -1  497.81   16.32
   2  -3  -1  503.51   16.41
   2  -3  -1  482.43   16.31
   2  -3  -1  499.20   16.34
  -2   3   1  551.11   16.39
  -2   3   1  519.88   16.47
   1  -3  -1   25.57    1.18
   1  -3  -1   26.76    1.03
   1  -3  -1   26.14    1.09
   1  -3  -1   28.05    1.09
  -1   3   1   28.81    1.17
  -1   3   1   28.57    1.17
   0  -3  -1  198.28    6.73
   0  -3  -1  214.70    6.83
   0  -3  -1  198.90    6.75
   0  -3  -1  202.42    6.60
   0  -3  -1  196.93    6.65
   0   3   1  200.71    6.85
   0   3   1  209.98    6.85
   0   3   1  204.35    6.64
  -1  -3  -1  136.98    4.60
  -1  -3  -1  134.82    4.53
  -1  -3  -1  134.16    4.52
  -1  -3  -1  123.81    4.53
  -1  -3  -1  128.63    4.47
   1   3   1  140.89    4.68
   1   3   1  137.71    4.58
   1   3   1  132.34    4.47
   1   3   1  116.12    4.61
  -2  -3  -1  200.07    6.81
  -2  -3  -1  202.72    6.81
  -2  -3  -1  204.03    6.90
  -2  -3  -1  194.46    6.87
  -2  -3  -1  202.53    6.78
   2   3   1  197.14    6.97
   2   3   1  207.26    6.81
   2   3   1  207.07    6.86
   2   3   1  201.17    6.97
  -3  -3  -1   31.31    1.46
  -3  -3  -1   34.26    1.54
  -3  -3  -1   32.05    1.53
  -3  -3  -1   30.86    1.56
  -3  -3  -1   34.42    1.63
   3   3   1   30.56    1.64
   3   3   1   32.82    1.70
   3   3   1   31.40    1.55
   3   3   1   34.38    1.59
  -4  -3  -1  125.85    5.25
  -4  -3  -1  135.54    4.84
  -4  -3  -1  142.12    5.07
  -4  -3  -1  144.35    4.93
  -4  -3  -1  132.54    4.94
   4   3   1  128.39    5.08
   4   3   1  143.79    5.07
   4   3   1  136.56    5.20
  -5  -3  -1   22.64    1.61
  -5  -3  -1   23.91    1.55
  -5  -3  -1   26.22    1.46
  -5  -3  -1   23.62    1.80
  -5  -3  -1   27.86    1.72
   5   3   1   25.99    1.77
   5   3   1   22.85    1.61
   5   3   1   28.36    1.93
  -6  -3  -1   58.95    2.88
  -6  -3  -1   60.57    3.07
  -6  -3  -1   56.18    2.56
   6   3   1   55.05    2.83
   6   3   1   56.81    3.28
   9  -4  -1   47.23    2.49
   9  -4  -1   44.58    2.67
   9  -4  -1   48.07    1.97
   9  -4  -1   51.58    1.98
  -9   4   1   47.15    2.62
  -9   4   1   48.53    3.07
  -9   4   1   46.97    2.12
   8  -4  -1   14.20    0.98
   8  -4  -1   16.00    1.47
   8  -4  -1   14.89    1.27
   8  -4  -1   17.19    1.49
   8  -4  -1   15.43    1.54
   8  -4  -1   18.22    0.95
  -8   4   1   16.22    0.98
  -8   4   1   16.26    1.39
  -8   4   1   12.50    1.59
  -8   4   1   15.59    1.63
   7  -4  -1  106.50    3.76
   7  -4  -1  113.36    4.13
   7  -4  -1  105.04    4.21
   7  -4  -1  114.70    3.79
   7  -4  -1  110.01    4.21
   7  -4  -1  106.58    3.56
  -7   4   1  104.27    4.45
  -7   4   1  114.03    4.26
  -7   4   1  108.26    3.75
  -7   4   1  100.22    4.22
   6  -4  -1   46.95    2.05
   6  -4  -1   44.71    1.94
   6  -4  -1   40.94    1.67
   6  -4  -1   41.34    1.99
   6  -4  -1   43.29    1.54
   6  -4  -1   42.52    1.67
  -6   4   1   41.73    2.03
  -6   4   1   42.28    2.04
  -6   4   1   43.01    1.65
   5  -4  -1  181.71    6.05
   5  -4  -1  176.59    6.14
   5  -4  -1  175.05    5.81
   5  -4  -1  173.58    5.86
   5  -4  -1  175.67    6.15
  -5   4   1  178.58    6.22
  -5   4   1  172.81    6.13
   4  -4  -1   43.23    1.79
   4  -4  -1   42.34    1.59
   4  -4  -1   42.73    1.68
   4  -4  -1   38.11    1.54
   4  -4  -1   41.73    1.77
  -4   4   1   40.26    1.73
  -4   4   1   40.09    1.80
   3  -4  -1  106.45    3.62
   3  -4  -1  102.67    3.55
   3  -4  -1  105.34    3.65
   3  -4  -1  102.97    3.70
   3  -4  -1  101.31    3.70
   3  -4  -1  102.89    3.54
  -3   4   1  104.81    3.77
  -3   4   1  108.71    3.61
   2  -4  -1  113.26    3.85
   2  -4  -1  108.92    3.74
   2  -4  -1  110.70    3.80
   2  -4  -1  110.35    3.78
  -2   4   1  118.12    3.95
  -2   4   1  102.86    3.98
   1  -4  -1   87.74    3.06
   1  -4  -1   85.73    3.26
   1  -4  -1   88.93    3.17
   1  -4  -1   91.69    3.11
   1  -4  -1   87.89    3.17
  -1   4   1   93.81    3.28
   0  -4  -1   52.60    2.05
   0  -4  -1   46.66    1.97
   0  -4  -1   46.61    1.85
   0  -4  -1   51.59    1.76
   0  -4  -1   51.17    1.99
   0   4   1   49.33    2.08
   0   4   1   50.20    1.85
  -1  -4  -1  136.09    4.74
  -1  -4  -1  140.71    4.89
  -1  -4  -1  138.81    4.86
  -1  -4  -1  137.13    4.82
  -1  -4  -1  143.28    4.80
   1   4   1  136.18    4.98
   1   4   1  129.29    4.97
   1   4   1  139.72    4.73
  -2  -4  -1   11.92    0.80
  -2  -4  -1   10.99    0.92
  -2  -4  -1   12.77    0.94
  -2  -4  -1   11.16    0.88
  -2  -4  -1   12.16    0.90
   2   4   1   12.28    0.86
   2   4   1   12.36    1.01
   2   4   1   11.44    1.06
  -3  -4  -1   77.60    3.06
  -3  -4  -1   74.32    2.93
  -3  -4  -1   75.27    2.82
  -3  -4  -1   71.35    2.92
  -3  -4  -1   67.55    2.98
   3   4   1   71.54    3.18
   3   4   1   73.19    2.93
   3   4   1   71.46    3.12
  -4  -4  -1   10.18    0.89
  -4  -4  -1   11.90    1.21
  -4  -4  -1   11.34    1.17
  -4  -4  -1   10.06    1.33
  -4  -4  -1    9.49    1.23
   4   4   1    9.64    1.14
   4   4   1    9.34    1.02
   4   4   1   10.27    1.43
  -5  -4  -1   43.29    2.52
  -5  -4  -1   39.71    2.28
  -5  -4  -1   43.13    2.03
   5   4   1   43.05    2.52
   5   4   1   43.92    2.80
   5   4   1   39.03    2.35
   9  -5  -1   49.51    2.60
   9  -5  -1   52.13    2.00
   9  -5  -1   49.21    2.80
  -9   5   1   49.85    3.11
  -9   5   1   48.05    2.70
   8  -5  -1   87.80    3.74
   8  -5  -1   83.88    3.68
   8  -5  -1   88.80    3.09
   8  -5  -1   86.58    3.52
   8  -5  -1   85.11    3.59
  -8   5   1   84.03    3.72
  -8   5   1   83.32    3.82
   7  -5  -1   26.85    1.68
   7  -5  -1   28.08    1.25
   7  -5  -1   29.03    1.74
   7  -5  -1   29.18    1.62
   7  -5  -1   27.32    1.08
   7  -5  -1   27.53    1.33
  -7   5   1   27.43    1.82
  -7   5   1   27.43    1.70
   6  -5  -1   33.41    1.79
   6  -5  -1   36.50    1.70
   6  -5  -1   36.39    1.83
   6  -5  -1   36.09    1.55
   6  -5  -1   35.00    1.40
   6  -5  -1   35.46    1.47
  -6   5   1   33.77    1.84
  -6   5   1   34.90    1.82
   5  -5  -1   59.79    2.26
   5  -5  -1   61.29    2.55
   5  -5  -1   66.16    2.59
   5  -5  -1   58.99    2.28
  -5   5   1   61.90    2.62
   4  -5  -1  177.28    6.28
   4  -5  -1  183.88    6.17
   4  -5  -1  184.06    6.17
   4  -5  -1  180.27    6.04
   4  -5  -1  175.94    6.05
   4  -5  -1  178.96    6.32
  -4   5   1  180.50    6.36
  -4   5   1  190.82    6.14
   3  -5  -1   48.03    2.00
   3  -5  -1   46.36    1.83
   3  -5  -1   48.89    1.90
   3  -5  -1   48.95    1.98
   3  -5  -1   48.05    1.86
  -3   5   1   46.75    2.04
  -3   5   1   49.65    1.96
   2  -5  -1   61.17    2.46
   2  -5  -1   57.22    2.28
   2  -5  -1   62.75    2.32
   2  -5  -1   59.63    2.21
   2  -5  -1   61.39    2.33
  -2   5   1   63.34    2.44
  -2   5   1   57.69    2.38
   1  -5  -1   42.62    1.78
   1  -5  -1   39.22    1.61
   1  -5  -1   41.91    1.75
   1  -5  -1   40.82    1.62
   1  -5  -1   41.50    1.85
  -1   5   1   42.42    1.89
   0  -5  -1  138.17    4.39
   0  -5  -1  126.83    4.72
   0  -5  -1  139.64    4.75
   0  -5  -1  130.22    4.57
   0  -5  -1  134.94    4.79
   0  -5  -1  129.74    4.33
   0   5   1  129.71    4.88
  -1  -5  -1   49.52    2.21
  -1  -5  -1   50.16    2.25
  -1  -5  -1   54.52    2.14
  -1  -5  -1   51.18    2.11
  -1  -5  -1   53.78    2.29
   1   5   1   50.58    2.40
   1   5   1   51.00    2.40
   1   5   1   53.15    2.10
  -2  -5  -1  112.31    4.17
  -2  -5  -1  105.65    3.91
  -2  -5  -1  108.66    4.02
  -2  -5  -1  102.04    4.12
  -2  -5  -1  110.78    4.09
   2   5   1  108.37    4.32
   2   5   1  110.93    3.99
   2   5   1  103.58    4.32
  -3  -5  -1   88.49    3.36
  -3  -5  -1   88.29    3.68
  -3  -5  -1   89.20    3.68
  -3  -5  -1   87.71    3.62
   3   5   1   82.95    3.78
   3   5   1   88.15    3.91
   3   5   1   95.02    3.54
  -4  -5  -1   42.47    2.27
  -4  -5  -1   43.87    2.55
  -4  -5  -1   43.01    1.99
   4   5   1   40.23    2.75
   4   5   1   41.02    2.44
   4   5   1   41.55    2.38
   9  -6  -1   58.85    3.21
   9  -6  -1   68.69    2.45
   9  -6  -1   66.02    3.10
  -9   6   1   58.26    3.57
   8  -6  -1   20.45    1.19
   8  -6  -1   21.23    1.15
   8  -6  -1   21.87    1.79
   8  -6  -1   18.24    1.54
   8  -6  -1   25.29    1.83
  -8   6   1   19.25    1.62
  -8   6   1   23.08    2.01
   7  -6  -1   91.06    3.29
   7  -6  -1   92.69    3.81
   7  -6  -1   91.34    3.60
   7  -6  -1   89.44    3.11
   7  -6  -1   94.14    3.37
   7  -6  -1   92.08    3.20
   7  -6  -1   89.20    3.76
  -7   6   1   88.58    3.82
   6  -6  -1   21.92    1.16
   6  -6  -1   21.32    0.98
   6  -6  -1   20.32    1.07
   6  -6  -1   23.11    1.53
   6  -6  -1   21.68    1.36
  -6   6   1   22.24    1.49
   5  -6  -1  187.05    6.16
   5  -6  -1  175.98    6.30
   5  -6  -1  167.54    6.00
   5  -6  -1  181.43    6.17
   5  -6  -1  179.72    6.32
   5  -6  -1  177.85    5.97
  -5   6   1  176.52    6.41
   4  -6  -1  145.65    5.18
   4  -6  -1  149.52    5.17
   4  -6  -1  143.36    4.96
   4  -6  -1  141.57    4.97
   4  -6  -1  151.21    5.07
   4  -6  -1  136.39    5.16
  -4   6   1  143.83    5.29
  -4   6   1  146.82    5.09
   3  -6  -1  150.98    5.33
   3  -6  -1  157.03    5.35
   3  -6  -1  151.42    5.29
   3  -6  -1  147.37    5.26
   3  -6  -1  158.47    5.43
   3  -6  -1  155.32    5.38
   3  -6  -1  158.58    5.59
  -3   6   1  155.58    5.55
  -3   6   1  155.62    5.48
   2  -6  -1   28.33    1.39
   2  -6  -1   28.90    1.47
   2  -6  -1   29.41    1.40
   2  -6  -1   27.48    1.27
   2  -6  -1   28.79    1.56
  -2   6   1   29.35    1.57
   1  -6  -1  145.49    4.83
   1  -6  -1  139.59    4.72
   1  -6  -1  142.00    5.15
   1  -6  -1  144.77    5.08
   1  -6  -1  143.11    5.08
   1  -6  -1  137.21    4.87
  -1   6   1  137.07    5.22
   0  -6  -1   55.00    2.24
   0  -6  -1   58.34    2.36
   0  -6  -1   56.51    2.43
   0  -6  -1   56.82    2.44
   0  -6  -1   53.29    2.44
   0   6   1   54.49    2.60
  -1  -6  -1  108.31    4.18
  -1  -6  -1  103.77    4.12
  -1  -6  -1  106.87    3.93
  -1  -6  -1  110.53    4.00
  -1  -6  -1  105.48    4.13
   1   6   1  106.32    4.38
  -2  -6  -1   16.94    1.49
  -2  -6  -1   16.80    1.12
  -2  -6  -1   15.91    1.51
   2   6   1   17.62    1.33
   2   6   1   15.97    1.54
   2   6   1   16.93    1.76
  -3  -6  -1   43.82    2.33
  -3  -6  -1   49.72    2.11
  -3  -6  -1   43.18    2.58
   3   6   1   47.60    2.45
   3   6   1   44.82    3.28
   3   6   1   42.64    2.99
   9  -7  -1   29.15    2.46
   9  -7  -1   23.23    2.33
  -9   7   1   26.02    2.05
   8  -7  -1   89.48    3.15
   8  -7  -1   96.22    3.92
   8  -7  -1   90.02    3.43
   8  -7  -1   92.53    3.41
   8  -7  -1   93.52    3.23
   8  -7  -1   94.87    4.08
  -8   7   1   92.27    4.13
   7  -7  -1   36.20    1.66
   7  -7  -1   31.98    1.92
   7  -7  -1   34.84    1.59
   7  -7  -1   33.44    1.94
   7  -7  -1   33.40    1.44
   7  -7  -1   39.24    2.51
   7  -7  -1   34.01    2.05
  -7   7   1   33.28    2.10
   6  -7  -1   79.65    2.95
   6  -7  -1   79.71    3.02
   6  -7  -1   78.33    3.41
   6  -7  -1   84.90    3.27
   6  -7  -1   86.22    3.18
   6  -7  -1   84.30    3.14
   6  -7  -1   76.73    3.42
  -6   7   1   79.02    3.50
   5  -7  -1   25.13    1.43
   5  -7  -1   24.62    1.38
   5  -7  -1   25.31    1.49
   5  -7  -1   23.78    1.25
   5  -7  -1   19.26    1.82
   5  -7  -1   25.11    1.60
   5  -7  -1   23.69    1.21
  -5   7   1   25.12    1.37
  -5   7   1   24.07    1.58
   4  -7  -1   59.45    2.38
   4  -7  -1   55.01    2.38
   4  -7  -1   60.38    2.38
   4  -7  -1   60.61    2.49
   4  -7  -1   59.62    2.60
   4  -7  -1   57.92    2.58
   4  -7  -1   63.44    2.49
   4  -7  -1   60.12    2.75
   4  -7  -1   59.85    2.37
   4  -7  -1   59.52    2.65
  -4   7   1   58.04    2.52
  -4   7   1   61.20    2.69
   3  -7  -1   15.75    1.16
   3  -7  -1   14.99    1.37
   3  -7  -1   16.07    1.17
   3  -7  -1   15.76    1.08
   3  -7  -1   14.22    0.91
   3  -7  -1   14.94    1.18
   3  -7  -1   14.25    1.04
   3  -7  -1   14.44    1.33
   3  -7  -1   14.13    0.93
  -3   7   1   14.34    1.14
  -3   7   1   13.02    1.15
   2  -7  -1  102.35    3.92
   2  -7  -1   98.05    3.67
   2  -7  -1  110.50    3.78
   2  -7  -1  101.66    3.59
   2  -7  -1  103.26    4.03
   2  -7  -1   97.80    3.87
  -2   7   1  101.68    4.10
   1  -7  -1   18.89    0.87
   1  -7  -1   19.21    1.11
   1  -7  -1   19.04    1.33
   1  -7  -1   20.65    1.44
   1  -7  -1   18.72    1.02
   1  -7  -1   18.01    1.44
  -1   7   1   18.79    1.47
   0  -7  -1   54.55    2.34
   0  -7  -1   57.89    2.90
   0  -7  -1   55.81    2.60
   0  -7  -1   53.63    2.37
   0  -7  -1   50.55    2.52
   0   7   1   54.09    2.78
  -1  -7  -1   20.63    1.29
  -1  -7  -1   17.03    1.65
  -1  -7  -1   20.83    1.50
  -1  -7  -1   17.30    1.74
   1   7   1   16.20    1.69
  -2  -7  -1   52.31    2.28
  -2  -7  -1   53.36    2.94
  -2  -7  -1   53.33    2.59
   2   7   1   46.40    2.85
   8  -8  -1   23.72    2.02
   8  -8  -1   25.32    1.64
   8  -8  -1   20.63    2.11
   8  -8  -1   23.53    1.50
  -8   8   1   16.26    1.97
   7  -8  -1   36.68    2.18
   7  -8  -1   36.09    2.24
   7  -8  -1   37.13    1.97
   7  -8  -1   37.41    1.65
   7  -8  -1   36.40    1.98
   7  -8  -1   37.39    2.35
   7  -8  -1   37.21    1.80
  -7   8   1   34.19    2.29
   6  -8  -1   50.30    2.20
   6  -8  -1   48.32    2.39
   6  -8  -1   47.07    2.30
   6  -8  -1   51.82    2.40
   6  -8  -1   47.93    2.70
   6  -8  -1   51.67    2.44
   6  -8  -1   48.45    2.10
   6  -8  -1   47.78    2.53
  -6   8   1   48.83    2.60
   5  -8  -1   59.07    2.79
   5  -8  -1   56.98    2.50
   5  -8  -1   55.49    2.71
   5  -8  -1   58.15    2.42
   5  -8  -1   57.19    2.42
   5  -8  -1   56.88    2.57
   5  -8  -1   55.88    2.50
   5  -8  -1   62.45    2.81
   5  -8  -1   59.20    3.02
   5  -8  -1   55.58    2.54
  -5   8   1   56.70    2.57
  -5   8   1   57.64    2.80
   4  -8  -1   21.80    1.71
   4  -8  -1   25.45    1.42
   4  -8  -1   22.78    1.85
   4  -8  -1   21.52    1.41
   4  -8  -1   25.31    1.64
   4  -8  -1   23.75    1.38
   4  -8  -1   23.51    1.62
   4  -8  -1   22.99    1.49
   4  -8  -1   24.02    1.85
  -4   8   1   23.62    1.62
  -4   8   1   24.07    1.55
   3  -8  -1   91.81    3.65
   3  -8  -1   91.60    3.44
   3  -8  -1   93.38    3.70
   3  -8  -1   98.64    4.16
   3  -8  -1   96.57    3.62
   3  -8  -1   94.85    3.96
   3  -8  -1  100.75    3.69
   3  -8  -1   88.38    3.76
   3  -8  -1   90.15    3.51
  -3   8   1   90.91    3.89
   2  -8  -1   41.78    2.02
   2  -8  -1   39.64    1.66
   2  -8  -1   40.91    1.90
   2  -8  -1   42.65    1.90
   2  -8  -1   39.63    2.11
   2  -8  -1   36.87    2.02
   2  -8  -1   42.79    2.35
  -2   8   1   38.45    2.30
   1  -8  -1   63.92    2.95
   1  -8  -1   63.74    2.19
   1  -8  -1   53.30    3.39
   1  -8  -1   65.37    3.07
   1  -8  -1   64.53    2.26
  -1   8   1   62.69    3.18
   0  -8  -1   24.82    1.75
   0  -8  -1   26.96    1.61
   0  -8  -1   24.01    2.01
   6  -9  -1  125.29    4.73
   6  -9  -1  127.79    4.65
   6  -9  -1  124.82    5.03
   6  -9  -1  120.19    5.05
   6  -9  -1  124.62    4.65
   6  -9  -1  123.06    4.87
   6  -9  -1  129.91    4.89
   6  -9  -1  121.14    4.87
  -6   9   1  124.04    5.18
   5  -9  -1   10.86    1.48
   5  -9  -1   12.20    1.28
   5  -9  -1   14.62    1.67
   5  -9  -1   10.36    1.30
   5  -9  -1   11.79    1.54
   5  -9  -1   13.07    1.33
   5  -9  -1    8.42    1.20
   5  -9  -1   10.00    1.24
  -5   9   1   10.43    1.28
  -5   9   1   12.01    1.46
   4  -9  -1   37.99    2.38
   4  -9  -1   38.92    1.97
   4  -9  -1   42.35    2.13
   4  -9  -1   40.69    2.42
   4  -9  -1   39.61    2.13
   4  -9  -1   38.25    2.02
   4  -9  -1   40.40    2.28
  -4   9   1   40.98    2.30
   3  -9  -1   39.47    2.07
   3  -9  -1   41.02    2.30
   3  -9  -1   43.82    2.24
   3  -9  -1   42.58    1.93
   3  -9  -1   41.10    2.40
  -3   9   1   40.72    2.48
   2  -9  -1   58.46    2.82
   2  -9  -1   59.09    2.97
   2  -9  -1   57.83    2.64
  -1   9  -2   39.83    2.72
   1  -9   2   44.86    2.30
   1  -9   2   41.10    2.23
   1  -9   2   38.63    2.40
  -2   9  -2   22.53    1.91
   2  -9   2   23.91    1.78
   2  -9   2   23.03    1.61
   2  -9   2   20.68    1.63
   2  -9   2   22.38    1.19
  -3   9  -2   49.94    2.71
   3  -9   2   52.42    2.18
   3  -9   2   51.86    2.54
   3  -9   2   53.62    2.43
   3  -9   2   51.91    2.59
   3  -9   2   51.11    2.41
   3  -9   2   51.23    2.49
   3  -9   2   47.78    2.72
   3  -9   2   51.78    2.47
  -4   9  -2   64.47    2.85
  -4   9  -2   61.20    2.99
   4  -9   2   62.36    3.08
   4  -9   2   63.77    2.82
   4  -9   2   61.91    2.78
   4  -9   2   61.84    2.94
   4  -9   2   63.86    3.40
   4  -9   2   62.66    3.07
   4  -9   2   61.13    2.89
   4  -9   2   65.47    2.64
   4  -9   2   61.30    2.75
   4  -9   2   64.12    2.62
  -5   9  -2   65.60    2.99
  -5   9  -2   65.28    3.00
   5  -9   2   61.60    2.72
   5  -9   2   65.11    2.79
   5  -9   2   62.19    2.72
   5  -9   2   62.78    3.08
   5  -9   2   60.42    3.05
   5  -9   2   75.47    3.47
   5  -9   2   59.53    2.82
   5  -9   2   63.98    3.29
   5  -9   2   63.14    2.59
   5  -9   2   62.49    2.85
  -6   9  -2   14.47    1.49
   6  -9   2   15.79    1.51
   6  -9   2   14.67    1.48
   6  -9   2   13.87    1.33
   6  -9   2   13.44    1.13
   6  -9   2   16.18    1.34
   6  -9   2   14.87    1.92
   6  -9   2   17.85    1.47
  -7   9  -2   49.70    2.78
   7  -9   2   46.96    2.89
   7  -9   2   49.19    2.64
   7  -9   2   51.05    2.58
   7  -9   2   52.78    2.12
   1   8  -2   12.85    2.08
  -1  -8   2   15.65    1.61
  -1  -8   2   13.80    1.71
  -1  -8   2   16.95    1.55
   0   8  -2   58.89    3.03
   0  -8   2   55.11    2.81
   0  -8   2   64.87    2.75
   0  -8   2   61.90    2.65
  -1   8  -2   18.91    1.62
   1  -8   2   24.89    1.42
   1  -8   2   22.15    1.66
   1  -8   2   20.52    0.97
   1  -8   2   20.33    1.17
   1  -8   2   20.56    1.53
   1  -8   2   18.94    2.15
   1  -8   2   18.55    1.38
  -2   8  -2   70.90    3.28
   2  -8   2   75.52    2.73
   2  -8   2   73.04    2.99
   2  -8   2   68.10    3.07
   2  -8   2   76.14    2.90
   2  -8   2   77.97    2.99
   2  -8   2   76.21    3.08
   2  -8   2   70.86    3.43
  -3   8  -2   30.89    1.63
  -3   8  -2   31.95    1.87
   3  -8   2   29.90    1.62
   3  -8   2   29.97    1.66
   3  -8   2   30.36    1.81
   3  -8   2   28.62    1.65
   3  -8   2   29.51    1.54
   3  -8   2   28.45    1.99
   3  -8   2   30.33    1.66
   3  -8   2   32.10    1.46
   3  -8   2   31.01    1.64
  -4   8  -2   79.65    3.25
  -4   8  -2   84.50    3.38
   4  -8   2   79.93    3.48
   4  -8   2   78.28    3.25
   4  -8   2   78.37    3.24
   4  -8   2   73.65    3.02
   4  -8   2   79.06    3.09
   4  -8   2   79.42    2.97
   4  -8   2   76.54    3.10
   4  -8   2   79.08    3.29
   4  -8   2   76.89    3.14
  -5   8  -2   12.89    1.22
   5  -8   2   13.16    1.38
   5  -8   2   14.13    1.05
   5  -8   2   13.13    1.08
   5  -8   2   12.84    1.36
   5  -8   2   14.21    0.91
   5  -8   2   10.25    1.35
   5  -8   2   12.93    1.15
   5  -8   2   12.85    1.14
  -6   8  -2   73.70    3.37
   6  -8   2   81.58    3.19
   6  -8   2   77.32    2.91
   6  -8   2   76.71    3.36
   6  -8   2   78.55    3.24
   6  -8   2   75.41    3.48
   6  -8   2   74.51    2.82
   6  -8   2   79.03    3.34
  -7   8  -2   20.53    1.66
   7  -8   2   19.10    1.12
   7  -8   2   23.88    1.10
   7  -8   2   22.22    1.61
   7  -8   2   19.66    1.68
   7  -8   2   19.99    1.64
  -8   8  -2   79.87    3.77
   8  -8   2   77.25    3.52
   8  -8   2   78.02    3.60
   8  -8   2   77.37    3.38
   8  -8   2   87.75    3.49
   3   7  -2   27.76    2.14
  -3  -7   2   27.67    2.18
  -3  -7   2   29.25    2.23
  -3  -7   2   29.61    2.34
   2   7  -2   14.65    1.71
   2   7  -2   13.25    1.56
  -2  -7   2   12.18    1.42
  -2  -7   2   12.89    1.38
  -2  -7   2   15.24    1.56
   1   7  -2   66.08    3.15
  -1  -7   2   68.85    2.78
  -1  -7   2   67.15    2.87
  -1  -7   2   64.42    2.95
   0   7  -2   47.69    2.47
   0  -7   2   52.64    1.81
   0  -7   2   50.59    1.77
   0  -7   2   51.11    2.34
   0  -7   2   54.69    1.99
   0  -7   2   52.03    2.75
   0  -7   2   52.07    2.38
   0  -7   2   46.40    2.35
  -1   7  -2   74.35    3.24
   1  -7   2   77.66    3.36
   1  -7   2   70.37    3.07
   1  -7   2   80.21    2.96
   1  -7   2   79.07    2.82
   1  -7   2   76.67    2.69
   1  -7   2   74.12    2.99
   1  -7   2   79.06    3.07
  -2   7  -2   66.64    2.47
  -2   7  -2   61.93    2.75
   2  -7   2   59.71    2.30
   2  -7   2   60.34    2.50
   2  -7   2   64.46    2.50
   2  -7   2   58.38    2.46
   2  -7   2   61.72    2.57
   2  -7   2   60.91    2.79
   2  -7   2   60.38    2.43
  -3   7  -2  169.26    5.69
  -3   7  -2  159.59    5.83
   3  -7   2  150.81    5.49
   3  -7   2  161.59    5.89
   3  -7   2  153.41    5.57
   3  -7   2  166.61    5.60
   3  -7   2  160.25    5.73
   3  -7   2  168.31    5.69
   3  -7   2  163.87    5.66
   3  -7   2  153.58    5.60
  -4   7  -2   24.60    1.43
  -4   7  -2   24.10    1.42
   4  -7   2   25.34    1.17
   4  -7   2   25.50    1.48
   4  -7   2   27.27    1.32
   4  -7   2   25.49    1.49
   4  -7   2   24.38    1.56
   4  -7   2   23.17    1.30
   4  -7   2   25.46    1.35
   4  -7   2   24.58    1.24
  -5   7  -2  117.65    4.54
   5  -7   2  104.60    4.99
   5  -7   2  123.41    4.50
   5  -7   2  124.33    4.56
   5  -7   2  121.49    4.47
   5  -7   2  117.46    4.38
   5  -7   2  127.42    4.18
   5  -7   2  116.97    4.09
  -6   7  -2   90.92    3.79
   6  -7   2   94.36    3.63
   6  -7   2   91.33    3.20
   6  -7   2   95.57    3.77
   6  -7   2   91.25    3.65
   6  -7   2   88.12    3.16
   6  -7   2   90.07    3.56
   6  -7   2   88.86    3.54
  -7   7  -2  108.14    4.53
   7  -7   2  112.94    4.31
   7  -7   2  113.80    4.17
   7  -7   2  111.94    4.43
   7  -7   2  112.77    4.55
   7  -7   2  111.35    3.74
   7  -7   2  106.88    4.34
   7  -7   2  113.27    3.74
  -8   7  -2   18.76    1.69
   8  -7   2   19.34    1.62
   8  -7   2   21.77    1.44
   8  -7   2   19.38    1.49
   8  -7   2   20.50    1.75
  -9   7  -2   22.15    1.93
   9  -7   2   26.02    1.66
   9  -7   2   21.62    2.02
   9  -7   2   22.09    2.05
   4   6  -2   58.68    3.26
  -4  -6   2   59.71    2.91
  -4  -6   2   60.11    3.05
  -4  -6   2   58.38    3.06
   3   6  -2   20.05    1.79
   3   6  -2   16.79    1.57
   3   6  -2   19.50    1.85
  -3  -6   2   16.95    1.56
  -3  -6   2   16.89    1.48
  -3  -6   2   20.38    1.61
   2   6  -2   68.66    2.86
   2   6  -2   61.85    2.95
   2   6  -2   62.13    2.93
  -2  -6   2   64.10    2.64
  -2  -6   2   58.86    2.74
  -2  -6   2   67.79    2.38
  -2  -6   2   64.92    2.84
  -2  -6   2   67.73    2.84
   1   6  -2   58.10    2.74
   1   6  -2   64.56    2.61
  -1  -6   2   58.21    2.61
  -1  -6   2   60.85    2.56
  -1  -6   2   60.51    2.44
  -1  -6   2   65.52    2.62
  -1  -6   2   61.92    2.18
   0   6  -2  121.17    4.80
   0  -6   2  125.86    4.24
   0  -6   2  135.34    4.65
   0  -6   2  126.65    4.58
   0  -6   2  127.75    4.68
   0  -6   2  128.71    4.30
   0  -6   2  130.82    4.51
   0  -6   2  130.00    4.36
  -1   6  -2   48.53    2.18
   1  -6   2   47.90    1.94
   1  -6   2   50.01    2.27
   1  -6   2   49.15    1.78
   1  -6   2   48.21    1.87
   1  -6   2   46.71    1.97
   1  -6   2   47.41    2.00
   1  -6   2   46.09    2.03
  -2   6  -2   62.53    2.67
  -2   6  -2   66.59    2.48
   2  -6   2   65.60    2.73
   2  -6   2   61.20    2.47
   2  -6   2   66.55    2.39
   2  -6   2   64.24    2.51
   2  -6   2   69.39    2.52
  -3   6  -2   48.34    2.00
  -3   6  -2   44.72    2.04
   3  -6   2   47.92    1.89
   3  -6   2   46.14    1.91
   3  -6   2   48.23    1.95
   3  -6   2   49.41    1.89
   3  -6   2   48.83    2.04
  -4   6  -2   71.83    2.84
  -4   6  -2   70.37    2.78
   4  -6   2   70.06    2.69
   4  -6   2   70.78    2.50
   4  -6   2   66.28    2.68
   4  -6   2   70.65    2.55
   4  -6   2   72.81    2.86
   4  -6   2   72.90    2.81
  -5   6  -2   36.02    1.83
   5  -6   2   36.54    1.43
   5  -6   2   37.39    1.79
   5  -6   2   35.93    1.39
   5  -6   2   38.53    1.76
   5  -6   2   34.84    1.69
   5  -6   2   38.31    1.69
  -6   6  -2   76.24    3.28
   6  -6   2   78.54    3.16
   6  -6   2   79.76    3.04
   6  -6   2   79.09    3.10
   6  -6   2   80.02    2.69
   6  -6   2   79.83    3.18
   6  -6   2   76.88    2.68
  -7   6  -2   35.98    2.09
   7  -6   2   38.02    2.17
   7  -6   2   39.08    1.95
   7  -6   2   38.88    2.10
   7  -6   2   40.32    2.06
   7  -6   2   41.64    1.97
   7  -6   2   41.69    1.83
  -8   6  -2   43.75    2.55
   8  -6   2   48.31    2.16
   8  -6   2   51.60    2.41
   8  -6   2   51.67    2.28
   8  -6   2   50.16    2.54
  -9   6  -2   12.37    1.69
   9  -6   2   10.62    1.38
   9  -6   2   12.88    1.22
   9  -6   2   15.34    1.63
   5   5  -2   64.41    3.60
   5   5  -2   67.24    3.27
  -5  -5   2   70.91    3.36
  -5  -5   2   70.15    3.39
  -5  -5   2   73.00    3.34
   4   5  -2   20.37    1.57
   4   5  -2   20.10    1.83
   4   5  -2   21.86    1.67
   4   5  -2   18.84    1.88
  -4  -5   2   21.42    1.61
  -4  -5   2   19.83    1.25
  -4  -5   2   22.64    1.64
  -4  -5   2   18.67    1.47
   3   5  -2   62.05    2.72
   3   5  -2   60.57    2.75
   3   5  -2   61.40    2.81
   3   5  -2   64.59    2.85
  -3  -5   2   59.39    2.69
  -3  -5   2   62.99    2.59
  -3  -5   2   63.64    2.67
  -3  -5   2   58.24    2.66
  -3  -5   2   62.90    2.25
   2   5  -2   27.15    1.61
   2   5  -2   28.64    1.58
   2   5  -2   32.33    1.59
   2   5  -2   27.20    1.58
  -2  -5   2   28.02    1.51
  -2  -5   2   28.14    1.39
  -2  -5   2   28.95    1.14
  -2  -5   2   27.83    1.48
  -2  -5   2   29.91    1.53
   1   5  -2   47.09    2.06
   1   5  -2   48.96    2.19
   1   5  -2   51.18    2.07
   1   5  -2   48.60    2.07
  -1  -5   2   48.19    2.02
  -1  -5   2   48.73    1.72
  -1  -5   2   44.40    1.98
  -1  -5   2   49.74    1.94
  -1  -5   2   45.72    2.04
   0   5  -2   42.77    1.83
   0   5  -2   46.45    1.83
   0   5  -2   41.45    1.93
   0  -5   2   40.38    2.00
   0  -5   2   44.30    1.72
   0  -5   2   42.69    1.84
   0  -5   2   44.84    1.55
   0  -5   2   43.17    1.78
  -1   5  -2  277.07    8.56
  -1   5  -2  250.40    8.79
   1  -5   2  253.42    8.49
   1  -5   2  258.27    8.85
   1  -5   2  255.54    8.59
   1  -5   2  260.65    8.64
   1  -5   2  270.69    8.66
  -2   5  -2   30.15    1.26
  -2   5  -2   27.98    1.35
   2  -5   2   26.84    1.23
   2  -5   2   28.55    1.19
   2  -5   2   27.73    1.20
   2  -5   2   26.97    1.16
   2  -5   2   29.48    1.42
  -3   5  -2  136.71    4.64
  -3   5  -2  132.80    4.63
   3  -5   2  124.17    4.51
   3  -5   2  126.03    4.51
   3  -5   2  133.83    4.44
   3  -5   2  133.97    4.69
   3  -5   2  135.33    4.63
  -4   5  -2   18.45    1.08
   4  -5   2   18.57    1.05
   4  -5   2   18.40    0.98
   4  -5   2   19.11    1.06
   4  -5   2   18.36    0.80
   4  -5   2   18.50    0.77
   4  -5   2   17.22    0.96
  -5   5  -2  156.82    5.74
  -5   5  -2  161.80    5.60
   5  -5   2  156.24    5.24
   5  -5   2  162.68    5.25
   5  -5   2  161.94    5.62
   5  -5   2  148.76    5.53
   5  -5   2  169.48    5.66
   5  -5   2  167.28    5.57
  -6   5  -2   55.54    2.56
  -6   5  -2   58.41    2.52
  -6   5  -2   58.17    2.58
  -6   5  -2   57.23    2.35
   6  -5   2   58.17    2.41
   6  -5   2   52.89    2.34
   6  -5   2   60.88    2.48
   6  -5   2   59.25    2.47
   6  -5   2   57.32    2.30
  -7   5  -2   87.71    3.44
  -7   5  -2   80.34    3.46
  -7   5  -2   83.80    3.14
  -7   5  -2   77.74    3.41
   7  -5   2   73.70    3.27
   7  -5   2   79.74    3.29
   7  -5   2   81.08    3.17
   7  -5   2   81.80    3.37
   7  -5   2   79.70    3.01
   7  -5   2   74.78    3.15
  -8   5  -2   48.20    2.69
  -8   5  -2   49.31    2.23
  -8   5  -2   46.79    2.69
  -8   5  -2   46.13    2.53
   8  -5   2   52.48    2.55
   8  -5   2   51.43    2.22
   8  -5   2   48.53    2.04
   8  -5   2   50.98    2.90
   8  -5   2   49.56    2.63
   8  -5   2   46.53    2.30
  -9   5  -2   71.27    3.61
  -9   5  -2   73.39    2.98
  -9   5  -2   68.23    3.64
   9  -5   2   72.81    3.19
   9  -5   2   67.14    2.77
   9  -5   2   70.50    2.91
   9  -5   2   64.44    3.40
   6   4  -2   58.24    2.97
   6   4  -2   63.31    3.08
   6   4  -2   55.86    3.47
  -6  -4   2   68.40    2.61
  -6  -4   2   61.62    3.23
  -6  -4   2   61.75    3.14
   5   4  -2   27.98    2.04
   5   4  -2   26.46    1.77
   5   4  -2   28.72    2.01
   5   4  -2   26.59    1.70
  -5  -4   2   23.21    1.68
  -5  -4   2   26.86    1.87
  -5  -4   2   27.27    1.36
  -5  -4   2   27.02    1.85
  -5  -4   2   28.76    1.82
   4   4  -2   58.49    2.67
   4   4  -2   58.91    2.64
   4   4  -2   68.00    2.86
   4   4  -2   60.53    2.77
  -4  -4   2   56.98    2.61
  -4  -4   2   61.65    2.72
  -4  -4   2   60.17    2.56
  -4  -4   2   61.76    2.60
   3   4  -2   53.68    2.39
   3   4  -2   55.62    2.34
   3   4  -2   50.22    2.35
   3   4  -2   57.42    2.41
  -3  -4   2   55.31    2.24
  -3  -4   2   55.04    1.99
  -3  -4   2   53.95    2.30
  -3  -4   2   55.14    2.29
  -3  -4   2   53.10    2.33
   2   4  -2  195.81    6.64
   2   4  -2  185.66    6.63
   2   4  -2  194.48    6.73
  -2  -4   2  181.51    6.60
  -2  -4   2  191.80    6.62
  -2  -4   2  206.87    6.63
  -2  -4   2  184.94    6.49
  -2  -4   2  203.07    6.30
   1   4  -2   35.98    1.62
   1   4  -2   39.30    1.63
   1   4  -2   38.23    1.71
   1   4  -2   36.47    1.62
  -1  -4   2   37.49    1.52
  -1  -4   2   37.73    1.63
  -1  -4   2   40.26    1.62
  -1  -4   2   41.14    1.37
  -1  -4   2   38.93    1.32
  -1  -4   2   35.89    1.59
   0   4  -2  284.80    9.20
   0   4  -2  290.41    9.33
   0   4  -2  275.80    9.20
   0  -4   2  291.31    9.21
   0  -4   2  265.65    9.00
   0  -4   2  284.72    9.11
   0  -4   2  262.65    9.16
  -1   4  -2   62.03    2.29
  -1   4  -2   66.80    2.25
  -1   4  -2   65.95    2.43
   1  -4   2   59.80    2.29
   1  -4   2   61.04    2.21
   1  -4   2   63.42    2.26
   1  -4   2   66.67    2.47
   1  -4   2   64.08    2.29
  -2   4  -2  249.86    8.21
  -2   4  -2  263.60    8.15
   2  -4   2  238.55    8.07
   2  -4   2  248.97    8.05
   2  -4   2  246.69    8.25
   2  -4   2  235.09    8.06
  -3   4  -2   86.82    3.11
  -3   4  -2   87.84    3.13
   3  -4   2   79.91    3.00
   3  -4   2   82.01    3.00
   3  -4   2   86.76    2.87
   3  -4   2   87.18    3.09
   3  -4   2   87.34    3.10
  -4   4  -2  245.69    8.14
  -4   4  -2  240.76    8.15
  -4   4  -2  247.64    8.23
   4  -4   2  248.34    8.11
   4  -4   2  242.93    7.83
   4  -4   2  236.58    8.11
   4  -4   2  242.94    8.09
   4  -4   2  236.88    7.82
   4  -4   2  249.73    8.17
  -5   4  -2  139.86    4.75
  -5   4  -2  128.07    4.75
  -5   4  -2  129.32    4.64
  -5   4  -2  129.07    4.78
   5  -4   2  137.29    4.71
   5  -4   2  136.84    4.60
   5  -4   2  127.50    4.68
   5  -4   2  124.41    4.60
   5  -4   2  135.83    4.70
  -6   4  -2  130.31    4.95
  -6   4  -2  142.53    4.94
  -6   4  -2  134.87    4.95
  -6   4  -2  131.05    4.74
   6  -4   2  135.57    4.84
   6  -4   2  133.44    4.65
   6  -4   2  131.78    4.86
   6  -4   2  132.23    4.73
   6  -4   2  129.83    4.76
  -7   4  -2   14.29    1.23
  -7   4  -2   14.43    1.10
  -7   4  -2   15.71    1.39
  -7   4  -2   14.06    1.30
   7  -4   2   15.02    0.95
   7  -4   2   13.73    1.23
   7  -4   2   13.96    1.05
   7  -4   2   15.03    1.28
   7  -4   2   13.70    1.24
   7  -4   2   14.95    1.08
  -8   4  -2  106.40    4.51
  -8   4  -2  113.94    4.65
  -8   4  -2  112.02    4.58
  -8   4  -2  109.50    4.19
   8  -4   2  112.29    4.11
   8  -4   2  109.04    4.48
   8  -4   2  108.05    4.14
   8  -4   2  105.95    4.42
   8  -4   2  120.22    4.48
   8  -4   2  114.16    4.25
  -9   4  -2   24.05    1.73
  -9   4  -2   19.91    2.29
  -9   4  -2   22.85    1.86
   9  -4   2   23.71    1.74
   9  -4   2   27.07    2.23
   9  -4   2   22.19    1.51
   9  -4   2   23.66    1.41
   7   3  -2   48.43    2.53
   7   3  -2   47.02    2.71
   7   3  -2   45.03    3.19
  -7  -3   2   50.54    2.81
  -7  -3   2   48.15    3.01
  -7  -3   2   50.37    2.30
   6   3  -2   26.71    1.80
   6   3  -2   28.62    2.03
   6   3  -2   26.21    1.66
  -6  -3   2   26.15    1.78
  -6  -3   2   29.54    2.03
  -6  -3   2   26.17    1.86
  -6  -3   2   27.89    1.87
  -6  -3   2   27.41    1.48
   5   3  -2   25.65    1.74
   5   3  -2   29.22    1.77
   5   3  -2   25.23    1.58
   5   3  -2   27.16    1.58
  -5  -3   2   28.63    1.64
  -5  -3   2   28.76    1.76
  -5  -3   2   29.24    1.60
  -5  -3   2   29.31    1.36
  -5  -3   2   29.22    1.62
   4   3  -2   52.24    2.28
   4   3  -2   53.70    2.38
   4   3  -2   51.65    2.29
   4   3  -2   51.68    2.34
  -4  -3   2   51.65    2.35
  -4  -3   2   55.05    2.24
  -4  -3   2   57.23    2.28
  -4  -3   2   53.98    2.25
   3   3  -2  209.57    7.18
   3   3  -2  208.06    7.55
   3   3  -2  203.94    7.20
   3   3  -2  203.35    7.21
  -3  -3   2  219.05    7.17
  -3  -3   2  216.11    7.17
  -3  -3   2  226.24    7.14
  -3  -3   2  209.06    7.23
  -3  -3   2  203.73    6.92
   2   3  -2  101.60    3.84
   2   3  -2  110.24    3.85
   2   3  -2  114.75    3.90
   2   3  -2  101.24    3.88
  -2  -3   2  108.71    3.84
  -2  -3   2  114.65    3.61
  -2  -3   2  107.63    3.87
  -2  -3   2  112.00    3.85
  -2  -3   2  109.97    3.77
   1   3  -2  141.99    4.84
   1   3  -2  143.54    4.90
   1   3  -2  145.29    4.80
   1   3  -2  141.51    4.60
   1   3  -2  137.02    4.83
  -1  -3   2  140.36    4.83
  -1  -3   2  136.36    4.82
  -1  -3   2  148.46    4.60
  -1  -3   2  140.57    4.63
  -1  -3   2  147.40    4.74
   0   3  -2   23.97    1.00
   0   3  -2   24.03    1.07
   0   3  -2   22.87    0.99
   0   3  -2   23.66    0.88
   0  -3   2   21.79    0.97
   0  -3   2   23.96    0.99
   0  -3   2   23.20    0.88
   0  -3   2   24.83    0.91
  -1   3  -2  152.05    4.69
  -1   3  -2  146.47    4.69
  -1   3  -2  141.72    4.80
  -1   3  -2  141.98    4.69
   1  -3   2  139.51    4.72
   1  -3   2  133.29    4.82
   1  -3   2  142.73    4.69
   1  -3   2  139.48    4.67
  -2   3  -2  114.68    4.06
  -2   3  -2  115.74    4.02
  -2   3  -2  123.31    4.02
   2  -3   2  114.36    3.94
   2  -3   2  117.77    3.96
   2  -3   2  116.34    4.02
   2  -3   2  123.07    4.08
   2  -3   2  120.83    3.87
  -3   3  -2  139.32    4.68
  -3   3  -2  136.60    4.66
  -3   3  -2  140.67    4.61
  -3   3  -2  135.52    4.64
   3  -3   2  133.42    4.57
   3  -3   2  134.39    4.59
   3  -3   2  144.19    4.64
   3  -3   2  116.86    4.42
   3  -3   2  134.78    4.36
   3  -3   2  141.27    4.63
  -4   3  -2   78.37    3.03
  -4   3  -2   78.79    2.99
  -4   3  -2   82.43    3.03
   4  -3   2   82.00    3.00
   4  -3   2   86.52    3.03
   4  -3   2   82.50    2.94
   4  -3   2   85.14    2.96
  -5   3  -2   63.70    2.51
  -5   3  -2   61.04    2.43
  -5   3  -2   62.95    2.54
  -5   3  -2   61.51    2.52
   5  -3   2   56.31    2.70
   5  -3   2   64.85    2.36
   5  -3   2   62.67    2.36
   5  -3   2   61.21    2.48
   5  -3   2   64.27    2.46
  -6   3  -2    3.50    0.59
  -6   3  -2    4.45    0.63
  -6   3  -2    5.23    0.83
  -6   3  -2    5.40    0.72
   6  -3   2    4.97    0.58
   6  -3   2    4.14    0.57
   6  -3   2    5.44    0.67
   6  -3   2    3.67    0.49
   6  -3   2    4.39    0.65
  -7   3  -2   65.43    2.96
  -7   3  -2   62.34    2.74
  -7   3  -2   69.63    2.96
  -7   3  -2   60.20    2.87
   7  -3   2   64.42    2.92
   7  -3   2   66.24    2.69
   7  -3   2   66.10    2.54
   7  -3   2   69.42    2.88
   7  -3   2   71.72    2.85
   7  -3   2   66.26    2.66
  -8   3  -2   65.25    3.72
  -8   3  -2   57.01    2.61
  -8   3  -2   54.64    2.76
  -8   3  -2   53.80    2.88
   8  -3   2   56.09    2.87
   8  -3   2   60.55    3.45
   8  -3   2   54.70    2.45
   8  -3   2   55.87    2.67
   8  -3   2   58.78    2.32
   8  -3   2   55.24    2.46
  -9   3  -2   59.31    2.89
  -9   3  -2   64.26    3.46
  -9   3  -2   56.96    3.05
   9  -3   2   56.45    2.52
   9  -3   2   58.11    2.62
   9  -3   2   52.66    3.17
   9  -3   2   59.98    2.75
   7   2  -2   28.10    1.71
   7   2  -2   30.46    1.24
   7   2  -2   28.14    2.28
   7   2  -2   26.43    1.83
  -7  -2   2   31.09    1.69
  -7  -2   2   33.12    1.99
  -7  -2   2   30.53    2.05
  -7  -2   2   28.67    2.22
   6   2  -2   81.69    2.94
   6   2  -2   82.47    3.33
   6   2  -2   78.72    3.51
   6   2  -2   80.98    2.83
   6   2  -2   82.06    3.46
   6   2  -2   79.69    3.26
  -6  -2   2   80.71    3.26
  -6  -2   2   82.11    3.15
  -6  -2   2   82.94    3.39
  -6  -2   2   85.22    3.29
  -6  -2   2   83.61    3.53
   5   2  -2   21.76    1.43
   5   2  -2   22.59    1.06
   5   2  -2   22.81    1.29
   5   2  -2   22.48    1.41
   5   2  -2   24.57    1.35
   5   2  -2   23.59    0.97
  -5  -2   2   25.75    1.35
  -5  -2   2   23.84    1.38
  -5  -2   2   24.65    1.19
  -5  -2   2   24.25    1.33
  -5  -2   2   22.88    1.47
   4   2  -2   86.25    3.35
   4   2  -2   88.99    3.37
   4   2  -2   88.52    3.05
   4   2  -2   84.22    3.26
   4   2  -2   88.15    3.28
  -4  -2   2   86.24    3.39
  -4  -2   2   85.75    3.23
  -4  -2   2   94.60    3.30
  -4  -2   2   92.41    3.16
   3   2  -2   27.52    1.05
   3   2  -2   27.38    1.29
   3   2  -2   24.78    1.19
   3   2  -2   25.95    1.22
   3   2  -2   24.40    1.18
  -3  -2   2   26.15    1.06
  -3  -2   2   26.99    1.19
  -3  -2   2   23.66    1.25
  -3  -2   2   25.18    1.16
  -3  -2   2   26.72    1.20
   2   2  -2  155.46    5.50
   2   2  -2  163.51    5.54
   2   2  -2  173.78    5.60
   2   2  -2  167.59    5.55
   2   2  -2  159.42    5.36
  -2  -2   2  173.84    5.37
  -2  -2   2  165.59    5.37
  -2  -2   2  172.40    5.49
  -2  -2   2  153.04    5.55
  -2  -2   2  168.46    5.53
  -2  -2   2  160.02    5.50
   1   2  -2   64.99    2.35
   1   2  -2   68.41    2.22
   1   2  -2   64.40    2.28
   1   2  -2   68.41    2.38
  -1  -2   2   66.53    2.35
  -1  -2   2   67.83    2.27
  -1  -2   2   64.87    2.24
  -1  -2   2   68.31    2.36
   0   2  -2   54.11    1.85
   0   2  -2   49.19    1.74
   0   2  -2   53.32    1.68
   0   2  -2   49.34    1.79
   0  -2   2   52.42    1.79
   0  -2   2   49.69    1.69
   0  -2   2   51.49    1.74
  -1   2  -2   86.57    2.89
  -1   2  -2   84.75    2.89
  -1   2  -2   84.45    2.94
  -1   2  -2   92.55    2.95
  -1   2  -2   90.24    3.00
   1  -2   2   87.44    2.90
   1  -2   2   90.53    3.04
   1  -2   2   89.16    2.94
   1  -2   2   88.91    2.89
  -2   2  -2  187.09    6.35
  -2   2  -2  186.47    6.27
  -2   2  -2  196.65    6.33
  -2   2  -2  205.34    6.34
  -2   2  -2  186.73    6.27
   2  -2   2  192.09    6.33
   2  -2   2  196.07    6.31
   2  -2   2  184.36    6.26
   2  -2   2  190.88    6.27
  -3   2  -2  103.35    3.67
  -3   2  -2  104.47    3.67
  -3   2  -2  106.77    3.64
  -3   2  -2  106.62    3.66
   3  -2   2   98.46    3.61
   3  -2   2  103.54    3.57
   3  -2   2  110.62    3.69
   3  -2   2  105.26    3.63
   3  -2   2  106.78    3.62
  -4   2  -2  269.87    9.00
  -4   2  -2  269.58    8.63
  -4   2  -2  279.49    9.03
  -4   2  -2  276.62    8.99
  -4   2  -2  272.76    8.99
   4  -2   2  280.53    8.89
   4  -2   2  268.70    9.15
   4  -2   2  273.04    8.95
   4  -2   2  275.15    8.99
   4  -2   2  263.20    8.85
   4  -2   2  240.13    8.65
  -5   2  -2   51.79    2.12
  -5   2  -2   43.00    2.18
  -5   2  -2   48.20    2.10
  -5   2  -2   52.53    1.73
   5  -2   2   51.67    1.94
   5  -2   2   50.53    2.11
   5  -2   2   50.01    1.92
   5  -2   2   50.28    2.04
   5  -2   2   49.92    1.70
   5  -2   2   43.63    2.14
  -6   2  -2  152.08    5.08
  -6   2  -2  153.94    5.53
  -6   2  -2  162.45    5.59
  -6   2  -2  151.12    5.57
  -6   2  -2  153.04    5.57
   6  -2   2  148.73    5.39
   6  -2   2  145.98    5.55
   6  -2   2  151.61    5.29
   6  -2   2  159.25    5.53
   6  -2   2  156.47    5.28
  -7   2  -2   55.30    2.57
  -7   2  -2   52.21    1.98
  -7   2  -2   54.58    2.50
  -7   2  -2   51.92    2.54
  -7   2  -2   51.26    2.45
   7  -2   2   53.61    2.36
   7  -2   2   53.53    2.16
   7  -2   2   50.42    2.53
   7  -2   2   51.70    2.20
   7  -2   2   52.54    2.30
   7  -2   2   53.05    2.51
  -8   2  -2   43.76    2.35
  -8   2  -2   40.19    2.25
  -8   2  -2   42.49    1.75
  -8   2  -2   43.15    2.52
   8  -2   2   41.39    2.49
   8  -2   2   41.76    1.96
   8  -2   2   42.00    2.26
   8  -2   2   40.83    2.00
   8  -2   2   42.03    2.07
  -9   2  -2   21.91    2.51
  -9   2  -2   27.47    2.31
   9  -2   2   29.05    1.78
   9  -2   2   30.52    2.76
   9  -2   2   28.38    2.40
   9  -2   2   30.25    1.80
   8   1  -2   27.12    2.42
   8   1  -2   31.65    1.76
   8   1  -2   29.28    1.92
   8   1  -2   28.49    1.52
  -8  -1   2   29.43    2.21
  -8  -1   2   29.18    1.77
  -8  -1   2   29.33    2.11
  -8  -1   2   25.82    2.48
   7   1  -2   43.68    2.08
   7   1  -2   46.27    2.21
   7   1  -2   46.54    2.04
   7   1  -2   49.86    2.64
   7   1  -2   45.06    1.87
   7   1  -2   43.62    2.48
  -7  -1   2   45.39    2.53
  -7  -1   2   45.40    2.13
  -7  -1   2   48.45    2.21
  -7  -1   2   42.20    2.38
  -7  -1   2   44.59    2.18
   6   1  -2   19.16    1.00
   6   1  -2   20.88    1.25
   6   1  -2   20.47    1.58
   6   1  -2   19.71    1.36
   6   1  -2   18.94    1.12
   6   1  -2   19.35    1.16
  -6  -1   2   18.45    1.20
  -6  -1   2   20.36    1.18
  -6  -1   2   18.76    1.50
  -6  -1   2   20.63    1.35
  -6  -1   2   20.03    1.23
   5   1  -2  134.42    5.06
   5   1  -2  137.30    4.80
   5   1  -2  137.70    4.91
   5   1  -2  139.39    5.03
   5   1  -2  137.62    4.87
  -5  -1   2  144.82    5.01
  -5  -1   2  141.65    4.88
  -5  -1   2  137.16    5.11
  -5  -1   2  146.43    4.90
   4   1  -2   58.04    2.36
   4   1  -2   56.68    2.35
   4   1  -2   59.32    2.19
   4   1  -2   60.55    2.26
   4   1  -2   59.56    2.28
  -4  -1   2   60.44    2.33
  -4  -1   2   61.16    2.27
  -4  -1   2   56.50    2.20
  -4  -1   2   62.05    2.25
  -4  -1   2   60.36    2.44
   3   1  -2  287.83    9.12
   3   1  -2  293.57    9.16
   3   1  -2  276.94    9.18
   3   1  -2  278.55    9.25
   3   1  -2  260.91    9.20
  -3  -1   2  276.62    9.17
  -3  -1   2  277.56    9.19
  -3  -1   2  282.39    9.10
  -3  -1   2  273.60    9.28
  -3  -1   2  299.89    9.12
  -3  -1   2  269.36    9.10
   2   1  -2  116.25    4.08
   2   1  -2  120.27    4.05
   2   1  -2  128.03    4.08
   2   1  -2  125.62    4.15
   2   1  -2  116.39    4.10
  -2  -1   2  126.63    4.08
  -2  -1   2  122.16    4.05
  -2  -1   2  116.31    4.14
  -2  -1   2  119.56    4.04
  -2  -1   2  120.52    4.09
  -2  -1   2  129.15    4.02
   1   1  -2  981.48   32.72
  -1  -1   2 1000.00   32.75
   0   1  -2  118.91    3.91
   0   1  -2  109.54    3.90
   0   1  -2  130.66    3.94
   0   1  -2  108.56    3.83
   0   1  -2  119.42    3.91
   0   1  -2  133.38    3.89
   0   1  -2  122.13    3.97
   0  -1   2  121.68    3.91
   0  -1   2  115.46    3.91
  -1   1  -2  240.42    7.64
  -1   1  -2  228.59    7.71
  -1   1  -2  268.17    7.69
  -1   1  -2  233.79    7.63
   1  -1   2  227.72    7.64
   1  -1   2  227.98    7.65
   1  -1   2  233.23    7.70
   1  -1   2  236.92    7.63
  -2   1  -2   91.86    3.13
  -2   1  -2   88.64    3.17
  -2   1  -2   88.60    3.11
  -2   1  -2   99.39    3.17
  -2   1  -2   90.14    2.95
  -2   1  -2   91.10    3.07
   2  -1   2   98.80    3.20
   2  -1   2   87.24    3.12
   2  -1   2   92.92    3.15
   2  -1   2   88.55    3.06
   2  -1   2   90.62    3.11
  -3   1  -2  454.41   14.87
  -3   1  -2  473.96   14.92
  -3   1  -2  425.58   14.91
  -3   1  -2  450.01   14.64
  -3   1  -2  460.89   14.84
   3  -1   2  475.02   14.85
   3  -1   2  450.17   14.74
   3  -1   2  463.25   14.82
   3  -1   2  438.66   14.86
   3  -1   2  492.13   14.90
  -4   1  -2   36.23    1.56
  -4   1  -2   35.02    1.29
  -4   1  -2   35.32    1.53
  -4   1  -2   34.56    1.55
  -4   1  -2   35.01    1.58
   4  -1   2   33.03    1.37
   4  -1   2   35.55    1.28
   4  -1   2   37.49    1.55
   4  -1   2   35.20    1.44
   4  -1   2   33.53    1.55
   4  -1   2   36.62    1.54
  -5   1  -2   78.84    3.07
  -5   1  -2   81.05    3.10
  -5   1  -2   78.44    2.76
  -5   1  -2   73.65    3.08
  -5   1  -2   78.48    3.08
   5  -1   2   83.42    3.14
   5  -1   2   80.09    2.85
   5  -1   2   80.31    3.11
   5  -1   2   76.99    2.73
   5  -1   2   77.58    3.01
   5  -1   2   83.92    2.93
  -6   1  -2   48.88    2.16
  -6   1  -2   44.38    2.08
  -6   1  -2   42.10    1.72
  -6   1  -2   44.54    2.13
  -6   1  -2   45.55    2.18
   6  -1   2   41.81    1.79
   6  -1   2   43.47    1.99
   6  -1   2   42.68    2.16
   6  -1   2   42.89    1.90
   6  -1   2   45.99    2.12
  -7   1  -2  106.32    4.30
  -7   1  -2  107.04    4.32
  -7   1  -2  112.14    3.88
  -7   1  -2  111.30    4.38
  -7   1  -2  106.96    4.37
   7  -1   2  108.95    4.45
   7  -1   2  112.40    3.96
   7  -1   2  104.13    4.14
   7  -1   2  114.28    4.36
   7  -1   2  107.65    4.00
   7  -1   2  109.97    4.08
  -8   1  -2   10.54    1.37
  -8   1  -2   11.95    1.42
  -8   1  -2   13.55    1.51
  -8   1  -2   11.55    1.30
   8  -1   2   14.56    1.45
   8  -1   2   11.33    1.43
   8  -1   2   11.71    1.14
   8  -1   2   11.09    1.23
   8  -1   2   11.19    1.17
   8   0  -2   59.60    2.48
   8   0  -2   53.75    3.06
   8   0  -2   54.97    2.61
   8   0  -2   57.39    2.61
   8   0  -2   58.99    2.45
  -8   0   2   58.44    2.67
  -8   0   2   60.12    3.16
  -8   0   2   57.56    2.64
  -8   0   2   55.00    2.57
   7   0  -2   27.61    1.72
   7   0  -2   26.39    1.34
   7   0  -2   26.17    1.79
   7   0  -2   26.62    1.48
   7   0  -2   27.00    1.51
   7   0  -2   26.40    1.38
  -7   0   2   25.08    1.48
  -7   0   2   27.68    1.89
  -7   0   2   23.31    1.44
  -7   0   2   27.99    1.72
  -7   0   2   25.80    1.49
   6   0  -2  148.33    5.11
   6   0  -2  148.71    5.05
   6   0  -2  144.76    5.10
   6   0  -2  149.07    5.29
   6   0  -2  142.47    5.36
  -6   0   2  143.68    5.20
  -6   0   2  136.72    5.05
  -6   0   2  153.43    5.32
  -6   0   2  146.03    5.41
  -6   0   2  143.27    5.60
   5   0  -2   81.16    3.04
   5   0  -2   79.72    3.21
   5   0  -2   85.99    3.21
   5   0  -2   82.88    3.00
   5   0  -2   85.94    3.08
  -5   0   2   85.61    3.12
  -5   0   2   84.90    3.06
  -5   0   2   84.39    3.01
  -5   0   2   84.99    3.51
  -5   0   2   82.01    3.27
   4   0  -2  285.44    9.93
   4   0  -2  288.44    9.83
   4   0  -2  305.30    9.95
   4   0  -2  311.44    9.77
   4   0  -2  307.71    9.86
  -4   0   2  298.27    9.93
  -4   0   2  303.81    9.84
  -4   0   2  306.48    9.75
  -4   0   2  292.85   10.00
   3   0  -2   13.82    0.74
   3   0  -2   15.07    0.77
   3   0  -2   14.76    0.73
   3   0  -2   15.43    0.65
   3   0  -2   13.85    0.70
  -3   0   2   14.75    0.71
  -3   0   2   13.74    0.61
  -3   0   2   14.71    0.74
  -3   0   2   15.41    0.72
  -3   0   2   14.49    0.80
  -3   0   2   14.85    0.72
   2   0  -2    4.39    0.33
   2   0  -2    4.84    0.34
   2   0  -2    4.04    0.31
   2   0  -2    4.86    0.32
  -2   0   2    3.74    0.30
  -2   0   2    4.55    0.36
  -2   0   2    4.13    0.22
  -2   0   2    3.82    0.32
  -2   0   2    4.72    0.32
  -2   0   2    4.87    0.32
   1   0  -2  124.82    4.29
   1   0  -2  130.95    4.32
   1   0  -2  126.51    4.24
   1   0  -2  128.53    4.26
   1   0  -2  123.77    4.27
  -1   0   2  137.65    4.30
  -1   0   2  131.49    4.33
  -1   0   2  134.50    4.28
  -1   0   2  131.29    4.24
  -1   0   2  140.59    4.29
   0   0  -2  306.63   10.00
   0   0  -2  283.90    9.94
   0   0  -2  311.95    9.99
   0   0   2  295.49    9.94
   0   0   2  345.40   10.02
   0   0   2  312.56   10.00
   0   0   2  321.30   10.00
  -1   0  -2   83.20    3.09
  -1   0  -2   91.57    3.01
  -1   0  -2   91.77    3.00
  -1   0  -2   95.38    3.11
  -1   0  -2   91.91    3.09
   1   0   2   98.30    3.13
   1   0   2   86.95    3.00
   1   0   2   94.61    3.10
   1   0   2   90.53    3.01
   1   0   2   88.55    3.08
  -2   0  -2  228.30    7.50
  -2   0  -2  220.11    7.34
  -2   0  -2  225.72    7.49
  -2   0  -2  243.62    7.50
  -2   0  -2  225.79    7.42
  -2   0  -2  220.94    7.34
   2   0   2  229.53    7.43
   2   0   2  221.19    7.49
   2   0   2  226.62    7.45
   2   0   2  232.06    7.52
   2   0   2  225.06    7.34
  -3   0  -2   12.99    0.61
  -3   0  -2   13.38    0.76
  -3   0  -2   12.33    0.75
  -3   0  -2   12.15    0.72
  -3   0  -2   12.71    0.76
   3   0   2   13.41    0.75
   3   0   2   12.53    0.77
   3   0   2   12.05    0.75
   3   0   2   12.52    0.70
   3   0   2   13.19    0.59
  -4   0  -2  130.30    4.67
  -4   0  -2  123.17    4.68
  -4   0  -2  128.69    4.65
  -4   0  -2  137.75    4.48
  -4   0  -2  137.55    4.72
   4   0   2  136.91    4.59
   4   0   2  129.19    4.43
   4   0   2  141.08    4.72
   4   0   2  136.30    4.69
   4   0   2  122.88    4.70
  -5   0  -2   47.77    2.19
  -5   0  -2   46.69    2.17
  -5   0  -2   49.88    1.91
  -5   0  -2   47.32    2.13
  -5   0  -2   49.98    2.14
   5   0   2   49.59    2.14
   5   0   2   51.38    2.25
   5   0   2   51.23    2.17
   5   0   2   48.78    2.01
   5   0   2   47.71    1.85
  -6   0  -2  111.29    4.28
  -6   0  -2  102.08    4.16
  -6   0  -2  109.56    4.28
  -6   0  -2  109.49    3.89
   6   0   2  109.66    3.92
   6   0   2  104.92    3.82
   6   0   2  110.35    4.01
   6   0   2  109.96    4.17
   6   0   2  108.56    4.34
   6   0   2  118.88    4.26
  -7   0  -2   44.08    2.47
  -7   0  -2   44.35    2.25
  -7   0  -2   43.43    2.35
  -7   0  -2   43.95    2.02
   7   0   2   45.51    2.10
   7   0   2   44.42    1.86
   7   0   2   49.44    2.53
   7   0   2   42.13    2.52
   7   0   2   41.28    2.15
  -8   0  -2   33.18    2.40
  -8   0  -2   35.51    2.53
  -8   0  -2   34.27    2.10
   8   0   2   32.64    2.03
   8   0   2   29.29    2.60
   8   0   2   34.34    1.72
   8   0   2   36.56    2.16
   9  -1  -2   31.35    2.65
   9  -1  -2   34.05    1.74
   9  -1  -2   32.26    1.93
   9  -1  -2   29.22    2.22
   9  -1  -2   30.05    1.94
  -9   1   2   30.09    1.99
  -9   1   2   31.95    2.87
   8  -1  -2   10.16    1.08
   8  -1  -2    7.76    0.90
   8  -1  -2    8.17    1.13
   8  -1  -2    8.27    1.01
  -8   1   2    8.87    0.97
  -8   1   2    9.60    1.36
  -8   1   2    8.05    1.06
  -8   1   2   10.76    1.17
   7  -1  -2   56.46    2.51
   7  -1  -2   59.86    2.61
   7  -1  -2   56.64    2.70
   7  -1  -2   58.83    2.35
   7  -1  -2   58.76    2.25
  -7   1   2   55.85    2.62
  -7   1   2   55.54    2.52
  -7   1   2   60.41    2.38
  -7   1   2   58.63    2.78
  -7   1   2   56.24    2.24
   6  -1  -2   55.78    2.30
   6  -1  -2   52.89    2.32
   6  -1  -2   56.30    2.40
   6  -1  -2   52.54    2.12
  -6   1   2   52.86    2.28
  -6   1   2   50.98    2.02
  -6   1   2   56.18    2.37
  -6   1   2   51.00    2.43
  -6   1   2   54.76    2.15
   5  -1  -2   89.09    3.13
   5  -1  -2   79.19    3.00
   5  -1  -2   91.04    3.20
   5  -1  -2   81.30    3.19
   5  -1  -2   82.04    2.90
  -5   1   2   79.19    3.21
  -5   1   2   81.65    2.90
  -5   1   2   89.13    3.20
  -5   1   2   83.15    3.14
  -5   1   2   85.74    3.03
   4  -1  -2   58.55    2.21
   4  -1  -2   56.25    2.10
   4  -1  -2   58.19    2.24
   4  -1  -2   58.22    1.98
   4  -1  -2   57.33    2.18
  -4   1   2   59.37    2.23
  -4   1   2   56.35    2.11
  -4   1   2   56.12    1.96
  -4   1   2   54.20    2.24
  -4   1   2   60.31    2.22
   3  -1  -2   73.26    2.63
   3  -1  -2   72.24    2.56
   3  -1  -2   73.01    2.65
   3  -1  -2   73.79    2.61
   3  -1  -2   78.69    2.41
  -3   1   2   66.92    2.62
  -3   1   2   78.30    2.65
  -3   1   2   76.90    2.66
  -3   1   2   69.15    2.64
  -3   1   2   74.49    2.57
   2  -1  -2  117.55    3.97
   2  -1  -2  121.59    4.04
   2  -1  -2  122.30    3.96
   2  -1  -2  107.92    4.00
  -2   1   2  118.79    4.05
  -2   1   2  125.65    3.98
  -2   1   2  125.11    4.04
  -2   1   2  119.04    3.98
   1  -1  -2  300.50   10.06
   1  -1  -2  301.22   10.01
   1  -1  -2  309.17    9.94
   1  -1  -2  302.63    9.97
  -1   1   2  349.68   10.11
  -1   1   2  292.96   10.01
  -1   1   2  344.78    9.98
  -1   1   2  308.39   10.08
  -1   1   2  305.70    9.98
  -1   1   2  300.99    9.95
   0  -1  -2  123.32    3.98
   0  -1  -2  116.79    3.86
   0  -1  -2  109.39    3.89
   0  -1  -2  117.23    3.88
   0  -1  -2  115.54    3.78
   0   1   2  119.09    3.91
   0   1   2  115.57    3.77
   0   1   2  125.47    3.94
   0   1   2  120.32    3.98
   0   1   2  115.41    3.90
  -1  -1  -2  348.12   12.06
  -1  -1  -2  365.81   12.03
  -1  -1  -2  377.07   12.17
  -1  -1  -2  355.20   12.13
  -1  -1  -2  398.72   12.18
   1   1   2  373.21   12.18
   1   1   2  394.39   12.07
   1   1   2  404.21   12.20
   1   1   2  374.02   12.13
   1   1   2  358.60   12.02
  -2  -1  -2   64.32    2.32
  -2  -1  -2   62.51    2.26
  -2  -1  -2   60.83    2.05
  -2  -1  -2   58.17    2.18
  -2  -1  -2   56.78    2.25
  -2  -1  -2   62.32    2.17
   2   1   2   60.59    2.31
   2   1   2   62.31    2.25
   2   1   2   59.84    2.22
   2   1   2   59.67    2.07
   2   1   2   63.38    2.34
  -3  -1  -2   40.55    1.67
  -3  -1  -2   39.50    1.56
  -3  -1  -2   40.06    1.63
  -3  -1  -2   38.23    1.68
  -3  -1  -2   39.49    1.71
   3   1   2   41.44    1.74
   3   1   2   39.10    1.67
   3   1   2   39.68    1.43
   3   1   2   38.74    1.73
   3   1   2   41.14    1.65
  -4  -1  -2   84.72    3.01
  -4  -1  -2   82.51    3.12
  -4  -1  -2   80.46    3.17
  -4  -1  -2   85.47    3.23
  -4  -1  -2   85.05    3.14
   4   1   2   82.13    2.84
   4   1   2   78.91    3.25
   4   1   2   82.88    3.16
   4   1   2   82.86    3.10
   4   1   2   86.04    3.24
  -5  -1  -2  103.89    4.03
  -5  -1  -2  104.99    4.05
  -5  -1  -2  105.58    4.12
  -5  -1  -2  111.19    4.18
  -5  -1  -2  104.28    4.07
   5   1   2  113.08    4.13
   5   1   2  113.71    4.01
   5   1   2  105.26    4.10
   5   1   2  110.37    3.69
   5   1   2  108.95    3.74
   5   1   2  110.32    4.26
  -6  -1  -2   43.92    2.32
  -6  -1  -2   41.16    2.07
  -6  -1  -2   43.24    2.19
  -6  -1  -2   43.39    1.96
  -6  -1  -2   44.50    2.33
   6   1   2   40.54    1.68
   6   1   2   42.31    2.14
   6   1   2   41.75    1.75
   6   1   2   43.29    2.35
   6   1   2   43.78    2.04
   6   1   2   42.84    2.20
  -7  -1  -2   42.70    2.60
  -7  -1  -2   37.90    2.44
  -7  -1  -2   43.46    2.21
  -7  -1  -2   42.63    2.10
   7   1   2   40.24    2.24
   7   1   2   40.67    1.70
   7   1   2   41.30    1.97
   7   1   2   40.28    2.23
   7   1   2   39.26    2.64
   9  -2  -2   23.61    1.51
   9  -2  -2   22.55    1.30
   9  -2  -2   19.81    1.63
   9  -2  -2   23.75    2.18
   9  -2  -2   22.29    2.17
  -9   2   2   18.99    1.62
  -9   2   2   19.65    2.09
  -9   2   2   17.65    1.55
   8  -2  -2   82.75    3.16
   8  -2  -2   80.49    3.53
   8  -2  -2   83.94    3.05
   8  -2  -2   83.73    3.50
   8  -2  -2   85.02    3.67
  -8   2   2   85.94    3.66
  -8   2   2   81.16    3.19
  -8   2   2   83.69    3.79
  -8   2   2   80.85    3.49
   7  -2  -2   36.58    1.99
   7  -2  -2   40.70    1.95
   7  -2  -2   39.73    1.97
   7  -2  -2   40.21    1.70
  -7   2   2   38.72    2.00
  -7   2   2   38.70    2.13
  -7   2   2   38.26    1.71
  -7   2   2   37.45    1.44
  -7   2   2   36.97    1.92
   6  -2  -2  148.97    5.27
   6  -2  -2  145.22    5.34
   6  -2  -2  153.32    5.27
   6  -2  -2  159.51    4.92
   6  -2  -2  147.79    5.05
  -6   2   2  138.33    5.36
  -6   2   2  144.14    5.06
  -6   2   2  142.04    5.29
  -6   2   2  146.68    4.82
  -6   2   2  148.83    5.33
   5  -2  -2   86.97    3.20
   5  -2  -2   87.27    3.08
   5  -2  -2   86.35    3.29
   5  -2  -2   90.81    2.93
   5  -2  -2   84.77    3.22
  -5   2   2   82.05    3.29
  -5   2   2   91.04    3.31
  -5   2   2   86.91    3.11
  -5   2   2   86.56    3.27
   4  -2  -2  258.57    8.04
   4  -2  -2  246.03    8.37
   4  -2  -2  239.27    8.20
   4  -2  -2  252.42    8.28
   4  -2  -2  253.56    8.35
  -4   2   2  250.99    8.36
  -4   2   2  247.31    8.38
  -4   2   2  248.28    8.22
  -4   2   2  258.67    8.39
   3  -2  -2  153.11    5.06
   3  -2  -2  156.22    5.16
   3  -2  -2  148.50    5.15
   3  -2  -2  151.06    5.04
  -3   2   2  147.40    5.17
  -3   2   2  147.81    5.03
  -3   2   2  153.82    5.11
  -3   2   2  158.28    5.19
   2  -2  -2  335.95   11.47
   2  -2  -2  362.82   11.65
   2  -2  -2  365.02   11.52
   2  -2  -2  344.71   11.55
  -2   2   2  350.13   11.55
  -2   2   2  357.06   11.66
  -2   2   2  349.97   11.54
  -2   2   2  392.82   11.50
  -2   2   2  369.07   11.68
   1  -2  -2    5.64    0.44
   1  -2  -2    5.30    0.33
   1  -2  -2    5.32    0.33
   1  -2  -2    4.93    0.27
   1  -2  -2    5.13    0.37
  -1   2   2    4.89    0.33
  -1   2   2    5.92    0.38
  -1   2   2    5.50    0.42
  -1   2   2    4.96    0.37
   0  -2  -2  366.30   11.72
   0  -2  -2  360.88   11.89
   0  -2  -2  359.74   11.67
   0  -2  -2  363.61   11.80
   0   2   2  360.56   11.90
   0   2   2  359.67   11.65
   0   2   2  382.70   11.86
   0   2   2  368.70   11.73
   0   2   2  357.23   11.81
  -1  -2  -2  135.10    4.72
  -1  -2  -2  137.54    4.50
  -1  -2  -2  140.32    4.78
  -1  -2  -2  136.96    4.67
  -1  -2  -2  135.87    4.61
  -1  -2  -2  146.97    4.76
   1   2   2  135.43    4.80
   1   2   2  136.41    4.73
   1   2   2  137.09    4.54
   1   2   2  143.19    4.79
   1   2   2  140.89    4.61
  -2  -2  -2  193.15    6.43
  -2  -2  -2  192.48    6.45
  -2  -2  -2  186.09    6.20
  -2  -2  -2  188.45    6.57
  -2  -2  -2  189.23    6.53
  -2  -2  -2  196.19    6.52
   2   2   2  186.12    6.62
   2   2   2  199.60    6.62
   2   2   2  198.94    6.47
   2   2   2  196.38    6.53
   2   2   2  197.61    6.26
  -3  -2  -2   51.73    2.06
  -3  -2  -2   50.35    2.00
  -3  -2  -2   50.57    2.02
  -3  -2  -2   49.51    2.11
   3   2   2   49.93    1.74
   3   2   2   48.50    2.18
   3   2   2   50.58    2.18
   3   2   2   52.20    2.10
  -4  -2  -2  118.60    4.25
  -4  -2  -2  111.73    4.31
  -4  -2  -2  117.23    4.16
  -4  -2  -2  120.03    4.38
  -4  -2  -2  113.81    4.22
   4   2   2  116.34    4.45
   4   2   2  113.55    4.37
   4   2   2  120.37    4.33
   4   2   2  113.08    4.23
  -5  -2  -2   27.30    1.73
  -5  -2  -2   29.13    1.57
  -5  -2  -2   28.94    1.65
  -5  -2  -2   29.46    1.78
  -5  -2  -2   31.35    1.56
   5   2   2   31.74    1.73
   5   2   2   29.59    1.64
   5   2   2   26.84    1.68
   5   2   2   26.10    1.82
  -6  -2  -2   70.36    3.19
  -6  -2  -2   68.58    2.88
  -6  -2  -2   64.35    3.01
  -6  -2  -2   64.73    2.88
   6   2   2   65.56    3.06
   6   2   2   66.78    3.11
   6   2   2   66.13    2.98
   6   2   2   68.45    3.36
  -7  -2  -2   21.25    2.37
  -7  -2  -2   16.23    1.71
  -7  -2  -2   25.11    3.02
  -7  -2  -2   16.46    1.44
   7   2   2   18.86    2.52
   7   2   2   14.88    2.15
   9  -3  -2   44.89    2.29
   9  -3  -2   42.81    1.95
   9  -3  -2   40.84    2.63
  -9   3   2   44.46    2.18
  -9   3   2   42.51    2.95
  -9   3   2   39.26    2.37
   8  -3  -2   30.92    1.34
   8  -3  -2   28.61    1.88
   8  -3  -2   31.42    1.47
   8  -3  -2   27.43    1.87
   8  -3  -2   27.51    1.91
  -8   3   2   26.67    2.09
  -8   3   2   32.43    1.72
  -8   3   2   30.47    1.81
  -8   3   2   28.08    1.98
   7  -3  -2  149.98    5.34
   7  -3  -2  151.15    5.32
   7  -3  -2  148.28    5.43
   7  -3  -2  143.77    4.83
   7  -3  -2  143.45    5.01
  -7   3   2  150.20    5.41
  -7   3   2  150.32    5.09
  -7   3   2  122.39    5.72
  -7   3   2  145.33    5.40
   6  -3  -2   55.90    2.42
   6  -3  -2   54.46    2.12
   6  -3  -2   57.84    2.40
   6  -3  -2   54.81    2.30
   6  -3  -2   55.53    1.96
  -6   3   2   58.33    2.43
  -6   3   2   55.18    2.15
  -6   3   2   53.17    2.39
  -6   3   2   55.04    2.46
   5  -3  -2  124.48    3.86
   5  -3  -2  114.23    4.12
   5  -3  -2  112.14    4.20
   5  -3  -2  115.18    4.24
   5  -3  -2  114.36    4.00
  -5   3   2  114.48    4.23
  -5   3   2  117.29    4.01
  -5   3   2  118.90    4.28
   4  -3  -2   10.48    0.75
   4  -3  -2   10.18    0.72
   4  -3  -2   10.17    0.60
   4  -3  -2   11.37    0.49
   4  -3  -2   11.02    0.67
   4  -3  -2   10.96    0.44
  -4   3   2    9.97    0.71
  -4   3   2   11.17    0.61
  -4   3   2   10.93    0.77
   3  -3  -2  335.73   11.24
   3  -3  -2  326.80   11.37
   3  -3  -2  347.78   11.22
   3  -3  -2  356.96   11.26
   3  -3  -2  335.28   11.14
   3  -3  -2  354.12   11.39
  -3   3   2  358.80   11.31
  -3   3   2  366.30   11.18
  -3   3   2  342.94   11.43
   2  -3  -2   54.64    2.00
   2  -3  -2   57.58    1.99
   2  -3  -2   55.12    2.03
   2  -3  -2   56.92    2.12
  -2   3   2   56.50    2.13
  -2   3   2   60.98    2.07
   1  -3  -2  112.96    3.83
   1  -3  -2  114.62    4.09
   1  -3  -2  120.36    3.96
   1  -3  -2  111.99    3.94
  -1   3   2  119.08    4.02
  -1   3   2  118.59    3.95
   0  -3  -2   58.41    2.23
   0  -3  -2   61.48    2.11
   0  -3  -2   59.93    2.10
   0  -3  -2   63.83    2.35
   0  -3  -2   62.06    2.24
   0   3   2   61.11    2.10
   0   3   2   59.27    2.26
   0   3   2   57.77    2.31
   0   3   2   58.67    2.08
   0   3   2   59.75    2.37
  -1  -3  -2  147.66    4.83
  -1  -3  -2  134.82    4.85
  -1  -3  -2  138.02    4.76
  -1  -3  -2  128.10    4.46
  -1  -3  -2  136.18    4.66
  -1  -3  -2  136.62    4.80
   1   3   2  138.59    4.64
   1   3   2  137.67    4.93
   1   3   2  144.08    4.83
   1   3   2  139.82    4.91
  -2  -3  -2   33.09    1.75
  -2  -3  -2   33.12    1.44
  -2  -3  -2   31.39    1.54
  -2  -3  -2   34.71    1.52
   2   3   2   34.85    1.45
   2   3   2   33.10    1.65
   2   3   2   35.50    1.57
   2   3   2   30.88    1.64
  -3  -3  -2  125.63    4.70
  -3  -3  -2  127.70    4.73
  -3  -3  -2  125.85    4.59
  -3  -3  -2  129.45    4.59
  -3  -3  -2  129.76    4.57
   3   3   2  132.60    4.60
   3   3   2  127.72    4.84
   3   3   2  121.68    4.78
   3   3   2  135.40    4.70
  -4  -3  -2   32.28    1.62
  -4  -3  -2   33.18    1.85
  -4  -3  -2   29.37    1.57
  -4  -3  -2   32.15    1.76
  -4  -3  -2   29.79    1.61
   4   3   2   33.81    1.73
   4   3   2   29.05    1.87
   4   3   2   29.82    1.77
   4   3   2   34.19    1.75
  -5  -3  -2  108.58    4.16
  -5  -3  -2  108.32    4.37
  -5  -3  -2  105.02    4.20
  -5  -3  -2  111.82    4.45
  -5  -3  -2  105.81    4.13
   5   3   2  107.95    4.29
   5   3   2  107.21    4.41
   5   3   2  108.87    4.57
  -6  -3  -2   11.01    1.30
  -6  -3  -2   12.56    1.22
  -6  -3  -2   11.75    1.55
   6   3   2   10.81    1.43
   6   3   2    8.32    1.48
   9  -4  -2   26.21    2.19
   9  -4  -2   27.99    1.96
   9  -4  -2   31.45    1.53
  -9   4   2   30.07    1.62
  -9   4   2   27.40    1.95
  -9   4   2   27.21    2.59
   8  -4  -2   67.57    3.19
   8  -4  -2   71.53    2.70
   8  -4  -2   71.12    3.23
   8  -4  -2   72.98    3.13
  -8   4   2   71.85    3.21
  -8   4   2   69.23    3.36
  -8   4   2   70.28    2.73
   7  -4  -2   40.68    1.48
   7  -4  -2   37.39    1.64
   7  -4  -2   41.27    1.94
   7  -4  -2   37.81    2.03
   7  -4  -2   37.62    2.05
  -7   4   2   38.48    2.03
  -7   4   2   39.80    1.68
   6  -4  -2   37.38    1.92
   6  -4  -2   41.27    1.94
   6  -4  -2   40.17    1.65
   6  -4  -2   42.35    1.85
   6  -4  -2   42.15    1.51
  -6   4   2   39.69    1.96
  -6   4   2   37.96    1.95
  -6   4   2   40.06    1.64
   5  -4  -2   29.06    1.43
   5  -4  -2   27.27    1.03
   5  -4  -2   25.07    1.16
   5  -4  -2   26.32    1.40
   5  -4  -2   27.49    1.28
   5  -4  -2   26.41    0.97
  -5   4   2   25.75    1.42
  -5   4   2   24.99    1.37
   4  -4  -2   93.09    3.58
   4  -4  -2   97.56    3.44
   4  -4  -2  106.32    3.62
   4  -4  -2   97.72    3.36
   4  -4  -2   93.76    3.27
   4  -4  -2   94.81    3.38
  -4   4   2  104.64    3.35
  -4   4   2   94.93    3.64
  -4   4   2   96.29    3.51
   3  -4  -2   98.00    3.47
   3  -4  -2  102.98    3.67
   3  -4  -2  107.16    3.54
   3  -4  -2   97.28    3.51
  -3   4   2  108.07    3.55
  -3   4   2   99.58    3.73
   2  -4  -2  263.40    8.88
   2  -4  -2  262.82    8.89
   2  -4  -2  262.61    8.80
   2  -4  -2  277.60    8.85
   2  -4  -2  283.77    8.99
   2  -4  -2  271.12    9.11
  -2   4   2  275.97    9.08
  -2   4   2  272.75    9.14
   1  -4  -2   83.39    3.03
   1  -4  -2   82.06    2.99
   1  -4  -2   79.72    2.85
   1  -4  -2   84.79    2.94
   1  -4  -2   86.23    3.17
  -1   4   2   83.42    3.10
   0  -4  -2   65.67    2.59
   0  -4  -2   72.64    2.74
   0  -4  -2   71.96    2.65
   0  -4  -2   70.06    2.46
   0  -4  -2   69.24    2.39
   0   4   2   63.33    2.69
  -1  -4  -2   29.84    1.43
  -1  -4  -2   28.53    1.48
  -1  -4  -2   29.00    1.28
  -1  -4  -2   30.77    1.42
  -1  -4  -2   27.83    1.39
   1   4   2   28.48    1.58
   1   4   2   28.29    1.24
   1   4   2   27.17    1.53
  -2  -4  -2  137.56    4.88
  -2  -4  -2  136.79    4.74
  -2  -4  -2  127.00    4.64
  -2  -4  -2  139.79    4.77
  -2  -4  -2  131.31    4.83
   2   4   2  134.14    4.63
   2   4   2  124.80    4.97
   2   4   2  125.48    4.95
  -3  -4  -2   65.73    2.84
  -3  -4  -2   65.63    2.64
  -3  -4  -2   65.34    2.72
  -3  -4  -2   63.17    2.63
  -3  -4  -2   67.61    2.84
   3   4   2   62.15    2.93
   3   4   2   66.08    2.66
   3   4   2   62.18    2.99
  -4  -4  -2   40.49    2.13
  -4  -4  -2   40.93    2.38
  -4  -4  -2   40.04    1.93
  -4  -4  -2   41.66    2.07
  -4  -4  -2   39.78    2.21
   4   4   2   37.87    2.04
   4   4   2   38.06    2.24
   4   4   2   40.06    2.43
  -5  -4  -2   15.21    1.62
  -5  -4  -2   14.67    1.56
  -5  -4  -2   12.84    1.19
   5   4   2   12.74    1.68
   5   4   2   14.23    1.80
   5   4   2   16.90    1.86
   9  -5  -2   59.92    2.31
   9  -5  -2   56.09    3.04
   9  -5  -2   52.21    2.77
  -9   5   2   54.22    3.34
  -9   5   2   52.21    2.87
   8  -5  -2   70.78    3.11
   8  -5  -2   73.14    3.33
   8  -5  -2   70.60    2.67
   8  -5  -2   68.41    3.20
  -8   5   2   69.77    3.33
  -8   5   2   65.18    3.17
   7  -5  -2  101.69    3.82
   7  -5  -2   96.05    3.95
   7  -5  -2   99.87    3.98
   7  -5  -2  101.10    3.37
   7  -5  -2   96.64    3.53
  -7   5   2   94.00    4.04
  -7   5   2   97.85    4.00
   6  -5  -2   30.37    1.50
   6  -5  -2   29.58    1.28
   6  -5  -2   28.77    1.31
   6  -5  -2   27.10    1.06
   6  -5  -2   28.65    1.14
   6  -5  -2   29.05    1.64
   6  -5  -2   27.60    1.61
  -6   5   2   27.52    1.65
  -6   5   2   27.67    1.59
   5  -5  -2  251.44    8.04
   5  -5  -2  234.96    7.77
   5  -5  -2  228.16    7.91
   5  -5  -2  243.72    8.20
   5  -5  -2  233.30    8.19
   5  -5  -2  246.69    7.89
  -5   5   2  230.96    8.28
   4  -5  -2   76.72    2.96
   4  -5  -2   78.09    2.76
   4  -5  -2   75.29    2.78
   4  -5  -2   73.89    2.91
   4  -5  -2   72.51    2.63
   4  -5  -2   70.83    2.70
  -4   5   2   74.16    3.01
   3  -5  -2   84.52    3.07
   3  -5  -2   79.51    3.03
   3  -5  -2   87.49    3.07
   3  -5  -2   88.20    3.22
  -3   5   2   88.66    3.34
  -3   5   2   87.62    3.16
   2  -5  -2   52.63    2.26
   2  -5  -2   54.76    2.14
   2  -5  -2   50.66    1.91
   2  -5  -2   52.09    2.08
   2  -5  -2   49.53    2.01
   2  -5  -2   49.05    2.04
   2  -5  -2   51.53    1.97
  -2   5   2   54.32    2.23
  -2   5   2   54.89    2.20
   1  -5  -2  125.82    4.26
   1  -5  -2  116.68    4.03
   1  -5  -2  108.04    4.58
   1  -5  -2  124.37    4.09
   1  -5  -2  113.38    4.19
  -1   5   2  117.74    4.36
   0  -5  -2   57.33    2.41
   0  -5  -2   54.50    2.10
   0  -5  -2   56.82    2.32
   0  -5  -2   56.00    1.96
   0  -5  -2   52.30    2.27
   0   5   2   53.21    2.44
  -1  -5  -2   63.53    2.67
  -1  -5  -2   59.80    2.40
  -1  -5  -2   59.04    2.49
  -1  -5  -2   64.33    2.58
  -1  -5  -2   56.13    2.67
   1   5   2   60.60    2.83
   1   5   2   60.19    2.78
   1   5   2   65.81    2.37
  -2  -5  -2   36.81    1.91
  -2  -5  -2   36.76    1.75
  -2  -5  -2   36.43    1.93
  -2  -5  -2   36.29    1.97
  -2  -5  -2   34.70    1.70
   2   5   2   35.90    1.68
   2   5   2   35.35    2.05
   2   5   2   37.53    2.18
  -3  -5  -2  110.05    4.53
  -3  -5  -2  113.71    4.24
  -3  -5  -2  118.08    4.97
  -3  -5  -2  115.40    4.58
  -3  -5  -2  112.18    4.27
   3   5   2  109.28    4.67
   3   5   2  110.32    4.76
   3   5   2  116.17    4.26
  -4  -5  -2   21.70    1.43
  -4  -5  -2   26.97    2.05
  -4  -5  -2   19.92    1.69
   4   5   2   21.42    1.81
   4   5   2   17.39    2.30
   9  -6  -2   20.54    1.28
   9  -6  -2   19.50    2.08
   9  -6  -2   17.08    1.80
  -9   6   2   16.81    1.75
  -9   6   2   19.46    2.12
   8  -6  -2   93.08    3.98
   8  -6  -2   92.59    3.39
   8  -6  -2   92.01    3.84
  -8   6   2   91.05    4.01
  -8   6   2   88.28    4.06
   7  -6  -2   13.31    1.30
   7  -6  -2   15.82    1.05
   7  -6  -2   16.47    0.80
   7  -6  -2   18.08    1.49
   7  -6  -2   17.81    1.08
   7  -6  -2   15.68    1.65
   7  -6  -2   16.93    0.72
  -7   6   2   14.55    1.39
   6  -6  -2   89.83    3.60
   6  -6  -2   89.85    3.39
   6  -6  -2   88.31    3.16
   6  -6  -2   85.56    3.03
   6  -6  -2   85.35    3.59
   6  -6  -2   86.66    3.21
  -6   6   2   89.35    3.69
   5  -6  -2   33.55    1.53
   5  -6  -2   31.14    1.42
   5  -6  -2   30.78    1.32
   5  -6  -2   31.32    1.50
   5  -6  -2   29.07    1.67
   5  -6  -2   29.65    1.70
  -5   6   2   34.44    1.46
  -5   6   2   30.83    1.77
   4  -6  -2  106.27    3.74
   4  -6  -2  108.14    3.76
   4  -6  -2  109.21    3.96
   4  -6  -2   99.03    3.93
   4  -6  -2  109.59    3.91
   4  -6  -2   99.63    3.68
  -4   6   2   98.56    4.02
  -4   6   2  104.45    3.80
   3  -6  -2   39.91    1.84
   3  -6  -2   35.10    1.93
   3  -6  -2   37.91    1.56
   3  -6  -2   39.41    1.64
   3  -6  -2   37.46    1.66
   3  -6  -2   37.98    1.65
   3  -6  -2   38.55    1.76
  -3   6   2   38.53    1.78
  -3   6   2   37.91    1.88
   2  -6  -2  137.88    4.89
   2  -6  -2  141.64    4.83
   2  -6  -2  135.13    4.75
   2  -6  -2  141.09    5.17
   2  -6  -2  143.25    5.01
   2  -6  -2  139.69    4.94
   2  -6  -2  139.63    4.89
  -2   6   2  137.40    5.12
   1  -6  -2   50.23    2.31
   1  -6  -2   47.83    2.17
   1  -6  -2   50.59    1.92
   1  -6  -2   45.48    1.90
   1  -6  -2   48.49    2.14
  -1   6   2   47.05    2.31
   0  -6  -2  165.00    5.76
   0  -6  -2  166.73    5.77
   0  -6  -2  161.53    5.77
   0  -6  -2  159.91    5.84
   0  -6  -2  155.43    5.16
   0  -6  -2  160.56    5.51
   0   6   2  146.84    5.92
  -1  -6  -2   21.18    1.28
  -1  -6  -2   17.19    1.54
  -1  -6  -2   22.08    1.61
  -1  -6  -2   17.91    1.45
  -1  -6  -2   19.81    1.23
   1   6   2   21.03    1.64
  -2  -6  -2   63.84    3.11
  -2  -6  -2   70.32    2.85
  -2  -6  -2   64.01    3.15
  -2  -6  -2   70.16    2.81
   2   6   2   70.96    2.79
   2   6   2   62.22    3.37
   2   6   2   64.19    3.29
  -3  -6  -2   17.91    1.34
  -3  -6  -2   20.11    2.10
  -3  -6  -2   15.66    1.59
   3   6   2   20.89    2.54
   3   6   2   20.25    1.71
   3   6   2   16.42    1.84
   8  -7  -2   12.67    1.17
   8  -7  -2   10.86    1.36
  -8   7   2    9.83    1.42
   7  -7  -2   62.09    2.34
   7  -7  -2   59.45    2.18
   7  -7  -2   60.59    2.47
   7  -7  -2   57.30    2.89
   7  -7  -2   58.68    2.69
  -7   7   2   59.79    2.97
   6  -7  -2   62.50    2.88
   6  -7  -2   62.25    2.68
   6  -7  -2   66.47    2.60
   6  -7  -2   62.87    2.38
   6  -7  -2   64.17    2.98
   6  -7  -2   62.77    2.54
  -6   7   2   61.23    2.97
   5  -7  -2   98.53    3.84
   5  -7  -2   89.29    3.80
   5  -7  -2  100.66    3.71
   5  -7  -2   97.61    3.53
   5  -7  -2   95.60    3.64
   5  -7  -2   92.26    3.43
   5  -7  -2   93.43    3.56
  -5   7   2   94.43    3.58
  -5   7   2   89.90    3.89
   4  -7  -2   47.05    2.43
   4  -7  -2   45.28    1.98
   4  -7  -2   48.20    2.03
   4  -7  -2   48.52    2.29
   4  -7  -2   47.07    1.94
   4  -7  -2   50.04    2.34
   4  -7  -2   46.26    2.13
   4  -7  -2   47.70    2.27
   4  -7  -2   41.77    2.30
  -4   7   2   45.94    2.12
  -4   7   2   45.69    2.32
   3  -7  -2   57.71    2.28
   3  -7  -2   60.35    2.45
   3  -7  -2   57.21    2.41
   3  -7  -2   59.55    2.52
   3  -7  -2   60.62    2.57
   3  -7  -2   57.44    2.77
  -3   7   2   57.53    2.60
   2  -7  -2   15.87    1.10
   2  -7  -2   12.86    1.11
   2  -7  -2   15.38    1.09
   2  -7  -2   13.97    0.92
   2  -7  -2   16.23    1.33
   2  -7  -2   13.15    1.39
   2  -7  -2   15.09    0.87
  -2   7   2   12.59    1.29
   1  -7  -2   62.91    2.47
   1  -7  -2   59.37    2.82
   1  -7  -2   62.55    2.74
   1  -7  -2   63.39    2.89
   1  -7  -2   61.24    2.31
   1  -7  -2   62.71    2.22
  -1   7   2   60.06    2.94
   0  -7  -2   21.60    1.79
   0  -7  -2   19.90    1.29
   0  -7  -2   20.76    1.39
   0  -7  -2   22.10    1.63
   0   7   2   17.84    1.64
  -1  -7  -2   66.57    2.77
  -1  -7  -2   64.95    3.12
  -1  -7  -2   58.19    3.04
   1   7   2   63.94    3.33
   8  -8  -2   20.62    2.15
   8  -8  -2   32.51    1.77
   8  -8  -2   29.03    2.38
  -8   8   2   27.26    2.13
   7  -8  -2   40.38    2.58
   7  -8  -2   42.06    2.11
   7  -8  -2   42.76    2.34
   7  -8  -2   49.07    2.48
   7  -8  -2   52.23    2.55
   7  -8  -2   44.64    1.87
  -7   8   2   44.34    2.63
   6  -8  -2   70.71    3.25
   6  -8  -2   73.71    3.10
   6  -8  -2   69.10    2.99
   6  -8  -2   72.09    3.06
   6  -8  -2   64.98    3.07
   6  -8  -2   68.12    2.72
   6  -8  -2   72.47    2.89
  -6   8   2   70.09    3.34
   5  -8  -2   25.46    1.75
   5  -8  -2   26.86    1.50
   5  -8  -2   24.92    1.48
   5  -8  -2   23.50    1.84
   5  -8  -2   22.33    1.97
   5  -8  -2   24.10    1.81
   5  -8  -2   26.50    2.26
   5  -8  -2   24.13    1.56
   5  -8  -2   24.93    1.59
   5  -8  -2   22.19    1.47
  -5   8   2   23.13    1.75
  -5   8   2   25.58    1.58
   4  -8  -2   75.91    3.05
   4  -8  -2   76.65    3.48
   4  -8  -2   78.17    3.65
   4  -8  -2   78.94    3.32
   4  -8  -2   72.12    3.02
   4  -8  -2   74.22    2.91
   4  -8  -2   74.90    3.24
   4  -8  -2   73.09    3.00
   4  -8  -2   74.53    3.03
   4  -8  -2   75.45    3.31
  -4   8   2   74.63    3.21
   3  -8  -2   27.20    1.62
   3  -8  -2   26.80    1.63
   3  -8  -2   26.99    2.34
   3  -8  -2   27.56    1.66
   3  -8  -2   29.90    1.82
   3  -8  -2   28.57    1.47
   3  -8  -2   28.08    2.14
   3  -8  -2   25.93    1.42
  -3   8   2   27.14    1.79
   2  -8  -2   59.92    2.51
   2  -8  -2   62.93    3.13
   2  -8  -2   61.57    2.66
   2  -8  -2   63.49    2.36
   2  -8  -2   57.08    2.70
   2  -8  -2   62.11    2.82
   2  -8  -2   61.94    2.53
  -2   8   2   64.72    3.08
   1  -8  -2   41.41    2.33
   1  -8  -2   39.33    1.97
   1  -8  -2   41.83    2.18
   1  -8  -2   37.00    2.11
  -1   8   2   38.77    2.50
   0  -8  -2   54.84    2.56
   0  -8  -2   54.43    3.02
   0   8   2   51.23    3.05
   6  -9  -2   32.35    1.95
   6  -9  -2   30.26    2.26
   5  -9  -2   42.83    2.20
   5  -9  -2   45.42    2.72
   5  -9  -2   41.79    2.28
   5  -9  -2   43.48    2.14
   5  -9  -2   46.05    3.01
   5  -9  -2   41.42    2.28
   5  -9  -2   40.12    2.40
  -5   9   2   46.87    2.38
   4  -9  -2   26.21    1.84
   4  -9  -2   29.53    2.25
   4  -9  -2   25.29    1.65
   4  -9  -2   24.40    1.77
   4  -9  -2   25.66    2.26
   4  -9  -2   26.24    1.66
  -4   9   2   28.55    1.89
   3  -9  -2   82.60    3.53
   3  -9  -2   83.47    3.62
   3  -9  -2   82.10    3.31
   1  -9   3   11.66    1.46
   1  -9   3   10.76    1.26
   1  -9   3   13.13    1.56
  -2   9  -3   42.81    2.51
   2  -9   3   44.72    2.29
   2  -9   3   40.60    2.38
   2  -9   3   45.75    2.13
   2  -9   3   46.66    1.88
   2  -9   3   45.23    2.08
   2  -9   3   45.00    2.13
  -3   9  -3   20.49    1.74
   3  -9   3   22.78    1.53
   3  -9   3   21.52    1.64
   3  -9   3   22.13    1.29
   3  -9   3   21.10    1.55
   3  -9   3   21.76    1.41
   3  -9   3   21.20    2.00
   3  -9   3   19.92    1.63
   3  -9   3   20.78    1.58
  -4   9  -3   75.25    3.42
  -4   9  -3   70.83    3.16
   4  -9   3   76.55    3.22
   4  -9   3   83.46    3.29
   4  -9   3   71.23    3.20
   4  -9   3   70.65    3.47
   4  -9   3   77.02    3.00
   4  -9   3   80.53    3.13
   4  -9   3   75.95    3.31
   4  -9   3   76.95    3.12
   4  -9   3   77.16    3.05
   4  -9   3   77.77    3.74
  -5   9  -3   23.09    1.67
   5  -9   3   23.90    2.04
   5  -9   3   20.40    2.14
   5  -9   3   21.28    1.53
   5  -9   3   23.58    1.35
   5  -9   3   25.75    1.67
   5  -9   3   24.91    1.51
   5  -9   3   22.87    1.86
   5  -9   3   23.43    1.48
  -6   9  -3   61.88    2.91
   6  -9   3   60.19    2.44
   6  -9   3   58.89    2.34
   6  -9   3   58.90    2.78
   6  -9   3   60.24    2.71
   6  -9   3   56.20    2.71
   6  -9   3   54.62    3.11
  -7   9  -3   30.65    2.14
   7  -9   3   28.43    1.95
   7  -9   3   28.20    2.35
   7  -9   3   29.90    2.02
   1   8  -3   60.14    3.81
  -1  -8   3   62.65    3.05
  -1  -8   3   64.62    2.74
  -1  -8   3   63.55    3.00
   0   8  -3   22.94    1.78
   0  -8   3   22.56    1.68
   0  -8   3   20.43    1.54
   0  -8   3   24.16    1.41
  -1   8  -3  108.12    4.51
   1  -8   3  107.86    4.32
   1  -8   3  111.10    4.29
   1  -8   3  117.65    4.06
   1  -8   3  106.58    4.19
   1  -8   3  110.98    4.69
   1  -8   3  109.88    3.92
   1  -8   3  109.00    3.80
  -2   8  -3   67.67    3.13
   2  -8   3   71.28    2.91
   2  -8   3   67.79    2.88
   2  -8   3   69.42    3.36
   2  -8   3   70.42    2.62
   2  -8   3   74.57    2.78
   2  -8   3   70.77    2.98
   2  -8   3   68.02    2.71
  -3   8  -3   98.41    4.01
  -3   8  -3  101.78    3.70
   3  -8   3   95.90    4.11
   3  -8   3   92.04    3.87
   3  -8   3   94.95    3.56
   3  -8   3   95.01    3.72
   3  -8   3  100.11    3.78
   3  -8   3   99.11    3.68
   3  -8   3   94.98    3.59
   3  -8   3  102.79    3.71
  -4   8  -3   18.52    1.38
  -4   8  -3   19.52    1.32
   4  -8   3   16.52    1.16
   4  -8   3   18.74    1.53
   4  -8   3   18.72    1.28
   4  -8   3   19.05    1.19
   4  -8   3   21.70    1.69
   4  -8   3   14.46    1.30
   4  -8   3   21.18    1.50
   4  -8   3   21.54    1.36
  -5   8  -3   72.17    3.10
   5  -8   3   72.80    3.21
   5  -8   3   71.40    2.91
   5  -8   3   71.81    2.65
   5  -8   3   71.06    2.98
   5  -8   3   70.35    3.18
   5  -8   3   71.25    2.91
   5  -8   3   73.78    3.18
  -6   8  -3   27.94    1.84
   6  -8   3   31.79    1.35
   6  -8   3   36.13    2.29
   6  -8   3   32.53    1.41
   6  -8   3   28.49    1.69
   6  -8   3   28.18    1.97
   6  -8   3   32.04    1.87
   6  -8   3   32.25    2.11
  -7   8  -3   94.23    4.11
   7  -8   3   98.02    3.87
   7  -8   3   93.31    3.85
   7  -8   3   92.88    3.23
   7  -8   3   95.09    3.90
   7  -8   3   95.69    3.22
  -8   8  -3   17.58    1.73
   8  -8   3   18.77    1.72
   8  -8   3   21.87    1.78
   8  -8   3   19.87    1.78
   8  -8   3   19.54    1.66
   3   7  -3   27.70    2.07
  -3  -7   3   24.58    2.15
  -3  -7   3   30.25    2.17
  -3  -7   3   27.86    1.90
   2   7  -3   67.66    3.36
  -2  -7   3   77.51    3.25
  -2  -7   3   70.16    2.98
  -2  -7   3   72.23    3.27
   1   7  -3   26.95    1.78
  -1  -7   3   29.98    2.19
  -1  -7   3   27.13    1.70
  -1  -7   3   28.17    1.79
  -1  -7   3   25.55    1.62
  -1  -7   3   23.72    1.56
   0   7  -3   41.67    2.26
   0  -7   3   46.48    2.13
   0  -7   3   43.01    2.15
   0  -7   3   44.72    1.69
   0  -7   3   44.64    1.88
   0  -7   3   46.99    2.48
   0  -7   3   44.01    2.07
   0  -7   3   44.29    1.64
  -1   7  -3   15.65    1.27
   1  -7   3   14.35    1.06
   1  -7   3   15.60    1.42
   1  -7   3   14.46    0.78
   1  -7   3   15.05    1.07
   1  -7   3   15.69    0.95
   1  -7   3   15.87    1.16
  -2   7  -3  118.11    4.05
  -2   7  -3  110.33    4.36
   2  -7   3  110.98    4.14
   2  -7   3  110.14    3.99
   2  -7   3  116.17    4.48
   2  -7   3  117.29    4.06
   2  -7   3  116.44    4.15
   2  -7   3  111.73    3.97
  -3   7  -3   89.90    3.39
  -3   7  -3   90.43    3.60
   3  -7   3   91.04    3.37
   3  -7   3   91.33    3.55
   3  -7   3   91.15    3.68
   3  -7   3   90.06    3.30
   3  -7   3   88.72    3.28
   3  -7   3   91.84    3.42
   3  -7   3   88.51    3.37
  -4   7  -3   53.16    2.33
  -4   7  -3   52.22    2.37
   4  -7   3   53.58    2.20
   4  -7   3   56.46    2.12
   4  -7   3   50.85    2.24
   4  -7   3   51.01    2.17
   4  -7   3   56.15    2.41
   4  -7   3   54.86    2.50
  -5   7  -3   26.94    1.62
   5  -7   3   28.97    1.68
   5  -7   3   29.19    1.47
   5  -7   3   28.82    1.26
   5  -7   3   29.32    1.67
   5  -7   3   28.10    1.18
  -6   7  -3   94.24    3.93
   6  -7   3  101.10    3.29
   6  -7   3   97.79    3.27
   6  -7   3   97.35    3.78
   6  -7   3   94.72    3.72
   6  -7   3   92.03    3.69
   6  -7   3   97.89    3.85
  -7   7  -3   48.35    2.55
   7  -7   3   48.67    2.40
   7  -7   3   52.03    2.35
   7  -7   3   50.21    2.58
   7  -7   3   50.32    2.37
   7  -7   3   52.38    2.73
   7  -7   3   50.19    2.44
  -8   7  -3   49.56    2.70
   8  -7   3   48.19    2.33
   8  -7   3   49.63    2.48
   8  -7   3   47.72    2.57
   8  -7   3   48.24    2.42
  -9   7  -3   26.75    2.10
   9  -7   3   26.67    1.75
   9  -7   3   22.89    2.19
   9  -7   3   25.61    2.23
   4   6  -3   15.34    2.01
   4   6  -3   15.60    1.58
   4   6  -3   14.89    1.85
  -4  -6   3   16.10    1.82
  -4  -6   3   11.54    1.50
  -4  -6   3   15.00    1.75
   3   6  -3   72.60    3.33
   3   6  -3   73.09    3.21
   3   6  -3   70.11    3.23
   3   6  -3   69.29    3.27
  -3  -6   3   69.12    3.13
  -3  -6   3   67.23    3.09
  -3  -6   3   70.00    2.89
   2   6  -3   18.74    1.40
   2   6  -3   16.02    1.34
   2   6  -3   17.99    1.43
   2   6  -3   15.95    1.36
  -2  -6   3   17.90    1.30
  -2  -6   3   16.54    1.27
  -2  -6   3   15.76    1.30
   1   6  -3   51.84    2.52
   1   6  -3   56.85    2.46
   1   6  -3   57.89    2.45
  -1  -6   3   56.37    2.43
  -1  -6   3   52.90    2.36
  -1  -6   3   54.90    2.65
  -1  -6   3   56.41    2.19
  -1  -6   3   57.01    2.40
   0   6  -3   66.39    2.81
   0   6  -3   64.83    2.65
   0  -6   3   63.86    2.59
   0  -6   3   68.31    2.64
   0  -6   3   63.86    2.29
   0  -6   3   66.36    2.87
   0  -6   3   69.18    2.27
   0  -6   3   63.95    2.42
   0  -6   3   62.48    2.65
  -1   6  -3   81.23    3.22
   1  -6   3   82.34    3.02
   1  -6   3   79.52    3.01
   1  -6   3   84.27    3.31
   1  -6   3   78.35    2.81
   1  -6   3   76.72    2.86
  -2   6  -3   69.04    2.87
  -2   6  -3   73.49    2.69
   2  -6   3   75.72    2.71
   2  -6   3   68.35    2.71
   2  -6   3   75.11    2.66
   2  -6   3   71.71    2.60
   2  -6   3   70.03    2.95
   2  -6   3   72.02    2.61
  -3   6  -3  129.84    4.49
  -3   6  -3  120.57    4.59
   3  -6   3  126.64    4.66
   3  -6   3  125.94    4.37
   3  -6   3  130.44    4.36
   3  -6   3  131.35    4.58
   3  -6   3  118.67    4.38
   3  -6   3  127.24    4.46
  -4   6  -3   21.19    1.21
   4  -6   3   19.17    0.88
   4  -6   3   19.99    1.06
   4  -6   3   19.62    1.81
   4  -6   3   20.55    0.94
   4  -6   3   20.75    1.09
   4  -6   3   20.65    1.24
  -5   6  -3  107.40    4.08
   5  -6   3  105.93    3.55
   5  -6   3  108.10    3.90
   5  -6   3  106.81    3.99
   5  -6   3  104.25    3.53
   5  -6   3  102.58    3.87
  -6   6  -3   20.94    1.45
  -6   6  -3   23.31    1.40
   6  -6   3   22.69    1.33
   6  -6   3   23.24    1.46
   6  -6   3   22.06    1.34
   6  -6   3   22.72    1.37
  -7   6  -3   83.91    3.71
  -7   6  -3   88.79    3.67
  -7   6  -3   91.66    3.52
   7  -6   3   84.61    3.54
   7  -6   3   87.19    3.54
   7  -6   3   87.09    3.47
   7  -6   3   89.80    3.40
   7  -6   3   88.66    3.64
  -8   6  -3   45.77    2.23
  -8   6  -3   47.14    2.63
  -8   6  -3   40.79    2.43
   8  -6   3   42.26    2.24
   8  -6   3   44.16    2.38
   8  -6   3   43.92    2.20
   8  -6   3   46.64    2.10
  -9   6  -3   31.59    2.22
  -9   6  -3   35.59    2.11
   9  -6   3   34.45    1.91
   9  -6   3   32.61    2.13
   9  -6   3   34.76    2.42
   5   5  -3   19.37    1.90
   5   5  -3   15.27    2.03
   5   5  -3   14.17    1.51
  -5  -5   3   15.83    1.68
  -5  -5   3   13.50    1.77
  -5  -5   3   14.58    1.80
   4   5  -3   54.45    2.62
   4   5  -3   51.71    2.56
   4   5  -3   53.95    2.81
   4   5  -3   51.09    2.70
  -4  -5   3   49.84    2.56
  -4  -5   3   56.20    2.89
  -4  -5   3   51.97    2.35
  -4  -5   3   52.71    2.52
   3   5  -3   32.73    1.86
   3   5  -3   30.74    1.79
   3   5  -3   31.84    1.80
   3   5  -3   31.98    1.81
  -3  -5   3   33.47    1.77
  -3  -5   3   32.38    1.56
  -3  -5   3   34.41    1.75
  -3  -5   3   31.52    1.78
   2   5  -3  115.48    4.12
   2   5  -3  109.84    4.09
   2   5  -3  100.38    4.13
   2   5  -3   98.54    4.01
  -2  -5   3  108.53    4.06
  -2  -5   3  111.74    3.88
  -2  -5   3  111.37    4.08
  -2  -5   3  115.45    4.06
   1   5  -3   52.94    2.15
   1   5  -3   53.33    2.23
   1   5  -3   54.86    2.23
   1   5  -3   53.73    2.32
  -1  -5   3   53.20    2.19
  -1  -5   3   55.60    2.20
  -1  -5   3   50.84    2.20
  -1  -5   3   53.51    2.01
  -1  -5   3   51.39    1.85
   0   5  -3  235.41    7.66
   0   5  -3  228.24    7.64
   0   5  -3  223.42    7.77
   0  -5   3  225.55    7.61
   0  -5   3  218.75    7.60
   0  -5   3  217.51    7.38
   0  -5   3  243.13    7.46
   0  -5   3  219.10    7.86
  -1   5  -3   39.81    1.77
  -1   5  -3   38.93    1.63
  -1   5  -3   41.66    1.51
   1  -5   3   40.49    1.51
   1  -5   3   38.36    1.63
   1  -5   3   38.17    1.50
   1  -5   3   39.52    1.82
   1  -5   3   40.53    1.62
  -2   5  -3  160.79    5.62
  -2   5  -3  167.62    5.47
   2  -5   3  160.13    5.50
   2  -5   3  155.99    5.36
   2  -5   3  166.98    5.70
   2  -5   3  162.30    5.42
   2  -5   3  157.82    5.41
  -3   5  -3   10.06    0.73
  -3   5  -3   10.32    0.75
   3  -5   3    9.97    0.76
   3  -5   3    9.25    0.80
   3  -5   3    9.43    0.64
   3  -5   3    9.89    0.62
   3  -5   3    9.75    0.56
  -4   5  -3  252.01    8.65
  -4   5  -3  263.07    8.66
   4  -5   3  272.71    8.64
   4  -5   3  260.78    8.52
   4  -5   3  245.14    8.48
   4  -5   3  243.42    8.81
   4  -5   3  258.10    8.25
   4  -5   3  246.18    8.22
  -5   5  -3  114.58    4.28
  -5   5  -3  114.64    4.35
  -5   5  -3  121.05    4.27
   5  -5   3  119.26    4.23
   5  -5   3  120.51    4.22
   5  -5   3  113.03    4.17
   5  -5   3  114.41    4.26
  -6   5  -3   76.19    3.32
  -6   5  -3   82.15    3.23
  -6   5  -3   85.49    3.32
   6  -5   3   84.05    3.14
   6  -5   3   81.42    3.14
   6  -5   3   77.40    3.18
   6  -5   3   78.93    3.23
   6  -5   3   87.44    3.27
  -7   5  -3   19.04    1.42
  -7   5  -3   19.77    1.57
  -7   5  -3   19.03    1.34
  -7   5  -3   22.83    1.56
   7  -5   3   17.19    1.36
   7  -5   3   19.01    1.31
   7  -5   3   16.38    1.20
   7  -5   3   18.67    1.42
  -8   5  -3   85.19    3.71
  -8   5  -3   83.52    3.65
  -8   5  -3   80.53    3.30
  -8   5  -3   74.13    3.53
   8  -5   3   76.30    3.57
   8  -5   3   80.80    3.49
   8  -5   3   78.95    3.27
   8  -5   3   72.87    3.19
   8  -5   3   80.09    3.08
  -9   5  -3   16.20    2.19
  -9   5  -3   20.09    2.34
  -9   5  -3   22.51    1.88
   9  -5   3   20.52    1.44
   9  -5   3   18.64    1.73
   9  -5   3   20.90    1.53
   9  -5   3   17.09    2.02
   6   4  -3   22.06    2.27
   6   4  -3   21.64    1.67
   6   4  -3   24.16    1.99
  -6  -4   3   20.31    1.88
  -6  -4   3   28.46    2.89
  -6  -4   3   23.54    2.09
   5   4  -3   68.96    3.17
   5   4  -3   66.50    2.97
   5   4  -3   65.26    2.93
   5   4  -3   66.82    3.13
  -5  -4   3   64.91    2.84
  -5  -4   3   62.48    3.02
  -5  -4   3   65.37    2.63
  -5  -4   3   65.15    2.90
  -5  -4   3   68.64    2.96
   4   4  -3   39.55    2.07
   4   4  -3   35.50    1.92
   4   4  -3   37.05    1.91
   4   4  -3   37.55    1.93
  -4  -4   3   38.44    1.92
  -4  -4   3   35.82    1.76
  -4  -4   3   38.30    1.49
  -4  -4   3   37.08    1.87
  -4  -4   3   33.83    1.93
   3   4  -3  113.79    4.07
   3   4  -3  101.87    3.94
   3   4  -3  107.19    3.98
   3   4  -3  103.65    3.98
  -3  -4   3  106.43    3.90
  -3  -4   3  108.62    3.51
  -3  -4   3  102.21    3.88
  -3  -4   3  106.37    3.79
  -3  -4   3   98.57    3.94
   2   4  -3   57.71    2.35
   2   4  -3   57.79    2.35
   2   4  -3   56.84    2.29
   2   4  -3   56.13    2.39
  -2  -4   3   62.43    2.34
  -2  -4   3   55.53    2.32
  -2  -4   3   59.92    2.19
  -2  -4   3   57.33    2.32
   1   4  -3  146.43    5.03
   1   4  -3  148.47    4.83
   1   4  -3  144.92    5.19
   1   4  -3  148.98    5.13
   1   4  -3  150.23    5.13
  -1  -4   3  148.32    5.11
  -1  -4   3  148.53    4.87
  -1  -4   3  147.45    5.09
  -1  -4   3  147.62    4.93
   0   4  -3   87.53    3.08
   0   4  -3   86.99    3.16
   0   4  -3   84.97    3.06
   0   4  -3   82.25    2.90
   0  -4   3   84.98    3.05
   0  -4   3   86.95    2.89
   0  -4   3   85.76    3.20
   0  -4   3   84.61    3.04
   0  -4   3   85.64    2.90
  -1   4  -3  190.49    6.31
  -1   4  -3  188.98    6.35
  -1   4  -3  195.27    6.49
  -1   4  -3  204.04    6.28
   1  -4   3  186.99    6.29
   1  -4   3  195.78    6.25
   1  -4   3  183.89    6.37
   1  -4   3  188.87    6.34
   1  -4   3  190.40    6.54
  -2   4  -3   12.79    0.82
  -2   4  -3   13.16    0.62
  -2   4  -3   12.95    0.79
  -2   4  -3   14.17    0.73
   2  -4   3   13.15    0.61
   2  -4   3   12.33    0.66
   2  -4   3   13.44    0.83
   2  -4   3   13.58    0.62
  -3   4  -3  152.90    5.16
  -3   4  -3  147.77    5.21
  -3   4  -3  154.10    5.06
   3  -4   3  153.13    5.07
   3  -4   3  144.15    5.13
   3  -4   3  148.21    4.88
   3  -4   3  147.73    5.03
   3  -4   3  148.46    5.18
  -4   4  -3  135.55    4.69
  -4   4  -3  128.15    4.66
  -4   4  -3  134.96    4.60
   4  -4   3  136.96    4.64
   4  -4   3  130.26    4.56
   4  -4   3  125.16    4.54
   4  -4   3  130.68    4.63
  -5   4  -3  154.77    5.92
  -5   4  -3  179.27    5.92
  -5   4  -3  171.59    5.94
  -5   4  -3  163.71    5.89
   5  -4   3  170.58    5.87
   5  -4   3  173.43    5.92
   5  -4   3  177.55    5.83
   5  -4   3  161.45    5.83
   5  -4   3  163.26    5.77
  -6   4  -3   38.25    1.88
  -6   4  -3   39.86    1.99
  -6   4  -3   42.07    1.98
  -6   4  -3   39.52    1.97
   6  -4   3   43.53    1.92
   6  -4   3   40.90    1.90
   6  -4   3   37.52    1.75
   6  -4   3   40.77    1.78
   6  -4   3   37.96    1.88
  -7   4  -3   99.66    3.95
  -7   4  -3   94.33    3.79
  -7   4  -3   94.15    3.95
  -7   4  -3  100.46    3.99
   7  -4   3  103.37    3.90
   7  -4   3   93.95    3.74
   7  -4   3   96.34    3.88
   7  -4   3   98.43    3.70
  -8   4  -3   36.03    2.04
  -8   4  -3   39.46    2.37
  -8   4  -3   39.11    2.32
  -8   4  -3   33.75    2.10
   8  -4   3   34.86    1.85
   8  -4   3   34.31    1.86
   8  -4   3   32.86    2.18
   8  -4   3   34.66    2.17
   8  -4   3   38.33    1.78
  -9   4  -3   61.28    3.43
  -9   4  -3   59.09    3.38
   9  -4   3   62.91    2.91
   9  -4   3   63.53    2.63
   9  -4   3   56.85    3.23
   9  -4   3   59.78    2.73
   7   3  -3   28.47    2.13
   7   3  -3   26.58    2.52
   7   3  -3   25.93    1.81
  -7  -3   3   30.88    2.08
  -7  -3   3   28.60    2.43
  -7  -3   3   29.98    1.64
   6   3  -3   55.49    2.69
   6   3  -3   46.40    2.73
   6   3  -3   56.09    2.56
  -6  -3   3   59.83    2.34
  -6  -3   3   58.86    2.73
  -6  -3   3   58.80    2.86
  -6  -3   3   55.34    2.58
  -6  -3   3   55.73    2.64
   5   3  -3   27.48    1.70
   5   3  -3   24.67    1.60
   5   3  -3   25.57    1.49
   5   3  -3   22.21    1.63
  -5  -3   3   28.63    1.55
  -5  -3   3   27.19    1.52
  -5  -3   3   26.77    1.54
  -5  -3   3   25.39    1.64
  -5  -3   3   28.78    1.30
   4   3  -3   51.88    2.36
   4   3  -3   60.08    2.48
   4   3  -3   54.20    1.92
   4   3  -3   56.82    2.37
   4   3  -3   53.57    2.33
  -4  -3   3   54.49    2.28
  -4  -3   3   57.23    2.06
  -4  -3   3   51.82    2.40
  -4  -3   3   58.49    2.34
  -4  -3   3   56.76    2.31
   3   3  -3   33.63    1.61
   3   3  -3   32.81    1.51
   3   3  -3   31.22    1.20
   3   3  -3   34.32    1.54
   3   3  -3   33.54    1.54
  -3  -3   3   33.62    1.43
  -3  -3   3   33.04    1.48
  -3  -3   3   34.61    1.52
  -3  -3   3   32.20    1.57
  -3  -3   3   33.76    1.25
  -3  -3   3   31.40    1.23
   2   3  -3   85.21    3.10
   2   3  -3   82.65    3.00
   2   3  -3   86.93    2.82
   2   3  -3   86.89    3.11
  -2  -3   3   84.33    2.94
  -2  -3   3   80.59    2.85
  -2  -3   3   81.60    3.03
  -2  -3   3   80.76    3.08
  -2  -3   3   88.48    3.07
   1   3  -3   87.39    3.03
   1   3  -3   88.59    3.15
   1   3  -3   90.70    3.19
   1   3  -3   83.18    2.95
   1   3  -3   89.27    3.15
  -1  -3   3   90.16    3.15
  -1  -3   3   84.60    2.99
  -1  -3   3   90.18    3.13
  -1  -3   3   91.67    3.24
  -1  -3   3   91.27    2.98
   0   3  -3  343.79   11.24
   0   3  -3  361.73   11.20
   0   3  -3  324.11   11.07
   0   3  -3  342.93   11.17
   0  -3   3  334.89   11.08
   0  -3   3  349.67   10.99
   0  -3   3  354.23   11.16
   0  -3   3  342.78   11.28
   0  -3   3  342.51   11.17
  -1   3  -3  136.82    4.64
  -1   3  -3  134.26    4.66
  -1   3  -3  142.44    4.83
  -1   3  -3  144.50    4.77
  -1   3  -3  152.21    4.65
   1  -3   3  137.95    4.55
   1  -3   3  136.54    4.65
   1  -3   3  141.70    4.64
   1  -3   3  141.06    4.81
   1  -3   3  139.46    4.69
  -2   3  -3   72.46    2.47
  -2   3  -3   66.87    2.55
  -2   3  -3   69.06    2.29
  -2   3  -3   70.57    2.38
  -2   3  -3   68.90    2.43
   2  -3   3   68.23    2.36
   2  -3   3   66.49    2.47
   2  -3   3   70.35    2.54
   2  -3   3   64.53    2.40
   2  -3   3   70.08    2.30
  -3   3  -3   78.12    2.72
  -3   3  -3   71.17    2.71
  -3   3  -3   73.10    2.61
   3  -3   3   70.17    2.57
   3  -3   3   71.66    2.64
   3  -3   3   71.51    2.67
  -4   3  -3  110.53    4.00
  -4   3  -3  116.21    4.06
  -4   3  -3  105.52    4.02
  -4   3  -3  110.71    3.98
   4  -3   3  116.04    3.98
   4  -3   3  116.38    4.06
   4  -3   3  110.63    3.97
   4  -3   3  109.46    3.89
   4  -3   3  114.18    3.96
  -5   3  -3   53.93    2.35
  -5   3  -3   58.91    2.34
  -5   3  -3   54.04    2.34
  -5   3  -3   56.16    2.34
   5  -3   3   56.06    2.18
   5  -3   3   57.79    2.30
   5  -3   3   57.61    2.33
   5  -3   3   56.75    2.23
   5  -3   3   53.84    2.29
  -6   3  -3   76.70    3.22
  -6   3  -3   83.77    3.27
  -6   3  -3   79.51    3.29
  -6   3  -3   86.56    3.30
   6  -3   3   78.60    3.15
   6  -3   3   79.33    3.03
   6  -3   3   78.64    3.03
   6  -3   3   82.77    3.21
   6  -3   3   80.73    3.24
  -7   3  -3   15.55    1.35
  -7   3  -3   16.78    1.43
  -7   3  -3   17.16    1.32
  -7   3  -3   17.47    1.43
   7  -3   3   18.49    1.13
   7  -3   3   17.95    1.21
   7  -3   3   17.23    1.23
   7  -3   3   16.54    1.39
   7  -3   3   18.35    1.41
  -8   3  -3   43.60    2.51
  -8   3  -3   39.92    2.28
  -8   3  -3   41.03    2.37
   8  -3   3   42.22    2.09
   8  -3   3   41.11    2.04
   8  -3   3   42.62    2.43
   8  -3   3   40.92    2.28
   8  -3   3   41.25    1.97
  -9   3  -3   17.62    2.08
  -9   3  -3   15.64    1.62
  -9   3  -3   18.83    2.29
   9  -3   3   16.99    1.58
   9  -3   3   15.07    1.42
   9  -3   3   16.12    1.78
   9  -3   3   18.93    2.25
   7   2  -3   57.14    2.30
   7   2  -3   65.44    2.93
   7   2  -3   58.11    3.13
   7   2  -3   62.71    2.71
   7   2  -3   60.50    2.47
  -7  -2   3   64.43    2.65
  -7  -2   3   64.14    3.07
  -7  -2   3   64.61    3.23
  -7  -2   3   65.49    2.96
   6   2  -3   36.29    1.61
   6   2  -3   34.04    1.76
   6   2  -3   36.04    1.92
   6   2  -3   36.09    2.04
   6   2  -3   36.31    1.48
   6   2  -3   36.76    2.07
  -6  -2   3   36.29    1.92
  -6  -2   3   36.09    1.87
  -6  -2   3   37.01    1.69
  -6  -2   3   37.00    2.08
  -6  -2   3   37.53    1.82
   5   2  -3   94.67    3.70
   5   2  -3   93.24    3.53
   5   2  -3   93.68    3.59
   5   2  -3   93.76    3.36
   5   2  -3   96.37    3.70
  -5  -2   3  100.69    3.61
  -5  -2   3   86.36    3.70
  -5  -2   3   97.90    3.58
  -5  -2   3   94.08    3.52
  -5  -2   3   95.60    3.42
   4   2  -3   67.97    2.68
   4   2  -3   65.62    2.59
   4   2  -3   66.04    2.64
   4   2  -3   69.12    2.44
   4   2  -3   66.12    2.55
  -4  -2   3   62.19    2.67
  -4  -2   3   64.80    2.58
  -4  -2   3   66.21    2.50
  -4  -2   3   66.81    2.56
  -4  -2   3   68.20    2.43
   3   2  -3  193.87    6.70
   3   2  -3  187.89    6.72
   3   2  -3  207.56    6.80
   3   2  -3  199.48    6.69
   3   2  -3  215.78    6.63
  -3  -2   3  195.36    6.78
  -3  -2   3  199.27    6.65
  -3  -2   3  197.01    6.70
  -3  -2   3  191.39    6.64
  -3  -2   3  193.43    6.56
  -3  -2   3  210.60    6.53
   2   2  -3   91.57    3.26
   2   2  -3   90.91    3.18
   2   2  -3   94.43    3.16
   2   2  -3   95.10    3.25
  -2  -2   3   90.85    3.23
  -2  -2   3   89.49    3.15
  -2  -2   3   89.38    3.14
  -2  -2   3   97.62    3.05
   1   2  -3  309.47   10.47
   1   2  -3  311.67   10.34
   1   2  -3  316.45   10.47
   1   2  -3  336.46   10.48
   1   2  -3  330.17   10.39
  -1  -2   3  323.33   10.45
  -1  -2   3  326.14   10.48
  -1  -2   3  317.37   10.51
  -1  -2   3  336.68   10.33
  -1  -2   3  313.44   10.40
   0   2  -3   12.85    0.47
   0   2  -3   11.74    0.56
   0   2  -3   12.18    0.60
   0   2  -3   10.81    0.52
   0   2  -3   12.85    0.64
   0  -2   3   11.28    0.54
   0  -2   3   11.58    0.55
   0  -2   3   11.47    0.53
   0  -2   3   12.30    0.63
  -1   2  -3  168.79    5.48
  -1   2  -3  173.15    5.57
  -1   2  -3  184.53    5.57
  -1   2  -3  171.64    5.50
  -1   2  -3  159.77    5.67
   1  -2   3  171.80    5.50
   1  -2   3  172.60    5.48
   1  -2   3  159.29    5.55
   1  -2   3  166.23    5.66
  -2   2  -3  140.21    4.51
  -2   2  -3  132.56    4.43
  -2   2  -3  142.63    4.46
  -2   2  -3  126.07    4.55
  -2   2  -3  132.29    4.26
   2  -2   3  133.93    4.43
   2  -2   3  132.11    4.26
   2  -2   3  125.94    4.46
   2  -2   3  132.06    4.42
   2  -2   3  132.59    4.52
  -3   2  -3  298.55    9.36
  -3   2  -3  283.35    9.30
  -3   2  -3  275.75    9.28
  -3   2  -3  282.36    9.23
  -3   2  -3  271.50    9.37
   3  -2   3  286.34    9.29
   3  -2   3  271.97    9.22
   3  -2   3  282.84    9.31
   3  -2   3  284.45    9.29
   3  -2   3  290.41    9.42
  -4   2  -3   31.83    1.41
  -4   2  -3   33.50    1.44
  -4   2  -3   32.69    1.45
  -4   2  -3   28.77    1.47
   4  -2   3   33.96    1.48
   4  -2   3   29.61    1.28
   4  -2   3   30.50    1.36
   4  -2   3   30.38    1.39
   4  -2   3   28.51    1.38
  -5   2  -3  143.72    5.02
  -5   2  -3  134.74    5.02
  -5   2  -3  137.79    5.09
  -5   2  -3  137.73    4.98
  -5   2  -3  138.26    4.55
   5  -2   3  145.02    5.04
   5  -2   3  138.90    5.00
   5  -2   3  139.39    4.99
   5  -2   3  144.20    4.87
   5  -2   3  137.86    4.81
  -6   2  -3   77.57    3.10
  -6   2  -3   73.36    2.54
  -6   2  -3   74.95    3.16
  -6   2  -3   73.64    3.05
  -6   2  -3   71.29    3.06
   6  -2   3   78.22    3.04
   6  -2   3   68.88    2.94
   6  -2   3   75.62    3.10
   6  -2   3   74.82    2.80
  -7   2  -3  110.28    4.44
  -7   2  -3  106.80    4.48
  -7   2  -3  110.21    4.46
  -7   2  -3  114.51    4.49
  -7   2  -3  110.84    3.82
   7  -2   3  117.93    4.45
   7  -2   3  110.51    4.11
   7  -2   3  114.85    4.15
   7  -2   3  114.02    4.52
   7  -2   3  119.04    4.32
  -8   2  -3   33.93    1.47
  -8   2  -3   32.78    2.07
  -8   2  -3   38.23    2.37
  -8   2  -3   37.44    2.39
   8  -2   3   34.78    2.36
   8  -2   3   35.23    2.10
   8  -2   3   39.76    1.88
   8  -2   3   36.65    1.90
   8  -2   3   34.58    1.95
   8   1  -3   49.71    2.17
   8   1  -3   51.07    2.60
   8   1  -3   47.95    3.03
   8   1  -3   51.99    2.33
  -8  -1   3   47.94    2.50
  -8  -1   3   59.37    3.07
  -8  -1   3   48.47    2.99
  -8  -1   3   47.94    2.37
   7   1  -3   13.69    1.73
   7   1  -3   13.78    1.52
   7   1  -3   13.88    1.00
   7   1  -3   13.44    1.60
   7   1  -3   14.61    1.07
   7   1  -3   13.44    1.32
  -7  -1   3   13.67    1.12
  -7  -1   3   15.58    1.66
  -7  -1   3   17.80    1.32
  -7  -1   3   15.54    1.49
  -7  -1   3   15.97    1.20
   6   1  -3   56.05    2.38
   6   1  -3   54.89    2.22
   6   1  -3   55.87    2.24
   6   1  -3   50.93    2.51
   6   1  -3   56.72    2.50
  -6  -1   3   54.05    2.23
  -6  -1   3   54.00    2.32
  -6  -1   3   54.87    2.43
  -6  -1   3   53.21    2.57
  -6  -1   3   56.81    2.29
   5   1  -3   50.83    2.05
   5   1  -3   48.28    2.23
   5   1  -3   51.44    2.16
   5   1  -3   49.31    2.06
   5   1  -3   55.20    2.28
  -5  -1   3   54.06    2.21
  -5  -1   3   54.28    2.10
  -5  -1   3   52.92    2.32
  -5  -1   3   53.72    2.06
  -5  -1   3   52.85    2.15
   4   1  -3  258.14    8.97
   4   1  -3  264.81    9.03
   4   1  -3  271.39    8.91
   4   1  -3  287.15    9.08
  -4  -1   3  269.90    8.89
  -4  -1   3  261.51    9.09
  -4  -1   3  269.52    8.95
  -4  -1   3  270.35    8.85
  -4  -1   3  281.84    9.00
  -4  -1   3  264.97    8.90
   3   1  -3    5.73    0.51
   3   1  -3    7.74    0.48
   3   1  -3    6.86    0.52
   3   1  -3    7.04    0.51
   3   1  -3    7.87    0.58
  -3  -1   3    7.36    0.46
  -3  -1   3    6.14    0.57
  -3  -1   3    6.62    0.51
  -3  -1   3    6.30    0.49
  -3  -1   3    6.84    0.43
  -3  -1   3    6.95    0.50
   2   1  -3  352.74   10.56
   2   1  -3  332.40   10.64
   2   1  -3  312.18   10.56
   2   1  -3  323.36   10.62
   2   1  -3  330.82   10.61
  -2  -1   3  316.73   10.56
  -2  -1   3  304.51   10.63
  -2  -1   3  331.03   10.58
  -2  -1   3  325.10   10.60
  -2  -1   3  320.27   10.60
  -2  -1   3  342.62   10.52
   1   1  -3   97.14    3.27
   1   1  -3   96.45    3.29
   1   1  -3   96.99    3.30
   1   1  -3   95.27    3.29
   1   1  -3   93.58    3.20
   1   1  -3  102.11    3.25
  -1  -1   3   97.24    3.30
  -1  -1   3   95.56    3.28
  -1  -1   3   97.87    3.20
  -1  -1   3   95.11    3.27
  -1  -1   3  102.58    3.22
  -1  -1   3   98.81    3.29
   0   1  -3  170.23    5.80
   0   1  -3  174.18    5.76
   0   1  -3  174.05    5.79
   0   1  -3  180.20    5.73
   0   1  -3  202.70    5.82
   0   1  -3  176.18    5.85
   0  -1   3  174.59    5.81
   0  -1   3  174.93    5.78
   0  -1   3  173.03    5.75
  -1   1  -3  308.30    9.55
  -1   1  -3  280.82    9.59
  -1   1  -3  281.25    9.43
  -1   1  -3  299.72    9.49
   1  -1   3  302.20    9.49
   1  -1   3  301.82    9.59
   1  -1   3  294.11    9.50
   1  -1   3  294.15    9.48
   1  -1   3  285.58    9.41
  -2   1  -3  633.29   19.46
  -2   1  -3  538.12   19.49
  -2   1  -3  588.46   19.39
  -2   1  -3  652.54   19.50
   2  -1   3  623.37   19.53
   2  -1   3  620.33   19.45
   2  -1   3  611.67   19.40
   2  -1   3  571.05   19.46
  -3   1  -3  131.94    4.70
  -3   1  -3  132.87    4.63
  -3   1  -3  131.23    4.49
  -3   1  -3  138.54    4.67
  -3   1  -3  135.44    4.38
  -3   1  -3  133.34    4.57
   3  -1   3  137.49    4.62
   3  -1   3  127.58    4.62
   3  -1   3  137.04    4.58
   3  -1   3  134.00    4.50
   3  -1   3  138.06    4.69
  -4   1  -3  124.62    4.59
  -4   1  -3  132.83    4.57
  -4   1  -3  127.90    4.23
  -4   1  -3  123.36    4.47
  -4   1  -3  132.52    4.56
   4  -1   3  129.36    4.56
   4  -1   3  132.25    4.47
   4  -1   3  122.12    4.54
   4  -1   3  127.23    4.48
   4  -1   3  125.11    4.34
  -5   1  -3    5.42    0.69
  -5   1  -3    5.49    0.67
  -5   1  -3    3.90    0.62
  -5   1  -3    3.19    0.58
  -5   1  -3    3.74    0.42
   5  -1   3    4.59    0.60
   5  -1   3    4.57    0.60
   5  -1   3    4.63    0.67
   5  -1   3    4.23    0.49
   5  -1   3    4.34    0.61
  -6   1  -3  176.39    6.19
  -6   1  -3  166.80    6.21
  -6   1  -3  173.70    6.13
  -6   1  -3  163.06    6.12
  -6   1  -3  170.96    5.69
   6  -1   3  163.71    6.05
   6  -1   3  164.35    5.79
   6  -1   3  177.87    6.12
   6  -1   3  167.77    6.20
   6  -1   3  173.30    5.92
  -7   1  -3   37.84    1.68
  -7   1  -3   38.86    2.25
  -7   1  -3   37.78    2.18
  -7   1  -3   37.55    2.06
   7  -1   3   38.59    2.25
   7  -1   3   38.23    2.00
   7  -1   3   38.98    1.91
   7  -1   3   38.11    2.19
   7  -1   3   41.00    1.78
   7  -1   3   39.85    1.98
  -8   1  -3   42.10    2.44
  -8   1  -3   46.62    2.72
  -8   1  -3   40.66    2.65
   8  -1   3   43.32    2.29
   8  -1   3   46.52    2.35
   8  -1   3   49.33    2.89
   8  -1   3   43.40    2.29
   8   0  -3   30.09    1.86
   8   0  -3   28.59    1.52
   8   0  -3   30.60    1.81
   8   0  -3   28.75    1.64
   8   0  -3   28.98    2.25
  -8   0   3   28.57    2.31
  -8   0   3   34.15    1.90
  -8   0   3   29.61    1.73
  -8   0   3   27.66    1.65
   7   0  -3   66.89    2.83
   7   0  -3   68.41    3.12
   7   0  -3   70.21    2.86
   7   0  -3   66.81    2.64
   7   0  -3   72.15    3.04
  -7   0   3   72.21    2.86
  -7   0   3   70.00    3.04
  -7   0   3   63.62    2.67
  -7   0   3   72.65    2.91
  -7   0   3   70.89    3.19
   6   0  -3   30.63    1.72
   6   0  -3   32.62    1.55
   6   0  -3   32.92    1.39
   6   0  -3   31.48    1.53
   6   0  -3   32.67    1.67
  -6   0   3   30.15    1.39
  -6   0   3   30.93    1.66
  -6   0   3   34.06    1.85
  -6   0   3   30.72    1.53
  -6   0   3   32.12    1.57
   5   0  -3  128.15    4.31
   5   0  -3  117.86    4.55
   5   0  -3  122.45    4.45
   5   0  -3  126.55    4.46
   5   0  -3  127.68    4.55
  -5   0   3  128.75    4.56
  -5   0   3  125.11    4.65
  -5   0   3  132.58    4.31
  -5   0   3  127.00    4.45
  -5   0   3  130.59    4.49
   4   0  -3   99.09    3.52
   4   0  -3   97.38    3.58
   4   0  -3  106.68    3.37
   4   0  -3   99.44    3.53
   4   0  -3  104.73    3.59
  -4   0   3   97.17    3.34
  -4   0   3   96.18    3.55
  -4   0   3   98.92    3.51
  -4   0   3   94.67    3.64
  -4   0   3   99.81    3.55
   3   0  -3  200.91    6.07
   3   0  -3  186.36    6.23
   3   0  -3  177.27    6.23
   3   0  -3  180.11    6.21
   3   0  -3  190.40    6.25
  -3   0   3  189.60    6.31
  -3   0   3  182.82    6.03
  -3   0   3  187.76    6.25
  -3   0   3  181.75    6.22
  -3   0   3  187.89    6.21
  -3   0   3  191.31    6.20
  -3   0   3  184.03    6.06
   2   0  -3  172.50    5.83
   2   0  -3  180.89    5.66
   2   0  -3  168.45    5.81
   2   0  -3  167.88    5.79
   2   0  -3  169.77    5.78
  -2   0   3  186.49    5.80
  -2   0   3  184.28    5.88
  -2   0   3  178.38    5.83
  -2   0   3  180.16    5.82
  -2   0   3  168.72    5.78
  -2   0   3  175.77    5.69
   1   0  -3   78.20    2.47
   1   0  -3   73.38    2.49
   1   0  -3   72.39    2.57
   1   0  -3   73.63    2.53
  -1   0   3   75.17    2.55
  -1   0   3   72.34    2.48
  -1   0   3   73.93    2.58
  -1   0   3   73.97    2.53
  -1   0   3   73.60    2.50
   0   0  -3   42.97    1.59
   0   0  -3   46.04    1.58
   0   0  -3   43.64    1.58
   0   0  -3   43.63    1.52
   0   0   3   44.05    1.59
   0   0   3   43.87    1.52
   0   0   3   45.36    1.60
   0   0   3   47.77    1.62
   0   0   3   38.28    1.44
   0   0   3   42.10    1.57
  -1   0  -3  171.31    5.68
  -1   0  -3  173.61    5.84
  -1   0  -3  168.48    5.72
  -1   0  -3  180.04    5.85
  -1   0  -3  175.67    5.82
  -1   0  -3  172.13    5.68
   1   0   3  172.94    5.82
   1   0   3  190.80    5.88
   1   0   3  170.41    5.73
   1   0   3  178.32    5.83
   1   0   3  176.53    5.69
  -2   0  -3   11.53    0.67
  -2   0  -3   10.94    0.68
  -2   0  -3   11.25    0.56
  -2   0  -3   10.20    0.51
  -2   0  -3   11.67    0.67
  -2   0  -3   10.59    0.51
   2   0   3   11.26    0.58
   2   0   3   11.11    0.70
   2   0   3   11.92    0.66
   2   0   3   10.12    0.52
   2   0   3   10.39    0.65
  -3   0  -3  139.58    4.97
  -3   0  -3  141.60    4.75
  -3   0  -3  146.27    4.99
  -3   0  -3  142.94    4.76
  -3   0  -3  144.43    4.87
  -3   0  -3  143.37    5.01
   3   0   3  151.40    5.03
   3   0   3  141.84    4.90
   3   0   3  146.29    4.94
   3   0   3  140.71    4.76
   3   0   3  137.29    4.98
  -4   0  -3   48.42    2.14
  -4   0  -3   49.69    2.01
  -4   0  -3   40.99    2.22
  -4   0  -3   50.99    1.85
  -4   0  -3   47.15    2.05
   4   0   3   49.86    1.83
   4   0   3   50.39    2.14
   4   0   3   50.14    2.11
   4   0   3   52.75    2.07
   4   0   3   49.99    2.01
  -5   0  -3   64.03    2.37
  -5   0  -3   63.27    2.64
  -5   0  -3   61.76    2.59
  -5   0  -3   62.91    2.72
  -5   0  -3   63.08    2.70
   5   0   3   61.45    2.32
   5   0   3   66.13    2.54
   5   0   3   67.80    2.68
   5   0   3   60.51    2.72
   5   0   3   62.58    2.65
  -6   0  -3   40.47    2.07
  -6   0  -3   43.27    1.81
  -6   0  -3   40.28    2.24
  -6   0  -3   39.84    2.28
  -6   0  -3   42.38    2.20
   6   0   3   43.41    1.85
   6   0   3   43.76    1.98
   6   0   3   40.63    1.73
   6   0   3   40.79    2.07
   6   0   3   42.88    2.26
   6   0   3   43.23    2.13
  -7   0  -3   41.13    2.30
  -7   0  -3   36.95    1.86
  -7   0  -3   35.79    2.38
  -7   0  -3   38.05    2.12
   7   0   3   41.12    1.98
   7   0   3   37.43    2.07
   7   0   3   41.33    1.74
   7   0   3   41.36    2.06
   7   0   3   37.56    2.45
   7   0   3   35.39    2.33
  -8   0  -3   29.59    2.49
  -8   0  -3   24.02    2.57
   8   0   3   30.48    3.26
   8   0   3   30.73    2.00
   9  -1  -3   28.80    2.53
   9  -1  -3   31.44    1.94
   9  -1  -3   29.96    2.44
   9  -1  -3   31.96    1.61
   9  -1  -3   30.93    1.89
  -9   1   3   28.11    2.03
  -9   1   3   28.06    1.92
  -9   1   3   23.50    2.64
   8  -1  -3   53.06    2.59
   8  -1  -3   53.23    2.85
   8  -1  -3   56.01    2.20
   8  -1  -3   55.93    2.46
  -8   1   3   50.85    2.53
  -8   1   3   67.43    3.55
  -8   1   3   55.26    2.97
  -8   1   3   54.40    2.10
  -8   1   3   58.49    2.50
   7  -1  -3   24.60    1.57
   7  -1  -3   24.38    1.15
   7  -1  -3   25.91    1.37
   7  -1  -3   23.26    1.50
   7  -1  -3   22.64    1.59
  -7   1   3   25.86    1.77
  -7   1   3   22.52    1.06
  -7   1   3   25.09    1.59
  -7   1   3   24.37    1.45
  -7   1   3   25.04    1.39
   6  -1  -3   94.54    3.77
   6  -1  -3  100.22    3.72
   6  -1  -3   97.30    3.57
   6  -1  -3   95.18    3.35
   6  -1  -3   96.66    3.65
  -6   1   3   93.29    3.29
  -6   1   3   99.34    3.69
  -6   1   3  100.32    3.75
  -6   1   3  100.20    3.88
  -6   1   3  101.06    3.58
   5  -1  -3   24.28    1.25
   5  -1  -3   24.27    1.28
   5  -1  -3   22.37    1.13
   5  -1  -3   25.38    0.96
   5  -1  -3   22.94    1.22
  -5   1   3   24.13    1.26
  -5   1   3   23.54    1.32
  -5   1   3   23.26    1.21
  -5   1   3   24.91    1.17
   4  -1  -3  151.82    5.09
   4  -1  -3  138.57    5.08
   4  -1  -3  154.61    4.76
   4  -1  -3  145.05    4.99
   4  -1  -3  146.74    5.04
  -4   1   3  140.93    5.10
  -4   1   3  139.26    5.08
  -4   1   3  147.42    5.08
  -4   1   3  157.22    5.09
  -4   1   3  148.17    4.99
   3  -1  -3  125.62    4.46
   3  -1  -3  137.69    4.48
   3  -1  -3  133.03    4.53
   3  -1  -3  135.60    4.55
  -3   1   3  138.16    4.54
  -3   1   3  133.60    4.48
  -3   1   3  128.65    4.51
  -3   1   3  126.28    4.55
   2  -1  -3  144.91    4.72
   2  -1  -3  146.23    4.85
   2  -1  -3  142.77    4.77
   2  -1  -3  140.38    4.80
  -2   1   3  142.53    4.63
  -2   1   3  154.86    4.86
  -2   1   3  140.39    4.86
  -2   1   3  139.78    4.77
  -2   1   3  140.74    4.74
   1  -1  -3   45.67    1.69
   1  -1  -3   41.71    1.61
   1  -1  -3   44.50    1.60
   1  -1  -3   45.20    1.50
  -1   1   3   45.88    1.63
  -1   1   3   48.41    1.61
  -1   1   3   46.33    1.71
  -1   1   3   44.91    1.50
  -1   1   3   45.73    1.60
  -1   1   3   46.15    1.72
   0  -1  -3  242.96    7.82
   0  -1  -3  226.44    7.67
   0  -1  -3  233.38    7.71
   0  -1  -3  228.17    7.73
   0   1   3  239.50    7.82
   0   1   3  250.43    7.78
   0   1   3  232.28    7.75
   0   1   3  242.29    7.76
  -1  -1  -3  139.26    4.78
  -1  -1  -3  140.24    4.75
  -1  -1  -3  136.31    4.79
  -1  -1  -3  140.24    4.60
  -1  -1  -3  134.72    4.57
   1   1   3  143.09    4.61
   1   1   3  143.68    4.76
   1   1   3  138.87    4.80
   1   1   3  145.18    4.80
   1   1   3  138.03    4.65
  -2  -1  -3  199.89    6.91
  -2  -1  -3  200.15    6.76
  -2  -1  -3  216.30    6.95
  -2  -1  -3  201.00    6.67
  -2  -1  -3  217.25    6.97
  -2  -1  -3  208.98    6.79
   2   1   3  200.93    6.72
   2   1   3  194.90    6.95
   2   1   3  208.24    6.98
   2   1   3  208.28    6.83
   2   1   3  206.72    6.90
  -3  -1  -3   56.70    2.17
  -3  -1  -3   59.37    2.03
  -3  -1  -3   58.28    2.33
  -3  -1  -3   58.00    2.36
  -3  -1  -3   58.47    2.21
  -3  -1  -3   61.14    2.39
   3   1   3   56.48    2.06
   3   1   3   57.75    2.28
   3   1   3   58.28    2.39
   3   1   3   60.82    2.31
   3   1   3   57.81    2.40
  -4  -1  -3  137.51    4.81
  -4  -1  -3  133.17    4.92
  -4  -1  -3  129.09    4.86
  -4  -1  -3  142.90    4.72
  -4  -1  -3  138.88    4.96
   4   1   3  131.21    4.99
   4   1   3  130.76    4.54
   4   1   3  138.12    4.97
   4   1   3  135.63    4.85
   4   1   3  140.28    4.86
  -5  -1  -3   62.70    2.72
  -5  -1  -3   62.03    2.56
  -5  -1  -3   60.88    2.39
  -5  -1  -3   58.81    2.70
  -5  -1  -3   60.28    2.59
   5   1   3   59.00    2.23
   5   1   3   57.85    2.65
   5   1   3   59.89    2.60
   5   1   3   58.12    2.77
   5   1   3   62.06    2.55
   5   1   3   60.07    2.20
  -6  -1  -3   65.89    2.92
  -6  -1  -3   64.24    2.87
  -6  -1  -3   67.33    3.12
  -6  -1  -3   65.68    2.67
  -6  -1  -3   63.35    3.05
   6   1   3   66.93    2.93
   6   1   3   66.93    2.83
   6   1   3   66.04    3.17
   6   1   3   66.20    2.49
   6   1   3   64.28    2.42
   6   1   3   62.93    2.92
  -7  -1  -3   29.15    2.42
  -7  -1  -3   31.70    2.10
  -7  -1  -3   24.43    1.69
  -7  -1  -3   25.42    1.75
   7   1   3   21.10    2.26
   7   1   3   22.10    1.77
   9  -2  -3   34.51    2.60
   9  -2  -3   37.74    2.10
   9  -2  -3   35.72    1.93
  -9   2   3   31.35    1.96
  -9   2   3   36.74    2.87
  -9   2   3   32.38    2.07
   8  -2  -3   25.43    1.84
   8  -2  -3   22.27    1.71
   8  -2  -3   21.89    1.12
   8  -2  -3   23.70    1.42
   8  -2  -3   24.49    1.77
  -8   2   3   26.04    1.84
  -8   2   3   24.35    1.48
  -8   2   3   25.11    1.61
  -8   2   3   22.07    2.03
   7  -2  -3  164.86    6.12
   7  -2  -3  170.18    5.51
   7  -2  -3  178.78    6.06
   7  -2  -3  164.19    5.98
   7  -2  -3  165.76    5.79
  -7   2   3  169.28    5.81
  -7   2   3  157.47    6.01
  -7   2   3  158.99    6.20
  -7   2   3  172.96    6.10
   6  -2  -3   68.86    2.69
   6  -2  -3   68.07    2.73
   6  -2  -3   63.97    2.51
   6  -2  -3   71.06    2.26
   6  -2  -3   62.13    2.72
  -6   2   3   69.18    2.77
  -6   2   3   65.35    2.55
  -6   2   3   65.16    2.72
  -6   2   3   60.62    2.78
   5  -2  -3  164.60    5.62
   5  -2  -3  153.76    5.44
   5  -2  -3  160.62    5.54
   5  -2  -3  151.84    5.62
  -5   2   3  166.36    5.50
  -5   2   3  164.94    5.66
  -5   2   3  164.43    5.65
  -5   2   3  157.57    5.65
   4  -2  -3   46.22    1.84
   4  -2  -3   49.36    1.87
   4  -2  -3   50.67    1.99
   4  -2  -3   45.84    1.96
  -4   2   3   47.41    1.97
  -4   2   3   52.07    1.88
  -4   2   3   48.10    1.95
  -4   2   3   48.39    2.01
   3  -2  -3  235.31    8.04
   3  -2  -3  261.86    8.37
   3  -2  -3  260.68    8.20
   3  -2  -3  235.21    8.31
   3  -2  -3  253.63    8.24
  -3   2   3  249.85    8.38
  -3   2   3  264.45    8.39
  -3   2   3  250.57    8.25
  -3   2   3  250.79    8.23
   2  -2  -3   28.43    1.17
   2  -2  -3   30.45    1.28
   2  -2  -3   27.98    1.09
   2  -2  -3   29.48    1.09
  -2   2   3   33.22    1.12
  -2   2   3   27.19    1.27
  -2   2   3   31.25    1.31
  -2   2   3   30.23    1.11
  -2   2   3   30.97    1.12
  -2   2   3   31.15    1.19
   1  -2  -3  533.08   17.83
   1  -2  -3  558.52   18.00
   1  -2  -3  553.01   17.89
   1  -2  -3  525.20   17.82
  -1   2   3  560.98   17.92
  -1   2   3  555.76   17.85
  -1   2   3  602.83   17.88
   0  -2  -3  181.77    6.03
   0  -2  -3  191.55    6.34
   0  -2  -3  187.48    6.22
   0  -2  -3  187.38    6.16
   0  -2  -3  188.63    6.16
   0   2   3  184.35    6.27
   0   2   3  182.92    6.01
   0   2   3  187.28    6.35
   0   2   3  188.19    6.20
   0   2   3  191.52    6.25
  -1  -2  -3  283.30    9.02
  -1  -2  -3  262.38    8.99
  -1  -2  -3  269.40    8.87
  -1  -2  -3  263.42    8.71
  -1  -2  -3  260.22    8.93
  -1  -2  -3  267.40    8.74
   1   2   3  271.47    8.74
   1   2   3  270.12    9.01
   1   2   3  277.01    8.96
   1   2   3  273.89    8.81
   1   2   3  269.03    9.04
  -2  -2  -3   12.14    0.71
  -2  -2  -3   13.76    0.85
  -2  -2  -3   13.50    0.90
  -2  -2  -3   12.80    0.56
  -2  -2  -3   14.24    0.80
  -2  -2  -3   12.46    0.85
   2   2   3   13.41    0.67
   2   2   3   14.66    0.77
   2   2   3   12.10    0.90
   2   2   3   13.55    0.85
   2   2   3   12.88    0.89
  -3  -2  -3  124.77    4.44
  -3  -2  -3  111.70    4.36
  -3  -2  -3  122.30    4.36
  -3  -2  -3  126.77    4.24
  -3  -2  -3  116.53    4.19
   3   2   3  128.91    4.30
   3   2   3  116.28    4.00
   3   2   3  113.59    4.43
   3   2   3  118.84    4.34
   3   2   3  117.19    4.48
  -4  -2  -3   74.99    3.24
  -4  -2  -3   77.79    3.22
  -4  -2  -3   83.04    3.06
  -4  -2  -3   78.66    3.14
  -4  -2  -3   81.35    3.06
   4   2   3   85.05    3.17
   4   2   3   79.58    3.15
   4   2   3   79.82    3.29
   4   2   3   79.26    2.68
   4   2   3   74.96    3.49
   4   2   3   77.27    2.72
  -5  -2  -3  117.48    4.55
  -5  -2  -3  126.28    4.44
  -5  -2  -3  120.71    4.54
  -5  -2  -3  119.41    4.72
  -5  -2  -3  115.43    4.67
   5   2   3  122.51    4.57
   5   2   3  122.25    4.58
   5   2   3  118.25    4.82
   5   2   3  117.32    4.70
  -6  -2  -3   12.23    1.43
  -6  -2  -3   14.71    1.80
  -6  -2  -3   11.37    1.41
  -6  -2  -3   11.85    1.22
   6   2   3   11.53    1.38
   6   2   3   10.15    1.41
   6   2   3   11.28    1.34
   9  -3  -3    6.51    1.13
   9  -3  -3    7.98    0.96
  -9   3   3    7.58    1.25
  -9   3   3    8.07    1.02
  -9   3   3    5.56    1.53
   8  -3  -3   82.77    3.71
   8  -3  -3   90.26    3.31
   8  -3  -3   88.65    3.65
   8  -3  -3   90.08    3.74
  -8   3   3   92.35    3.79
  -8   3   3   84.34    3.65
  -8   3   3   80.23    3.88
  -8   3   3   84.13    3.37
   7  -3  -3   54.48    2.44
   7  -3  -3   56.00    2.59
   7  -3  -3   56.33    2.25
   7  -3  -3   55.00    2.55
  -7   3   3   59.98    2.39
  -7   3   3   54.70    2.55
  -7   3   3   55.58    2.56
   6  -3  -3  115.26    4.09
   6  -3  -3  117.78    4.34
   6  -3  -3  117.80    4.22
   6  -3  -3  113.55    4.35
  -6   3   3  115.66    4.37
  -6   3   3  123.04    4.15
  -6   3   3  108.73    4.36
   5  -3  -3   35.79    1.75
   5  -3  -3   39.70    1.66
   5  -3  -3   38.84    1.60
   5  -3  -3   41.34    1.80
  -5   3   3   38.56    1.61
  -5   3   3   38.94    1.77
  -5   3   3   40.32    1.82
   4  -3  -3   90.94    3.09
   4  -3  -3   94.33    3.12
   4  -3  -3   95.21    3.34
   4  -3  -3   98.95    3.52
   4  -3  -3   95.08    3.33
   4  -3  -3   93.57    3.48
  -4   3   3   96.09    3.34
  -4   3   3   93.15    3.41
  -4   3   3   99.57    3.56
   3  -3  -3  104.41    3.53
   3  -3  -3   93.24    3.35
   3  -3  -3   91.93    3.23
   3  -3  -3   97.50    3.30
  -3   3   3   95.72    3.34
  -3   3   3   95.57    3.54
  -3   3   3   98.78    3.37
  -3   3   3  103.17    3.26
  -3   3   3   92.80    3.52
   2  -3  -3  198.10    6.53
   2  -3  -3  185.48    6.63
   2  -3  -3  204.89    6.76
   2  -3  -3  193.99    6.60
  -2   3   3  205.86    6.78
  -2   3   3  210.38    6.85
  -2   3   3  210.00    6.67
   1  -3  -3   30.19    1.45
   1  -3  -3   29.97    1.28
   1  -3  -3   32.82    1.30
   1  -3  -3   31.75    1.13
   1  -3  -3   30.62    1.11
   1  -3  -3   31.36    1.27
  -1   3   3   31.61    1.37
  -1   3   3   32.51    1.33
  -1   3   3   30.82    1.31
   0  -3  -3  142.54    5.03
   0  -3  -3  134.40    4.88
   0  -3  -3  146.23    4.76
   0  -3  -3  139.65    4.69
   0   3   3  137.90    5.05
   0   3   3  147.69    5.01
   0   3   3  147.98    4.95
   0   3   3  143.63    4.78
  -1  -3  -3   13.18    0.60
  -1  -3  -3   13.95    0.70
  -1  -3  -3   13.59    0.86
  -1  -3  -3   13.73    0.90
  -1  -3  -3   14.35    0.96
  -1  -3  -3   14.04    0.85
   1   3   3   14.27    1.00
   1   3   3   14.04    0.68
   1   3   3   14.12    0.90
   1   3   3   13.43    0.96
   1   3   3   13.68    0.65
  -2  -3  -3   61.30    2.55
  -2  -3  -3   58.25    2.29
  -2  -3  -3   62.26    2.42
  -2  -3  -3   61.55    2.51
  -2  -3  -3   60.16    2.47
   2   3   3   64.10    2.53
   2   3   3   61.62    2.65
   2   3   3   60.67    2.62
   2   3   3   61.47    2.30
  -3  -3  -3   24.47    1.38
  -3  -3  -3   24.15    1.27
  -3  -3  -3   23.76    1.49
  -3  -3  -3   26.62    1.39
  -3  -3  -3   27.60    1.58
   3   3   3   25.76    1.58
   3   3   3   22.66    1.60
   3   3   3   26.26    1.49
   3   3   3   27.86    1.36
  -4  -3  -3   81.90    3.25
  -4  -3  -3   85.32    3.54
  -4  -3  -3   81.15    3.47
  -4  -3  -3   81.94    3.33
  -4  -3  -3   86.72    3.30
   4   3   3   78.68    3.61
   4   3   3   79.83    3.54
   4   3   3   85.96    3.43
   4   3   3   85.74    3.32
  -5  -3  -3   27.80    1.66
  -5  -3  -3   31.97    2.11
  -5  -3  -3   27.81    1.81
  -5  -3  -3   30.06    1.79
   5   3   3   23.52    2.15
   5   3   3   29.68    1.90
   5   3   3   25.69    1.87
  -6  -3  -3   35.23    2.31
  -6  -3  -3   40.43    2.83
   6   3   3   30.62    2.92
   9  -4  -3   50.15    2.23
   9  -4  -3   49.37    2.79
  -9   4   3   48.58    2.33
  -9   4   3   47.01    3.12
  -9   4   3   47.88    2.63
   8  -4  -3   41.14    2.27
   8  -4  -3   41.16    2.40
   8  -4  -3   38.19    1.77
   8  -4  -3   40.02    2.19
  -8   4   3   37.49    2.38
  -8   4   3   38.59    1.88
  -8   4   3   35.57    2.11
   7  -4  -3   32.20    1.69
   7  -4  -3   31.17    1.84
   7  -4  -3   30.97    1.82
   7  -4  -3   34.31    1.50
  -7   4   3   29.28    2.64
  -7   4   3   29.35    1.76
   6  -4  -3   78.61    3.08
   6  -4  -3   74.56    3.06
   6  -4  -3   72.59    2.77
   6  -4  -3   73.05    2.87
  -6   4   3   71.91    3.08
  -6   4   3   71.78    3.02
  -6   4   3   76.07    2.79
   5  -4  -3  139.64    4.70
   5  -4  -3  139.38    4.41
   5  -4  -3  141.05    4.90
   5  -4  -3  126.40    4.84
   5  -4  -3  131.93    4.64
  -5   4   3  129.96    4.93
  -5   4   3  130.27    4.78
  -5   4   3  138.52    4.67
   4  -4  -3   12.75    0.75
   4  -4  -3   13.42    0.94
   4  -4  -3   12.24    0.75
   4  -4  -3   13.14    0.90
   4  -4  -3   12.61    0.60
   4  -4  -3   13.02    0.69
  -4   4   3   13.73    0.68
  -4   4   3   13.51    0.97
   3  -4  -3   92.79    3.40
   3  -4  -3   91.15    3.25
   3  -4  -3   92.13    3.17
   3  -4  -3   87.70    3.16
  -3   4   3   91.29    3.47
  -3   4   3   97.31    3.25
   2  -4  -3   50.94    2.14
   2  -4  -3   50.90    1.99
   2  -4  -3   49.48    1.78
   2  -4  -3   48.43    1.75
   2  -4  -3   45.52    1.88
   2  -4  -3   48.17    1.88
  -2   4   3   52.83    2.01
  -2   4   3   49.78    2.09
   1  -4  -3  176.19    5.87
   1  -4  -3  186.13    6.14
   1  -4  -3  172.68    5.85
   1  -4  -3  167.33    5.91
   1  -4  -3  170.44    5.70
  -1   4   3  171.65    6.02
   0  -4  -3   95.15    3.35
   0  -4  -3   83.54    3.48
   0  -4  -3   90.06    3.11
   0  -4  -3   89.86    3.11
   0  -4  -3   88.90    3.33
   0   4   3   89.71    3.48
   0   4   3   93.43    3.40
  -1  -4  -3   88.20    3.40
  -1  -4  -3   89.00    3.18
  -1  -4  -3   95.26    3.54
  -1  -4  -3   85.66    2.94
  -1  -4  -3   89.89    3.38
  -1  -4  -3   89.45    3.43
   1   4   3   92.16    3.46
   1   4   3   91.60    3.13
   1   4   3   86.14    3.55
   1   4   3   87.15    3.58
  -2  -4  -3  123.68    4.52
  -2  -4  -3  123.58    4.64
  -2  -4  -3  120.11    4.36
  -2  -4  -3  123.39    4.55
  -2  -4  -3  125.55    4.69
   2   4   3  127.18    4.64
   2   4   3  121.26    4.78
   2   4   3  120.67    4.81
   2   4   3  129.57    4.35
  -3  -4  -3   82.56    3.43
  -3  -4  -3   80.10    3.14
  -3  -4  -3   80.43    3.26
  -3  -4  -3   83.49    3.50
  -3  -4  -3   81.43    3.29
   3   4   3   78.95    3.61
   3   4   3   85.15    3.18
   3   4   3   84.18    3.42
   3   4   3   77.58    3.53
  -4  -4  -3   15.84    1.43
  -4  -4  -3   17.25    1.65
  -4  -4  -3   16.95    1.59
  -4  -4  -3   18.85    1.32
   4   4   3   17.21    1.94
   4   4   3   17.21    1.62
   4   4   3   19.36    1.43
  -5  -4  -3   62.47    2.78
  -5  -4  -3   62.08    3.35
  -5  -4  -3   59.32    2.88
   5   4   3   54.95    3.06
   5   4   3   51.81    3.50
   5   4   3   63.12    2.99
   9  -5  -3   32.70    2.42
   9  -5  -3   38.17    1.82
  -9   5   3   30.92    2.86
  -9   5   3   36.41    2.39
   8  -5  -3  102.80    4.05
   8  -5  -3  103.88    3.74
   8  -5  -3   98.68    4.20
  -8   5   3   96.78    4.22
  -8   5   3  101.11    4.34
   7  -5  -3   20.97    1.17
   7  -5  -3   20.58    1.60
   7  -5  -3   18.72    1.50
   7  -5  -3   18.68    1.34
  -7   5   3   19.05    1.47
   6  -5  -3  125.16    4.98
   6  -5  -3  142.80    4.43
   6  -5  -3  127.63    4.63
   6  -5  -3  138.66    4.99
   6  -5  -3  137.12    4.74
  -6   5   3  131.42    4.88
  -6   5   3  123.16    5.00
   5  -5  -3   70.87    2.74
   5  -5  -3   72.11    2.55
   5  -5  -3   75.19    3.04
   5  -5  -3   74.87    2.78
   5  -5  -3   76.16    2.67
   5  -5  -3   75.78    3.03
  -5   5   3   72.74    3.10
   4  -5  -3  218.01    7.21
   4  -5  -3  207.95    7.06
   4  -5  -3  227.16    7.42
   4  -5  -3  217.99    7.14
   4  -5  -3  213.84    7.18
   4  -5  -3  201.11    7.36
  -4   5   3  210.73    7.49
   3  -5  -3   71.23    2.94
   3  -5  -3   69.31    2.55
   3  -5  -3   67.12    2.58
   3  -5  -3   71.10    2.51
   3  -5  -3   69.86    2.64
   3  -5  -3   72.51    2.78
  -3   5   3   73.79    2.93
  -3   5   3   72.33    2.71
   2  -5  -3  174.21    5.78
   2  -5  -3  174.40    5.97
   2  -5  -3  166.41    5.74
   2  -5  -3  170.79    5.91
   2  -5  -3  187.30    6.25
   2  -5  -3  163.09    5.90
  -2   5   3  179.52    6.10
   1  -5  -3   79.69    2.97
   1  -5  -3   77.77    2.89
   1  -5  -3   75.98    2.72
   1  -5  -3   76.75    2.99
   1  -5  -3   76.43    2.82
   1  -5  -3   78.08    3.15
  -1   5   3   76.24    3.11
   0  -5  -3   80.88    2.88
   0  -5  -3   83.69    3.29
   0  -5  -3   79.83    3.14
   0  -5  -3   81.82    2.78
   0  -5  -3   75.72    3.12
   0   5   3   78.14    3.31
  -1  -5  -3   12.50    1.04
  -1  -5  -3   13.94    1.15
  -1  -5  -3   13.61    1.25
  -1  -5  -3   12.81    0.87
  -1  -5  -3   12.89    1.12
   1   5   3   13.43    1.25
   1   5   3   13.69    0.86
  -2  -5  -3  117.82    4.28
  -2  -5  -3  115.53    4.65
  -2  -5  -3  120.18    4.47
  -2  -5  -3  121.00    4.63
  -2  -5  -3  118.96    4.54
   2   5   3  117.44    4.84
   2   5   3  125.26    4.25
   2   5   3  110.41    4.73
  -3  -5  -3   16.57    1.73
  -3  -5  -3   18.32    1.35
  -3  -5  -3   23.31    1.46
   3   5   3   17.97    1.68
   3   5   3   21.47    2.11
   3   5   3   21.23    1.41
  -4  -5  -3   45.56    2.22
  -4  -5  -3   45.53    2.35
  -4  -5  -3   37.89    2.77
   4   5   3   43.29    3.19
   4   5   3   42.87    2.63
   9  -6  -3   81.47    4.05
   9  -6  -3   89.27    3.38
  -9   6   3   83.18    3.95
  -9   6   3   85.88    4.28
   8  -6  -3   22.45    1.85
   8  -6  -3   25.23    1.98
   8  -6  -3   28.57    1.50
  -8   6   3   22.78    1.82
  -8   6   3   22.43    2.07
   7  -6  -3   64.29    3.00
   7  -6  -3   65.37    3.12
   7  -6  -3   69.43    2.79
   7  -6  -3   61.80    2.60
  -7   6   3   62.38    3.05
   6  -6  -3   11.28    0.80
   6  -6  -3    9.51    1.01
   6  -6  -3    9.84    1.15
   6  -6  -3   10.88    0.89
   6  -6  -3   10.91    0.64
   6  -6  -3   10.97    1.31
  -6   6   3    9.77    1.17
   5  -6  -3   98.55    3.62
   5  -6  -3   99.97    3.62
   5  -6  -3   94.99    3.44
   5  -6  -3   98.21    3.92
   5  -6  -3  103.84    3.92
  -5   6   3  101.99    3.56
  -5   6   3   93.64    3.98
   4  -6  -3   39.21    1.62
   4  -6  -3   38.79    1.82
   4  -6  -3   38.03    1.91
   4  -6  -3   35.51    1.87
   4  -6  -3   36.93    1.56
   4  -6  -3   34.40    1.57
   4  -6  -3   38.54    1.69
  -4   6   3   38.27    1.97
  -4   6   3   38.21    1.71
   3  -6  -3   97.51    3.59
   3  -6  -3   99.02    3.83
   3  -6  -3   96.33    3.48
   3  -6  -3   89.40    3.28
   3  -6  -3   87.81    3.40
   3  -6  -3   94.51    3.34
  -3   6   3   92.16    3.57
   2  -6  -3   18.00    1.25
   2  -6  -3   19.44    1.43
   2  -6  -3   18.75    1.16
   2  -6  -3   21.31    1.18
   2  -6  -3   19.50    1.01
   2  -6  -3   18.96    0.95
   2  -6  -3   17.97    1.22
  -2   6   3   18.39    1.30
   1  -6  -3   49.25    1.95
   1  -6  -3   46.74    2.35
   1  -6  -3   49.14    1.91
   1  -6  -3   44.93    2.16
   1  -6  -3   51.35    2.27
   1  -6  -3   49.67    2.11
  -1   6   3   49.07    2.41
   0  -6  -3   19.05    1.54
   0  -6  -3   18.77    1.47
   0  -6  -3   22.34    1.39
   0  -6  -3   19.98    0.85
   0  -6  -3   20.89    1.44
   0  -6  -3   20.92    1.11
   0  -6  -3   19.33    0.81
   0   6   3   19.58    1.55
  -1  -6  -3  116.69    4.63
  -1  -6  -3  117.75    4.73
  -1  -6  -3  121.35    4.26
  -1  -6  -3  114.93    4.48
   1   6   3  117.35    4.86
  -2  -6  -3   30.00    2.16
  -2  -6  -3   30.12    1.70
  -2  -6  -3   30.78    1.69
   2   6   3   28.16    2.15
   8  -7  -3   39.92    2.03
   8  -7  -3   39.02    2.58
   8  -7  -3   39.28    2.54
   7  -7  -3   30.68    1.84
   7  -7  -3   31.26    1.69
   7  -7  -3   30.95    1.29
   7  -7  -3   35.00    2.16
   7  -7  -3   32.28    1.42
  -7   7   3   30.74    2.08
   6  -7  -3   63.79    2.60
   6  -7  -3   61.18    3.06
   6  -7  -3   63.74    2.55
   6  -7  -3   60.36    2.91
   6  -7  -3   64.24    2.56
   6  -7  -3   59.68    2.32
  -6   7   3   56.28    2.93
   5  -7  -3   43.80    2.00
   5  -7  -3   42.28    2.27
   5  -7  -3   43.58    1.96
   5  -7  -3   44.05    2.32
   5  -7  -3   42.26    1.84
   5  -7  -3   41.41    1.88
   5  -7  -3   44.94    2.13
  -5   7   3   47.93    2.01
  -5   7   3   45.88    2.37
   4  -7  -3   72.33    3.39
   4  -7  -3   79.26    3.33
   4  -7  -3   80.30    3.27
   4  -7  -3   83.26    3.41
   4  -7  -3   79.68    2.95
   4  -7  -3   78.54    3.05
   4  -7  -3   79.58    3.12
   4  -7  -3   83.72    3.62
  -4   7   3   83.20    3.49
  -4   7   3   80.72    3.22
   3  -7  -3   54.30    2.34
   3  -7  -3   52.21    2.37
   3  -7  -3   49.31    2.17
   3  -7  -3   48.93    2.04
   3  -7  -3   48.58    1.97
   3  -7  -3   45.86    2.57
  -3   7   3   47.52    2.33
   2  -7  -3   80.89    3.26
   2  -7  -3   79.84    3.55
   2  -7  -3   79.61    3.08
   2  -7  -3   77.49    3.38
   2  -7  -3   79.85    2.94
   2  -7  -3   79.92    3.00
   2  -7  -3   78.53    3.16
  -2   7   3   82.70    3.49
   1  -7  -3   25.92    1.68
   1  -7  -3   27.20    1.29
   1  -7  -3   26.64    1.36
   1  -7  -3   27.46    1.59
   1  -7  -3   27.13    1.17
   1  -7  -3   27.77    2.02
  -1   7   3   28.33    1.90
   0  -7  -3   70.25    2.98
   0  -7  -3   63.90    3.07
   0  -7  -3   69.11    2.91
   0  -7  -3   66.17    2.67
   0   7   3   61.17    3.26
  -1  -7  -3   29.63    1.77
  -1  -7  -3   29.01    2.15
  -1  -7  -3   30.30    1.72
   1   7   3   25.73    2.22
   7  -8  -3  100.92    4.51
   7  -8  -3  104.76    3.99
   7  -8  -3  110.48    4.33
   7  -8  -3  102.85    3.69
   7  -8  -3  102.02    4.14
  -7   8   3   97.85    5.59
   6  -8  -3   25.92    1.82
   6  -8  -3   23.09    1.36
   6  -8  -3   23.66    2.02
   6  -8  -3   28.20    2.03
   6  -8  -3   23.91    1.59
   6  -8  -3   21.65    1.65
   6  -8  -3   23.51    1.51
  -6   8   3   24.11    1.90
   5  -8  -3   45.18    2.55
   5  -8  -3   46.32    2.04
   5  -8  -3   44.33    2.47
   5  -8  -3   46.59    2.22
   5  -8  -3   46.14    2.17
   5  -8  -3   42.75    2.64
   5  -8  -3   46.09    2.52
  -5   8   3   47.38    2.55
  -5   8   3   46.74    2.26
   4  -8  -3   54.74    2.73
   4  -8  -3   56.72    2.38
   4  -8  -3   51.78    2.44
   4  -8  -3   56.02    2.27
   4  -8  -3   55.13    3.00
   4  -8  -3   56.96    2.51
  -4   8   3   54.00    2.60
   3  -8  -3   76.95    2.99
   3  -8  -3   77.29    3.18
   3  -8  -3   72.48    3.19
   3  -8  -3   77.87    3.21
   3  -8  -3   76.34    2.98
   3  -8  -3   76.71    2.91
  -3   8   3   75.44    3.39
   2  -8  -3   26.45    1.79
   2  -8  -3   28.45    1.52
   2  -8  -3   30.37    1.40
   2  -8  -3   28.89    1.69
   2  -8  -3   29.31    1.94
  -2   8   3   30.55    2.09
   1  -8  -3   50.42    2.65
   1  -8  -3   56.44    2.71
   1  -8  -3   55.69    2.36
   1  -8  -3   53.42    2.83
  -1   8   3   53.81    3.14
   4 -10   4   65.23    3.11
   0   9  -4   16.30    1.78
   0  -9   4   17.12    1.82
   0  -9   4   21.19    2.76
   1  -9   4   46.45    2.07
   1  -9   4   48.75    1.90
   1  -9   4   47.18    2.46
   1  -9   4   45.57    2.51
  -2   9  -4    5.03    1.06
   2  -9   4    4.85    1.14
   2  -9   4    5.34    1.01
   2  -9   4    6.71    0.92
   2  -9   4    7.51    0.93
   2  -9   4    6.91    0.82
   2  -9   4    8.50    0.97
   2  -9   4    9.16    0.92
  -3   9  -4   71.88    3.31
   3  -9   4   61.93    2.90
   3  -9   4   67.79    3.01
   3  -9   4   70.16    2.71
   3  -9   4   67.21    3.01
   3  -9   4   69.66    3.06
   3  -9   4   70.20    2.76
  -4   9  -4   22.85    1.71
  -4   9  -4   22.28    1.50
   4  -9   4   27.34    3.37
   4  -9   4   21.33    1.46
   4  -9   4   20.33    1.85
   4  -9   4   24.29    1.61
   4  -9   4   21.54    1.32
   4  -9   4   23.23    1.50
   4  -9   4   21.68    1.39
  -5   9  -4   64.19    2.87
   5  -9   4   60.06    2.68
   5  -9   4   61.88    2.44
   5  -9   4   58.67    3.23
   5  -9   4   65.03    2.86
   5  -9   4   60.19    2.56
   5  -9   4   61.69    3.17
   5  -9   4   58.88    2.59
   5  -9   4   64.12    2.88
  -6   9  -4   22.99    1.71
   6  -9   4   22.78    1.22
   6  -9   4   24.45    1.67
   6  -9   4   22.50    1.65
   6  -9   4   21.17    1.71
   6  -9   4   22.02    1.37
   6  -9   4   26.20    2.29
  -7   9  -4   57.15    3.03
   7  -9   4   59.60    2.87
   7  -9   4   60.25    2.84
   7  -9   4   63.51    3.31
   1   8  -4   29.98    2.11
  -1  -8   4   28.90    2.03
  -1  -8   4   30.74    2.03
  -1  -8   4   28.97    1.63
   0   8  -4   48.11    2.60
   0  -8   4   48.21    1.84
   0  -8   4   45.91    1.99
   0  -8   4   48.20    1.79
   0  -8   4   48.76    2.34
   0  -8   4   50.11    2.49
  -1   8  -4   17.84    1.53
   1  -8   4   18.31    1.48
   1  -8   4   19.84    1.01
   1  -8   4   19.62    1.19
   1  -8   4   16.55    1.32
   1  -8   4   17.15    1.43
   1  -8   4   19.63    1.09
   1  -8   4   21.16    1.95
  -2   8  -4  126.24    5.01
   2  -8   4  126.88    4.45
   2  -8   4  130.01    5.15
   2  -8   4  127.71    4.48
   2  -8   4  124.74    4.46
   2  -8   4  124.12    4.71
   2  -8   4  136.36    4.74
  -3   8  -4   57.82    2.31
  -3   8  -4   53.97    2.63
   3  -8   4   52.20    2.75
   3  -8   4   53.01    2.39
   3  -8   4   54.44    2.24
   3  -8   4   57.63    2.20
   3  -8   4   55.68    2.64
   3  -8   4   51.04    2.22
   3  -8   4   55.43    2.33
  -4   8  -4   96.71    3.97
  -4   8  -4  102.18    3.82
   4  -8   4   96.13    3.60
   4  -8   4   98.36    3.81
   4  -8   4   96.87    3.96
   4  -8   4   94.96    3.72
   4  -8   4   96.51    3.60
   4  -8   4   98.43    4.11
   4  -8   4  103.83    3.74
  -5   8  -4   67.69    2.97
   5  -8   4   68.39    2.82
   5  -8   4   70.20    3.14
   5  -8   4   70.68    2.59
   5  -8   4   68.72    2.88
   5  -8   4   67.57    2.72
   5  -8   4   67.03    2.50
   5  -8   4   64.76    3.06
  -6   8  -4   79.46    3.50
   6  -8   4   82.38    3.76
   6  -8   4   83.41    3.32
   6  -8   4   79.70    3.53
   6  -8   4   79.39    3.24
   6  -8   4   79.99    2.86
   6  -8   4   81.43    2.83
  -7   8  -4   12.97    1.41
   7  -8   4   14.12    1.60
   7  -8   4   13.23    1.35
   7  -8   4   11.38    1.33
  -8   8  -4   44.45    2.73
   8  -8   4   46.25    2.52
   8  -8   4   44.93    2.52
   8  -8   4   47.55    2.53
   8  -8   4   47.63    2.63
  -3  -7   4   51.06    2.72
  -3  -7   4   42.58    2.64
   2   7  -4   28.03    1.98
   2   7  -4   26.33    1.87
  -2  -7   4   26.97    1.45
  -2  -7   4   24.35    1.79
  -2  -7   4   26.93    1.84
   1   7  -4   81.19    3.68
   1   7  -4   90.34    3.63
  -1  -7   4   86.25    3.56
  -1  -7   4   90.08    3.20
  -1  -7   4   85.82    3.52
  -1  -7   4   83.09    3.86
  -1  -7   4   90.78    3.58
   0   7  -4   18.48    1.42
   0  -7   4   21.85    1.66
   0  -7   4   22.23    1.36
   0  -7   4   19.58    1.31
   0  -7   4   17.96    0.92
   0  -7   4   19.08    1.35
   0  -7   4   18.95    1.01
  -1   7  -4   53.45    2.57
   1  -7   4   56.23    2.71
   1  -7   4   58.50    2.11
   1  -7   4   57.74    2.37
   1  -7   4   53.28    2.10
  -2   7  -4   79.08    3.17
  -2   7  -4   81.95    3.42
   2  -7   4   82.97    2.98
   2  -7   4   88.71    3.56
   2  -7   4   87.68    3.19
   2  -7   4   85.00    3.00
   2  -7   4   81.10    3.03
   2  -7   4   84.57    3.23
  -3   7  -4   42.15    2.17
  -3   7  -4   47.93    2.00
   3  -7   4   48.47    1.93
   3  -7   4   47.04    2.31
   3  -7   4   45.76    2.20
   3  -7   4   47.59    2.06
   3  -7   4   46.19    1.92
   3  -7   4   47.33    1.93
   3  -7   4   46.27    1.84
  -4   7  -4   20.75    1.28
   4  -7   4   20.79    1.18
   4  -7   4   20.85    1.49
   4  -7   4   20.48    1.03
   4  -7   4   20.26    1.40
   4  -7   4   20.59    1.09
  -5   7  -4   59.36    2.62
   5  -7   4   56.96    2.60
   5  -7   4   58.20    2.44
   5  -7   4   58.30    2.13
   5  -7   4   61.47    2.67
   5  -7   4   58.45    2.37
   5  -7   4   56.76    2.08
  -6   7  -4   36.86    2.05
   6  -7   4   40.54    1.91
   6  -7   4   39.71    1.91
   6  -7   4   40.30    2.09
   6  -7   4   38.24    2.11
  -7   7  -4   84.78    3.83
   7  -7   4   92.10    3.62
   7  -7   4   86.60    3.70
   7  -7   4   88.60    3.61
   7  -7   4   91.54    3.60
  -8   7  -4   10.31    1.45
  -8   7  -4   14.41    1.68
   8  -7   4   12.65    1.27
   8  -7   4   15.30    1.48
   8  -7   4   13.67    1.36
   8  -7   4   11.51    1.51
   4   6  -4   43.03    2.76
   4   6  -4   49.21    2.72
   4   6  -4   45.35    2.54
  -4  -6   4   46.10    2.31
  -4  -6   4   48.90    2.69
  -4  -6   4   48.21    2.64
   3   6  -4   18.66    1.76
   3   6  -4   13.14    1.55
   3   6  -4   18.59    1.56
   3   6  -4   16.04    1.45
  -3  -6   4   15.53    1.49
  -3  -6   4   16.94    1.88
  -3  -6   4   18.14    1.18
  -3  -6   4   16.84    1.50
   2   6  -4   42.46    2.22
   2   6  -4   42.96    2.07
   2   6  -4   43.10    2.24
   2   6  -4   46.60    2.23
  -2  -6   4   44.35    1.86
  -2  -6   4   46.65    2.17
  -2  -6   4   44.25    2.17
  -2  -6   4   45.65    2.43
  -2  -6   4   45.84    2.18
   1   6  -4   25.81    1.57
   1   6  -4   27.61    1.53
   1   6  -4   24.40    1.55
  -1  -6   4   23.77    1.47
  -1  -6   4   28.76    1.72
  -1  -6   4   24.42    1.47
  -1  -6   4   25.54    1.17
  -1  -6   4   27.40    1.07
  -1  -6   4   25.77    1.44
   0   6  -4  128.69    4.59
   0   6  -4  120.92    4.72
   0  -6   4  129.31    4.56
   0  -6   4  126.25    4.55
   0  -6   4  125.46    4.79
   0  -6   4  129.34    4.27
   0  -6   4  124.90    4.28
  -1   6  -4   51.69    2.35
  -1   6  -4   56.25    2.22
   1  -6   4   54.03    2.46
   1  -6   4   53.84    2.21
   1  -6   4   52.57    2.02
   1  -6   4   54.94    1.97
   1  -6   4   56.11    2.19
  -2   6  -4   97.49    3.82
  -2   6  -4   99.95    3.55
   2  -6   4   99.84    3.56
   2  -6   4  102.34    3.68
   2  -6   4  104.64    3.92
   2  -6   4  102.46    3.50
   2  -6   4  104.52    3.61
   2  -6   4   97.72    3.45
  -3   6  -4   12.40    0.98
  -3   6  -4   13.32    0.89
   3  -6   4   13.45    0.75
   3  -6   4   14.76    0.84
   3  -6   4   12.88    0.87
   3  -6   4   14.11    1.05
   3  -6   4   13.11    0.75
   3  -6   4   13.76    1.08
  -4   6  -4  153.61    5.51
   4  -6   4  154.26    5.30
   4  -6   4  153.55    5.15
   4  -6   4  153.41    5.52
   4  -6   4  164.10    5.61
   4  -6   4  150.46    5.37
  -5   6  -4   36.43    1.84
  -5   6  -4   35.75    1.80
   5  -6   4   36.01    1.77
   5  -6   4   35.53    1.65
   5  -6   4   34.39    1.77
   5  -6   4   35.76    1.62
   5  -6   4   34.20    1.24
   5  -6   4   33.48    1.25
  -6   6  -4  106.71    4.30
  -6   6  -4  110.49    4.22
  -6   6  -4  113.82    4.18
   6  -6   4  108.10    4.06
   6  -6   4  104.95    4.16
   6  -6   4  101.38    4.02
   6  -6   4  114.04    4.12
  -7   6  -4   58.37    2.66
  -7   6  -4   61.64    2.77
  -7   6  -4   55.04    2.76
   7  -6   4   56.24    2.59
   7  -6   4   56.42    2.65
   7  -6   4   54.37    2.72
   7  -6   4   56.87    2.50
   7  -6   4   55.28    2.50
  -8   6  -4   61.77    2.94
  -8   6  -4   65.05    3.20
  -8   6  -4   62.56    3.12
   8  -6   4   63.63    2.84
   8  -6   4   61.01    2.82
   8  -6   4   58.96    2.93
   8  -6   4   60.98    2.73
  -9   6  -4   23.14    2.08
  -9   6  -4   20.94    1.85
   9  -6   4   18.24    1.58
   9  -6   4   18.66    2.08
   9  -6   4   22.68    1.90
   5   5  -4   57.66    3.02
   5   5  -4   57.45    3.10
   5   5  -4   54.10    2.77
  -5  -5   4   58.37    3.04
  -5  -5   4   59.13    2.91
  -5  -5   4   60.07    2.70
   4   5  -4   34.62    1.96
   4   5  -4   38.06    2.31
   4   5  -4   32.26    2.03
   4   5  -4   32.75    2.03
  -4  -5   4   36.20    2.10
  -4  -5   4   34.61    1.92
  -4  -5   4   37.85    2.20
  -4  -5   4   35.20    1.78
   3   5  -4  128.82    4.94
   3   5  -4  143.73    5.03
   3   5  -4  130.58    4.93
   3   5  -4  122.30    4.83
  -3  -5   4  130.10    4.85
  -3  -5   4  135.22    4.86
  -3  -5   4  133.63    4.63
  -3  -5   4  126.38    4.91
  -3  -5   4  132.75    5.05
   2   5  -4   14.21    1.01
   2   5  -4   16.18    1.17
   2   5  -4   14.25    1.11
   2   5  -4   14.94    1.13
  -2  -5   4   14.82    0.68
  -2  -5   4   12.90    1.00
  -2  -5   4   14.80    0.84
  -2  -5   4   14.69    1.07
  -2  -5   4   15.67    1.11
  -2  -5   4   14.31    1.23
   1   5  -4  101.76    3.36
   1   5  -4   97.30    3.70
   1   5  -4  106.15    3.75
   1   5  -4   98.44    3.79
  -1  -5   4   93.92    3.65
  -1  -5   4   97.18    3.64
  -1  -5   4   98.81    3.40
  -1  -5   4   97.35    3.40
  -1  -5   4  105.93    3.88
   0   5  -4   91.23    3.11
   0   5  -4   87.84    3.31
   0   5  -4   87.73    3.43
   0  -5   4   94.62    3.51
   0  -5   4   93.07    3.29
   0  -5   4   85.69    3.03
   0  -5   4   92.61    3.12
   0  -5   4   87.96    3.28
  -1   5  -4  256.04    8.10
  -1   5  -4  233.08    8.31
  -1   5  -4  252.19    7.99
  -1   5  -4  248.85    8.17
   1  -5   4  232.67    8.06
   1  -5   4  258.99    8.43
   1  -5   4  254.04    8.16
   1  -5   4  236.04    7.94
   1  -5   4  253.47    7.96
   1  -5   4  232.79    8.17
  -2   5  -4   79.43    2.84
  -2   5  -4   78.25    2.81
  -2   5  -4   81.56    3.04
   2  -5   4   77.95    2.83
   2  -5   4   76.82    2.89
   2  -5   4   81.04    2.80
   2  -5   4   80.53    3.10
   2  -5   4   78.39    2.71
  -3   5  -4  206.26    6.87
  -3   5  -4  190.54    6.99
   3  -5   4  198.48    6.90
   3  -5   4  204.76    6.63
   3  -5   4  191.89    6.77
   3  -5   4  208.32    6.69
   3  -5   4  214.66    7.01
  -4   5  -4   55.34    2.48
  -4   5  -4   63.06    2.34
  -4   5  -4   60.89    2.44
   4  -5   4   66.53    2.50
   4  -5   4   60.77    2.43
   4  -5   4   56.51    1.99
   4  -5   4   59.69    2.27
   4  -5   4   59.40    2.02
   4  -5   4   56.79    2.31
  -5   5  -4  148.32    5.34
  -5   5  -4  142.12    5.30
  -5   5  -4  152.31    5.22
   5  -5   4  142.32    5.12
   5  -5   4  151.05    5.23
   5  -5   4  143.73    5.13
   5  -5   4  144.40    5.22
  -6   5  -4   33.09    1.74
  -6   5  -4   30.93    1.75
  -6   5  -4   33.04    1.76
   6  -5   4   32.40    1.75
   6  -5   4   28.67    1.66
   6  -5   4   32.91    1.65
   6  -5   4   30.97    1.60
  -7   5  -4  116.29    4.90
  -7   5  -4  127.99    4.94
  -7   5  -4  131.89    4.83
  -7   5  -4  139.28    4.94
   7  -5   4  123.39    4.62
   7  -5   4  121.97    4.63
   7  -5   4  125.86    4.80
   7  -5   4  120.03    4.76
   7  -5   4  127.82    4.79
  -8   5  -4   37.33    2.39
  -8   5  -4   32.59    2.09
  -8   5  -4   30.37    2.04
  -8   5  -4   32.69    2.32
   8  -5   4   33.66    1.83
   8  -5   4   32.24    1.87
   8  -5   4   33.24    2.10
   8  -5   4   32.04    1.87
  -9   5  -4   42.54    2.66
  -9   5  -4   44.04    3.14
  -9   5  -4   50.52    2.81
   9  -5   4   50.00    2.42
   9  -5   4   50.98    2.90
   9  -5   4   45.16    2.48
   9  -5   4   48.84    2.53
   6   4  -4   41.56    2.48
   6   4  -4   40.40    2.67
   6   4  -4   43.46    2.31
  -6  -4   4   43.04    2.62
  -6  -4   4   39.95    2.40
  -6  -4   4   43.85    2.38
   5   4  -4   30.90    2.17
   5   4  -4   31.83    1.80
   5   4  -4   30.11    2.11
   5   4  -4   33.29    2.02
  -5  -4   4   30.68    2.05
  -5  -4   4   32.66    1.95
  -5  -4   4   33.89    1.77
  -5  -4   4   36.11    1.86
   4   4  -4  111.29    4.17
   4   4  -4  106.00    4.07
   4   4  -4  101.31    4.00
   4   4  -4   95.95    3.96
  -4  -4   4  108.07    3.99
  -4  -4   4  104.82    3.96
  -4  -4   4  108.02    3.84
  -4  -4   4   98.05    4.07
   3   4  -4   47.42    2.15
   3   4  -4   44.87    1.58
   3   4  -4   43.78    2.05
   3   4  -4   44.30    2.03
   3   4  -4   44.28    1.97
  -3  -4   4   45.22    2.00
  -3  -4   4   44.41    1.64
  -3  -4   4   45.97    1.85
  -3  -4   4   48.22    2.01
  -3  -4   4   45.53    2.09
   2   4  -4   57.79    2.34
   2   4  -4   56.05    2.32
   2   4  -4   55.29    2.19
   2   4  -4   57.33    1.98
   2   4  -4   53.57    2.33
  -2  -4   4   60.90    2.36
  -2  -4   4   55.64    2.27
  -2  -4   4   57.16    2.09
  -2  -4   4   57.77    2.28
  -2  -4   4   57.98    2.05
   1   4  -4   93.70    3.09
   1   4  -4   87.75    3.31
   1   4  -4   90.68    3.33
   1   4  -4   92.22    3.39
   1   4  -4   88.45    3.13
  -1  -4   4   87.38    3.06
  -1  -4   4   99.46    3.47
  -1  -4   4   88.32    3.13
  -1  -4   4   93.81    3.30
  -1  -4   4   89.08    3.31
   0   4  -4  211.51    7.08
   0   4  -4  225.10    7.25
   0   4  -4  211.32    7.20
   0   4  -4  210.70    7.30
   0  -4   4  215.51    7.09
   0  -4   4  209.08    6.94
   0  -4   4  227.64    7.40
   0  -4   4  221.71    7.19
   0  -4   4  212.38    7.20
  -1   4  -4   52.43    1.92
  -1   4  -4   54.44    1.86
  -1   4  -4   50.17    1.91
  -1   4  -4   52.21    2.06
   1  -4   4   53.36    1.92
   1  -4   4   53.08    1.74
   1  -4   4   49.07    1.95
   1  -4   4   51.86    2.12
   1  -4   4   54.14    1.91
   1  -4   4   48.01    1.75
  -2   4  -4   84.95    2.84
  -2   4  -4   73.52    2.97
  -2   4  -4   77.06    2.71
  -2   4  -4   75.17    2.80
   2  -4   4   80.25    2.68
   2  -4   4   84.42    3.00
   2  -4   4   81.32    2.71
   2  -4   4   75.48    2.79
  -3   4  -4   21.17    1.01
  -3   4  -4   20.38    1.15
  -3   4  -4   20.62    1.05
  -3   4  -4   20.79    0.97
   3  -4   4   20.20    0.91
   3  -4   4   21.26    1.09
   3  -4   4   19.78    1.11
   3  -4   4   21.70    1.00
   3  -4   4   21.66    0.79
  -4   4  -4  106.31    3.72
  -4   4  -4   93.23    3.70
  -4   4  -4   99.09    3.58
   4  -4   4  100.90    3.63
   4  -4   4   95.96    3.52
   4  -4   4  102.43    3.65
   4  -4   4   96.86    3.53
  -5   4  -4   43.13    1.85
  -5   4  -4   40.25    1.85
  -5   4  -4   38.87    1.87
  -5   4  -4   38.10    1.88
   5  -4   4   37.86    1.75
   5  -4   4   39.14    1.81
   5  -4   4   39.22    1.70
   5  -4   4   40.46    1.80
   5  -4   4   38.34    1.86
  -6   4  -4   58.88    2.75
  -6   4  -4   62.64    2.76
  -6   4  -4   65.28    2.75
  -6   4  -4   66.26    2.79
   6  -4   4   63.58    2.72
   6  -4   4   63.88    2.65
   6  -4   4   65.98    2.71
   6  -4   4   64.86    2.69
   6  -4   4   63.47    2.55
  -7   4  -4   56.27    2.64
  -7   4  -4   53.64    2.63
  -7   4  -4   53.20    2.57
  -7   4  -4   51.51    2.58
   7  -4   4   52.54    2.45
   7  -4   4   56.86    2.59
   7  -4   4   53.98    2.35
   7  -4   4   55.59    2.36
   7  -4   4   53.82    2.55
  -8   4  -4   53.57    2.82
  -8   4  -4   63.72    3.01
  -8   4  -4   55.44    2.95
   8  -4   4   59.05    2.55
   8  -4   4   55.14    2.62
   8  -4   4   58.37    2.59
   8  -4   4   57.05    2.89
  -9   4  -4   24.06    2.19
  -9   4  -4   18.51    1.72
  -9   4  -4   20.56    2.34
   9  -4   4   18.06    1.73
   9  -4   4   18.17    1.52
   9  -4   4   19.54    2.22
   9  -4   4   19.48    1.72
   7   3  -4   66.20    3.60
   7   3  -4   66.42    3.03
   7   3  -4   68.77    3.37
  -7  -3   4   72.17    2.86
  -7  -3   4   70.91    3.40
  -7  -3   4   66.18    3.09
  -7  -3   4   72.13    3.64
   6   3  -4   13.82    0.85
   6   3  -4   12.13    1.56
   6   3  -4   14.22    1.21
   6   3  -4   15.01    0.76
   6   3  -4   16.59    1.56
  -6  -3   4   14.81    1.32
  -6  -3   4   13.73    1.55
  -6  -3   4   13.63    1.40
  -6  -3   4   14.91    1.05
  -6  -3   4   16.35    1.57
   5   3  -4   39.76    1.97
   5   3  -4   42.30    2.13
   5   3  -4   43.82    2.20
   5   3  -4   41.46    1.67
   5   3  -4   44.98    2.14
  -5  -3   4   44.30    1.97
  -5  -3   4   43.08    2.06
  -5  -3   4   43.48    2.21
  -5  -3   4   44.67    2.02
   4   3  -4   24.11    1.47
   4   3  -4   23.04    1.31
   4   3  -4   25.08    1.08
   4   3  -4   24.26    1.39
   4   3  -4   21.78    1.35
  -4  -3   4   23.98    1.46
  -4  -3   4   24.94    1.36
  -4  -3   4   25.49    1.07
  -4  -3   4   25.23    1.25
  -4  -3   4   26.24    1.30
   3   3  -4   74.80    2.86
   3   3  -4   74.66    2.90
   3   3  -4   78.57    2.96
   3   3  -4   73.65    2.67
  -3  -3   4   76.23    2.90
  -3  -3   4   78.98    2.58
  -3  -3   4   77.12    2.87
  -3  -3   4   78.00    2.71
  -3  -3   4   77.34    2.78
   2   3  -4   94.56    3.29
   2   3  -4   90.69    3.42
   2   3  -4   94.22    3.44
   2   3  -4   99.27    3.44
   2   3  -4   93.10    3.23
  -2  -3   4   95.40    3.45
  -2  -3   4   95.85    3.47
  -2  -3   4   97.02    3.24
  -2  -3   4   90.17    3.25
  -2  -3   4   95.03    3.39
   1   3  -4  112.78    3.84
   1   3  -4  107.99    3.63
   1   3  -4  115.08    3.85
   1   3  -4  111.48    3.86
   1   3  -4  111.53    3.70
  -1  -3   4  104.20    3.72
  -1  -3   4  112.40    3.60
  -1  -3   4  105.63    3.89
  -1  -3   4  109.69    3.80
  -1  -3   4  105.77    3.82
   0   3  -4   11.71    0.59
   0   3  -4   12.77    0.48
   0   3  -4   11.10    0.63
   0  -3   4   12.21    0.62
   0  -3   4   11.24    0.59
  -1   3  -4  151.48    5.08
  -1   3  -4  146.15    5.29
  -1   3  -4  140.76    5.31
  -1   3  -4  160.82    5.13
  -1   3  -4  172.79    5.10
   1  -3   4  151.67    4.94
   1  -3   4  152.47    5.11
   1  -3   4  156.91    5.07
   1  -3   4  150.24    5.26
  -2   3  -4   64.41    2.21
  -2   3  -4   65.43    2.52
  -2   3  -4   66.83    2.39
  -2   3  -4   66.89    2.29
  -2   3  -4   68.98    2.38
   2  -3   4   68.00    2.51
   2  -3   4   63.99    2.27
   2  -3   4   65.19    2.41
   2  -3   4   65.92    2.22
   2  -3   4   63.18    2.35
  -3   3  -4  284.06    9.94
  -3   3  -4  295.59    9.77
  -3   3  -4  303.51    9.87
   3  -3   4  301.02    9.83
   3  -3   4  310.57    9.90
   3  -3   4  294.01    9.75
  -4   3  -4  160.67    5.41
  -4   3  -4  160.84    5.39
  -4   3  -4  149.85    5.43
  -4   3  -4  145.06    5.49
   4  -3   4  155.42    5.35
   4  -3   4  157.49    5.41
   4  -3   4  157.51    5.50
   4  -3   4  162.38    5.39
   4  -3   4  149.92    5.29
  -5   3  -4  133.76    4.87
  -5   3  -4  133.10    4.94
  -5   3  -4  134.71    4.81
   5  -3   4  131.41    4.84
   5  -3   4  131.54    4.77
   5  -3   4  136.98    4.78
   5  -3   4  130.32    4.64
   5  -3   4  133.60    4.74
  -6   3  -4   31.95    1.85
  -6   3  -4   32.89    1.76
  -6   3  -4   34.88    1.79
  -6   3  -4   32.38    1.76
   6  -3   4   33.52    1.61
   6  -3   4   32.32    1.54
   6  -3   4   32.02    1.73
   6  -3   4   33.87    1.76
   6  -3   4   32.95    1.70
  -7   3  -4   53.51    2.56
  -7   3  -4   53.28    2.62
  -7   3  -4   46.31    2.45
  -7   3  -4   50.46    2.52
   7  -3   4   50.45    2.22
   7  -3   4   52.23    2.52
   7  -3   4   52.02    2.27
   7  -3   4   48.75    2.35
   7  -3   4   52.45    2.48
  -8   3  -4   30.04    2.01
  -8   3  -4   29.96    2.27
  -8   3  -4   33.22    2.21
   8  -3   4   32.71    1.86
   8  -3   4   30.57    2.21
   8  -3   4   32.97    1.85
   8  -3   4   33.04    1.77
   7   2  -4   18.69    1.33
   7   2  -4   17.24    1.36
   7   2  -4   17.97    1.14
   7   2  -4   20.54    1.86
   7   2  -4   19.97    1.70
  -7  -2   4   19.21    1.91
  -7  -2   4   18.45    1.28
  -7  -2   4   23.83    1.81
  -7  -2   4   18.27    1.80
  -7  -2   4   19.68    1.48
   6   2  -4   77.02    2.97
   6   2  -4   75.23    3.05
   6   2  -4   79.33    3.33
   6   2  -4   77.45    3.22
  -6  -2   4   81.49    3.20
  -6  -2   4   75.95    3.37
  -6  -2   4   78.61    3.04
  -6  -2   4   78.80    2.98
  -6  -2   4   79.27    3.21
   5   2  -4   54.16    2.41
   5   2  -4   56.65    2.20
   5   2  -4   56.59    2.44
   5   2  -4   52.41    2.23
   5   2  -4   56.58    2.39
  -5  -2   4   55.08    2.21
  -5  -2   4   57.80    2.33
  -5  -2   4   56.00    2.15
  -5  -2   4   54.58    2.32
  -5  -2   4   48.57    2.62
   4   2  -4  102.80    3.92
   4   2  -4  109.89    3.85
   4   2  -4  104.61    3.80
   4   2  -4  112.62    4.02
   4   2  -4  105.91    3.95
  -4  -2   4  111.65    3.93
  -4  -2   4  108.77    3.82
  -4  -2   4  112.95    3.73
  -4  -2   4  101.23    4.00
  -4  -2   4  105.87    3.78
  -4  -2   4  112.19    3.88
   3   2  -4   74.09    2.59
   3   2  -4   64.20    2.63
   3   2  -4   67.64    2.57
   3   2  -4   74.02    2.59
   3   2  -4   71.18    2.68
  -3  -2   4   70.16    2.54
  -3  -2   4   71.23    2.63
  -3  -2   4   64.22    2.66
  -3  -2   4   67.29    2.59
  -3  -2   4   72.26    2.54
  -3  -2   4   71.37    2.42
  -3  -2   4   69.07    2.53
   2   2  -4  612.37   20.20
   2   2  -4  650.95   20.34
   2   2  -4  611.81   20.33
   2   2  -4  628.17   20.27
   2   2  -4  640.21   20.26
  -2  -2   4  647.38   20.35
  -2  -2   4  625.45   20.31
  -2  -2   4  620.72   20.25
  -2  -2   4  650.60   20.10
  -2  -2   4  632.07   20.31
  -2  -2   4  609.33   20.17
   1   2  -4   71.08    2.46
   1   2  -4   69.38    2.43
   1   2  -4   70.30    2.45
   1   2  -4   68.18    2.47
   1   2  -4   69.82    2.29
  -1  -2   4   69.39    2.28
  -1  -2   4   65.40    2.44
  -1  -2   4   69.32    2.50
  -1  -2   4   65.34    2.44
  -1  -2   4   69.39    2.44
   0   2  -4  277.77    9.02
   0   2  -4  274.36    9.09
   0   2  -4  281.01    8.99
   0   2  -4  300.77    8.93
   0   2  -4  274.62    8.98
   0   2  -4  268.30    8.98
   0  -2   4  261.30    8.96
   0  -2   4  274.82    8.99
   0  -2   4  272.24    9.08
   0  -2   4  278.49    8.97
  -1   2  -4   58.69    1.97
  -1   2  -4   53.69    1.85
  -1   2  -4   50.64    2.04
  -1   2  -4   53.35    1.87
   1  -2   4   53.80    1.94
   1  -2   4   54.83    1.87
   1  -2   4   52.61    2.04
   1  -2   4   54.85    1.85
  -2   2  -4  341.20   11.09
  -2   2  -4  337.94   11.26
  -2   2  -4  326.37   10.94
  -2   2  -4  360.09   11.19
  -2   2  -4  348.10   11.11
   2  -2   4  336.59   11.10
   2  -2   4  339.06   11.21
   2  -2   4  347.71   11.09
   2  -2   4  338.03   10.92
   2  -2   4  346.43   11.13
  -3   2  -4   91.87    3.26
  -3   2  -4   92.93    3.20
  -3   2  -4   87.48    3.23
  -3   2  -4   91.74    3.32
  -3   2  -4   88.94    3.39
   3  -2   4   98.35    3.42
   3  -2   4   91.21    3.24
   3  -2   4   90.28    3.19
   3  -2   4   91.25    3.25
   3  -2   4   89.67    3.30
  -4   2  -4   90.49    3.27
  -4   2  -4   81.63    3.38
  -4   2  -4   85.00    3.21
  -4   2  -4   90.94    3.32
   4  -2   4   88.01    3.13
   4  -2   4   91.31    3.25
   4  -2   4   86.72    3.32
   4  -2   4   90.49    3.23
   4  -2   4   84.42    3.24
  -5   2  -4   37.20    1.99
  -5   2  -4   40.20    1.41
  -5   2  -4   41.03    1.38
  -5   2  -4   45.01    1.94
  -5   2  -4   40.62    1.85
  -5   2  -4   38.55    1.89
   5  -2   4   42.54    1.91
   5  -2   4   39.65    1.69
   5  -2   4   41.98    1.92
   5  -2   4   39.79    1.79
   5  -2   4   42.96    1.86
  -6   2  -4  161.78    5.32
  -6   2  -4  161.32    5.28
  -6   2  -4  168.11    5.90
  -6   2  -4  161.16    6.07
  -6   2  -4  157.72    5.95
  -6   2  -4  165.73    5.95
   6  -2   4  161.54    5.73
   6  -2   4  173.37    5.88
   6  -2   4  165.68    5.65
   6  -2   4  154.17    5.86
  -7   2  -4   10.02    0.64
  -7   2  -4   10.26    1.31
  -7   2  -4   11.17    0.54
  -7   2  -4   11.33    1.46
  -7   2  -4   12.70    1.69
  -7   2  -4   10.58    1.14
   7  -2   4   10.71    1.14
   7  -2   4    8.73    0.97
   7  -2   4   11.10    1.10
   7  -2   4   11.83    1.33
   7  -2   4   11.19    1.17
  -8   2  -4   82.18    3.90
  -8   2  -4   82.37    3.95
  -8   2  -4   86.71    3.85
   8  -2   4   83.32    3.62
   8  -2   4   90.23    4.02
   8  -2   4   91.54    3.43
   8  -2   4   79.18    3.46
   8  -2   4   87.86    3.66
   8   1  -4   38.50    2.24
   8   1  -4   34.96    1.84
   8   1  -4   37.71    1.86
   8   1  -4   36.86    2.66
  -8  -1   4   34.90    1.92
  -8  -1   4   34.02    2.56
  -8  -1   4   37.39    2.03
   7   1  -4   87.06    3.62
   7   1  -4   90.91    3.87
   7   1  -4   93.56    3.52
   7   1  -4   87.65    3.40
  -7  -1   4   87.87    3.41
  -7  -1   4   95.27    3.64
  -7  -1   4   82.67    3.83
  -7  -1   4   94.57    3.44
  -7  -1   4   91.42    3.74
  -7  -1   4   89.69    3.50
   6   1  -4   45.07    2.16
   6   1  -4   44.23    1.88
   6   1  -4   44.42    2.10
   6   1  -4   45.83    2.00
   6   1  -4   43.24    2.20
  -6  -1   4   46.12    2.06
  -6  -1   4   47.96    1.97
  -6  -1   4   47.63    2.13
  -6  -1   4   41.98    2.25
  -6  -1   4   43.43    1.87
   5   1  -4  107.16    4.12
   5   1  -4  110.75    4.13
   5   1  -4  112.86    4.00
   5   1  -4  111.70    4.08
   5   1  -4  114.22    3.91
  -5  -1   4  110.61    4.30
  -5  -1   4  111.61    4.03
  -5  -1   4  105.43    4.16
  -5  -1   4  114.76    3.96
  -5  -1   4  112.52    3.88
   4   1  -4   10.33    0.78
   4   1  -4    9.92    0.75
   4   1  -4   10.34    0.65
   4   1  -4   10.01    0.77
   4   1  -4   10.38    0.75
  -4  -1   4   11.36    0.86
  -4  -1   4   10.31    0.76
  -4  -1   4   11.17    0.67
  -4  -1   4   10.88    0.61
  -4  -1   4   11.42    0.70
  -4  -1   4   11.16    0.74
  -4  -1   4   10.54    0.74
   3   1  -4  109.12    3.77
   3   1  -4  114.46    3.66
   3   1  -4  102.11    3.77
   3   1  -4  104.85    3.78
   3   1  -4  102.96    3.73
  -3  -1   4  110.14    3.69
  -3  -1   4  106.33    3.62
  -3  -1   4  106.52    3.66
  -3  -1   4  110.10    3.78
  -3  -1   4  108.75    3.77
  -3  -1   4  112.02    3.73
  -3  -1   4  102.34    3.82
   2   1  -4  116.13    3.92
   2   1  -4  112.86    3.99
   2   1  -4  121.12    3.89
   2   1  -4  118.40    4.01
   2   1  -4  118.22    3.98
  -2  -1   4  111.39    3.99
  -2  -1   4  115.53    3.90
  -2  -1   4  114.54    3.99
  -2  -1   4  113.22    3.98
  -2  -1   4  122.43    3.90
  -2  -1   4  115.59    3.93
   1   1  -4  250.65    8.16
   1   1  -4  251.87    8.08
   1   1  -4  247.21    8.14
   1   1  -4  244.02    8.12
   1   1  -4  231.70    8.01
  -1  -1   4  256.41    8.13
  -1  -1   4  250.36    8.09
  -1  -1   4  249.27    8.13
  -1  -1   4  256.10    8.17
   0   1  -4   34.98    1.28
   0   1  -4   32.73    1.18
   0   1  -4   31.77    1.25
   0   1  -4   32.33    1.22
   0   1  -4   30.18    1.27
   0  -1   4   32.81    1.29
   0  -1   4   32.18    1.20
   0  -1   4   30.76    1.24
   0  -1   4   30.49    1.15
  -1   1  -4   61.26    2.16
  -1   1  -4   60.99    2.16
  -1   1  -4   56.27    2.26
  -1   1  -4   64.44    2.25
  -1   1  -4   59.98    2.09
   1  -1   4   60.25    2.25
   1  -1   4   59.59    2.16
   1  -1   4   61.20    2.07
   1  -1   4   64.33    2.13
   1  -1   4   64.39    2.29
   1  -1   4   61.13    2.16
  -2   1  -4   82.40    3.12
  -2   1  -4   85.44    2.90
  -2   1  -4   80.58    3.06
  -2   1  -4   84.79    2.79
  -2   1  -4   83.60    2.97
  -2   1  -4   87.69    2.90
   2  -1   4   88.11    2.91
   2  -1   4   80.50    2.89
   2  -1   4   85.15    2.97
   2  -1   4   81.81    3.21
   2  -1   4   80.46    3.01
  -3   1  -4  284.52    9.21
  -3   1  -4  277.24    9.01
  -3   1  -4  264.70    8.85
  -3   1  -4  274.70    8.88
  -3   1  -4  262.77    9.23
  -3   1  -4  279.82    9.16
  -3   1  -4  274.40    9.06
   3  -1   4  276.77    9.15
   3  -1   4  274.22    9.22
   3  -1   4  275.22    9.01
   3  -1   4  278.99    9.07
   3  -1   4  281.04    9.17
  -4   1  -4   35.60    1.63
  -4   1  -4   37.12    1.64
  -4   1  -4   34.05    1.30
  -4   1  -4   32.19    1.68
  -4   1  -4   33.07    1.51
  -4   1  -4   34.16    1.26
   4  -1   4   35.22    1.57
   4  -1   4   34.13    1.42
   4  -1   4   35.61    1.63
   4  -1   4   33.81    1.64
   4  -1   4   37.14    1.58
  -5   1  -4  155.25    5.47
  -5   1  -4  155.90    5.02
  -5   1  -4  143.14    5.49
  -5   1  -4  148.78    5.44
  -5   1  -4  151.70    5.33
   5  -1   4  149.83    5.15
   5  -1   4  139.59    5.39
   5  -1   4  150.80    5.31
   5  -1   4  148.51    5.46
   5  -1   4  158.81    5.38
  -6   1  -4   39.13    1.95
  -6   1  -4   36.05    1.93
  -6   1  -4   37.79    1.52
  -6   1  -4   38.98    2.06
  -6   1  -4   36.39    2.12
   6  -1   4   35.61    1.64
   6  -1   4   37.58    2.07
   6  -1   4   38.07    1.95
   6  -1   4   37.31    1.83
   6  -1   4   36.42    1.92
  -7   1  -4   42.84    2.33
  -7   1  -4   44.17    1.84
  -7   1  -4   47.42    2.61
  -7   1  -4   47.42    2.40
   7  -1   4   44.65    1.98
   7  -1   4   45.16    2.46
   7  -1   4   43.71    2.17
   7  -1   4   44.25    2.52
   7  -1   4   40.93    2.23
  -8   1  -4   17.06    2.31
  -8   1  -4   21.98    1.78
  -8   1  -4   21.55    2.13
   8  -1   4   24.32    2.36
   8  -1   4   23.89    1.57
   8  -1   4   21.43    1.74
   8   0  -4   29.15    2.23
   8   0  -4   27.95    1.81
   8   0  -4   31.52    1.92
   8   0  -4   27.59    1.48
  -8   0   4   28.52    1.45
  -8   0   4   28.04    2.25
  -8   0   4   30.14    1.91
  -8   0   4   25.07    1.46
  -8   0   4   29.54    1.71
   7   0  -4   27.81    1.29
   7   0  -4   28.08    1.73
   7   0  -4   26.72    1.78
   7   0  -4   22.88    1.62
   7   0  -4   27.95    1.60
  -7   0   4   29.00    1.60
  -7   0   4   27.38    1.53
  -7   0   4   25.24    1.29
  -7   0   4   25.19    1.78
  -7   0   4   26.90    1.26
  -7   0   4   28.00    1.74
   6   0  -4   42.96    1.98
   6   0  -4   39.93    2.04
   6   0  -4   43.38    2.01
   6   0  -4   45.31    1.96
  -6   0   4   43.05    2.01
  -6   0   4   42.20    2.15
  -6   0   4   45.82    1.95
  -6   0   4   43.65    1.66
  -6   0   4   43.02    1.92
  -6   0   4   40.00    1.65
   5   0  -4   47.27    1.73
   5   0  -4   46.64    1.98
   5   0  -4   46.46    2.00
   5   0  -4   47.17    2.04
   5   0  -4   48.97    1.99
  -5   0   4   46.00    1.93
  -5   0   4   45.78    2.10
  -5   0   4   45.92    1.71
  -5   0   4   46.25    1.99
  -5   0   4   48.45    2.01
  -5   0   4   43.38    1.70
  -5   0   4   49.26    1.95
   4   0  -4  202.60    6.64
   4   0  -4  191.24    6.59
   4   0  -4  190.50    6.58
   4   0  -4  203.62    6.37
   4   0  -4  182.95    6.61
  -4   0   4  193.79    6.34
  -4   0   4  194.44    6.65
  -4   0   4  200.55    6.59
  -4   0   4  192.92    6.36
  -4   0   4  204.50    6.58
  -4   0   4  185.56    6.67
  -4   0   4  198.40    6.62
   3   0  -4   89.03    3.03
   3   0  -4   77.36    3.02
   3   0  -4   83.07    3.07
   3   0  -4   84.81    3.04
   3   0  -4   88.45    2.83
  -3   0   4   86.17    3.04
  -3   0   4   88.28    2.86
  -3   0   4   86.73    3.02
  -3   0   4   81.90    3.07
  -3   0   4   84.88    3.01
  -3   0   4   86.72    3.12
   2   0  -4  108.40    4.06
   2   0  -4  121.08    4.02
   2   0  -4  116.13    4.05
   2   0  -4  120.63    4.13
   2   0  -4  121.51    3.97
  -2   0   4  123.13    4.09
  -2   0   4  119.90    4.07
  -2   0   4  125.80    4.09
  -2   0   4  119.44    4.15
  -2   0   4  123.94    3.97
   1   0  -4   45.35    1.75
   1   0  -4   45.80    1.58
   1   0  -4   45.33    1.67
   1   0  -4   46.00    1.70
  -1   0   4   45.77    1.61
  -1   0   4   47.64    1.69
  -1   0   4   45.10    1.76
  -1   0   4   48.69    1.69
  -1   0   4   46.76    1.69
   0   0  -4  218.91    6.93
   0   0  -4  214.68    6.90
   0   0  -4  209.77    6.92
   0   0  -4  205.14    6.83
   0   0   4  209.26    6.93
   0   0   4  209.64    6.82
   0   0   4  200.99    6.91
   0   0   4  202.72    6.90
   0   0   4  224.39    6.95
   0   0   4  200.80    6.71
  -1   0  -4  244.40    7.61
  -1   0  -4  225.01    7.53
  -1   0  -4  227.01    7.57
  -1   0  -4  222.60    7.43
  -1   0  -4  216.87    7.37
  -1   0  -4  225.61    7.35
   1   0   4  215.71    7.45
   1   0   4  237.74    7.60
   1   0   4  220.44    7.52
   1   0   4  236.82    7.56
   1   0   4  230.96    7.36
  -2   0  -4  116.94    4.22
  -2   0  -4  125.10    4.27
  -2   0  -4  120.96    4.27
  -2   0  -4  118.67    4.05
  -2   0  -4  121.45    4.01
  -2   0  -4  122.26    4.06
   2   0   4  121.73    4.09
   2   0   4  118.93    4.23
   2   0   4  129.33    4.32
   2   0   4  118.50    4.07
   2   0   4  115.78    4.22
  -3   0  -4   53.81    2.17
  -3   0  -4   50.98    1.92
  -3   0  -4   54.48    2.18
  -3   0  -4   52.93    1.93
  -3   0  -4   53.93    2.01
  -3   0  -4   52.91    2.21
   3   0   4   50.27    1.93
   3   0   4   52.79    2.20
   3   0   4   54.13    2.13
   3   0   4   52.78    2.05
   3   0   4   52.52    2.18
  -4   0  -4   99.09    3.60
  -4   0  -4   93.08    3.78
  -4   0  -4  101.05    3.76
  -4   0  -4   98.66    3.46
  -4   0  -4  103.85    3.79
   4   0   4   98.65    3.79
   4   0   4   97.31    3.47
   4   0   4  103.32    3.68
   4   0   4  102.99    3.70
   4   0   4   96.86    3.78
  -5   0  -4   36.44    1.87
  -5   0  -4   39.73    1.81
  -5   0  -4   36.30    1.99
  -5   0  -4   38.11    1.58
  -5   0  -4   41.45    1.99
   5   0   4   35.87    1.85
   5   0   4   39.19    1.81
   5   0   4   38.11    1.92
   5   0   4   33.64    2.33
   5   0   4   36.90    1.57
  -6   0  -4   61.25    2.74
  -6   0  -4   63.16    2.41
  -6   0  -4   58.84    2.76
  -6   0  -4   64.17    2.94
  -6   0  -4   59.20    2.93
   6   0   4   58.92    2.76
   6   0   4   64.07    2.95
   6   0   4   60.12    2.66
   6   0   4   61.24    2.74
   6   0   4   60.32    2.37
  -7   0  -4   41.91    2.41
  -7   0  -4   43.49    1.96
  -7   0  -4   39.59    2.25
  -7   0  -4   39.32    2.58
   7   0   4   42.37    2.27
   7   0   4   42.68    2.02
   7   0   4   41.31    2.62
   7   0   4   35.56    2.16
   7   0   4   39.51    2.46
   7   0   4   38.41    1.83
   9  -1  -4   46.34    2.39
   9  -1  -4   41.62    2.74
   9  -1  -4   43.82    2.94
  -9   1   4   35.70    3.07
  -9   1   4   45.37    2.41
  -9   1   4   44.13    2.52
   8  -1  -4   23.12    1.77
   8  -1  -4   22.52    1.55
   8  -1  -4   24.03    1.21
   8  -1  -4   24.55    1.98
  -8   1   4   23.76    2.05
  -8   1   4   22.71    1.59
  -8   1   4   25.90    2.28
  -8   1   4   23.98    1.57
   7  -1  -4   95.11    3.63
   7  -1  -4   94.08    3.72
   7  -1  -4   96.35    3.29
   7  -1  -4   93.21    3.87
   7  -1  -4   98.10    3.76
  -7   1   4   96.37    3.62
  -7   1   4   93.49    4.00
  -7   1   4   92.71    3.72
  -7   1   4   98.37    3.84
   6  -1  -4   45.59    1.67
   6  -1  -4   47.20    2.09
   6  -1  -4   45.81    2.16
   6  -1  -4   45.86    2.08
   6  -1  -4   47.29    2.00
  -6   1   4   45.64    2.11
  -6   1   4   46.45    2.07
  -6   1   4   45.57    2.25
  -6   1   4   49.65    2.01
   5  -1  -4  232.88    8.12
   5  -1  -4  241.84    8.04
   5  -1  -4  242.97    8.09
   5  -1  -4  237.68    8.00
   5  -1  -4  245.70    7.66
  -5   1   4  227.76    8.05
  -5   1   4  231.54    8.13
  -5   1   4  246.92    8.01
  -5   1   4  235.04    8.13
  -5   1   4  243.61    8.22
   4  -1  -4   83.02    3.14
   4  -1  -4   88.21    3.23
   4  -1  -4   90.69    3.25
   4  -1  -4   88.15    3.15
  -4   1   4   90.38    3.22
  -4   1   4   89.36    3.29
  -4   1   4   87.37    3.15
  -4   1   4   85.38    3.24
   3  -1  -4  191.79    6.23
   3  -1  -4  176.81    6.29
   3  -1  -4  185.46    6.28
   3  -1  -4  193.51    6.38
  -3   1   4  190.49    6.41
  -3   1   4  186.75    6.29
  -3   1   4  191.48    6.30
   2  -1  -4   19.79    0.80
   2  -1  -4   20.52    0.91
   2  -1  -4   19.77    0.81
   2  -1  -4   20.15    0.97
  -2   1   4   22.05    0.78
  -2   1   4   20.92    0.80
  -2   1   4   21.57    0.92
  -2   1   4   19.24    1.00
  -2   1   4   19.84    0.84
   1  -1  -4  255.43    8.57
   1  -1  -4  249.11    8.27
   1  -1  -4  254.91    8.46
   1  -1  -4  261.68    8.55
   1  -1  -4  260.33    8.46
  -1   1   4  258.02    8.46
  -1   1   4  261.40    8.47
  -1   1   4  278.07    8.48
  -1   1   4  258.41    8.58
   0  -1  -4  232.05    7.76
   0  -1  -4  244.20    7.85
   0  -1  -4  234.33    7.73
   0  -1  -4  231.43    7.67
   0   1   4  243.95    7.80
   0   1   4  229.74    7.83
   0   1   4  226.19    7.77
   0   1   4  241.13    7.78
  -1  -1  -4  383.24   12.54
  -1  -1  -4  369.63   12.33
  -1  -1  -4  372.97   12.24
  -1  -1  -4  395.62   12.34
  -1  -1  -4  376.69   12.49
  -1  -1  -4  380.38   12.57
   1   1   4  373.30   12.39
   1   1   4  370.80   12.54
   1   1   4  398.18   12.29
   1   1   4  386.11   12.55
   1   1   4  395.35   12.51
  -2  -1  -4   12.56    0.64
  -2  -1  -4   12.77    0.61
  -2  -1  -4   12.19    0.82
  -2  -1  -4   12.85    0.70
  -2  -1  -4   13.55    0.86
  -2  -1  -4   12.36    0.84
   2   1   4   12.28    0.86
   2   1   4   12.60    0.72
   2   1   4   13.47    0.85
   2   1   4   12.66    0.68
   2   1   4   14.16    0.89
  -3  -1  -4  130.02    4.42
  -3  -1  -4  128.95    4.63
  -3  -1  -4  126.39    4.28
  -3  -1  -4  130.74    4.42
  -3  -1  -4  136.89    4.69
  -3  -1  -4  123.78    4.63
   3   1   4  120.95    4.66
   3   1   4  128.67    4.50
   3   1   4  128.12    4.35
   3   1   4  124.44    4.61
   3   1   4  129.42    4.70
  -4  -1  -4   39.28    1.75
  -4  -1  -4   37.64    1.86
  -4  -1  -4   40.93    1.99
  -4  -1  -4   39.19    1.96
  -4  -1  -4   42.19    1.70
   4   1   4   39.21    1.96
   4   1   4   40.70    1.82
   4   1   4   40.35    1.87
   4   1   4   38.36    1.57
   4   1   4   39.70    2.01
  -5  -1  -4   97.09    3.95
  -5  -1  -4  102.86    3.71
  -5  -1  -4  103.88    3.85
  -5  -1  -4  109.55    4.13
  -5  -1  -4   95.74    4.05
   5   1   4   96.81    4.11
   5   1   4   99.58    3.54
   5   1   4  101.08    3.89
   5   1   4   98.51    4.06
   5   1   4  104.64    3.91
  -6  -1  -4   43.61    2.50
  -6  -1  -4   46.65    2.29
  -6  -1  -4   42.09    2.03
  -6  -1  -4   45.51    2.26
   6   1   4   43.25    1.81
   6   1   4   43.05    2.27
   6   1   4   43.09    1.83
   6   1   4   42.09    2.28
   6   1   4   39.92    2.53
   6   1   4   40.31    2.27
  -7  -1  -4   64.18    3.08
  -7  -1  -4   65.58    3.22
  -7  -1  -4   55.67    3.49
   7   1   4   66.57    4.34
   7   1   4   62.14    3.60
   9  -2  -4   25.04    1.71
   9  -2  -4   23.03    2.20
  -9   2   4   23.76    1.80
  -9   2   4   20.71    1.70
  -9   2   4   22.27    2.50
   8  -2  -4   98.13    3.97
   8  -2  -4   94.17    3.94
   8  -2  -4   98.20    4.10
   8  -2  -4  102.63    3.76
  -8   2   4   96.05    3.95
  -8   2   4   94.72    4.25
  -8   2   4   94.36    3.72
  -8   2   4   95.33    4.03
   7  -2  -4   20.90    1.48
   7  -2  -4   22.04    1.47
   7  -2  -4   20.17    1.36
   7  -2  -4   21.18    1.22
  -7   2   4   21.09    1.45
  -7   2   4   18.81    1.33
  -7   2   4   18.70    1.25
  -7   2   4   20.41    1.67
   6  -2  -4  115.75    4.15
   6  -2  -4  108.24    4.24
   6  -2  -4  112.00    4.22
   6  -2  -4  112.38    4.06
  -6   2   4  112.46    4.22
  -6   2   4  108.49    4.27
  -6   2   4  111.53    4.34
  -6   2   4  123.40    4.30
   5  -2  -4   30.94    1.57
   5  -2  -4   33.59    1.48
   5  -2  -4   34.52    1.77
   5  -2  -4   33.44    1.51
  -5   2   4   32.34    1.63
  -5   2   4   35.32    1.53
  -5   2   4   35.74    1.62
  -5   2   4   33.46    1.66
   4  -2  -4  281.56    8.83
   4  -2  -4  254.53    8.67
   4  -2  -4  242.81    8.74
   4  -2  -4  262.17    8.64
  -4   2   4  255.27    8.84
  -4   2   4  272.03    8.70
  -4   2   4  256.75    8.72
  -4   2   4  271.41    8.83
   3  -2  -4   76.26    2.76
   3  -2  -4   72.20    2.81
   3  -2  -4   77.90    2.57
   3  -2  -4   78.22    2.67
   3  -2  -4   81.54    2.89
  -3   2   4   73.76    2.74
  -3   2   4   81.92    2.91
  -3   2   4   76.82    2.92
  -3   2   4   74.80    2.71
   2  -2  -4   61.94    2.16
   2  -2  -4   62.54    2.09
   2  -2  -4   61.70    2.33
   2  -2  -4   59.24    2.23
  -2   2   4   61.19    2.10
  -2   2   4   63.61    2.26
  -2   2   4   59.12    2.37
  -2   2   4   61.29    2.38
  -2   2   4   61.75    2.17
  -2   2   4   65.79    2.17
   1  -2  -4   40.56    1.55
   1  -2  -4   40.84    1.61
   1  -2  -4   37.82    1.53
   1  -2  -4   38.78    1.70
  -1   2   4   41.43    1.68
  -1   2   4   39.10    1.56
  -1   2   4   44.19    1.61
   0  -2  -4  287.26    9.81
   0  -2  -4  290.72    9.73
   0  -2  -4  315.23    9.97
   0  -2  -4  290.79    9.74
   0   2   4  302.34    9.97
   0   2   4  302.45    9.89
   0   2   4  298.57    9.83
   0   2   4  302.76    9.85
  -1  -2  -4   29.72    1.27
  -1  -2  -4   31.05    1.21
  -1  -2  -4   32.01    1.43
  -1  -2  -4   31.78    1.17
  -1  -2  -4   32.33    1.50
  -1  -2  -4   29.45    1.47
   1   2   4   33.05    1.45
   1   2   4   31.33    1.49
   1   2   4   31.38    1.32
   1   2   4   30.23    1.51
   1   2   4   32.45    1.17
  -2  -2  -4  172.04    5.94
  -2  -2  -4  166.37    5.60
  -2  -2  -4  167.11    5.51
  -2  -2  -4  159.94    5.85
  -2  -2  -4  169.45    5.90
  -2  -2  -4  173.85    5.74
   2   2   4  171.67    5.63
   2   2   4  164.16    5.96
   2   2   4  163.13    5.95
   2   2   4  162.62    5.63
   2   2   4  177.11    5.90
  -3  -2  -4   46.62    1.63
  -3  -2  -4   47.13    2.15
  -3  -2  -4   47.35    1.86
  -3  -2  -4   46.14    2.06
  -3  -2  -4   42.62    2.07
  -3  -2  -4   46.16    1.90
   3   2   4   48.57    2.08
   3   2   4   42.28    2.11
   3   2   4   43.50    1.73
   3   2   4   45.68    1.90
   3   2   4   44.42    2.17
  -4  -2  -4  127.42    4.80
  -4  -2  -4  126.17    4.52
  -4  -2  -4  124.92    4.79
  -4  -2  -4  126.30    4.51
  -4  -2  -4  123.23    4.69
   4   2   4  125.67    4.25
   4   2   4  128.04    4.70
   4   2   4  120.68    4.81
   4   2   4  120.71    4.85
   4   2   4  128.36    4.57
  -5  -2  -4   26.32    1.93
  -5  -2  -4   22.52    1.61
  -5  -2  -4   22.33    1.77
  -5  -2  -4   23.05    1.48
  -5  -2  -4   22.65    1.43
   5   2   4   24.04    1.69
   5   2   4   20.87    1.81
   5   2   4   19.16    1.56
   5   2   4   21.36    1.64
  -6  -2  -4   51.07    2.59
  -6  -2  -4   53.52    3.07
  -6  -2  -4   55.17    2.67
  -6  -2  -4   56.23    2.67
   6   2   4   48.24    2.78
   6   2   4   52.81    3.11
   6   2   4   58.20    2.91
   9  -3  -4   39.63    2.13
   9  -3  -4   40.09    2.61
  -9   3   4   37.00    2.93
  -9   3   4   44.81    2.26
  -9   3   4   39.14    2.30
   8  -3  -4   15.36    1.49
   8  -3  -4   12.42    1.47
   8  -3  -4   13.87    1.15
   8  -3  -4   11.43    1.33
  -8   3   4   16.36    1.85
  -8   3   4   12.38    1.22
  -8   3   4   16.69    1.32
   7  -3  -4   57.90    2.59
   7  -3  -4   52.49    2.55
   7  -3  -4   55.03    2.29
   7  -3  -4   54.94    2.45
  -7   3   4   55.67    2.55
  -7   3   4   57.40    2.40
   6  -3  -4   68.45    2.67
   6  -3  -4   71.03    2.86
   6  -3  -4   66.84    2.60
   6  -3  -4   64.64    2.82
  -6   3   4   66.09    2.85
  -6   3   4   67.01    2.84
   5  -3  -4   62.37    2.56
   5  -3  -4   63.70    2.37
   5  -3  -4   59.24    2.52
   5  -3  -4   62.64    2.38
  -5   3   4   63.59    2.39
  -5   3   4   59.38    2.56
  -5   3   4   59.67    2.48
   4  -3  -4   80.18    2.65
   4  -3  -4   74.64    3.01
   4  -3  -4   83.23    3.07
   4  -3  -4   80.07    2.83
   4  -3  -4   77.91    2.89
   4  -3  -4   78.80    2.63
  -4   3   4   77.59    3.09
  -4   3   4   78.82    2.90
  -4   3   4   79.81    3.11
  -4   3   4   85.61    2.93
   3  -3  -4  149.47    5.28
   3  -3  -4  165.16    5.45
   3  -3  -4  149.49    5.14
   3  -3  -4  153.45    5.16
  -3   3   4  151.92    5.30
  -3   3   4  166.59    5.17
  -3   3   4  155.91    5.20
  -3   3   4  157.15    5.48
  -3   3   4  158.62    5.50
   2  -3  -4   54.87    2.10
   2  -3  -4   56.94    1.92
   2  -3  -4   52.71    2.04
   2  -3  -4   56.93    2.20
   2  -3  -4   56.71    2.32
  -2   3   4   60.61    2.14
  -2   3   4   54.28    2.23
  -2   3   4   59.75    2.32
  -2   3   4   55.56    2.08
   1  -3  -4  204.11    6.98
   1  -3  -4  201.05    6.50
   1  -3  -4  204.03    6.50
   1  -3  -4  208.61    6.79
   1  -3  -4  193.90    6.75
   1  -3  -4  191.93    6.72
  -1   3   4  207.90    6.86
  -1   3   4  205.57    6.83
  -1   3   4  204.47    6.81
   0  -3  -4   36.13    1.51
   0  -3  -4   38.65    1.48
   0  -3  -4   35.06    1.58
   0  -3  -4   39.64    1.76
   0  -3  -4   34.95    1.32
   0   3   4   36.76    1.53
   0   3   4   37.50    1.64
   0   3   4   38.72    1.72
  -1  -3  -4  138.73    4.54
  -1  -3  -4  133.43    4.83
  -1  -3  -4  133.98    4.91
  -1  -3  -4  138.75    4.95
  -1  -3  -4  134.25    4.52
  -1  -3  -4  129.23    4.74
   1   3   4  132.70    4.59
   1   3   4  136.59    4.51
   1   3   4  135.65    5.00
   1   3   4  145.67    4.89
   1   3   4  134.95    4.95
  -2  -3  -4   61.90    2.56
  -2  -3  -4   60.28    2.07
  -2  -3  -4   60.04    2.44
  -2  -3  -4   58.44    2.25
  -2  -3  -4   58.46    2.54
  -2  -3  -4   62.07    2.64
   2   3   4   62.61    2.26
   2   3   4   61.92    2.73
   2   3   4   58.92    2.14
   2   3   4   61.12    2.56
   2   3   4   59.74    2.66
  -3  -3  -4   27.92    1.53
  -3  -3  -4   30.15    1.62
  -3  -3  -4   30.20    1.72
  -3  -3  -4   28.88    1.77
  -3  -3  -4   31.29    1.43
   3   3   4   28.17    1.75
   3   3   4   31.21    1.47
   3   3   4   31.76    1.72
   3   3   4   28.94    1.84
  -4  -3  -4   31.52    1.62
  -4  -3  -4   31.14    1.96
  -4  -3  -4   30.87    1.74
  -4  -3  -4   33.87    2.10
  -4  -3  -4   28.40    1.71
   4   3   4   28.23    2.07
   4   3   4   27.43    1.89
   4   3   4   31.20    1.69
   4   3   4   31.25    1.98
  -5  -3  -4   41.61    2.13
  -5  -3  -4   39.28    2.11
  -5  -3  -4   35.99    2.52
  -5  -3  -4   38.67    2.28
   5   3   4   39.92    2.70
   5   3   4   40.08    2.21
   5   3   4   36.82    2.35
   9  -4  -4   43.33    2.14
   9  -4  -4   40.06    2.59
  -9   4   4   46.79    3.21
  -9   4   4   43.58    2.35
  -9   4   4   42.90    2.47
   8  -4  -4   94.19    3.51
   8  -4  -4   88.91    3.91
   8  -4  -4   89.98    3.75
   8  -4  -4   96.25    4.06
  -8   4   4   95.60    3.62
  -8   4   4   91.44    3.90
  -8   4   4   83.65    3.99
   7  -4  -4   53.96    2.60
   7  -4  -4   54.98    2.38
   7  -4  -4   55.32    2.24
   7  -4  -4   51.25    2.51
  -7   4   4   47.55    2.63
  -7   4   4   53.43    2.29
  -7   4   4   52.08    2.53
   6  -4  -4  154.66    5.50
   6  -4  -4  125.19    6.03
   6  -4  -4  151.01    5.21
   6  -4  -4  154.30    5.25
  -6   4   4  156.98    5.25
  -6   4   4  149.85    5.41
  -6   4   4  148.12    5.53
   5  -4  -4   34.54    1.80
   5  -4  -4   40.56    1.64
   5  -4  -4   42.58    1.94
   5  -4  -4   36.95    1.63
  -5   4   4   36.61    1.89
  -5   4   4   37.97    1.72
   4  -4  -4   67.91    2.56
   4  -4  -4   66.44    2.37
   4  -4  -4   71.90    2.76
   4  -4  -4   68.12    2.47
   4  -4  -4   66.09    2.72
  -4   4   4   66.98    2.81
  -4   4   4   69.87    2.39
   3  -4  -4   43.34    1.57
   3  -4  -4   39.64    1.70
   3  -4  -4   43.35    1.86
   3  -4  -4   40.05    1.61
  -3   4   4   41.67    1.89
  -3   4   4   41.24    1.93
  -3   4   4   45.57    1.69
   2  -4  -4  252.95    8.50
   2  -4  -4  248.60    8.48
   2  -4  -4  253.38    8.84
   2  -4  -4  258.87    8.29
   2  -4  -4  261.93    8.59
   2  -4  -4  244.68    8.27
  -2   4   4  257.47    8.63
  -2   4   4  272.30    8.61
   1  -4  -4   78.27    3.03
   1  -4  -4   82.60    2.78
   1  -4  -4   84.23    3.02
   1  -4  -4   84.59    3.28
   1  -4  -4   80.88    2.77
   1  -4  -4   78.46    2.99
  -1   4   4   84.94    3.21
  -1   4   4   86.19    3.13
  -1   4   4   82.95    3.04
   0  -4  -4   30.00    1.22
   0  -4  -4   30.72    1.41
   0  -4  -4   32.45    1.53
   0  -4  -4   30.90    1.30
   0  -4  -4   31.95    1.51
   0  -4  -4   32.33    1.68
   0   4   4   31.43    1.35
   0   4   4   32.87    1.60
   0   4   4   31.15    1.66
  -1  -4  -4   41.20    2.00
  -1  -4  -4   38.86    1.86
  -1  -4  -4   39.81    1.41
  -1  -4  -4   36.24    1.86
  -1  -4  -4   36.20    1.51
  -1  -4  -4   39.77    1.81
   1   4   4   36.84    1.96
   1   4   4   37.27    1.87
   1   4   4   39.13    1.48
   1   4   4   36.52    2.02
  -2  -4  -4  133.79    4.73
  -2  -4  -4  137.28    5.07
  -2  -4  -4  138.28    5.11
  -2  -4  -4  140.19    5.00
  -2  -4  -4  136.98    5.18
   2   4   4  142.72    5.15
   2   4   4  140.96    4.72
   2   4   4  133.27    5.30
   2   4   4  127.86    5.22
  -3  -4  -4   54.24    2.54
  -3  -4  -4   56.80    2.32
  -3  -4  -4   55.18    2.85
  -3  -4  -4   56.04    2.60
  -3  -4  -4   58.59    2.74
   3   4   4   59.95    2.33
   3   4   4   54.86    2.71
   3   4   4   54.66    2.89
   3   4   4   53.92    2.79
  -4  -4  -4   90.88    3.72
  -4  -4  -4   91.69    4.07
   4   4   4   88.28    4.27
   4   4   4   84.52    4.04
   4   4   4   95.23    3.60
   9  -5  -4   68.05    3.48
   9  -5  -4   68.77    2.86
  -9   5   4   60.79    3.72
   8  -5  -4   28.22    1.58
   8  -5  -4   23.61    1.88
   8  -5  -4   28.25    2.05
  -8   5   4   25.64    1.86
  -8   5   4   27.49    2.07
   7  -5  -4   61.64    2.90
   7  -5  -4   59.72    2.56
   7  -5  -4   57.36    2.77
   7  -5  -4   60.20    2.46
  -7   5   4   60.09    2.84
  -7   5   4   52.99    3.16
   6  -5  -4   27.93    1.44
   6  -5  -4   29.30    1.43
   6  -5  -4   25.07    1.63
   6  -5  -4   27.09    1.77
  -6   5   4   29.52    1.75
  -6   5   4   26.66    1.53
   5  -5  -4  118.73    4.04
   5  -5  -4  114.65    4.57
   5  -5  -4  123.00    4.54
   5  -5  -4  122.83    4.23
   5  -5  -4  123.88    4.14
   5  -5  -4  118.19    4.28
  -5   5   4  120.80    4.66
   4  -5  -4   28.31    1.22
   4  -5  -4   27.86    1.25
   4  -5  -4   28.04    1.58
   4  -5  -4   30.15    1.38
  -4   5   4   29.19    1.63
   3  -5  -4  200.17    6.65
   3  -5  -4  196.55    7.29
   3  -5  -4  204.16    6.68
   3  -5  -4  206.24    6.88
   3  -5  -4  202.90    7.20
   3  -5  -4  196.11    6.80
  -3   5   4  205.47    7.19
  -3   5   4  208.12    6.91
   2  -5  -4   67.16    2.90
   2  -5  -4   63.94    2.57
   2  -5  -4   69.58    2.63
   2  -5  -4   65.89    2.34
   2  -5  -4   64.89    2.33
   2  -5  -4   68.69    2.58
  -2   5   4   67.66    2.73
   1  -5  -4  148.51    5.12
   1  -5  -4  152.53    5.45
   1  -5  -4  150.05    5.49
   1  -5  -4  156.18    5.14
   1  -5  -4  159.19    5.33
   1  -5  -4  153.11    5.39
   1  -5  -4  161.62    5.72
  -1   5   4  156.78    5.67
   0  -5  -4   27.01    1.37
   0  -5  -4   26.23    1.15
   0  -5  -4   27.59    1.13
   0  -5  -4   26.59    1.51
   0  -5  -4   25.78    1.63
   0  -5  -4   24.43    1.55
   0  -5  -4   25.72    1.57
   0   5   4   24.24    1.61
  -1  -5  -4   85.13    3.50
  -1  -5  -4   87.59    3.47
  -1  -5  -4   83.46    3.47
  -1  -5  -4   90.49    3.67
  -1  -5  -4   84.88    3.09
   1   5   4   82.48    3.68
  -2  -5  -4   29.08    2.09
  -2  -5  -4   29.89    1.46
  -2  -5  -4   30.70    1.74
  -2  -5  -4   29.16    1.96
  -2  -5  -4   29.13    1.89
   2   5   4   26.75    2.14
   2   5   4   28.22    1.96
   2   5   4   31.13    1.58
  -3  -5  -4   70.53    2.81
  -3  -5  -4   69.76    3.00
  -3  -5  -4   69.01    3.29
   3   5   4   56.51    3.31
   3   5   4   69.16    2.77
   3   5   4   65.61    3.63
   9  -6  -4   25.65    2.72
   9  -6  -4   21.94    1.69
  -9   6   4   25.86    2.68
  -9   6   4   20.30    1.88
   8  -6  -4   60.68    2.86
   8  -6  -4   60.90    3.13
   8  -6  -4   59.77    2.64
  -8   6   4   59.52    3.09
   7  -6  -4   44.51    2.27
   7  -6  -4   47.18    2.52
   7  -6  -4   46.50    2.19
  -7   6   4   45.84    2.51
   6  -6  -4  101.82    3.46
   6  -6  -4   98.27    3.36
   6  -6  -4   87.42    4.18
   6  -6  -4  101.30    3.68
   6  -6  -4  102.33    4.07
   6  -6  -4  102.66    4.05
  -6   6   4   93.94    4.11
   5  -6  -4   21.28    1.27
   5  -6  -4   23.37    1.64
   5  -6  -4   23.22    1.21
   5  -6  -4   24.15    1.09
   5  -6  -4   21.47    1.51
   5  -6  -4   20.55    1.59
  -5   6   4   23.63    1.20
  -5   6   4   21.51    1.54
   4  -6  -4   68.10    3.15
   4  -6  -4   69.56    2.63
   4  -6  -4   70.51    2.95
   4  -6  -4   70.49    2.54
   4  -6  -4   65.21    3.26
   4  -6  -4   69.61    2.58
  -4   6   4   71.17    2.74
  -4   6   4   69.97    3.08
   3  -6  -4   29.72    1.44
   3  -6  -4   29.30    1.23
   3  -6  -4   28.04    1.46
   3  -6  -4   29.89    1.86
   3  -6  -4   28.41    1.61
   3  -6  -4   28.64    1.26
  -3   6   4   29.96    1.57
   2  -6  -4   61.52    2.52
   2  -6  -4   62.00    2.27
   2  -6  -4   59.93    2.55
   2  -6  -4   63.20    2.52
   2  -6  -4   64.52    2.91
   2  -6  -4   63.82    2.69
   2  -6  -4   59.46    2.24
  -2   6   4   62.46    2.75
   1  -6  -4   25.86    1.54
   1  -6  -4   27.13    1.31
   1  -6  -4   27.51    1.67
   1  -6  -4   27.41    1.80
   1  -6  -4   27.16    1.47
   1  -6  -4   25.88    1.18
   1  -6  -4   26.46    1.21
  -1   6   4   25.58    1.73
   0  -6  -4   68.06    3.25
   0  -6  -4   70.78    2.41
   0  -6  -4   67.43    3.06
   0  -6  -4   71.64    3.07
   0  -6  -4   69.40    2.99
   0  -6  -4   65.61    2.82
   0  -6  -4   69.40    2.57
   0   6   4   66.67    3.21
  -1  -6  -4   20.91    1.48
  -1  -6  -4   19.44    1.72
  -1  -6  -4   20.47    1.48
  -1  -6  -4   20.61    1.19
   1   6   4   18.94    1.79
  -2  -6  -4   41.54    2.57
  -2  -6  -4   40.27    2.15
  -2  -6  -4   42.53    1.96
   2   6   4   37.47    2.57
   8  -7  -4   27.17    2.11
   8  -7  -4   23.78    2.27
   8  -7  -4   25.78    1.77
  -8   7   4   24.75    2.00
   7  -7  -4   55.90    2.56
   7  -7  -4   56.53    2.46
   7  -7  -4   53.18    2.06
   7  -7  -4   53.91    2.93
  -7   7   4   54.17    2.93
   6  -7  -4   12.38    1.53
   6  -7  -4   16.91    1.23
   6  -7  -4   13.70    1.21
   6  -7  -4   14.87    1.25
   6  -7  -4   15.05    1.80
   6  -7  -4   15.69    0.94
  -6   7   4   13.04    1.46
   5  -7  -4   90.61    3.33
   5  -7  -4   88.53    4.10
   5  -7  -4   94.33    3.39
   5  -7  -4   89.35    3.36
   5  -7  -4   89.27    3.84
   5  -7  -4   90.04    3.83
   5  -7  -4   95.78    3.65
   5  -7  -4   90.35    3.54
  -5   7   4   95.26    3.48
  -5   7   4   89.19    3.93
   4  -7  -4   64.54    2.94
   4  -7  -4   66.22    3.28
   4  -7  -4   66.63    2.52
   4  -7  -4   62.85    2.93
   4  -7  -4   66.68    2.74
   4  -7  -4   64.28    2.46
   4  -7  -4   66.43    2.66
  -4   7   4   66.53    2.79
   3  -7  -4   61.61    2.86
   3  -7  -4   60.98    2.61
   3  -7  -4   63.57    2.71
   3  -7  -4   59.80    2.59
   3  -7  -4   58.82    2.33
   3  -7  -4   60.41    3.16
   3  -7  -4   62.38    2.30
  -3   7   4   62.94    2.78
   2  -7  -4   33.33    1.88
   2  -7  -4   32.39    1.48
   2  -7  -4   37.25    2.43
   2  -7  -4   35.58    1.77
   2  -7  -4   36.55    1.85
   2  -7  -4   37.18    1.56
  -2   7   4   34.06    2.05
   1  -7  -4   54.86    2.16
   1  -7  -4   57.35    2.21
   1  -7  -4   55.98    2.07
   1  -7  -4   53.62    2.64
   1  -7  -4   53.46    2.16
   1  -7  -4   51.83    2.51
  -1   7   4   56.68    2.93
   0  -7  -4   52.51    2.51
   0  -7  -4   50.24    2.54
   0  -7  -4   50.61    2.12
   0  -7  -4   49.29    2.71
   0   7   4   50.92    2.94
   7  -8  -4   33.01    1.94
   7  -8  -4   28.77    2.42
  -7   8   4   25.74    2.15
   6  -8  -4   51.69    2.22
   6  -8  -4   53.28    2.97
   6  -8  -4   52.46    2.41
   6  -8  -4   50.80    2.50
  -6   8   4   53.15    2.94
   5  -8  -4   55.85    2.87
   5  -8  -4   53.77    2.37
   5  -8  -4   52.10    2.40
   5  -8  -4   54.33    2.92
   5  -8  -4   56.00    2.60
   5  -8  -4   54.22    3.03
   5  -8  -4   53.19    2.26
  -5   8   4   57.98    2.57
   4  -8  -4   82.25    3.34
   4  -8  -4   83.76    3.44
   4  -8  -4   79.71    3.21
   4  -8  -4   78.48    3.60
   4  -8  -4   83.41    3.95
   4  -8  -4   85.09    3.07
  -4   8   4   82.86    3.51
   3  -8  -4   21.97    1.76
   3  -8  -4   26.81    1.71
   3  -8  -4   21.98    1.26
   3  -8  -4   23.67    1.66
  -3   8   4   21.10    1.68
   2  -8  -4   43.10    2.48
   2  -8  -4   46.68    1.99
   2  -8  -4   46.11    2.42
  -2   8   4   48.15    2.72
   0   9  -5   57.65    3.15
   0  -9   5   61.77    3.60
   0  -9   5   61.62    3.04
  -1   9  -5   28.30    2.97
   1  -9   5   30.46    1.39
   1  -9   5   26.79    2.03
   1  -9   5   30.48    1.47
   1  -9   5   30.69    1.97
  -2   9  -5   63.13    3.20
   2  -9   5   64.47    2.59
   2  -9   5   68.90    2.47
   2  -9   5   65.08    2.45
   2  -9   5   64.89    2.97
   2  -9   5   66.34    2.97
   2  -9   5   64.78    3.05
  -3   9  -5   13.88    1.50
  -3   9  -5   15.99    1.21
   3  -9   5   15.68    0.97
   3  -9   5   14.94    1.39
   3  -9   5   16.16    1.45
   3  -9   5   14.65    1.03
   3  -9   5   14.02    1.11
  -4   9  -5   89.64    3.38
   4  -9   5   84.50    3.18
   4  -9   5   77.68    3.43
   4  -9   5   76.35    3.24
   4  -9   5   82.26    3.26
   4  -9   5   84.61    3.09
  -5   9  -5   30.81    1.89
   5  -9   5   32.85    1.84
   5  -9   5   35.74    1.90
   5  -9   5   32.99    1.65
   5  -9   5   32.05    1.61
   5  -9   5   30.86    1.48
   5  -9   5   30.31    1.94
  -6   9  -5   53.92    2.69
   6  -9   5   52.06    2.04
   6  -9   5   53.88    2.45
   6  -9   5   52.92    2.58
   6  -9   5   54.60    2.66
  -7   9  -5   13.70    1.66
   7  -9   5   17.63    1.57
   7  -9   5   17.00    1.65
   1   8  -5   31.15    2.14
  -1  -8   5   26.90    2.01
  -1  -8   5   37.00    1.98
  -1  -8   5   27.97    2.07
   0   8  -5    6.39    1.06
   0  -8   5    8.83    0.75
   0  -8   5    9.09    1.12
   0  -8   5    9.91    1.23
   0  -8   5    8.22    0.76
  -1   8  -5   90.96    3.86
   1  -8   5   93.60    3.59
   1  -8   5   82.41    3.98
   1  -8   5   89.14    3.24
   1  -8   5   90.54    3.13
   1  -8   5   85.07    3.63
   1  -8   5   91.46    3.12
   1  -8   5   89.21    3.57
  -2   8  -5   49.32    2.55
   2  -8   5   51.21    1.96
   2  -8   5   53.05    2.13
   2  -8   5   51.00    2.35
   2  -8   5   53.53    2.32
   2  -8   5   53.84    2.84
   2  -8   5   52.99    1.96
  -3   8  -5   55.21    2.71
  -3   8  -5   59.90    2.37
   3  -8   5   56.43    2.34
   3  -8   5   60.34    2.91
   3  -8   5   57.71    2.52
   3  -8   5   53.66    2.74
   3  -8   5   55.89    2.15
   3  -8   5   59.45    2.40
   3  -8   5   57.65    2.20
  -4   8  -5   36.67    1.84
   4  -8   5   34.41    1.83
   4  -8   5   35.91    2.20
   4  -8   5   37.15    1.57
   4  -8   5   34.05    1.75
   4  -8   5   35.54    1.68
   4  -8   5   34.94    2.08
   4  -8   5   36.11    1.69
  -5   8  -5   61.69    2.85
   5  -8   5   63.55    2.78
   5  -8   5   65.56    2.43
   5  -8   5   66.10    2.57
   5  -8   5   65.52    2.74
   5  -8   5   64.92    2.35
   5  -8   5   65.57    3.07
   5  -8   5   65.77    3.10
  -6   8  -5   53.75    2.59
   6  -8   5   53.17    1.82
   6  -8   5   51.70    1.84
   6  -8   5   51.74    2.68
   6  -8   5   49.43    2.39
   6  -8   5   49.46    2.27
  -7   8  -5   50.95    2.69
   7  -8   5   50.85    2.72
   7  -8   5   51.36    2.52
   7  -8   5   48.92    2.41
   8  -8   5   24.58    1.93
   8  -8   5   22.91    2.21
   8  -8   5   24.02    1.94
   8  -8   5   24.68    2.02
   3   7  -5   26.83    2.29
   3   7  -5   26.00    2.81
  -3  -7   5   21.06    1.94
  -3  -7   5   24.64    2.03
   2   7  -5   55.79    2.90
   2   7  -5   65.22    3.03
  -2  -7   5   56.88    2.83
  -2  -7   5   62.18    2.38
  -2  -7   5   61.48    2.87
   1   7  -5   34.94    2.00
   1   7  -5   31.07    1.98
  -1  -7   5   38.99    2.36
  -1  -7   5   32.68    1.91
  -1  -7   5   33.92    1.93
  -1  -7   5   35.53    1.46
  -1  -7   5   33.80    1.88
  -1  -7   5   36.11    1.39
   0   7  -5   50.37    2.32
   0   7  -5   48.07    2.43
   0  -7   5   47.51    1.91
   0  -7   5   50.68    1.82
   0  -7   5   49.89    2.59
   0  -7   5   48.65    2.25
   0  -7   5   49.54    2.24
  -1   7  -5   31.77    1.61
  -1   7  -5   28.54    1.71
   1  -7   5   30.14    1.54
   1  -7   5   29.82    1.34
   1  -7   5   30.63    1.18
   1  -7   5   28.03    1.87
   1  -7   5   29.40    1.57
   1  -7   5   30.52    1.18
  -2   7  -5   90.60    3.76
  -2   7  -5   94.92    3.35
   2  -7   5   93.40    3.21
   2  -7   5   92.99    3.41
   2  -7   5   94.55    3.23
   2  -7   5   96.55    3.49
   2  -7   5   96.95    3.89
  -3   7  -5   45.64    2.29
  -3   7  -5   53.20    2.10
   3  -7   5   47.33    2.03
   3  -7   5   49.03    1.85
   3  -7   5   49.09    1.98
   3  -7   5   49.87    1.93
   3  -7   5   50.98    2.43
   3  -7   5   48.63    2.32
  -4   7  -5   78.49    3.11
   4  -7   5   76.36    2.84
   4  -7   5   84.71    3.36
   4  -7   5   75.30    3.06
   4  -7   5   76.54    3.01
   4  -7   5   76.42    3.23
   4  -7   5   78.48    2.80
  -5   7  -5   18.76    1.33
   5  -7   5   18.65    1.21
   5  -7   5   18.97    1.47
   5  -7   5   19.59    1.51
   5  -7   5   19.09    1.11
   5  -7   5   19.14    0.82
   5  -7   5   19.79    0.87
  -6   7  -5   69.69    3.20
   6  -7   5   74.69    3.25
   6  -7   5   73.42    2.94
   6  -7   5   75.73    3.05
   6  -7   5   73.65    3.16
  -7   7  -5   28.65    1.89
  -7   7  -5   30.77    2.00
   7  -7   5   26.68    1.82
   7  -7   5   29.36    1.78
   7  -7   5   27.22    1.87
   7  -7   5   27.17    1.72
  -8   7  -5   56.02    2.82
  -8   7  -5   49.04    2.76
   8  -7   5   50.83    2.61
   8  -7   5   51.31    2.56
   8  -7   5   43.93    2.60
   8  -7   5   49.80    2.62
   4   6  -5   33.69    2.10
   4   6  -5   31.41    2.37
   4   6  -5   39.10    2.44
  -4  -6   5   36.24    2.23
  -4  -6   5   35.60    1.89
  -4  -6   5   36.93    2.39
   3   6  -5   88.83    3.83
   3   6  -5   87.48    3.66
   3   6  -5  105.89    4.75
   3   6  -5   91.88    3.86
  -3  -6   5   89.14    3.73
  -3  -6   5   89.95    3.82
  -3  -6   5   93.02    3.40
  -3  -6   5   92.43    4.06
   2   6  -5   17.32    1.33
   2   6  -5   16.58    1.42
   2   6  -5   19.33    1.41
  -2  -6   5   22.20    1.64
  -2  -6   5   17.23    1.33
  -2  -6   5   18.29    1.35
  -2  -6   5   18.40    1.34
  -2  -6   5   16.76    0.81
  -2  -6   5   17.65    0.96
   1   6  -5   93.93    4.21
   1   6  -5  110.20    4.02
   1   6  -5  101.87    4.08
  -1  -6   5  104.60    3.54
  -1  -6   5  104.58    3.60
  -1  -6   5  111.42    4.20
  -1  -6   5  108.39    3.93
  -1  -6   5  100.26    3.95
  -1  -6   5   99.63    3.96
   0   6  -5   17.05    1.20
   0   6  -5   14.74    1.07
   0  -6   5   16.79    0.86
   0  -6   5   15.43    1.31
   0  -6   5   17.01    1.07
   0  -6   5   17.02    0.71
   0  -6   5   16.11    1.06
  -1   6  -5  138.13    4.56
  -1   6  -5  138.88    4.86
  -1   6  -5  135.51    5.06
   1  -6   5  137.42    4.89
   1  -6   5  135.86    4.50
   1  -6   5  137.52    4.50
   1  -6   5  141.23    5.15
   1  -6   5  139.20    4.87
   1  -6   5  138.62    4.73
  -2   6  -5   53.76    2.37
  -2   6  -5   56.84    2.12
  -2   6  -5   54.46    2.14
   2  -6   5   55.73    2.23
   2  -6   5   54.91    1.94
   2  -6   5   54.49    1.91
   2  -6   5   51.28    2.10
   2  -6   5   55.65    2.48
   2  -6   5   56.57    2.13
  -3   6  -5  174.50    5.87
   3  -6   5  162.81    5.84
   3  -6   5  168.46    5.63
   3  -6   5  171.55    6.01
   3  -6   5  168.77    5.81
   3  -6   5  168.63    5.67
   3  -6   5  171.46    6.10
  -4   6  -5   59.56    2.71
  -4   6  -5   63.60    2.59
   4  -6   5   62.08    2.18
   4  -6   5   61.83    2.32
   4  -6   5   63.70    2.69
   4  -6   5   62.56    2.63
   4  -6   5   59.98    2.44
  -5   6  -5   65.50    2.86
  -5   6  -5   63.84    2.76
   5  -6   5   66.18    2.76
   5  -6   5   65.24    2.53
   5  -6   5   65.96    2.80
   5  -6   5   60.10    2.92
  -6   6  -5   14.66    1.23
  -6   6  -5   12.49    1.18
  -6   6  -5   13.71    1.35
   6  -6   5   12.81    1.28
   6  -6   5   12.09    1.22
   6  -6   5   13.11    1.24
   6  -6   5   12.65    1.07
   6  -6   5   13.75    1.07
  -7   6  -5  122.68    5.01
  -7   6  -5  124.34    5.36
  -7   6  -5  132.71    4.96
   7  -6   5  127.76    4.78
   7  -6   5  127.91    4.81
   7  -6   5  127.04    4.94
   7  -6   5  124.39    4.91
   7  -6   5  124.79    4.74
  -8   6  -5   33.75    2.23
  -8   6  -5   37.31    2.38
  -8   6  -5   47.78    3.98
   8  -6   5   35.27    2.06
   8  -6   5   36.95    2.09
   8  -6   5   36.61    2.23
   8  -6   5   31.72    2.03
   5   5  -5   27.94    2.12
   5   5  -5   25.82    1.77
   5   5  -5   25.01    2.13
  -5  -5   5   27.23    1.91
  -5  -5   5   27.80    1.77
  -5  -5   5   23.94    2.14
   4   5  -5   96.92    3.93
   4   5  -5   83.83    3.66
   4   5  -5   85.88    3.55
   4   5  -5   82.45    3.52
  -4  -5   5   82.30    3.63
  -4  -5   5   85.31    3.27
  -4  -5   5   84.79    3.50
  -4  -5   5   83.38    3.69
   3   5  -5   19.35    1.46
   3   5  -5   19.08    0.78
   3   5  -5   19.96    1.49
   3   5  -5   19.15    1.33
   3   5  -5   17.16    1.26
  -3  -5   5   21.43    1.35
  -3  -5   5   21.08    1.09
  -3  -5   5   19.38    0.86
  -3  -5   5   19.85    1.34
  -3  -5   5   18.24    1.38
  -3  -5   5   17.73    1.47
   2   5  -5   79.96    3.31
   2   5  -5   80.68    3.07
   2   5  -5   84.60    2.86
   2   5  -5   79.77    3.29
   2   5  -5   87.83    3.34
  -2  -5   5   86.15    3.24
  -2  -5   5   83.94    3.30
  -2  -5   5   84.67    3.25
  -2  -5   5   83.98    3.40
  -2  -5   5   82.17    2.93
  -2  -5   5   83.30    2.93
   1   5  -5   61.06    2.16
   1   5  -5   58.04    2.43
   1   5  -5   58.31    2.51
  -1  -5   5   57.45    2.41
  -1  -5   5   56.88    2.20
  -1  -5   5   62.19    2.42
  -1  -5   5   62.38    2.62
  -1  -5   5   61.91    2.08
   0   5  -5  135.43    4.99
   0   5  -5  141.04    4.72
   0   5  -5  138.81    4.88
   0  -5   5  135.52    4.87
   0  -5   5  142.75    4.74
   0  -5   5  141.71    4.84
   0  -5   5  139.44    5.07
  -1   5  -5   61.82    2.26
  -1   5  -5   58.81    2.29
  -1   5  -5   62.97    2.13
  -1   5  -5   57.57    2.44
   1  -5   5   59.27    2.32
   1  -5   5   60.07    2.26
   1  -5   5   60.59    2.24
  -2   5  -5   92.56    3.60
  -2   5  -5   94.11    3.51
  -2   5  -5   94.21    3.26
  -2   5  -5  102.05    3.37
  -2   5  -5   96.53    3.32
   2  -5   5   90.65    3.30
   2  -5   5   93.17    3.56
   2  -5   5   87.91    3.09
   2  -5   5   91.33    3.24
   2  -5   5   90.88    3.36
  -3   5  -5   50.22    2.26
  -3   5  -5   53.91    2.09
  -3   5  -5   52.70    2.09
   3  -5   5   48.76    2.13
   3  -5   5   51.37    1.83
   3  -5   5   50.39    1.87
   3  -5   5   52.93    2.24
   3  -5   5   48.25    2.00
  -4   5  -5  194.03    6.62
  -4   5  -5  198.29    6.47
  -4   5  -5  182.61    6.72
   4  -5   5  180.48    6.09
   4  -5   5  195.22    6.40
   4  -5   5  192.62    7.11
   4  -5   5  193.01    6.11
   4  -5   5  182.18    6.47
   4  -5   5  192.40    6.60
  -5   5  -5   42.56    2.11
  -5   5  -5   46.04    1.96
  -5   5  -5   43.37    2.04
   5  -5   5   42.12    2.08
   5  -5   5   44.47    1.90
   5  -5   5   43.50    2.00
   5  -5   5   40.76    1.84
   5  -5   5   41.15    1.97
  -6   5  -5  142.54    5.59
  -6   5  -5  142.12    5.59
  -6   5  -5  157.11    5.53
   6  -5   5  148.76    5.37
   6  -5   5  153.10    5.61
   6  -5   5  154.78    5.51
   6  -5   5  157.24    5.47
   6  -5   5  149.53    5.42
  -7   5  -5   53.19    2.63
  -7   5  -5   49.77    2.60
  -7   5  -5   53.75    2.68
   7  -5   5   54.03    2.53
   7  -5   5   52.10    2.52
   7  -5   5   52.32    2.36
   7  -5   5   54.54    2.60
   7  -5   5   54.66    2.45
  -8   5  -5   38.66    2.45
  -8   5  -5   46.49    2.66
  -8   5  -5   45.74    2.71
   8  -5   5   45.69    2.36
   8  -5   5   47.64    2.33
   8  -5   5   49.54    2.33
   8  -5   5   44.87    2.50
   6   4  -5   15.73    1.90
   6   4  -5   14.02    1.88
   6   4  -5   14.63    1.33
  -6  -4   5   14.26    1.55
  -6  -4   5   17.67    2.07
  -6  -4   5   12.18    1.58
  -6  -4   5   16.93    1.91
   5   4  -5   53.23    2.73
   5   4  -5   53.75    2.69
   5   4  -5   55.13    2.53
  -5  -4   5   55.75    2.51
  -5  -4   5   57.77    2.72
  -5  -4   5   56.44    2.69
  -5  -4   5   57.22    2.81
  -5  -4   5   56.78    2.47
   4   4  -5   21.41    0.98
   4   4  -5   21.84    1.41
   4   4  -5   21.13    1.36
   4   4  -5   23.48    1.52
   4   4  -5   23.40    1.62
  -4  -4   5   22.74    1.52
  -4  -4   5   23.93    1.25
  -4  -4   5   25.29    1.58
  -4  -4   5   23.02    1.36
  -4  -4   5   24.50    1.46
   3   4  -5   53.93    2.32
   3   4  -5   66.46    2.62
   3   4  -5   60.08    2.48
   3   4  -5   58.78    2.13
   3   4  -5   56.16    2.50
  -3  -4   5   60.69    2.55
  -3  -4   5   56.83    2.17
  -3  -4   5   60.51    2.43
  -3  -4   5   59.76    2.45
  -3  -4   5   58.36    2.23
  -3  -4   5   59.18    2.54
   2   4  -5   53.25    2.24
   2   4  -5   56.97    2.28
   2   4  -5   51.81    2.03
   2   4  -5   51.56    1.96
   2   4  -5   50.60    2.23
  -2  -4   5   57.70    2.22
  -2  -4   5   55.24    2.26
  -2  -4   5   55.75    1.96
  -2  -4   5   52.42    2.03
   1   4  -5  150.48    5.05
   1   4  -5  158.61    5.43
   1   4  -5  154.35    5.36
   1   4  -5  154.54    5.17
   1   4  -5  157.00    5.38
  -1  -4   5  148.89    5.21
  -1  -4   5  153.72    5.02
  -1  -4   5  155.81    5.32
  -1  -4   5  161.62    5.50
  -1  -4   5  152.21    5.35
   0   4  -5  167.10    5.68
   0   4  -5  178.95    5.89
   0   4  -5  168.67    5.77
   0  -4   5  161.07    5.75
   0  -4   5  175.80    5.74
   0  -4   5  168.06    5.68
   0  -4   5  170.90    5.93
  -1   4  -5   81.87    2.89
  -1   4  -5   80.23    2.87
  -1   4  -5   81.90    2.80
  -1   4  -5   81.10    3.02
   1  -4   5   77.37    2.87
   1  -4   5   79.85    2.91
   1  -4   5   84.62    2.86
   1  -4   5   83.10    3.10
  -2   4  -5   25.11    1.00
  -2   4  -5   25.76    1.15
  -2   4  -5   25.15    0.96
  -2   4  -5   25.73    1.14
  -2   4  -5   25.60    1.34
   2  -4   5   23.59    0.94
   2  -4   5   26.70    1.32
   2  -4   5   25.43    1.01
   2  -4   5   22.77    1.09
  -3   4  -5  147.48    5.03
  -3   4  -5  143.28    4.88
  -3   4  -5  136.49    5.16
  -3   4  -5  144.34    4.68
  -3   4  -5  143.54    4.97
   3  -4   5  146.35    4.69
   3  -4   5  142.25    4.95
   3  -4   5  148.03    5.13
   3  -4   5  140.84    5.02
   3  -4   5  148.60    4.86
  -4   4  -5   45.98    2.16
  -4   4  -5   53.79    1.98
  -4   4  -5   47.13    1.93
  -4   4  -5   44.36    2.01
   4  -4   5   45.53    1.89
   4  -4   5   46.87    2.03
   4  -4   5   44.39    1.86
  -5   4  -5   74.65    3.15
  -5   4  -5   75.62    3.08
  -5   4  -5   75.57    3.22
   5  -4   5   78.56    3.01
   5  -4   5   79.67    3.03
   5  -4   5   75.32    2.93
   5  -4   5   72.26    2.87
   5  -4   5   74.21    3.11
  -6   4  -5   34.26    1.78
  -6   4  -5   33.05    1.88
  -6   4  -5   28.42    1.71
   6  -4   5   31.95    1.67
   6  -4   5   31.09    1.65
   6  -4   5   31.75    1.72
   6  -4   5   32.15    1.75
   6  -4   5   25.64    1.57
  -7   4  -5   36.80    2.08
  -7   4  -5   33.43    2.14
  -7   4  -5   33.67    1.99
  -7   4  -5   36.11    2.10
   7  -4   5   31.79    1.93
   7  -4   5   33.19    1.74
   7  -4   5   33.80    1.91
   7  -4   5   36.08    1.87
   7  -4   5   35.43    2.04
  -8   4  -5   16.06    1.90
  -8   4  -5   16.22    1.59
  -8   4  -5   18.63    1.89
   8  -4   5   19.69    1.82
   8  -4   5   16.81    1.51
   8  -4   5   17.79    1.45
   8  -4   5   15.77    1.42
   7   3  -5   19.04    2.07
   7   3  -5   19.46    1.46
   7   3  -5   13.83    1.77
  -7  -3   5   17.72    1.66
  -7  -3   5   23.66    2.35
   6   3  -5   90.24    3.34
   6   3  -5   89.04    3.90
   6   3  -5   92.15    3.84
   6   3  -5   90.54    3.61
  -6  -3   5   93.57    3.35
  -6  -3   5   93.93    3.73
  -6  -3   5   91.04    3.95
  -6  -3   5   95.17    4.30
  -6  -3   5   88.97    3.60
  -6  -3   5   94.15    3.70
   5   3  -5   48.06    2.30
   5   3  -5   50.35    2.36
   5   3  -5   47.87    2.16
   5   3  -5   50.95    2.44
   5   3  -5   49.46    2.02
  -5  -3   5   51.23    1.93
  -5  -3   5   49.39    2.12
  -5  -3   5   48.99    2.15
  -5  -3   5   47.98    2.43
  -5  -3   5   47.95    2.25
  -5  -3   5   49.45    2.27
   4   3  -5   89.89    3.47
   4   3  -5   88.69    3.18
   4   3  -5   80.21    3.31
   4   3  -5   84.71    3.32
   4   3  -5   89.87    3.46
  -4  -3   5   89.30    3.18
  -4  -3   5   87.93    3.23
  -4  -3   5   90.87    3.53
  -4  -3   5   90.51    3.03
  -4  -3   5   87.32    3.27
  -4  -3   5   90.69    3.40
   3   3  -5   39.78    1.80
   3   3  -5   39.84    1.79
   3   3  -5   36.70    1.63
   3   3  -5   39.87    1.71
   3   3  -5   39.18    1.59
  -3  -3   5   38.94    1.74
  -3  -3   5   37.68    1.55
  -3  -3   5   41.52    1.82
  -3  -3   5   41.13    1.78
  -3  -3   5   37.21    1.65
  -3  -3   5   39.55    1.61
   2   3  -5  106.85    3.78
   2   3  -5  100.64    3.80
   2   3  -5  103.45    3.60
   2   3  -5  112.33    3.83
   2   3  -5  104.40    3.66
  -2  -3   5  108.08    3.85
  -2  -3   5  106.41    3.56
  -2  -3   5  107.22    3.82
  -2  -3   5  106.77    3.78
  -2  -3   5  102.19    3.69
   1   3  -5   26.07    1.15
   1   3  -5   26.44    1.17
   1   3  -5   25.17    1.07
   1   3  -5   23.57    1.14
  -1  -3   5   23.45    1.19
  -1  -3   5   24.13    1.08
  -1  -3   5   21.89    1.09
  -1  -3   5   25.14    1.12
   0   3  -5  248.37    8.33
   0   3  -5  257.69    8.31
   0   3  -5  266.57    8.17
   0   3  -5  246.21    8.32
   0   3  -5  253.16    8.39
   0   3  -5  241.00    8.46
   0  -3   5  256.39    8.31
   0  -3   5  238.68    8.30
   0  -3   5  258.83    8.47
   0  -3   5  261.22    8.31
  -1   3  -5   43.33    1.82
  -1   3  -5   42.97    1.66
  -1   3  -5   43.19    1.46
  -1   3  -5   43.01    1.61
  -1   3  -5   43.73    1.62
   1  -3   5   43.75    1.60
   1  -3   5   44.07    1.66
   1  -3   5   45.09    1.82
   1  -3   5   40.49    1.63
  -2   3  -5  215.48    7.26
  -2   3  -5  246.99    7.50
  -2   3  -5  238.99    7.45
  -2   3  -5  210.29    7.59
  -2   3  -5  225.46    7.33
   2  -3   5  211.57    7.41
   2  -3   5  223.91    7.58
   2  -3   5  221.57    7.31
   2  -3   5  220.73    7.46
   2  -3   5  226.41    7.26
  -3   3  -5   10.53    0.85
  -3   3  -5   12.00    0.72
  -3   3  -5   11.20    0.69
  -3   3  -5   12.22    0.79
   3  -3   5    9.84    0.66
   3  -3   5   11.63    0.87
   3  -3   5   13.01    0.84
   3  -3   5   11.35    0.75
   3  -3   5   11.58    0.67
  -4   3  -5  142.17    5.02
  -4   3  -5  148.67    4.95
  -4   3  -5  127.37    5.08
  -4   3  -5  145.57    4.87
   4  -3   5  139.98    5.09
   4  -3   5  131.58    4.83
   4  -3   5  142.46    4.92
   4  -3   5  140.73    4.90
   4  -3   5  142.83    4.99
  -5   3  -5  143.01    5.41
  -5   3  -5  157.62    5.39
  -5   3  -5  140.73    5.53
  -5   3  -5  149.76    5.34
   5  -3   5  147.52    5.31
   5  -3   5  151.31    5.46
   5  -3   5  150.01    5.22
   5  -3   5  150.20    5.34
   5  -3   5  157.33    5.35
  -6   3  -5  132.42    5.21
  -6   3  -5  138.71    5.40
  -6   3  -5  142.98    5.16
  -6   3  -5  146.80    5.22
   6  -3   5  138.12    5.04
   6  -3   5  141.93    5.12
   6  -3   5  139.20    5.16
   6  -3   5  139.13    4.94
   6  -3   5  130.39    5.14
  -7   3  -5   33.84    2.12
  -7   3  -5   31.72    2.26
  -7   3  -5   35.19    2.04
  -7   3  -5   33.56    2.00
   7  -3   5   34.66    1.76
   7  -3   5   34.18    1.92
   7  -3   5   36.28    2.08
   7  -3   5   36.45    2.07
   7  -3   5   33.42    1.85
  -8   3  -5   83.99    3.81
  -8   3  -5   86.77    3.85
  -8   3  -5   79.86    3.94
   8  -3   5   81.00    3.82
   8  -3   5   78.82    3.55
   8  -3   5   88.15    3.42
   8  -3   5   82.66    3.50
   7   2  -5   59.80    2.57
   7   2  -5   60.99    3.09
   7   2  -5   64.10    2.65
   7   2  -5   64.83    2.97
  -7  -2   5   57.70    2.89
  -7  -2   5   58.11    2.55
  -7  -2   5   61.88    2.53
  -7  -2   5   56.16    2.71
  -7  -2   5   61.45    3.15
   6   2  -5   34.25    1.71
   6   2  -5   32.18    1.62
   6   2  -5   35.55    2.03
   6   2  -5   32.37    2.00
   6   2  -5   35.73    1.91
  -6  -2   5   34.15    1.84
  -6  -2   5   35.24    1.56
  -6  -2   5   31.94    1.60
  -6  -2   5   31.15    1.87
  -6  -2   5   32.18    1.78
  -6  -2   5   33.03    1.99
   5   2  -5  103.03    3.67
   5   2  -5  101.41    3.86
   5   2  -5   99.01    3.62
   5   2  -5   96.71    3.79
   5   2  -5   98.06    3.81
  -5  -2   5   96.32    3.56
  -5  -2   5  102.04    3.53
  -5  -2   5   96.57    3.62
  -5  -2   5  103.05    3.71
  -5  -2   5  102.54    3.67
  -5  -2   5  102.66    3.78
  -5  -2   5   86.85    4.54
   4   2  -5    6.25    0.70
   4   2  -5    5.36    0.66
   4   2  -5    7.24    0.78
   4   2  -5    7.35    0.63
   4   2  -5    7.29    0.77
  -4  -2   5    6.77    0.66
  -4  -2   5    6.46    0.58
  -4  -2   5    6.35    0.66
  -4  -2   5    7.46    0.74
  -4  -2   5    7.24    0.56
  -4  -2   5    6.12    0.73
  -4  -2   5    6.93    0.64
   3   2  -5  175.33    5.83
   3   2  -5  183.02    5.92
   3   2  -5  168.11    5.96
   3   2  -5  162.54    5.81
   3   2  -5  182.99    5.96
  -3  -2   5  171.30    5.91
  -3  -2   5  165.52    5.96
  -3  -2   5  179.40    5.90
  -3  -2   5  169.35    5.87
  -3  -2   5  171.34    5.78
  -3  -2   5  171.72    5.70
   2   2  -5  160.36    5.40
   2   2  -5  157.45    5.49
   2   2  -5  164.62    5.45
   2   2  -5  155.41    5.31
   2   2  -5  172.01    5.49
  -2  -2   5  160.19    5.45
  -2  -2   5  157.63    5.45
  -2  -2   5  159.17    5.29
  -2  -2   5  159.17    5.47
  -2  -2   5  159.19    5.45
   1   2  -5  337.66   10.49
   1   2  -5  318.02   10.47
   1   2  -5  331.33   10.44
   1   2  -5  305.35   10.49
   1   2  -5  292.68   10.26
   1   2  -5  320.54   10.43
  -1  -2   5  327.75   10.51
  -1  -2   5  316.17   10.44
  -1  -2   5  322.95   10.47
  -1  -2   5  328.34   10.45
   0   2  -5   56.92    2.10
   0   2  -5   57.74    2.13
   0   2  -5   58.43    2.21
   0   2  -5   60.05    1.95
   0   2  -5   59.36    2.08
   0  -2   5   56.59    2.12
   0  -2   5   54.93    2.05
   0  -2   5   59.90    2.21
   0  -2   5   57.52    2.08
  -1   2  -5  343.14   11.75
  -1   2  -5  365.90   11.74
  -1   2  -5  388.65   11.89
  -1   2  -5  366.53   11.84
  -1   2  -5  354.84   11.96
   1  -2   5  366.49   11.74
   1  -2   5  372.70   11.74
   1  -2   5  347.53   11.82
   1  -2   5  374.13   11.97
  -2   2  -5  148.22    4.93
  -2   2  -5  138.23    4.80
  -2   2  -5  139.02    4.66
  -2   2  -5  147.56    4.80
  -2   2  -5  138.86    4.99
   2  -2   5  138.89    4.77
   2  -2   5  144.52    4.81
   2  -2   5  143.56    4.99
   2  -2   5  141.12    4.61
   2  -2   5  132.31    4.78
   2  -2   5  149.11    4.96
  -3   2  -5  142.18    4.79
  -3   2  -5  141.05    5.24
  -3   2  -5  149.35    5.00
  -3   2  -5  150.26    5.16
  -3   2  -5  151.54    5.08
  -3   2  -5  144.77    5.03
   3  -2   5  147.35    5.03
   3  -2   5  148.03    5.15
   3  -2   5  149.83    5.23
   3  -2   5  146.97    5.00
   3  -2   5  146.75    5.06
  -4   2  -5   35.32    1.50
  -4   2  -5   35.13    1.64
  -4   2  -5   35.24    1.22
  -4   2  -5   33.81    1.79
  -4   2  -5   33.92    1.55
  -4   2  -5   35.36    1.69
  -4   2  -5   35.14    1.23
   4  -2   5   34.15    1.70
   4  -2   5   39.25    1.66
   4  -2   5   34.79    1.50
   4  -2   5   36.20    1.59
   4  -2   5   36.01    1.63
  -5   2  -5  191.35    6.96
  -5   2  -5  198.48    6.37
  -5   2  -5  195.89    6.83
  -5   2  -5  192.01    6.36
  -5   2  -5  204.52    6.94
  -5   2  -5  185.62    7.05
   5  -2   5  202.53    6.94
   5  -2   5  209.11    6.86
   5  -2   5  206.64    6.86
   5  -2   5  184.95    6.94
   5  -2   5  199.39    6.70
  -6   2  -5   22.95    1.72
  -6   2  -5   18.95    0.81
  -6   2  -5   19.45    1.46
  -6   2  -5   19.69    1.39
  -6   2  -5   19.61    0.78
  -6   2  -5   20.44    1.40
   6  -2   5   18.79    1.39
   6  -2   5   20.12    1.46
   6  -2   5   19.96    1.34
   6  -2   5   22.98    1.44
   6  -2   5   20.57    1.18
  -7   2  -5   58.21    2.70
  -7   2  -5   57.63    2.86
  -7   2  -5   55.19    3.01
  -7   2  -5   53.05    2.70
   7  -2   5   55.19    2.56
   7  -2   5   53.80    2.38
   7  -2   5   49.74    2.56
   7  -2   5   54.72    2.73
   7  -2   5   56.03    2.82
  -8   2  -5   16.50    1.96
  -8   2  -5   13.32    1.70
  -8   2  -5   13.40    1.57
   8  -2   5   14.60    1.83
   8  -2   5   15.94    1.98
   8  -2   5   15.05    1.54
   8  -2   5   14.97    1.37
   8  -2   5   16.57    2.16
   8   1  -5   60.85    2.50
   8   1  -5   57.86    2.93
   8   1  -5   60.72    3.37
  -8  -1   5   60.14    2.63
  -8  -1   5   52.09    3.17
   7   1  -5   26.77    1.71
   7   1  -5   22.83    1.30
   7   1  -5   23.53    1.60
   7   1  -5   24.93    1.82
  -7  -1   5   25.93    1.41
  -7  -1   5   25.64    1.42
  -7  -1   5   23.41    1.33
  -7  -1   5   25.51    1.73
  -7  -1   5   22.60    1.65
  -7  -1   5   23.03    1.90
   6   1  -5   52.48    2.40
   6   1  -5   51.38    2.78
   6   1  -5   53.27    2.10
   6   1  -5   55.07    2.31
   6   1  -5   52.54    2.47
  -6  -1   5   51.31    2.51
  -6  -1   5   55.62    2.37
  -6  -1   5   53.20    2.20
  -6  -1   5   55.01    2.37
  -6  -1   5   53.54    2.13
  -6  -1   5   50.45    2.06
   5   1  -5   75.69    2.96
   5   1  -5   73.53    2.89
   5   1  -5   76.45    2.96
   5   1  -5   76.27    2.71
   5   1  -5   70.22    2.93
  -5  -1   5   74.92    2.78
  -5  -1   5   74.83    2.90
  -5  -1   5   76.61    2.92
  -5  -1   5   70.47    3.01
  -5  -1   5   74.81    2.72
  -5  -1   5   73.34    2.66
   4   1  -5  110.15    4.02
   4   1  -5  119.76    3.86
   4   1  -5  117.16    4.07
   4   1  -5  106.50    4.05
   4   1  -5  112.99    4.03
  -4  -1   5  107.17    4.10
  -4  -1   5  112.73    3.98
  -4  -1   5  114.26    3.93
  -4  -1   5  111.66    4.04
  -4  -1   5  113.18    3.88
  -4  -1   5  109.97    4.03
  -4  -1   5  112.15    3.82
   3   1  -5  138.99    4.41
   3   1  -5  131.69    4.54
   3   1  -5  128.49    4.57
   3   1  -5  132.09    4.51
   3   1  -5  122.26    4.56
  -3  -1   5  131.72    4.59
  -3  -1   5  121.80    4.57
  -3  -1   5  132.85    4.47
  -3  -1   5  137.35    4.58
  -3  -1   5  131.11    4.45
  -3  -1   5  134.75    4.46
   2   1  -5  175.84    5.66
   2   1  -5  165.41    5.80
   2   1  -5  179.72    5.74
   2   1  -5  166.71    5.71
   2   1  -5  174.02    5.84
   2   1  -5  166.54    5.68
  -2  -1   5  168.62    5.76
  -2  -1   5  171.54    5.78
  -2  -1   5  179.54    5.72
  -2  -1   5  166.15    5.82
  -2  -1   5  173.96    5.72
   1   1  -5    2.64    0.27
   1   1  -5    3.28    0.38
   1   1  -5    3.05    0.37
   1   1  -5    2.43    0.32
  -1  -1   5    2.58    0.34
  -1  -1   5    2.88    0.29
  -1  -1   5    2.95    0.33
  -1  -1   5    3.62    0.41
   0   1  -5   95.94    3.17
   0   1  -5   81.66    3.12
   0   1  -5   87.82    3.06
   0   1  -5   92.68    3.13
   0   1  -5   89.73    3.04
   0  -1   5   89.27    3.15
   0  -1   5   91.78    3.03
   0  -1   5   85.40    2.96
   0  -1   5   82.79    3.10
  -1   1  -5   37.41    1.48
  -1   1  -5   37.36    1.41
  -1   1  -5   38.38    1.49
  -1   1  -5   38.11    1.57
  -1   1  -5   37.69    1.61
   1  -1   5   39.37    1.38
   1  -1   5   39.31    1.59
   1  -1   5   37.43    1.41
   1  -1   5   38.61    1.48
   1  -1   5   39.87    1.63
   1  -1   5   34.81    1.47
  -2   1  -5  186.24    6.11
  -2   1  -5  190.99    6.23
  -2   1  -5  196.46    6.32
  -2   1  -5  175.01    6.40
  -2   1  -5  191.97    6.40
   2  -1   5  190.71    6.43
   2  -1   5  188.81    6.30
   2  -1   5  175.85    6.21
   2  -1   5  187.41    6.20
  -3   1  -5  109.23    3.70
  -3   1  -5  101.57    3.38
  -3   1  -5   97.97    3.36
  -3   1  -5   97.52    3.71
  -3   1  -5   97.99    3.53
  -3   1  -5   98.04    3.76
  -3   1  -5  101.04    3.51
   3  -1   5  100.40    3.67
   3  -1   5   98.81    3.67
   3  -1   5   97.46    3.74
   3  -1   5  101.97    3.53
   3  -1   5  105.67    3.56
  -4   1  -5   56.58    2.23
  -4   1  -5   54.83    2.39
  -4   1  -5   54.26    2.00
  -4   1  -5   55.01    2.46
  -4   1  -5   57.40    2.38
  -4   1  -5   54.34    2.13
  -4   1  -5   56.01    1.97
   4  -1   5   57.66    2.34
   4  -1   5   56.62    2.16
   4  -1   5   60.85    2.46
   4  -1   5   53.02    2.35
   4  -1   5   58.70    2.28
  -5   1  -5   21.21    1.23
  -5   1  -5   20.88    0.91
  -5   1  -5   21.52    1.41
  -5   1  -5   19.11    1.31
  -5   1  -5   21.67    0.96
  -5   1  -5   20.94    1.47
   5  -1   5   21.37    1.40
   5  -1   5   22.05    1.32
   5  -1   5   20.60    1.32
   5  -1   5   22.12    1.12
   5  -1   5   20.29    1.36
  -6   1  -5   57.06    2.03
  -6   1  -5   53.61    2.59
  -6   1  -5   57.29    2.72
  -6   1  -5   54.04    2.74
  -6   1  -5   55.59    2.10
  -6   1  -5   50.76    2.86
   6  -1   5   54.96    2.26
   6  -1   5   55.00    2.69
   6  -1   5   50.90    2.53
   6  -1   5   57.03    2.56
   6  -1   5   60.50    2.53
  -7   1  -5   43.25    2.38
  -7   1  -5   44.03    1.71
  -7   1  -5   45.82    2.68
  -7   1  -5   46.26    2.40
  -7   1  -5   43.53    1.86
   7  -1   5   40.99    2.30
   7  -1   5   44.65    2.61
   7  -1   5   42.86    2.04
   7  -1   5   43.61    2.51
   7  -1   5   41.46    2.34
   8   0  -5   27.92    2.18
   8   0  -5   27.23    1.87
   8   0  -5   29.30    1.43
   8   0  -5   28.69    1.98
  -8   0   5   27.79    1.66
  -8   0   5   33.70    2.33
  -8   0   5   30.15    2.05
   7   0  -5   53.88    2.03
   7   0  -5   49.95    2.57
   7   0  -5   53.30    2.44
   7   0  -5   55.81    2.44
   7   0  -5   52.02    2.49
  -7   0   5   50.06    2.64
  -7   0   5   53.14    2.51
  -7   0   5   52.17    2.31
  -7   0   5   52.54    2.39
  -7   0   5   52.32    1.94
  -7   0   5   50.09    1.93
   6   0  -5   24.19    1.08
   6   0  -5   24.78    1.49
   6   0  -5   25.85    1.45
   6   0  -5   23.50    1.41
   6   0  -5   24.74    1.41
  -6   0   5   24.39    1.31
  -6   0   5   24.73    1.03
  -6   0   5   23.66    1.37
  -6   0   5   21.41    1.58
  -6   0   5   23.26    1.41
  -6   0   5   23.36    1.02
   5   0  -5   78.79    2.96
   5   0  -5   74.97    2.93
   5   0  -5   74.52    2.96
   5   0  -5   76.18    2.92
   5   0  -5   76.85    2.61
  -5   0   5   73.61    2.57
  -5   0   5   77.49    2.60
  -5   0   5   71.20    3.00
  -5   0   5   79.44    2.92
  -5   0   5   73.67    2.86
  -5   0   5   74.76    2.98
   4   0  -5   52.33    2.13
   4   0  -5   55.44    1.84
   4   0  -5   53.51    2.10
   4   0  -5   54.53    2.18
   4   0  -5   51.35    2.11
  -4   0   5   51.67    2.07
  -4   0   5   50.63    1.81
  -4   0   5   52.96    2.20
  -4   0   5   48.92    2.14
  -4   0   5   56.25    2.12
  -4   0   5   52.82    2.11
  -4   0   5   53.51    1.86
   3   0  -5  250.18    8.12
   3   0  -5  241.98    7.99
   3   0  -5  224.62    8.01
   3   0  -5  234.97    8.05
  -3   0   5  255.23    8.06
  -3   0   5  242.12    8.06
  -3   0   5  244.30    7.86
  -3   0   5  238.36    8.14
  -3   0   5  246.48    8.04
   2   0  -5   32.70    1.22
   2   0  -5   31.47    1.32
   2   0  -5   32.65    1.27
   2   0  -5   30.58    1.21
  -2   0   5   32.17    1.32
  -2   0   5   30.74    1.23
  -2   0   5   33.54    1.23
  -2   0   5   29.37    1.37
  -2   0   5   31.28    1.32
  -2   0   5   30.82    1.26
   1   0  -5  150.40    5.17
   1   0  -5  154.78    5.20
   1   0  -5  152.38    5.24
   1   0  -5  151.84    5.01
  -1   0   5  158.23    5.19
  -1   0   5  153.54    5.05
  -1   0   5  167.64    5.20
  -1   0   5  149.80    5.27
  -1   0   5  149.32    5.15
   0   0  -5  168.77    5.59
   0   0  -5  170.92    5.69
   0   0  -5  163.38    5.65
   0   0  -5  163.40    5.68
   0   0   5  180.68    5.74
   0   0   5  169.68    5.46
   0   0   5  172.50    5.70
   0   0   5  171.33    5.58
   0   0   5  161.44    5.68
   0   0   5  168.94    5.68
   0   0   5  165.24    5.44
  -1   0  -5  132.00    4.60
  -1   0  -5  140.75    4.83
  -1   0  -5  144.63    4.80
  -1   0  -5  131.19    4.66
  -1   0  -5  137.48    4.85
   1   0   5  138.40    4.78
   1   0   5  141.39    4.56
   1   0   5  145.20    4.85
   1   0   5  138.16    4.70
   1   0   5  135.63    4.78
  -2   0  -5   95.24    3.22
  -2   0  -5   91.70    3.25
  -2   0  -5   96.51    3.46
  -2   0  -5   91.93    3.20
  -2   0  -5   93.59    3.50
   2   0   5   91.21    3.29
   2   0   5   95.87    3.26
   2   0   5   95.83    3.52
   2   0   5   96.21    3.47
   2   0   5   93.28    3.44
  -3   0  -5  191.88    6.46
  -3   0  -5  188.49    6.36
  -3   0  -5  186.73    6.74
  -3   0  -5  200.89    6.44
  -3   0  -5  200.75    6.43
  -3   0  -5  198.19    6.74
  -3   0  -5  205.06    6.73
   3   0   5  180.45    6.72
   3   0   5  190.42    6.46
   3   0   5  188.11    6.69
   3   0   5  193.46    6.52
   3   0   5  194.96    6.71
  -4   0  -5   54.71    2.36
  -4   0  -5   46.92    2.33
  -4   0  -5   53.74    1.98
  -4   0  -5   49.28    2.28
  -4   0  -5   52.64    1.98
  -4   0  -5   52.77    2.10
  -4   0  -5   51.73    1.91
   4   0   5   55.99    2.20
   4   0   5   53.44    2.27
   4   0   5   50.78    2.32
   4   0   5   46.98    1.99
   4   0   5   51.43    2.34
  -5   0  -5  104.50    3.99
  -5   0  -5   91.28    4.53
  -5   0  -5   95.44    3.41
  -5   0  -5  101.03    3.72
  -5   0  -5  101.05    3.50
  -5   0  -5   92.72    3.86
   5   0   5  104.86    4.02
   5   0   5   87.13    3.86
   5   0   5  100.57    3.78
   5   0   5   96.31    3.51
   5   0   5   99.86    3.79
  -6   0  -5   27.85    2.00
  -6   0  -5   28.36    1.78
  -6   0  -5   29.73    1.34
  -6   0  -5   31.00    1.79
  -6   0  -5   29.66    2.11
   6   0   5   30.56    2.05
   6   0   5   27.05    1.43
   6   0   5   32.90    1.87
   6   0   5   28.52    1.79
   6   0   5   27.40    1.84
  -7   0  -5   81.02    3.51
  -7   0  -5   76.92    3.54
  -7   0  -5   81.72    2.95
  -7   0  -5   77.80    3.92
   7   0   5   77.99    3.58
   7   0   5   76.49    3.89
   7   0   5   75.08    3.06
   9  -1  -5   37.62    2.27
   9  -1  -5   34.98    2.73
  -9   1   5   31.00    2.93
  -9   1   5   33.80    2.06
   8  -1  -5   83.92    3.79
   8  -1  -5   96.54    3.62
   8  -1  -5   86.89    3.66
  -8   1   5   85.77    3.50
  -8   1   5   85.81    3.57
  -8   1   5   80.40    3.88
   7  -1  -5   32.25    1.74
   7  -1  -5   32.84    1.79
   7  -1  -5   31.47    1.83
   7  -1  -5   33.21    1.91
  -7   1   5   33.78    1.71
  -7   1   5   32.89    1.83
  -7   1   5   32.18    2.00
  -7   1   5   30.68    1.69
   6  -1  -5   85.09    3.48
   6  -1  -5   83.76    3.37
   6  -1  -5   88.61    3.36
   6  -1  -5   91.84    3.50
  -6   1   5   85.16    3.56
  -6   1   5   92.81    3.49
  -6   1   5   93.21    3.38
  -6   1   5   87.92    3.42
   5  -1  -5   26.71    1.34
   5  -1  -5   28.09    1.46
   5  -1  -5   28.66    1.35
   5  -1  -5   26.89    1.41
  -5   1   5   27.87    1.50
  -5   1   5   27.93    1.39
  -5   1   5   26.35    1.48
  -5   1   5   28.60    1.51
   4  -1  -5  315.32   11.06
   4  -1  -5  344.85   11.03
   4  -1  -5  314.54   11.11
   4  -1  -5  348.93   11.19
  -4   1   5  337.52   11.17
  -4   1   5  339.41   11.09
  -4   1   5  343.43   11.27
  -4   1   5  347.29   11.16
   3  -1  -5   66.83    2.58
   3  -1  -5   67.56    2.40
   3  -1  -5   70.19    2.52
   3  -1  -5   65.97    2.28
   3  -1  -5   65.01    2.51
  -3   1   5   66.22    2.56
  -3   1   5   71.10    2.53
  -3   1   5   68.28    2.65
  -3   1   5   65.72    2.48
  -3   1   5   68.66    2.28
   2  -1  -5  263.88    8.70
   2  -1  -5  265.68    8.87
   2  -1  -5  269.36    8.78
   2  -1  -5  266.30    8.96
  -2   1   5  260.66    8.86
  -2   1   5  267.21    8.79
  -2   1   5  267.01    8.75
  -2   1   5  282.10    8.76
  -2   1   5  296.71    9.01
  -2   1   5  259.59    8.99
   1  -1  -5  136.01    4.55
   1  -1  -5  130.19    4.45
   1  -1  -5  130.32    4.58
   1  -1  -5  133.04    4.47
  -1   1   5  127.27    4.57
  -1   1   5  135.45    4.49
  -1   1   5  125.20    4.43
  -1   1   5  133.44    4.48
   0  -1  -5  224.92    7.52
   0  -1  -5  235.10    7.64
   0  -1  -5  236.68    7.58
   0  -1  -5  235.41    7.71
   0   1   5  228.57    7.69
   0   1   5  217.76    7.63
   0   1   5  221.60    7.65
   0   1   5  229.98    7.64
  -1  -1  -5   38.86    1.39
  -1  -1  -5   40.29    1.55
  -1  -1  -5   42.68    1.77
  -1  -1  -5   40.68    1.78
  -1  -1  -5   39.01    1.52
  -1  -1  -5   39.96    1.71
   1   1   5   42.96    1.77
   1   1   5   39.58    1.42
   1   1   5   37.55    1.61
   1   1   5   38.54    1.73
   1   1   5   38.87    1.69
  -2  -1  -5  239.32    8.42
  -2  -1  -5  249.98    8.07
  -2  -1  -5  251.12    8.10
  -2  -1  -5  249.78    8.41
  -2  -1  -5  243.41    8.17
  -2  -1  -5  246.58    8.40
  -2  -1  -5  242.54    8.12
   2   1   5  257.57    8.15
   2   1   5  257.31    8.39
   2   1   5  245.43    8.19
   2   1   5  241.67    8.44
   2   1   5  241.05    8.41
  -3  -1  -5   63.44    2.75
  -3  -1  -5   67.64    2.46
  -3  -1  -5   67.39    2.49
  -3  -1  -5   63.90    2.40
  -3  -1  -5   69.35    2.82
  -3  -1  -5   67.39    2.81
  -3  -1  -5   70.52    2.56
   3   1   5   67.34    2.82
   3   1   5   67.21    2.50
   3   1   5   67.55    2.58
   3   1   5   70.85    2.76
   3   1   5   68.17    2.85
  -4  -1  -5  134.51    4.71
  -4  -1  -5  143.64    5.06
  -4  -1  -5  131.01    4.97
  -4  -1  -5  129.30    5.21
   4   1   5  132.48    5.06
   4   1   5  140.39    4.81
   4   1   5  141.32    4.94
   4   1   5  115.93    5.36
   4   1   5  130.80    4.60
  -5  -1  -5   11.34    1.42
  -5  -1  -5    9.56    1.16
  -5  -1  -5    9.19    1.03
  -5  -1  -5   10.14    1.05
  -5  -1  -5    9.03    0.97
   5   1   5    9.84    1.14
   5   1   5   10.25    1.12
   5   1   5    9.64    1.24
   5   1   5    8.98    0.84
   5   1   5   10.50    1.19
  -6  -1  -5   59.46    2.48
  -6  -1  -5   52.41    2.69
  -6  -1  -5   56.58    3.06
  -6  -1  -5   58.75    2.69
   6   1   5   57.39    2.28
   6   1   5   53.20    2.68
   6   1   5   51.68    2.24
   6   1   5   55.43    3.08
   6   1   5   51.82    2.76
   9  -2  -5   39.73    2.67
   9  -2  -5   44.66    2.34
  -9   2   5   43.20    2.38
  -9   2   5   41.48    2.43
  -9   2   5   39.66    3.01
   8  -2  -5   23.05    1.75
   8  -2  -5   20.35    1.75
   8  -2  -5   23.73    1.53
   8  -2  -5   19.17    1.82
  -8   2   5   21.13    1.52
  -8   2   5   21.87    1.55
  -8   2   5   19.45    2.01
   7  -2  -5   94.16    3.78
   7  -2  -5   91.53    3.81
   7  -2  -5   94.85    3.60
   7  -2  -5   95.85    3.69
  -7   2   5   96.23    3.78
  -7   2   5   94.65    3.61
  -7   2   5   92.85    3.97
   6  -2  -5   28.81    1.65
   6  -2  -5   32.15    1.53
   6  -2  -5   31.01    1.68
   6  -2  -5   31.42    1.54
  -6   2   5   29.67    1.74
  -6   2   5   30.13    1.61
  -6   2   5   31.12    1.54
   5  -2  -5  156.41    5.83
   5  -2  -5  168.39    5.70
   5  -2  -5  167.96    5.75
   5  -2  -5  169.71    5.89
  -5   2   5  168.35    5.89
  -5   2   5  172.81    5.88
  -5   2   5  156.86    5.84
  -5   2   5  169.80    5.97
   4  -2  -5   96.51    3.35
   4  -2  -5   89.21    3.41
   4  -2  -5   92.30    3.50
   4  -2  -5  100.72    3.59
  -4   2   5   98.93    3.46
  -4   2   5   95.12    3.56
  -4   2   5   93.61    3.43
  -4   2   5   95.29    3.64
   3  -2  -5   51.92    1.86
   3  -2  -5   51.92    2.14
   3  -2  -5   52.24    2.04
   3  -2  -5   53.79    1.90
  -3   2   5   54.78    1.79
  -3   2   5   54.44    2.24
  -3   2   5   51.64    2.17
  -3   2   5   52.13    2.03
  -3   2   5   51.24    1.93
  -3   2   5   53.30    1.84
   2  -2  -5   18.73    0.94
   2  -2  -5   20.49    1.04
   2  -2  -5   19.80    0.73
   2  -2  -5   19.68    0.89
  -2   2   5   19.43    0.96
  -2   2   5   19.25    1.11
  -2   2   5   21.23    0.91
  -2   2   5   20.14    0.90
  -2   2   5   19.43    0.74
   1  -2  -5  170.53    5.52
   1  -2  -5  157.37    5.42
   1  -2  -5  152.37    5.40
   1  -2  -5  168.98    5.65
  -1   2   5  150.99    5.53
  -1   2   5  159.84    5.45
  -1   2   5  164.87    5.49
   0  -2  -5   52.08    2.17
   0  -2  -5   48.58    2.02
   0  -2  -5   50.64    1.94
   0  -2  -5   52.03    1.96
   0   2   5   49.29    2.05
   0   2   5   52.52    2.18
   0   2   5   53.80    2.08
   0   2   5   51.78    2.11
  -1  -2  -5  128.40    4.90
  -1  -2  -5  128.08    4.34
  -1  -2  -5  136.77    4.49
  -1  -2  -5  130.78    4.71
  -1  -2  -5  129.44    4.53
  -1  -2  -5  135.89    4.84
   1   2   5  132.30    4.83
   1   2   5  134.68    4.34
   1   2   5  139.59    4.75
   1   2   5  132.36    4.80
   1   2   5  130.00    4.62
  -2  -2  -5    4.62    0.52
  -2  -2  -5    4.29    0.43
  -2  -2  -5    3.69    0.55
  -2  -2  -5    5.10    0.67
  -2  -2  -5    5.31    0.72
  -2  -2  -5    4.15    0.40
   2   2   5    3.99    0.60
   2   2   5    3.54    0.59
   2   2   5    4.82    0.57
   2   2   5    4.54    0.62
   2   2   5    3.33    0.44
  -3  -2  -5   78.57    2.89
  -3  -2  -5   72.00    3.35
  -3  -2  -5   79.38    3.03
  -3  -2  -5   78.87    2.74
  -3  -2  -5   77.87    3.22
  -3  -2  -5   80.37    3.29
   3   2   5   82.78    2.95
   3   2   5   83.29    3.23
   3   2   5   79.33    3.54
   3   2   5   79.33    3.34
   3   2   5   77.86    2.88
  -4  -2  -5   39.15    1.90
  -4  -2  -5   41.43    2.23
  -4  -2  -5   40.69    2.09
  -4  -2  -5   42.21    1.84
  -4  -2  -5   42.64    2.29
   4   2   5   41.61    1.70
   4   2   5   44.42    2.17
   4   2   5   38.52    2.27
   4   2   5   38.37    2.17
   4   2   5   41.85    1.91
  -5  -2  -5   54.38    2.66
  -5  -2  -5   54.59    2.92
  -5  -2  -5   58.99    2.56
   5   2   5   57.60    3.04
   5   2   5   54.03    2.09
   5   2   5   56.68    2.05
   5   2   5   60.39    2.62
   5   2   5   52.47    2.84
  -6  -2  -5   37.54    2.01
  -6  -2  -5   42.76    2.37
  -6  -2  -5   30.98    2.77
  -6  -2  -5   42.62    2.45
  -6  -2  -5   38.75    2.28
   6   2   5   40.66    2.54
   6   2   5   39.00    2.96
   6   2   5   36.69    2.40
   9  -3  -5   20.06    2.07
   9  -3  -5   19.03    1.64
  -9   3   5   21.62    1.92
  -9   3   5   19.22    2.16
  -9   3   5   20.90    1.68
   8  -3  -5   30.05    2.18
   8  -3  -5   32.84    1.78
   8  -3  -5   34.94    2.16
   8  -3  -5   31.60    1.98
  -8   3   5   35.03    2.01
  -8   3   5   36.94    2.40
  -8   3   5   35.10    1.96
   7  -3  -5   48.40    2.38
   7  -3  -5   47.05    2.17
   7  -3  -5   50.48    2.13
   7  -3  -5   43.47    2.30
  -7   3   5   46.76    2.17
  -7   3   5   44.43    2.26
   6  -3  -5  111.87    4.28
   6  -3  -5  112.88    4.08
   6  -3  -5  109.07    4.28
   6  -3  -5  114.82    4.08
  -6   3   5  107.47    4.29
  -6   3   5  109.85    4.27
  -6   3   5  117.25    4.15
   5  -3  -5   23.08    1.32
   5  -3  -5   23.34    1.21
   5  -3  -5   23.30    1.14
   5  -3  -5   24.11    1.39
  -5   3   5   22.36    1.21
  -5   3   5   22.26    1.36
  -5   3   5   22.69    1.43
  -5   3   5   22.44    1.26
   4  -3  -5   43.41    1.90
   4  -3  -5   40.02    1.47
   4  -3  -5   37.85    1.70
   4  -3  -5   41.51    1.85
   4  -3  -5   39.85    1.60
  -4   3   5   42.15    1.75
  -4   3   5   42.30    1.93
  -4   3   5   43.54    1.98
  -4   3   5   41.47    1.67
   3  -3  -5   47.44    1.71
   3  -3  -5   50.27    2.05
   3  -3  -5   45.15    1.88
   3  -3  -5   47.57    1.76
  -3   3   5   48.54    1.92
  -3   3   5   47.70    2.09
  -3   3   5   46.06    2.10
  -3   3   5   48.81    1.76
   2  -3  -5  213.98    7.17
   2  -3  -5  207.80    6.77
   2  -3  -5  203.89    7.01
   2  -3  -5  206.51    7.06
   2  -3  -5  205.61    7.29
  -2   3   5  215.92    7.07
  -2   3   5  208.36    7.24
  -2   3   5  227.59    7.10
   1  -3  -5  102.35    3.83
   1  -3  -5  110.57    3.88
   1  -3  -5  108.60    4.13
   1  -3  -5  101.99    3.79
  -1   3   5  110.71    3.96
  -1   3   5  116.14    3.98
  -1   3   5  111.10    3.91
   0  -3  -5  143.61    5.16
   0  -3  -5  148.36    5.34
   0  -3  -5  149.28    5.02
   0  -3  -5  146.63    5.06
   0   3   5  154.54    5.32
   0   3   5  142.18    5.12
  -1  -3  -5  103.60    3.81
  -1  -3  -5  104.33    3.57
  -1  -3  -5  109.26    4.05
  -1  -3  -5  103.26    3.49
  -1  -3  -5  100.60    3.99
  -1  -3  -5  104.18    3.90
  -1  -3  -5  103.66    3.71
   1   3   5  105.86    3.47
   1   3   5   98.19    3.69
   1   3   5  111.30    3.97
   1   3   5  104.29    4.07
   1   3   5  102.11    4.02
  -2  -3  -5   78.04    3.24
  -2  -3  -5   76.22    3.18
  -2  -3  -5   79.20    2.92
  -2  -3  -5   74.46    2.65
  -2  -3  -5   76.69    2.76
  -2  -3  -5   78.00    3.03
   2   3   5   73.69    2.78
   2   3   5   75.74    3.29
   2   3   5   80.53    2.75
   2   3   5   79.05    3.17
  -3  -3  -5   38.00    1.64
  -3  -3  -5   37.85    1.86
  -3  -3  -5   37.08    2.13
  -3  -3  -5   33.70    1.90
  -3  -3  -5   37.19    2.05
   3   3   5   36.09    2.11
   3   3   5   39.20    1.67
   3   3   5   39.61    2.06
   3   3   5   37.33    1.43
   3   3   5   36.21    2.19
  -4  -3  -5   75.70    3.44
  -4  -3  -5   74.00    3.13
  -4  -3  -5   75.05    3.25
  -4  -3  -5   77.31    2.97
   4   3   5   76.11    3.63
   4   3   5   74.47    3.00
   4   3   5   67.42    3.41
  -5  -3  -5   42.15    2.24
  -5  -3  -5   41.09    2.81
  -5  -3  -5   38.30    2.25
   5   3   5   42.38    2.31
   5   3   5   44.12    3.00
   5   3   5   40.44    2.50
   9  -4  -5   78.38    3.14
   9  -4  -5   72.52    3.63
  -9   4   5   70.40    3.92
  -9   4   5   65.18    3.44
  -9   4   5   76.70    3.35
   8  -4  -5   10.56    1.36
   8  -4  -5   10.19    1.10
   8  -4  -5    9.50    1.03
  -8   4   5    8.65    1.19
  -8   4   5   10.19    1.18
  -8   4   5    9.68    1.31
   7  -4  -5  107.00    4.28
   7  -4  -5  107.37    3.94
   7  -4  -5   99.99    4.19
   7  -4  -5  107.50    3.99
  -7   4   5  101.14    4.22
  -7   4   5  102.87    4.24
  -7   4   5  109.20    4.01
   6  -4  -5  102.50    4.20
   6  -4  -5  109.63    4.25
   6  -4  -5  110.43    3.96
   6  -4  -5  112.02    4.01
  -6   4   5  108.84    4.11
  -6   4   5  111.46    4.04
  -6   4   5  106.06    4.30
   5  -4  -5  168.67    5.95
   5  -4  -5  162.73    5.72
   5  -4  -5  159.53    5.92
   5  -4  -5  168.38    5.63
  -5   4   5  175.25    5.79
  -5   4   5  164.35    5.71
  -5   4   5  157.57    6.02
   4  -4  -5   59.89    2.55
   4  -4  -5   59.86    2.18
   4  -4  -5   57.44    2.50
   4  -4  -5   58.39    2.14
   4  -4  -5   58.23    2.34
  -4   4   5   64.01    2.15
  -4   4   5   59.40    2.60
  -4   4   5   60.25    2.62
   3  -4  -5  143.78    5.05
   3  -4  -5  144.45    4.94
   3  -4  -5  153.24    4.81
   3  -4  -5  146.68    5.36
  -3   4   5  145.34    5.26
  -3   4   5  146.91    5.33
  -3   4   5  137.90    5.09
   2  -4  -5   61.51    2.49
   2  -4  -5   64.58    2.49
   2  -4  -5   68.44    2.61
   2  -4  -5   65.03    2.18
   2  -4  -5   67.32    2.82
   2  -4  -5   65.63    2.18
  -2   4   5   68.59    2.61
  -2   4   5   62.47    2.65
  -2   4   5   67.42    2.56
   1  -4  -5  152.62    5.34
   1  -4  -5  156.89    5.66
   1  -4  -5  149.07    5.33
   1  -4  -5  155.42    5.41
  -1   4   5  158.03    5.57
  -1   4   5  161.40    5.50
  -1   4   5  149.12    5.40
   0  -4  -5   11.12    1.14
   0  -4  -5   13.45    1.00
   0  -4  -5   12.50    1.00
   0  -4  -5   12.34    0.58
   0  -4  -5   12.62    0.78
   0  -4  -5   13.95    0.91
   0   4   5   13.90    1.10
   0   4   5   14.57    1.14
   0   4   5   13.14    0.89
  -1  -4  -5  139.07    5.04
  -1  -4  -5  128.34    4.37
  -1  -4  -5  129.67    4.77
  -1  -4  -5  127.77    4.64
  -1  -4  -5  133.87    4.39
  -1  -4  -5  122.94    4.90
  -1  -4  -5  128.36    4.84
   1   4   5  126.79    5.03
   1   4   5  129.26    5.08
   1   4   5  137.21    4.94
   1   4   5  132.85    4.47
  -2  -4  -5   35.55    1.95
  -2  -4  -5   34.27    1.72
  -2  -4  -5   36.87    1.52
  -2  -4  -5   38.13    1.93
  -2  -4  -5   35.30    1.99
  -2  -4  -5   39.44    2.20
   2   4   5   32.73    2.05
   2   4   5   36.29    2.20
   2   4   5   37.78    2.13
   2   4   5   36.28    1.50
  -3  -4  -5   51.91    2.11
  -3  -4  -5   47.35    2.41
  -3  -4  -5   49.81    2.49
  -3  -4  -5   53.67    2.29
  -3  -4  -5   49.49    2.64
   3   4   5   50.82    2.19
   3   4   5   45.48    2.64
   3   4   5   45.66    2.83
  -4  -4  -5   17.81    1.58
  -4  -4  -5   20.12    1.81
  -4  -4  -5   21.21    2.15
  -4  -4  -5   18.03    1.51
   4   4   5   20.36    2.33
   4   4   5   16.75    1.79
   9  -5  -5   17.29    1.57
   9  -5  -5   14.26    1.74
  -9   5   5   16.34    1.70
  -9   5   5   17.58    1.99
  -9   5   5   16.93    1.67
   8  -5  -5   61.09    2.61
   8  -5  -5   54.81    2.73
   8  -5  -5   58.76    3.04
  -8   5   5   57.49    2.98
  -8   5   5   61.91    2.75
  -8   5   5   59.04    3.05
   7  -5  -5   35.57    2.06
   7  -5  -5   31.99    1.76
   7  -5  -5   34.77    1.80
   7  -5  -5   33.22    2.20
  -7   5   5   33.42    1.98
  -7   5   5   30.06    1.96
   6  -5  -5   72.28    2.80
   6  -5  -5   71.17    3.12
   6  -5  -5   75.81    3.21
   6  -5  -5   73.16    2.89
  -6   5   5   69.03    3.20
   5  -5  -5   17.16    1.32
   5  -5  -5   16.05    1.29
   5  -5  -5   15.20    0.92
   5  -5  -5   15.94    0.78
   5  -5  -5   13.90    1.01
   5  -5  -5   15.43    0.89
  -5   5   5   14.80    0.80
  -5   5   5   13.43    1.22
   4  -5  -5   92.04    3.53
   4  -5  -5   85.05    3.13
   4  -5  -5   85.16    3.08
   4  -5  -5   86.93    3.31
  -4   5   5   93.75    3.21
  -4   5   5   86.15    3.61
   3  -5  -5   17.26    1.07
   3  -5  -5   16.46    0.77
   3  -5  -5   14.84    1.34
   3  -5  -5   18.00    0.76
   3  -5  -5   17.64    1.21
   3  -5  -5   16.31    0.98
  -3   5   5   17.01    1.04
   2  -5  -5  120.00    3.91
   2  -5  -5  120.49    4.63
   2  -5  -5  119.08    4.35
   2  -5  -5  115.22    3.90
   2  -5  -5  116.36    4.27
  -2   5   5  120.07    4.43
   1  -5  -5   30.47    1.59
   1  -5  -5   31.20    1.15
   1  -5  -5   32.49    1.69
   1  -5  -5   30.09    1.45
   1  -5  -5   29.78    1.52
   1  -5  -5   30.33    1.14
   1  -5  -5   30.90    1.89
  -1   5   5   31.68    1.77
   0  -5  -5   96.76    3.32
   0  -5  -5   90.36    3.69
   0  -5  -5   94.61    3.20
   0  -5  -5   92.48    3.90
   0  -5  -5   94.02    3.56
   0  -5  -5   93.42    3.87
   0  -5  -5   95.08    3.72
   0   5   5   95.51    3.96
  -1  -5  -5   35.78    2.10
  -1  -5  -5   35.12    1.33
  -1  -5  -5   37.49    1.49
  -1  -5  -5   37.27    2.29
  -1  -5  -5   35.13    1.79
  -1  -5  -5   37.34    2.01
  -1  -5  -5   35.00    2.00
   1   5   5   34.95    2.16
  -2  -5  -5   59.45    2.77
  -2  -5  -5   57.74    2.91
  -2  -5  -5   57.42    2.59
  -2  -5  -5   61.71    2.32
   2   5   5   56.12    3.04
   2   5   5   56.73    3.23
  -3  -5  -5   18.63    1.37
  -3  -5  -5   17.64    1.51
  -3  -5  -5   13.16    1.58
  -3  -5  -5   17.12    1.58
   3   5   5   15.95    1.96
   8  -6  -5   44.70    2.71
   8  -6  -5   44.36    2.23
   8  -6  -5   44.92    2.50
  -8   6   5   39.68    3.07
   7  -6  -5   44.75    2.15
   7  -6  -5   43.63    2.15
   7  -6  -5   43.96    2.57
  -7   6   5   44.82    2.54
   6  -6  -5   25.95    1.94
   6  -6  -5   19.47    1.66
   6  -6  -5   21.91    1.38
   6  -6  -5   21.68    0.98
   6  -6  -5   20.83    1.08
   6  -6  -5   20.73    1.30
  -6   6   5   20.71    1.63
   5  -6  -5   88.15    3.15
   5  -6  -5   86.94    3.28
   5  -6  -5   81.54    3.08
   5  -6  -5   88.25    3.63
   5  -6  -5   83.76    3.33
   5  -6  -5   87.64    3.64
  -5   6   5   91.13    3.16
  -5   6   5   80.32    3.68
   4  -6  -5   53.56    2.34
   4  -6  -5   55.06    2.79
   4  -6  -5   55.02    2.21
   4  -6  -5   57.67    2.57
   4  -6  -5   55.49    2.07
   4  -6  -5   52.82    2.02
  -4   6   5   54.52    2.29
   3  -6  -5  134.70    5.13
   3  -6  -5  130.26    4.78
   3  -6  -5  125.05    4.28
   3  -6  -5  130.20    4.31
   3  -6  -5  125.67    4.61
   3  -6  -5  123.52    4.64
  -3   6   5  128.89    4.75
   2  -6  -5   35.90    1.75
   2  -6  -5   36.85    1.75
   2  -6  -5   35.45    1.34
   2  -6  -5   35.99    2.22
   2  -6  -5   32.08    1.94
   2  -6  -5   34.10    1.33
   2  -6  -5   35.26    1.79
  -2   6   5   34.58    1.94
   1  -6  -5   36.82    2.17
   1  -6  -5   41.89    2.41
   1  -6  -5   39.00    1.93
   1  -6  -5   41.17    1.77
   1  -6  -5   39.24    1.51
   1  -6  -5   41.23    1.52
   1  -6  -5   39.87    2.04
  -1   6   5   39.65    2.26
   0  -6  -5   33.27    2.00
   0  -6  -5   33.43    1.96
   0  -6  -5   32.01    1.80
   0  -6  -5   32.09    1.35
   0  -6  -5   32.29    1.35
   0   6   5   31.50    2.17
  -1  -6  -5   50.79    1.94
  -1  -6  -5   47.55    2.65
  -1  -6  -5   46.61    2.46
  -1  -6  -5   49.07    2.39
   1   6   5   46.03    2.82
   7  -7  -5   20.17    1.94
   7  -7  -5   14.70    1.48
   7  -7  -5   16.71    1.56
  -7   7   5   15.21    2.08
   6  -7  -5   56.41    2.99
   6  -7  -5   56.77    2.25
   6  -7  -5   56.87    2.59
   6  -7  -5   60.89    2.48
   6  -7  -5   58.12    2.46
  -6   7   5   57.18    3.01
   5  -7  -5   52.50    2.10
   5  -7  -5   52.52    2.81
   5  -7  -5   53.05    2.50
   5  -7  -5   51.75    2.05
   5  -7  -5   48.80    2.15
   5  -7  -5   53.20    2.40
   5  -7  -5   51.51    2.72
  -5   7   5   50.08    2.24
  -5   7   5   47.03    2.69
   4  -7  -5   93.00    3.81
   4  -7  -5   82.56    3.79
   4  -7  -5   91.26    3.24
   4  -7  -5   93.19    3.63
   4  -7  -5   91.91    3.22
  -4   7   5   96.07    3.65
   3  -7  -5   45.10    2.14
   3  -7  -5   42.46    2.22
   3  -7  -5   43.30    2.16
   3  -7  -5   42.46    1.68
   3  -7  -5   43.00    1.70
  -3   7   5   44.89    2.25
   2  -7  -5   39.08    2.09
   2  -7  -5   38.82    2.15
   2  -7  -5   41.33    1.56
   2  -7  -5   40.39    2.01
   2  -7  -5   39.14    1.56
  -2   7   5   40.92    2.30
   1  -7  -5   38.35    2.35
   1  -7  -5   37.88    2.16
   1  -7  -5   41.02    2.38
   1  -7  -5   45.95    1.98
  -1   7   5   42.88    2.60
   0  -7  -5   66.08    3.40
   0  -7  -5   77.60    3.95
   5  -8  -5   60.73    4.10
   5  -8  -5   52.34    3.09
   5  -8  -5   53.74    2.51
   5  -8  -5   57.79    2.72
  -5   8   5   56.42    2.61
   4  -8  -5   16.59    1.57
   4  -8  -5   21.46    1.72
   4  -8  -5   19.28    2.11
  -4   8   5   21.15    1.61
   3  -8  -5   68.13    3.12
   3  -8  -5   66.28    3.12
  -3   8   5   66.53    3.19
   0   9  -6   26.68    2.08
   0  -9   6   29.03    2.67
   0  -9   6   28.47    2.12
   1  -9   6   73.72    3.45
   1  -9   6   73.84    3.34
   1  -9   6   75.60    2.89
  -2   9  -6   27.81    2.02
   2  -9   6   31.45    1.96
   2  -9   6   27.23    1.88
   2  -9   6   28.97    1.56
  -3   9  -6   76.18    2.86
  -3   9  -6   65.89    3.36
   3  -9   6   73.16    2.93
   3  -9   6   74.27    2.55
   3  -9   6   73.78    2.53
   3  -9   6   69.41    3.16
   3  -9   6   72.15    3.00
  -4   9  -6   39.14    1.97
   4  -9   6   35.61    2.11
   4  -9   6   39.69    1.63
   4  -9   6   39.33    1.72
   4  -9   6   38.84    1.91
   4  -9   6   41.35    1.99
  -5   9  -6   88.72    3.65
   5  -9   6   85.79    3.67
   5  -9   6   86.08    3.53
   5  -9   6   84.25    3.41
   5  -9   6   85.89    3.23
   5  -9   6   86.51    3.15
   5  -9   6   91.80    3.41
  -6   9  -6   19.34    1.64
   6  -9   6   20.39    1.66
   6  -9   6   21.78    1.69
   6  -9   6   18.74    1.36
   1   8  -6   32.52    2.16
   1   8  -6   34.16    2.36
  -1  -8   6   30.60    2.19
  -1  -8   6   33.00    2.13
  -1  -8   6   33.23    1.40
   0   8  -6   34.03    2.16
   0   8  -6   33.25    2.14
   0  -8   6   35.15    2.11
   0  -8   6   45.42    3.03
   0  -8   6   35.88    2.01
   0  -8   6   34.80    1.60
  -1   8  -6   26.81    1.86
   1  -8   6   29.26    1.73
   1  -8   6   30.51    1.73
   1  -8   6   28.10    1.40
   1  -8   6   34.85    2.94
  -2   8  -6   37.26    2.12
   2  -8   6   35.11    2.44
   2  -8   6   39.71    1.95
   2  -8   6   37.79    1.71
   2  -8   6   36.68    1.84
  -3   8  -6   21.44    1.53
  -3   8  -6   18.10    1.16
   3  -8   6   18.61    0.84
   3  -8   6   17.96    0.88
   3  -8   6   17.08    1.18
   3  -8   6   18.37    1.75
   3  -8   6   18.03    1.32
   3  -8   6   16.17    1.75
  -4   8  -6   74.97    3.05
   4  -8   6   74.73    3.09
   4  -8   6   73.86    2.79
   4  -8   6   75.84    2.70
   4  -8   6   71.28    2.96
   4  -8   6   74.75    2.79
   4  -8   6   74.76    3.38
   4  -8   6   73.97    3.44
  -5   8  -6   54.45    2.59
   5  -8   6   55.12    2.04
   5  -8   6   59.36    3.05
   5  -8   6   59.22    2.95
   5  -8   6   55.92    2.25
   5  -8   6   54.48    2.49
   5  -8   6   55.53    2.55
   5  -8   6   56.08    2.12
  -6   8  -6   45.91    2.47
   6  -8   6   48.59    2.36
   6  -8   6   48.29    2.75
   6  -8   6   49.57    2.18
  -7   8  -6    8.90    1.33
   7  -8   6    5.38    0.89
   7  -8   6    7.89    1.24
   7  -8   6    6.57    0.95
   7  -8   6    6.83    1.23
   3   7  -6   26.85    2.29
   3   7  -6   28.15    2.13
  -3  -7   6   30.64    2.18
  -3  -7   6   30.15    2.07
   2   7  -6   31.98    2.16
   2   7  -6   32.05    2.01
  -2  -7   6   30.75    2.00
  -2  -7   6   32.68    2.08
  -2  -7   6   32.08    1.40
   1   7  -6   66.58    2.95
   1   7  -6   62.01    2.99
  -1  -7   6   60.90    2.83
  -1  -7   6   65.69    3.27
  -1  -7   6   68.40    2.47
  -1  -7   6   63.77    2.91
  -1  -7   6   67.24    2.27
  -1  -7   6   67.33    2.90
   0   7  -6   14.38    1.25
   0   7  -6   16.93    1.31
   0  -7   6   14.46    0.91
   0  -7   6   14.68    1.19
   0  -7   6   11.59    1.52
   0  -7   6   14.31    1.18
  -1   7  -6   91.05    3.44
  -1   7  -6   89.55    3.66
   1  -7   6   88.30    3.23
   1  -7   6   88.70    3.75
   1  -7   6   83.14    3.41
   1  -7   6   89.17    3.37
  -2   7  -6   16.44    1.27
  -2   7  -6   17.04    0.94
  -2   7  -6   18.80    1.10
   2  -7   6   16.37    1.04
   2  -7   6   16.01    0.99
   2  -7   6   15.66    1.44
   2  -7   6   15.80    1.13
  -3   7  -6  138.71    4.83
   3  -7   6  135.26    4.82
   3  -7   6  139.56    5.13
   3  -7   6  130.77    4.51
   3  -7   6  135.02    4.56
   3  -7   6  136.42    4.70
   3  -7   6  141.33    5.22
   3  -7   6  130.56    4.90
  -4   7  -6   39.07    1.91
   4  -7   6   38.18    1.86
   4  -7   6   41.74    2.18
   4  -7   6   39.19    1.88
   4  -7   6   39.51    1.60
   4  -7   6   40.76    1.60
   4  -7   6   40.31    2.10
  -5   7  -6   52.11    2.67
  -5   7  -6   52.75    2.44
   5  -7   6   50.04    1.78
   5  -7   6   53.97    2.56
   5  -7   6   50.45    2.29
   5  -7   6   53.86    2.57
   5  -7   6   52.50    2.13
   5  -7   6   52.71    1.82
  -6   7  -6   42.15    2.25
  -6   7  -6   41.24    2.40
   6  -7   6   43.78    2.28
   6  -7   6   41.22    1.93
   6  -7   6   41.35    2.35
   6  -7   6   38.92    2.03
  -7   7  -6   76.22    3.60
  -7   7  -6   76.02    3.54
   7  -7   6   80.60    3.28
   7  -7   6   74.34    3.44
   7  -7   6   76.76    3.29
   7  -7   6   77.92    3.50
  -8   7  -6   30.75    2.42
  -8   7  -6   31.27    2.79
   8  -7   6   26.72    1.98
   8  -7   6   28.81    2.07
   8  -7   6   31.02    2.31
   8  -7   6   30.39    2.10
   4   6  -6   62.42    2.99
   4   6  -6   57.42    3.12
   4   6  -6   59.77    2.93
  -4  -6   6   64.58    2.70
  -4  -6   6   58.14    3.11
  -4  -6   6   59.33    2.95
   3   6  -6   15.88    1.40
   3   6  -6   18.10    1.68
   3   6  -6   16.51    1.34
  -3  -6   6   21.35    1.65
  -3  -6   6   17.29    1.06
  -3  -6   6   16.10    1.43
  -3  -6   6   18.17    1.93
   2   6  -6   76.11    3.25
   2   6  -6   73.75    2.65
   2   6  -6   72.38    3.20
   2   6  -6   80.49    3.29
  -2  -6   6   74.46    2.72
  -2  -6   6   75.77    3.17
  -2  -6   6   74.37    3.11
  -2  -6   6   74.98    2.66
  -2  -6   6   75.49    3.39
  -2  -6   6   76.97    3.15
   1   6  -6   27.65    1.62
   1   6  -6   26.30    1.58
   1   6  -6   27.18    1.57
   1   6  -6   27.14    1.20
  -1  -6   6   25.65    1.23
  -1  -6   6   29.12    1.78
  -1  -6   6   24.40    1.48
  -1  -6   6   25.65    1.46
   0   6  -6  175.17    5.78
   0   6  -6  165.67    6.13
   0   6  -6  168.43    5.98
   0  -6   6  174.50    6.23
   0  -6   6  176.55    5.94
   0  -6   6  163.49    5.77
   0  -6   6  166.21    5.97
  -1   6  -6   60.05    2.36
  -1   6  -6   61.99    2.45
  -1   6  -6   62.23    2.13
  -1   6  -6   61.80    2.65
   1  -6   6   59.87    2.47
   1  -6   6   60.12    2.39
   1  -6   6   63.90    2.76
   1  -6   6   60.21    2.34
  -2   6  -6  120.87    4.35
  -2   6  -6  128.26    4.33
  -2   6  -6  137.29    4.46
  -2   6  -6  117.99    4.62
   2  -6   6  121.82    4.37
   2  -6   6  117.02    4.43
   2  -6   6  125.15    4.73
   2  -6   6  129.11    4.34
  -3   6  -6   75.12    2.91
  -3   6  -6   75.46    3.23
   3  -6   6   76.99    2.72
   3  -6   6   73.98    2.90
   3  -6   6   77.26    3.19
   3  -6   6   74.87    2.62
   3  -6   6   78.44    3.09
   3  -6   6   75.92    2.88
  -4   6  -6  107.31    4.25
  -4   6  -6  109.91    4.05
   4  -6   6  106.68    3.59
   4  -6   6  102.79    3.72
   4  -6   6  109.41    4.10
   4  -6   6  108.51    4.17
   4  -6   6  104.71    3.91
  -5   6  -6   23.19    1.48
  -5   6  -6   24.61    1.71
  -5   6  -6   27.91    1.43
   5  -6   6   25.23    1.58
   5  -6   6   25.35    1.29
   5  -6   6   24.69    1.56
   5  -6   6   25.46    1.41
  -6   6  -6  158.04    5.57
  -6   6  -6  144.14    5.67
   6  -6   6  150.36    5.40
   6  -6   6  154.56    5.62
   6  -6   6  157.40    5.62
   6  -6   6  141.28    5.66
   6  -6   6  150.59    5.46
  -7   6  -6   32.23    2.18
  -7   6  -6   30.31    1.96
  -7   6  -6   33.07    2.07
   7  -6   6   28.75    1.79
   7  -6   6   29.75    1.90
   7  -6   6   27.23    1.71
   7  -6   6   30.03    1.91
  -8   6  -6   61.79    3.33
  -8   6  -6   65.81    3.24
   8  -6   6   61.41    3.03
   8  -6   6   62.54    3.02
   8  -6   6   61.88    3.05
   8  -6   6   63.01    2.92
   5   5  -6   47.63    2.46
   5   5  -6   51.81    2.76
   5   5  -6   47.50    2.81
  -5  -5   6   46.58    2.48
  -5  -5   6   50.02    2.82
  -5  -5   6   50.22    2.34
   4   5  -6   43.18    1.57
   4   5  -6   44.16    2.18
   4   5  -6   43.41    2.18
   4   5  -6   45.07    2.42
  -4  -5   6   40.81    2.38
  -4  -5   6   44.14    2.42
  -4  -5   6   41.99    2.10
   3   5  -6   83.84    3.34
   3   5  -6   73.40    2.96
   3   5  -6   76.25    2.70
   3   5  -6   75.93    3.23
   3   5  -6   72.65    3.15
  -3  -5   6   76.31    3.22
  -3  -5   6   74.54    3.12
  -3  -5   6   76.67    3.12
  -3  -5   6   79.12    3.31
  -3  -5   6   79.37    2.80
  -3  -5   6   76.06    2.78
   2   5  -6   33.94    1.42
   2   5  -6   34.68    1.78
   2   5  -6   32.04    1.92
   2   5  -6   37.38    1.80
   2   5  -6   33.72    1.41
  -2  -5   6   34.10    1.86
  -2  -5   6   34.23    1.69
  -2  -5   6   34.93    1.49
  -2  -5   6   33.66    1.32
   1   5  -6  105.98    3.90
   1   5  -6  101.55    3.88
   1   5  -6  102.22    3.64
   1   5  -6  100.66    3.93
  -1  -5   6  104.94    3.87
  -1  -5   6  101.82    3.69
  -1  -5   6  110.49    4.07
  -1  -5   6  108.67    3.84
   0   5  -6   33.62    1.60
   0   5  -6   36.95    1.74
   0   5  -6   39.05    1.54
   0  -5   6   36.09    1.62
   0  -5   6   34.96    1.51
   0  -5   6   36.48    1.61
   0  -5   6   37.41    1.84
  -1   5  -6   64.84    2.48
  -1   5  -6   66.82    2.48
  -1   5  -6   69.36    2.34
  -1   5  -6   64.25    2.65
   1  -5   6   64.66    2.46
   1  -5   6   61.29    2.50
   1  -5   6   70.04    2.77
   1  -5   6   65.42    2.45
  -2   5  -6   73.55    3.05
  -2   5  -6   77.52    2.73
  -2   5  -6   79.87    2.80
  -2   5  -6   72.14    2.65
   2  -5   6   71.67    2.73
   2  -5   6   77.85    3.01
   2  -5   6   71.32    2.44
   2  -5   6   72.77    2.64
   2  -5   6   69.43    2.75
  -3   5  -6   99.92    3.62
  -3   5  -6   97.24    3.58
  -3   5  -6   95.56    3.85
  -3   5  -6   98.34    3.32
   3  -5   6   99.84    3.68
   3  -5   6  102.85    3.79
   3  -5   6   96.26    3.35
   3  -5   6   98.61    3.33
   3  -5   6   93.90    3.53
  -4   5  -6   13.86    1.18
  -4   5  -6   15.21    0.99
  -4   5  -6   13.26    1.01
  -4   5  -6   13.91    0.90
   4  -5   6   13.02    0.81
   4  -5   6   16.11    1.10
   4  -5   6   13.97    0.91
   4  -5   6   17.14    1.16
  -5   5  -6   66.67    2.59
  -5   5  -6   57.99    2.66
  -5   5  -6   61.24    2.82
   5  -5   6   63.79    2.70
   5  -5   6   59.05    2.45
   5  -5   6   61.67    2.76
   5  -5   6   61.83    2.53
   5  -5   6   62.22    2.63
  -6   5  -6   47.45    2.40
  -6   5  -6   49.36    2.59
  -6   5  -6   52.45    2.38
   6  -5   6   45.84    2.16
   6  -5   6   50.94    2.34
   6  -5   6   46.50    2.40
   6  -5   6   50.35    2.36
   6  -5   6   50.02    2.23
  -7   5  -6   89.48    3.74
  -7   5  -6   79.60    3.70
  -7   5  -6   85.18    3.87
   7  -5   6   86.85    3.46
   7  -5   6   80.28    3.53
   7  -5   6   88.18    3.68
   7  -5   6   85.23    3.65
   7  -5   6   92.41    3.58
  -8   5  -6   30.35    2.46
  -8   5  -6   32.13    2.16
   8  -5   6   32.23    2.14
   8  -5   6   33.03    2.06
   8  -5   6   32.14    2.01
   8  -5   6   36.59    2.25
   6   4  -6   26.94    2.22
   6   4  -6   32.13    2.33
   6   4  -6   30.02    1.78
  -6  -4   6   29.80    1.97
  -6  -4   6   29.97    1.88
  -6  -4   6   28.63    2.34
  -6  -4   6   25.11    2.32
   5   4  -6   27.89    1.64
   5   4  -6   29.62    1.92
   5   4  -6   27.61    1.77
   5   4  -6   26.11    1.28
  -5  -4   6   25.79    1.95
  -5  -4   6   29.50    1.59
  -5  -4   6   27.61    1.65
  -5  -4   6   28.26    1.88
   4   4  -6   83.84    3.30
   4   4  -6   81.38    2.98
   4   4  -6   86.73    3.49
   4   4  -6   83.07    3.44
   4   4  -6   75.59    3.22
  -4  -4   6   84.56    3.05
  -4  -4   6   82.72    3.47
  -4  -4   6   84.88    3.35
  -4  -4   6   85.86    3.41
  -4  -4   6   81.46    3.23
  -4  -4   6   84.54    3.10
   3   4  -6   19.20    1.08
   3   4  -6   17.55    0.97
   3   4  -6   21.22    1.32
   3   4  -6   17.47    1.26
   3   4  -6   18.68    1.17
  -3  -4   6   19.24    1.21
  -3  -4   6   17.44    1.00
  -3  -4   6   19.02    0.94
  -3  -4   6   18.32    1.11
  -3  -4   6   19.46    1.29
  -3  -4   6   20.11    1.34
   2   4  -6   40.23    1.61
   2   4  -6   40.07    1.80
   2   4  -6   38.85    1.81
   2   4  -6   36.63    1.51
  -2  -4   6   38.07    1.44
  -2  -4   6   38.64    1.79
  -2  -4   6   39.37    1.76
  -2  -4   6   38.73    1.65
  -2  -4   6   42.99    1.91
   1   4  -6   30.82    1.46
   1   4  -6   32.06    1.50
   1   4  -6   32.62    1.36
   1   4  -6   34.05    1.79
  -1  -4   6   30.05    1.43
  -1  -4   6   28.95    1.35
  -1  -4   6   32.67    1.57
  -1  -4   6   31.16    1.42
   0   4  -6  141.31    4.95
   0   4  -6  140.30    5.05
   0   4  -6  139.58    4.86
   0   4  -6  142.76    4.81
   0   4  -6  148.14    4.59
   0  -4   6  138.28    4.81
   0  -4   6  146.26    5.05
   0  -4   6  133.18    4.79
   0  -4   6  133.18    4.83
  -1   4  -6  127.83    4.38
  -1   4  -6  132.88    4.29
  -1   4  -6  121.67    4.32
  -1   4  -6  124.56    4.60
   1  -4   6  124.49    4.36
   1  -4   6  126.16    4.57
   1  -4   6  123.78    4.36
   1  -4   6  128.83    4.31
  -2   4  -6  205.45    7.23
  -2   4  -6  209.59    6.78
  -2   4  -6  224.87    7.03
  -2   4  -6  205.66    6.83
   2  -4   6  196.29    6.95
   2  -4   6  205.20    6.83
   2  -4   6  202.68    6.76
   2  -4   6  203.11    6.95
   2  -4   6  221.19    7.21
  -3   4  -6   47.86    1.82
  -3   4  -6   45.91    2.14
  -3   4  -6   45.15    1.61
  -3   4  -6   50.72    1.99
   3  -4   6   47.46    2.06
   3  -4   6   46.20    1.77
   3  -4   6   41.85    1.85
   3  -4   6   45.56    1.95
   3  -4   6   47.91    1.61
  -4   4  -6  131.27    4.43
  -4   4  -6  121.53    4.53
  -4   4  -6  117.94    4.66
   4  -4   6  121.39    4.64
   4  -4   6  120.69    4.33
   4  -4   6  121.77    4.38
   4  -4   6  126.72    4.57
   4  -4   6  128.21    4.48
  -5   4  -6   41.88    1.90
  -5   4  -6   38.72    1.95
  -5   4  -6   38.22    2.11
   5  -4   6   36.64    1.75
   5  -4   6   40.92    1.95
   5  -4   6   40.40    1.81
   5  -4   6   40.05    1.90
   5  -4   6   39.61    2.02
  -6   4  -6   83.98    3.74
  -6   4  -6   89.87    3.53
  -6   4  -6   83.35    3.57
   6  -4   6   83.94    3.30
   6  -4   6   83.47    3.41
   6  -4   6   89.23    3.47
   6  -4   6   81.33    3.53
   6  -4   6   87.21    3.44
  -7   4  -6   47.96    2.74
  -7   4  -6   48.43    2.59
  -7   4  -6   53.11    2.57
  -7   4  -6   49.10    2.56
   7  -4   6   51.08    2.59
   7  -4   6   48.37    2.41
   7  -4   6   49.62    2.48
   7  -4   6   44.11    2.41
   7  -4   6   48.19    2.24
  -8   4  -6   42.39    2.79
  -8   4  -6   39.78    2.46
  -8   4  -6   42.63    2.64
   8  -4   6   43.87    2.56
   8  -4   6   39.52    2.30
   8  -4   6   39.04    2.18
   8  -4   6   39.69    2.39
   7   3  -6   48.89    2.90
   7   3  -6   47.33    3.00
   7   3  -6   51.72    2.39
  -7  -3   6   49.34    3.21
  -7  -3   6   53.25    3.36
  -7  -3   6   51.01    2.54
   6   3  -6   39.13    2.19
   6   3  -6   30.87    2.12
   6   3  -6   35.26    1.78
   6   3  -6   35.84    1.83
  -6  -3   6   32.86    2.02
  -6  -3   6   37.29    1.63
  -6  -3   6   34.45    1.83
  -6  -3   6   31.64    2.21
  -6  -3   6   38.05    1.93
   5   3  -6   84.68    3.48
   5   3  -6   77.64    3.35
   5   3  -6   87.70    3.51
   5   3  -6   84.49    3.26
   5   3  -6   84.60    3.21
  -5  -3   6   88.91    3.00
  -5  -3   6   80.21    3.40
  -5  -3   6   83.30    3.20
  -5  -3   6   84.65    3.18
  -5  -3   6   84.24    3.23
  -5  -3   6   87.05    3.37
  -5  -3   6   79.48    3.52
   4   3  -6   19.88    1.38
   4   3  -6   20.38    1.19
   4   3  -6   20.09    1.33
   4   3  -6   21.24    1.24
   4   3  -6   21.86    1.21
  -4  -3   6   20.19    1.14
  -4  -3   6   20.45    1.15
  -4  -3   6   22.57    1.33
  -4  -3   6   22.17    1.44
  -4  -3   6   21.61    1.50
  -4  -3   6   22.29    1.13
  -4  -3   6   23.99    0.98
   3   3  -6  238.97    8.56
   3   3  -6  264.44    8.58
   3   3  -6  239.20    8.35
   3   3  -6  250.12    8.46
   3   3  -6  259.06    8.44
  -3  -3   6  249.36    8.28
  -3  -3   6  258.85    8.54
  -3  -3   6  253.37    8.59
  -3  -3   6  262.25    8.54
  -3  -3   6  244.11    8.41
   2   3  -6   86.87    3.31
   2   3  -6   89.46    3.04
   2   3  -6   86.35    3.20
   2   3  -6   90.10    3.29
   2   3  -6   91.43    3.25
  -2  -3   6   91.66    3.33
  -2  -3   6   88.26    3.23
  -2  -3   6   82.39    3.26
  -2  -3   6   92.09    3.27
   1   3  -6  194.24    6.55
   1   3  -6  191.33    6.56
   1   3  -6  191.58    6.52
   1   3  -6  198.42    6.28
   1   3  -6  188.68    6.50
  -1  -3   6  186.99    6.50
  -1  -3   6  197.90    6.63
  -1  -3   6  190.17    6.51
  -1  -3   6  201.08    6.53
   0   3  -6   71.15    2.34
   0   3  -6   62.91    2.56
   0   3  -6   65.06    2.43
   0   3  -6   66.62    2.44
   0  -3   6   66.37    2.40
   0  -3   6   61.45    2.41
   0  -3   6   65.92    2.40
   0  -3   6   65.40    2.55
  -1   3  -6  229.79    7.90
  -1   3  -6  224.79    7.73
  -1   3  -6  251.38    7.73
  -1   3  -6  231.44    7.65
  -1   3  -6  233.34    7.50
   1  -3   6  229.13    7.51
   1  -3   6  221.60    7.66
   1  -3   6  240.02    7.89
   1  -3   6  232.60    7.73
   1  -3   6  232.89    7.63
  -2   3  -6   16.57    0.87
  -2   3  -6   15.63    0.77
  -2   3  -6   16.21    0.91
  -2   3  -6   16.32    0.72
  -2   3  -6   14.88    1.01
   2  -3   6   15.90    0.88
   2  -3   6   17.90    1.03
   2  -3   6   16.20    0.75
   2  -3   6   15.44    0.85
   2  -3   6   16.34    0.69
  -3   3  -6  119.23    4.14
  -3   3  -6  117.49    4.24
  -3   3  -6  114.02    4.37
  -3   3  -6  120.45    4.12
  -3   3  -6  115.24    3.84
   3  -3   6  118.09    4.15
   3  -3   6  113.96    4.34
   3  -3   6  119.78    4.30
   3  -3   6  116.85    4.12
   3  -3   6  119.01    4.09
  -4   3  -6   74.86    2.99
  -4   3  -6   77.30    2.90
  -4   3  -6   70.36    3.10
  -4   3  -6   82.28    2.86
   4  -3   6   73.23    3.05
   4  -3   6   70.77    2.83
   4  -3   6   77.67    2.98
   4  -3   6   70.63    2.79
   4  -3   6   73.84    2.90
  -5   3  -6  200.17    6.95
  -5   3  -6  191.85    7.25
  -5   3  -6  189.75    7.07
  -5   3  -6  208.80    7.04
   5  -3   6  197.08    6.95
   5  -3   6  209.46    6.97
   5  -3   6  194.19    7.10
   5  -3   6  207.22    7.01
   5  -3   6  199.04    6.84
  -6   3  -6   17.20    1.94
  -6   3  -6   18.53    1.39
  -6   3  -6   17.32    1.37
  -6   3  -6   18.98    1.45
   6  -3   6   18.45    1.39
   6  -3   6   19.52    1.38
   6  -3   6   17.73    1.36
   6  -3   6   19.90    1.37
  -7   3  -6   65.73    3.14
  -7   3  -6   69.84    3.48
  -7   3  -6   66.85    3.05
  -7   3  -6   66.95    3.23
   7  -3   6   67.08    2.80
   7  -3   6   64.60    3.05
   7  -3   6   64.41    3.11
   7  -3   6   70.84    3.15
   7  -3   6   67.93    2.98
  -8   3  -6   32.13    2.84
  -8   3  -6   33.83    2.40
   8  -3   6   34.69    2.44
   8  -3   6   31.48    1.94
   8  -3   6   29.79    2.05
   7   2  -6   18.05    1.84
   7   2  -6   21.44    1.83
   7   2  -6   20.38    1.30
   7   2  -6   17.39    1.64
  -7  -2   6   20.10    1.29
  -7  -2   6   19.18    1.36
  -7  -2   6   17.96    1.76
  -7  -2   6   19.19    2.02
  -7  -2   6   22.08    1.59
   6   2  -6   99.39    3.75
   6   2  -6  103.03    4.11
   6   2  -6   99.38    4.08
   6   2  -6   94.32    4.03
   6   2  -6  105.11    3.88
  -6  -2   6  103.75    3.74
  -6  -2   6  105.57    4.03
  -6  -2   6  105.04    3.94
  -6  -2   6   99.85    3.71
  -6  -2   6  106.61    3.83
  -6  -2   6   99.14    4.14
   5   2  -6   14.47    0.92
   5   2  -6   15.73    1.10
   5   2  -6   13.65    1.10
   5   2  -6   14.11    1.15
  -5  -2   6   13.26    1.02
  -5  -2   6   14.53    1.28
  -5  -2   6   13.76    0.90
  -5  -2   6   14.46    0.90
  -5  -2   6   14.79    1.07
  -5  -2   6   13.78    1.13
  -5  -2   6   15.40    1.03
   4   2  -6   45.56    1.98
   4   2  -6   48.74    1.86
   4   2  -6   45.84    2.02
   4   2  -6   42.00    1.90
   4   2  -6   45.07    2.05
  -4  -2   6   45.35    1.90
  -4  -2   6   43.88    1.77
  -4  -2   6   46.23    1.95
  -4  -2   6   47.10    1.87
  -4  -2   6   44.03    1.80
  -4  -2   6   48.15    2.02
  -4  -2   6   43.73    2.06
   3   2  -6   88.40    3.38
   3   2  -6   95.66    3.38
   3   2  -6   88.11    3.31
   3   2  -6   92.40    3.22
   3   2  -6   85.64    3.19
  -3  -2   6   91.23    3.29
  -3  -2   6   91.12    3.17
  -3  -2   6   86.02    3.36
  -3  -2   6   93.44    3.14
  -3  -2   6   90.26    3.32
   2   2  -6  148.32    4.98
   2   2  -6  138.46    4.98
   2   2  -6  148.32    4.89
   2   2  -6  146.09    4.94
   2   2  -6  133.54    4.77
  -2  -2   6  142.69    4.95
  -2  -2   6  139.86    4.94
  -2  -2   6  142.69    4.98
  -2  -2   6  151.30    4.97
   1   2  -6   47.44    1.77
   1   2  -6   44.81    1.84
   1   2  -6   43.13    1.83
   1   2  -6   51.78    1.81
   1   2  -6   47.18    1.66
   1   2  -6   46.15    1.63
   1   2  -6   43.72    1.86
  -1  -2   6   46.92    1.87
  -1  -2   6   45.79    1.85
  -1  -2   6   44.36    1.76
  -1  -2   6   48.84    1.83
   0   2  -6  131.76    4.85
   0   2  -6  143.64    4.62
   0   2  -6  148.23    4.78
   0   2  -6  138.81    4.76
   0   2  -6  147.03    4.81
   0  -2   6  132.12    4.77
   0  -2   6  136.49    4.71
   0  -2   6  143.86    4.86
   0  -2   6  134.91    4.66
  -1   2  -6   33.35    1.54
  -1   2  -6   35.38    1.35
  -1   2  -6   36.26    1.49
  -1   2  -6   33.75    1.43
  -1   2  -6   31.52    1.35
   1  -2   6   32.81    1.31
   1  -2   6   35.13    1.32
   1  -2   6   37.80    1.57
   1  -2   6   34.59    1.34
  -2   2  -6  304.58    9.80
  -2   2  -6  287.75    9.87
  -2   2  -6  312.12    9.69
  -2   2  -6  283.96    9.52
  -2   2  -6  294.96    9.65
   2  -2   6  285.54    9.63
   2  -2   6  290.28    9.87
   2  -2   6  292.82    9.63
   2  -2   6  281.58    9.65
   2  -2   6  306.00    9.84
   2  -2   6  288.21    9.46
  -3   2  -6   40.27    1.86
  -3   2  -6   43.69    1.73
  -3   2  -6   41.38    1.97
  -3   2  -6   40.89    1.54
  -3   2  -6   43.81    1.81
   3  -2   6   43.35    1.88
   3  -2   6   42.38    1.94
   3  -2   6   44.39    1.74
   3  -2   6   40.71    1.76
   3  -2   6   40.76    1.71
  -4   2  -6  147.67    5.47
  -4   2  -6  148.41    4.98
  -4   2  -6  148.18    4.96
  -4   2  -6  155.99    5.31
  -4   2  -6  141.42    5.57
   4  -2   6  152.30    5.54
   4  -2   6  153.08    5.26
   4  -2   6  160.04    5.33
   4  -2   6  160.25    5.46
   4  -2   6  154.01    5.40
  -5   2  -6   60.85    2.73
  -5   2  -6   66.25    2.74
  -5   2  -6   62.14    2.12
  -5   2  -6   62.85    2.56
  -5   2  -6   59.78    2.87
  -5   2  -6   60.10    2.12
   5  -2   6   59.89    2.66
   5  -2   6   60.48    2.73
   5  -2   6   64.51    2.65
   5  -2   6   62.75    2.47
   5  -2   6   64.19    2.60
  -6   2  -6   44.84    2.57
  -6   2  -6   41.86    2.27
  -6   2  -6   48.08    2.41
  -6   2  -6   43.83    2.23
   6  -2   6   47.51    2.25
   6  -2   6   44.97    2.34
   6  -2   6   45.17    2.02
   6  -2   6   43.27    2.28
   6  -2   6   50.79    2.27
  -7   2  -6   16.32    1.55
  -7   2  -6   19.41    1.65
  -7   2  -6   21.75    2.10
   7  -2   6   19.27    1.78
   7  -2   6   21.64    1.92
   7  -2   6   19.70    1.57
   7  -2   6   20.44    1.39
   7  -2   6   18.56    1.77
  -8   2  -6   48.18    3.36
  -8   2  -6   51.66    2.90
  -8   2  -6   44.39    2.67
   8  -2   6   47.24    3.07
   8  -2   6   49.94    2.43
   8  -2   6   40.90    3.69
   8   1  -6   22.15    2.00
   8   1  -6   21.25    2.25
   8   1  -6   17.96    1.31
  -8  -1   6   21.19    2.42
  -8  -1   6   19.08    1.42
   7   1  -6   61.07    2.35
   7   1  -6   57.77    2.67
   7   1  -6   59.23    2.76
   7   1  -6   58.52    2.88
  -7  -1   6   60.57    2.99
  -7  -1   6   58.66    2.35
  -7  -1   6   58.12    2.72
  -7  -1   6   55.78    2.28
  -7  -1   6   59.50    2.51
  -7  -1   6   60.81    2.81
   6   1  -6   47.74    2.30
   6   1  -6   48.62    2.27
   6   1  -6   48.45    2.21
   6   1  -6   51.09    1.93
   6   1  -6   48.42    2.33
  -6  -1   6   48.49    2.22
  -6  -1   6   44.69    2.38
  -6  -1   6   48.45    2.19
  -6  -1   6   46.05    1.87
  -6  -1   6   48.74    1.94
  -6  -1   6   46.53    2.22
  -6  -1   6   47.95    2.06
   5   1  -6   58.21    2.44
   5   1  -6   61.05    2.46
   5   1  -6   58.36    2.50
   5   1  -6   57.82    2.20
  -5  -1   6   57.88    2.54
  -5  -1   6   57.67    2.45
  -5  -1   6   56.85    2.41
  -5  -1   6   59.01    2.20
  -5  -1   6   54.58    2.11
  -5  -1   6   55.83    2.55
  -5  -1   6   59.38    2.29
   4   1  -6   44.02    1.90
   4   1  -6   46.16    1.73
   4   1  -6   47.39    2.01
   4   1  -6   48.13    2.00
  -4  -1   6   46.11    1.78
  -4  -1   6   47.41    1.85
  -4  -1   6   44.19    2.00
  -4  -1   6   44.04    1.70
  -4  -1   6   45.23    1.95
  -4  -1   6   45.36    1.98
   3   1  -6   99.43    3.60
   3   1  -6   97.34    3.46
   3   1  -6   97.53    3.48
   3   1  -6  102.13    3.36
   3   1  -6   94.40    3.56
  -3  -1   6   90.12    3.56
  -3  -1   6  102.62    3.46
  -3  -1   6   94.67    3.54
  -3  -1   6   99.81    3.43
  -3  -1   6  100.79    3.55
   2   1  -6   74.97    2.77
   2   1  -6   74.35    2.71
   2   1  -6   83.71    2.94
   2   1  -6   77.52    2.75
  -2  -1   6   76.67    2.77
  -2  -1   6   78.77    2.92
  -2  -1   6   78.66    2.80
  -2  -1   6   75.68    2.82
   1   1  -6  310.26   10.39
   1   1  -6  303.94   10.38
   1   1  -6  304.30   10.25
   1   1  -6  315.12   10.32
   1   1  -6  322.45   10.44
  -1  -1   6  317.82   10.28
  -1  -1   6  321.69   10.47
  -1  -1   6  328.34   10.41
  -1  -1   6  326.39   10.37
   0   1  -6   76.30    2.72
   0   1  -6   71.12    2.70
   0   1  -6   73.87    2.82
   0   1  -6   80.04    2.80
   0   1  -6   82.06    2.87
   0  -1   6   71.57    2.58
   0  -1   6   82.55    2.87
   0  -1   6   72.89    2.78
   0  -1   6   78.25    2.84
   0  -1   6   74.58    2.67
  -1   1  -6   53.08    2.24
  -1   1  -6   59.50    2.14
  -1   1  -6   57.15    2.25
  -1   1  -6   57.01    2.14
  -1   1  -6   54.92    2.03
   1  -1   6   58.21    2.27
   1  -1   6   57.72    2.24
   1  -1   6   54.92    2.13
   1  -1   6   55.38    2.12
   1  -1   6   54.28    1.99
   1  -1   6   54.63    2.00
  -2   1  -6   57.17    2.40
  -2   1  -6   56.34    2.18
  -2   1  -6   57.24    2.36
  -2   1  -6   59.02    2.08
  -2   1  -6   60.36    2.31
   2  -1   6   59.19    2.27
   2  -1   6   57.27    2.20
   2  -1   6   59.22    2.41
   2  -1   6   59.58    2.14
   2  -1   6   58.15    2.34
  -3   1  -6   87.83    3.16
  -3   1  -6   87.12    3.45
  -3   1  -6   85.63    3.41
  -3   1  -6   92.21    3.38
  -3   1  -6   83.55    3.02
  -3   1  -6   93.12    3.19
   3  -1   6   89.19    3.19
   3  -1   6   84.71    3.18
   3  -1   6   90.79    3.35
   3  -1   6   91.46    3.46
  -4   1  -6   86.53    3.57
  -4   1  -6   88.28    3.07
  -4   1  -6   91.28    3.23
  -4   1  -6   90.66    3.54
  -4   1  -6   88.07    3.05
  -4   1  -6   87.87    3.48
  -4   1  -6   86.16    3.26
   4  -1   6   93.48    3.33
   4  -1   6   87.40    3.24
   4  -1   6   88.98    3.44
   4  -1   6   86.82    3.54
   4  -1   6   89.57    3.48
  -5   1  -6   75.23    2.65
  -5   1  -6   75.51    2.70
  -5   1  -6   76.26    2.99
  -5   1  -6   72.59    3.19
  -5   1  -6   77.38    3.23
   5  -1   6   74.19    3.22
   5  -1   6   80.35    3.15
   5  -1   6   76.61    2.89
   5  -1   6   79.59    3.06
   5  -1   6   68.57    3.17
  -6   1  -6   23.64    1.97
  -6   1  -6   23.15    1.65
  -6   1  -6   23.30    1.19
  -6   1  -6   24.09    1.11
  -6   1  -6   22.98    1.85
  -6   1  -6   24.58    1.60
   6  -1   6   23.27    1.62
   6  -1   6   25.26    1.82
   6  -1   6   25.58    1.73
   6  -1   6   26.11    1.39
   6  -1   6   25.69    1.68
  -7   1  -6   57.18    3.08
  -7   1  -6   63.36    3.49
  -7   1  -6   68.90    3.11
  -7   1  -6   69.96    2.42
   7  -1   6   69.12    3.36
   7  -1   6   63.55    3.36
   7  -1   6   64.61    2.75
   7  -1   6   60.40    3.12
   8   0  -6   67.30    3.24
   8   0  -6   74.88    3.25
   8   0  -6   70.44    3.49
  -8   0   6   74.68    3.08
  -8   0   6   65.99    3.51
   7   0  -6   36.46    1.46
   7   0  -6   33.83    1.95
   7   0  -6   36.81    2.03
   7   0  -6   33.19    2.02
   7   0  -6   37.50    1.99
  -7   0   6   37.97    1.95
  -7   0   6   34.45    1.81
  -7   0   6   37.78    2.00
  -7   0   6   33.45    2.12
   6   0  -6   71.30    2.48
   6   0  -6   71.64    2.95
   6   0  -6   68.29    2.97
   6   0  -6   73.51    2.96
   6   0  -6   71.98    2.91
  -6   0   6   72.27    2.90
  -6   0   6   68.22    2.83
  -6   0   6   71.40    2.91
  -6   0   6   73.28    3.03
   5   0  -6   44.72    1.57
   5   0  -6   43.34    1.95
   5   0  -6   44.55    2.00
   5   0  -6   41.13    1.94
   5   0  -6   42.71    1.90
  -5   0   6   45.16    1.90
  -5   0   6   42.82    1.53
  -5   0   6   45.45    2.06
  -5   0   6   46.80    1.96
  -5   0   6   39.87    1.99
  -5   0   6   43.49    1.56
   4   0  -6  179.75    6.22
   4   0  -6  182.86    6.18
   4   0  -6  171.81    6.12
   4   0  -6  179.26    6.09
  -4   0   6  169.87    6.23
  -4   0   6  180.94    6.13
  -4   0   6  189.39    6.70
  -4   0   6  172.46    6.17
  -4   0   6  182.79    5.86
   3   0  -6   48.13    1.97
   3   0  -6   46.04    1.90
   3   0  -6   46.63    1.79
   3   0  -6   47.16    1.71
   3   0  -6   44.82    1.84
  -3   0   6   48.37    1.72
  -3   0   6   43.19    1.85
  -3   0   6   43.69    1.97
  -3   0   6   48.75    1.90
  -3   0   6   48.90    1.90
   2   0  -6  268.89    8.97
   2   0  -6  276.17    9.15
   2   0  -6  264.96    9.06
   2   0  -6  276.65    8.91
  -2   0   6  274.80    8.98
  -2   0   6  292.32    8.98
  -2   0   6  266.21    8.96
  -2   0   6  289.61    9.08
  -2   0   6  256.11    9.16
   1   0  -6   75.05    2.77
   1   0  -6   74.47    2.73
   1   0  -6   77.37    2.80
   1   0  -6   72.63    2.51
  -1   0   6   80.10    2.76
  -1   0   6   72.25    2.55
  -1   0   6   74.47    2.84
  -1   0   6   74.47    2.69
  -1   0   6   76.14    2.75
   0   0  -6  183.91    6.42
   0   0  -6  190.10    6.55
   0   0  -6  201.11    6.57
   0   0  -6  193.17    6.51
   0   0   6  198.62    6.57
   0   0   6  182.04    6.73
   0   0   6  200.12    6.27
   0   0   6  198.28    6.42
   0   0   6  198.42    6.58
   0   0   6  192.41    6.25
  -1   0  -6   37.75    1.55
  -1   0  -6   38.12    1.67
  -1   0  -6   38.05    1.69
  -1   0  -6   37.37    1.47
   1   0   6   38.90    1.71
   1   0   6   38.37    1.66
   1   0   6   36.25    1.57
   1   0   6   38.38    1.38
   1   0   6   38.06    1.65
  -2   0  -6  173.15    5.83
  -2   0  -6  171.94    6.18
  -2   0  -6  181.99    6.16
  -2   0  -6  167.86    6.18
  -2   0  -6  171.46    5.86
  -2   0  -6  179.05    5.94
   2   0   6  175.32    5.99
   2   0   6  177.69    6.22
   2   0   6  189.34    6.18
   2   0   6  181.65    5.87
   2   0   6  171.62    6.12
  -3   0  -6   84.93    3.02
  -3   0  -6   80.20    3.31
  -3   0  -6   83.43    2.99
  -3   0  -6   82.11    2.94
  -3   0  -6   84.86    3.37
  -3   0  -6   88.91    3.34
  -3   0  -6   83.19    3.01
   3   0   6   83.37    3.07
   3   0   6   87.75    3.08
   3   0   6   83.70    3.27
   3   0   6   83.39    3.30
   3   0   6   82.92    3.36
  -4   0  -6  121.91    4.79
  -4   0  -6  129.85    4.42
  -4   0  -6  128.35    4.41
  -4   0  -6  124.06    4.33
  -4   0  -6  129.25    4.50
  -4   0  -6  127.98    4.81
  -4   0  -6  125.57    4.87
   4   0   6  122.53    4.82
   4   0   6  124.67    4.46
   4   0   6  125.70    4.82
   4   0   6  132.73    4.75
   4   0   6  132.86    4.59
  -5   0  -6   18.43    1.00
  -5   0  -6   19.27    1.24
  -5   0  -6   18.86    1.13
  -5   0  -6   19.89    1.62
  -5   0  -6   16.63    1.36
  -5   0  -6   19.76    1.60
   5   0   6   21.18    1.60
   5   0   6   20.50    1.40
   5   0   6   20.93    1.51
   5   0   6   20.09    1.16
   5   0   6   19.79    1.49
  -6   0  -6   80.57    3.05
  -6   0  -6   78.90    3.81
  -6   0  -6   89.76    3.22
  -6   0  -6   83.97    3.68
  -6   0  -6   83.44    3.44
   6   0   6   86.22    3.23
   6   0   6   80.12    3.68
   6   0   6   87.50    3.55
   6   0   6   81.24    3.85
  -7   0  -6   27.21    2.63
  -7   0  -6   36.00    2.28
  -7   0  -6   32.44    2.71
   7   0   6   32.25    2.19
   7   0   6   32.34    2.81
   8  -1  -6   21.42    1.65
   8  -1  -6   21.98    1.88
   8  -1  -6   23.13    2.01
  -8   1   6   19.84    2.06
  -8   1   6   22.29    1.54
  -8   1   6   23.21    1.72
   7  -1  -6   51.67    2.37
   7  -1  -6   48.58    2.43
   7  -1  -6   53.63    2.50
   7  -1  -6   51.36    2.36
  -7   1   6   53.76    2.34
  -7   1   6   48.26    2.58
  -7   1   6   48.93    2.33
   6  -1  -6   23.89    1.40
   6  -1  -6   25.32    1.44
   6  -1  -6   25.62    1.55
   6  -1  -6   25.34    1.55
  -6   1   6   28.97    1.47
  -6   1   6   25.59    1.63
  -6   1   6   27.07    1.45
  -6   1   6   24.32    1.59
   5  -1  -6  223.15    7.80
   5  -1  -6  226.97    7.88
   5  -1  -6  235.34    7.93
   5  -1  -6  216.68    7.80
  -5   1   6  228.48    7.89
  -5   1   6  247.51    8.07
  -5   1   6  229.92    7.93
  -5   1   6  232.80    7.83
   4  -1  -6   54.23    2.05
   4  -1  -6   53.81    2.18
   4  -1  -6   52.68    2.15
  -4   1   6   53.75    2.17
  -4   1   6   53.08    2.21
  -4   1   6   51.27    2.29
  -4   1   6   53.93    2.19
   3  -1  -6  103.04    3.52
   3  -1  -6  104.08    3.57
   3  -1  -6  107.02    3.75
   3  -1  -6  103.39    3.73
   3  -1  -6  106.17    3.83
  -3   1   6  101.76    3.66
  -3   1   6  107.29    3.44
  -3   1   6  111.53    3.76
  -3   1   6   92.64    3.84
  -3   1   6  106.20    3.82
  -3   1   6  107.04    3.54
   2  -1  -6   11.44    0.65
   2  -1  -6   11.89    0.82
   2  -1  -6   10.59    0.71
   2  -1  -6   11.80    0.53
  -2   1   6   11.72    0.59
  -2   1   6   12.76    0.71
  -2   1   6   13.32    0.74
  -2   1   6    9.79    0.80
  -2   1   6   14.34    0.72
   1  -1  -6  213.51    6.95
   1  -1  -6  193.88    6.81
   1  -1  -6  207.17    6.99
   1  -1  -6  198.80    6.86
  -1   1   6  209.24    6.90
  -1   1   6  214.76    6.91
  -1   1   6  208.90    6.83
  -1   1   6  192.66    6.98
   0  -1  -6   99.48    3.54
   0  -1  -6   96.61    3.48
   0  -1  -6  105.04    3.71
   0  -1  -6   96.42    3.60
   0   1   6  105.80    3.69
   0   1   6   99.79    3.63
   0   1   6   96.81    3.63
  -1  -1  -6  191.98    6.65
  -1  -1  -6  213.21    6.96
  -1  -1  -6  195.15    6.87
  -1  -1  -6  198.15    6.70
   1   1   6  191.19    6.92
   1   1   6  203.89    6.93
   1   1   6  206.06    6.90
   1   1   6  203.39    6.48
   1   1   6  198.21    6.78
  -2  -1  -6   63.65    2.40
  -2  -1  -6   64.82    2.41
  -2  -1  -6   69.22    2.75
  -2  -1  -6   65.75    2.72
  -2  -1  -6   64.76    2.32
  -2  -1  -6   63.35    2.75
   2   1   6   68.56    2.71
   2   1   6   64.83    2.76
   2   1   6   67.48    2.75
   2   1   6   64.45    2.51
   2   1   6   67.13    2.37
  -3  -1  -6  157.31    5.36
  -3  -1  -6  164.81    5.80
  -3  -1  -6  154.87    5.78
  -3  -1  -6  154.40    5.78
  -3  -1  -6  158.36    5.35
  -3  -1  -6  162.98    5.48
  -3  -1  -6  152.42    5.37
   3   1   6  156.77    5.80
   3   1   6  153.95    5.46
   3   1   6  163.56    5.44
   3   1   6  155.30    5.84
   3   1   6  167.61    5.74
  -4  -1  -6    8.85    0.69
  -4  -1  -6    8.31    1.01
  -4  -1  -6    9.94    1.21
  -4  -1  -6    9.86    0.81
  -4  -1  -6    9.49    1.21
  -4  -1  -6    9.72    0.73
  -4  -1  -6    7.96    0.83
   4   1   6   10.67    0.93
   4   1   6    9.23    1.07
   4   1   6    8.22    0.82
   4   1   6    6.88    0.98
   4   1   6    8.22    1.13
  -5  -1  -6   72.52    3.38
  -5  -1  -6   77.08    3.13
  -5  -1  -6   75.88    3.57
  -5  -1  -6   80.19    2.96
  -5  -1  -6   82.48    3.13
   5   1   6   78.52    3.61
   5   1   6   81.88    3.24
   5   1   6   82.81    3.49
   5   1   6   75.09    3.50
   5   1   6   77.90    3.00
  -6  -1  -6   37.75    2.30
  -6  -1  -6   42.20    2.12
  -6  -1  -6   38.56    2.21
  -6  -1  -6   41.06    1.91
  -6  -1  -6   38.56    2.78
   6   1   6   35.54    2.64
   6   1   6   40.58    1.94
   6   1   6   39.41    2.54
   6   1   6   40.19    2.37
   9  -2  -6   22.48    2.28
   9  -2  -6   21.95    1.85
  -9   2   6   20.24    2.60
  -9   2   6   23.38    1.77
   8  -2  -6   34.42    1.95
   8  -2  -6   36.96    2.12
   8  -2  -6   35.05    2.29
   8  -2  -6   34.84    2.22
  -8   2   6   33.24    2.40
  -8   2   6   37.64    2.02
  -8   2   6   36.82    2.02
   7  -2  -6   24.81    1.95
   7  -2  -6   32.18    1.86
   7  -2  -6   32.78    1.93
   7  -2  -6   32.24    1.70
  -7   2   6   30.70    1.69
  -7   2   6   28.77    1.98
  -7   2   6   30.83    1.75
   6  -2  -6   52.32    2.24
   6  -2  -6   54.33    2.43
   6  -2  -6   51.16    2.39
   6  -2  -6   52.92    2.20
  -6   2   6   50.60    2.58
  -6   2   6   50.81    2.42
  -6   2   6   53.72    2.27
  -6   2   6   50.06    2.34
   5  -2  -6   55.63    2.36
   5  -2  -6   57.72    2.43
   5  -2  -6   54.45    2.27
   5  -2  -6   55.84    2.18
  -5   2   6   52.08    2.33
  -5   2   6   54.04    2.52
  -5   2   6   54.32    2.38
  -5   2   6   55.93    2.30
   4  -2  -6  182.26    6.26
   4  -2  -6  185.53    5.97
   4  -2  -6  168.92    6.17
   4  -2  -6  180.94    6.14
  -4   2   6  178.58    6.19
  -4   2   6  180.16    6.37
  -4   2   6  173.42    6.05
  -4   2   6  176.01    6.27
   3  -2  -6   64.28    2.23
   3  -2  -6   64.58    2.28
   3  -2  -6   61.82    2.44
   3  -2  -6   64.13    2.57
  -3   2   6   64.99    2.21
  -3   2   6   68.47    2.29
  -3   2   6   62.24    2.58
  -3   2   6   64.00    2.45
  -3   2   6   62.63    2.27
  -3   2   6   63.14    2.65
   2  -2  -6  108.73    4.01
   2  -2  -6  114.94    4.14
   2  -2  -6  113.38    4.22
   2  -2  -6  113.30    3.97
  -2   2   6  118.87    4.04
  -2   2   6  108.23    4.21
  -2   2   6  118.75    4.00
  -2   2   6  122.67    4.00
   1  -2  -6   46.58    2.10
   1  -2  -6   51.01    2.00
   1  -2  -6   47.40    1.90
   1  -2  -6   45.38    1.92
  -1   2   6   50.31    1.99
  -1   2   6   45.00    2.04
  -1   2   6   53.59    2.03
   0  -2  -6  134.84    4.59
   0  -2  -6  125.91    4.55
   0  -2  -6  133.30    4.70
   0   2   6  125.13    4.70
   0   2   6  135.60    4.79
   0   2   6  139.34    4.75
  -1  -2  -6   56.99    2.40
  -1  -2  -6   51.35    2.36
  -1  -2  -6   53.12    1.80
  -1  -2  -6   50.97    2.06
  -1  -2  -6   51.89    2.25
  -1  -2  -6   55.02    2.05
   1   2   6   55.14    2.29
   1   2   6   52.03    2.18
   1   2   6   53.17    2.38
   1   2   6   53.47    2.37
  -2  -2  -6   54.74    2.54
  -2  -2  -6   60.96    2.35
  -2  -2  -6   58.27    2.23
  -2  -2  -6   57.70    2.06
  -2  -2  -6   58.74    2.60
  -2  -2  -6   53.63    2.51
  -2  -2  -6   55.76    2.12
   2   2   6   59.83    2.63
   2   2   6   54.86    2.28
   2   2   6   56.89    2.61
   2   2   6   59.40    2.52
   2   2   6   57.28    2.06
  -3  -2  -6   23.34    1.23
  -3  -2  -6   22.14    1.49
  -3  -2  -6   23.68    1.34
  -3  -2  -6   22.09    1.05
  -3  -2  -6   24.28    1.63
  -3  -2  -6   24.19    1.14
  -3  -2  -6   20.99    1.56
   3   2   6   25.13    1.58
   3   2   6   23.92    1.18
   3   2   6   23.63    1.24
   3   2   6   22.86    1.65
   3   2   6   22.00    1.58
  -4  -2  -6   44.62    2.55
  -4  -2  -6   44.19    2.10
  -4  -2  -6   45.46    2.32
  -4  -2  -6   43.95    2.44
  -4  -2  -6   45.46    1.97
  -4  -2  -6   43.27    1.98
   4   2   6   44.84    2.40
   4   2   6   43.90    2.51
   4   2   6   44.18    2.41
   4   2   6   50.07    2.03
   4   2   6   43.90    1.91
  -5  -2  -6   25.17    2.20
  -5  -2  -6   23.53    1.74
  -5  -2  -6   21.94    1.71
  -5  -2  -6   24.41    1.48
   5   2   6   26.60    1.70
   5   2   6   25.31    2.23
   5   2   6   25.43    1.98
   5   2   6   25.79    1.30
   9  -3  -6   53.55    2.64
   9  -3  -6   52.51    3.06
  -9   3   6   51.18    2.75
  -9   3   6   52.50    3.42
  -9   3   6   52.81    3.01
   8  -3  -6   17.92    1.74
   8  -3  -6   18.45    1.68
   8  -3  -6   17.87    1.42
  -8   3   6   14.46    1.84
  -8   3   6   15.84    1.43
  -8   3   6   18.31    1.63
   7  -3  -6  111.42    4.33
   7  -3  -6  110.19    4.45
   7  -3  -6  111.91    4.18
   7  -3  -6  107.75    4.41
  -7   3   6  106.55    4.40
  -7   3   6  121.31    4.30
   6  -3  -6   35.93    1.64
   6  -3  -6   35.13    1.73
   6  -3  -6   37.70    1.98
   6  -3  -6   33.29    1.86
  -6   3   6   34.35    1.76
  -6   3   6   36.27    2.07
  -6   3   6   34.05    1.87
  -6   3   6   34.07    1.84
   5  -3  -6  103.39    3.86
   5  -3  -6  107.37    3.72
   5  -3  -6  101.02    3.98
   5  -3  -6  109.91    4.07
  -5   3   6  111.96    3.91
  -5   3   6   97.05    4.03
  -5   3   6  101.26    3.82
  -5   3   6  107.75    4.18
   4  -3  -6   50.95    2.10
   4  -3  -6   52.20    2.23
   4  -3  -6   52.29    1.85
   4  -3  -6   55.24    2.31
   4  -3  -6   50.80    1.92
  -4   3   6   51.94    2.40
  -4   3   6   50.19    1.97
  -4   3   6   47.93    2.27
  -4   3   6   52.78    2.14
   3  -3  -6  113.56    4.05
   3  -3  -6  116.33    3.90
   3  -3  -6  115.80    4.19
   3  -3  -6  120.07    4.34
  -3   3   6  117.13    4.45
  -3   3   6  126.09    4.09
  -3   3   6  119.79    4.03
  -3   3   6  117.06    4.20
  -3   3   6  117.98    4.44
   2  -3  -6   71.97    2.77
   2  -3  -6   67.91    2.62
   2  -3  -6   73.17    2.94
   2  -3  -6   66.36    2.65
  -2   3   6   72.66    2.69
  -2   3   6   70.13    2.91
  -2   3   6   73.68    2.70
   1  -3  -6   38.25    1.90
   1  -3  -6   37.92    1.67
   1  -3  -6   38.39    1.62
   1  -3  -6   35.76    1.64
  -1   3   6   38.66    1.77
  -1   3   6   36.04    1.79
  -1   3   6   37.99    1.72
   0  -3  -6   59.27    2.26
   0  -3  -6   56.48    2.37
   0  -3  -6   56.89    2.53
   0  -3  -6   57.90    2.21
   0   3   6   57.76    2.43
   0   3   6   55.50    2.49
   0   3   6   56.75    2.41
  -1  -3  -6  246.88    8.59
  -1  -3  -6  250.20    8.33
  -1  -3  -6  237.81    8.42
  -1  -3  -6  260.22    8.62
  -1  -3  -6  245.15    8.21
  -1  -3  -6  239.00    7.88
  -1  -3  -6  247.90    8.09
   1   3   6  231.78    8.54
   1   3   6  259.08    8.51
   1   3   6  237.52    8.60
   1   3   6  235.73    8.26
  -2  -3  -6   43.65    2.51
  -2  -3  -6   48.65    2.34
  -2  -3  -6   48.10    1.81
  -2  -3  -6   50.24    2.47
  -2  -3  -6   49.64    2.39
  -2  -3  -6   49.67    1.84
  -2  -3  -6   50.17    2.20
   2   3   6   48.24    2.36
   2   3   6   50.15    2.48
   2   3   6   48.03    1.79
   2   3   6   48.65    2.51
   2   3   6   47.82    2.03
  -3  -3  -6   79.75    3.59
  -3  -3  -6   84.40    3.37
  -3  -3  -6   83.14    2.87
  -3  -3  -6   79.12    3.51
  -3  -3  -6   79.84    3.20
  -3  -3  -6   83.06    3.05
  -3  -3  -6   84.00    3.73
   3   3   6   81.78    3.76
   3   3   6   81.52    2.99
   3   3   6   81.33    3.71
   3   3   6   89.14    3.06
   3   3   6   93.78    3.69
  -4  -3  -6   40.05    1.86
  -4  -3  -6   38.50    1.94
  -4  -3  -6   35.33    2.16
  -4  -3  -6   38.19    2.26
  -4  -3  -6   40.75    2.52
   4   3   6   40.26    2.67
   4   3   6   36.82    2.40
   4   3   6   39.64    1.92
   9  -4  -6    7.67    1.44
   9  -4  -6    6.77    1.10
  -9   4   6    9.35    1.63
  -9   4   6    7.30    1.26
  -9   4   6    9.41    1.65
   8  -4  -6   62.11    2.69
   8  -4  -6   56.76    2.75
   8  -4  -6   59.19    3.06
  -8   4   6   60.61    3.14
  -8   4   6   61.11    2.87
  -8   4   6   56.85    2.93
   7  -4  -6   33.23    2.04
   7  -4  -6   38.45    1.88
   7  -4  -6   33.31    2.27
   7  -4  -6   36.41    1.82
  -7   4   6   36.19    1.95
  -7   4   6   35.61    2.06
  -7   4   6   34.23    2.07
   6  -4  -6  123.89    4.37
   6  -4  -6  124.36    4.75
   6  -4  -6  114.06    4.71
   6  -4  -6  118.39    4.67
  -6   4   6  121.91    4.51
  -6   4   6  132.51    4.57
  -6   4   6  118.53    4.78
   5  -4  -6   34.68    1.73
   5  -4  -6   38.90    1.60
   5  -4  -6   40.88    2.03
   5  -4  -6   37.48    1.97
  -5   4   6   37.45    1.67
  -5   4   6   36.09    2.60
  -5   4   6   40.04    1.83
  -5   4   6   37.59    2.01
   4  -4  -6   94.47    3.28
   4  -4  -6   92.11    3.32
   4  -4  -6   95.26    3.54
   4  -4  -6   98.47    3.73
  -4   4   6   95.45    3.82
  -4   4   6   90.90    3.80
  -4   4   6  100.03    3.29
   3  -4  -6   60.19    2.03
   3  -4  -6   58.27    2.01
   3  -4  -6   58.40    2.39
   3  -4  -6   57.76    2.28
   3  -4  -6   61.95    2.72
   3  -4  -6   62.34    2.55
  -3   4   6   61.24    2.32
  -3   4   6   59.58    2.66
   2  -4  -6  257.83    8.70
   2  -4  -6  244.26    8.31
   2  -4  -6  248.29    8.35
  -2   4   6  252.31    8.43
  -2   4   6  233.71    8.51
  -2   4   6  249.63    8.51
   1  -4  -6   36.68    1.67
   1  -4  -6   37.67    2.00
   1  -4  -6   37.19    1.73
   1  -4  -6   35.56    1.66
  -1   4   6   37.85    1.86
  -1   4   6   34.38    1.78
  -1   4   6   38.67    1.91
   0  -4  -6  133.44    4.52
   0  -4  -6  123.01    4.62
   0  -4  -6  135.63    5.02
   0  -4  -6  123.05    4.97
   0  -4  -6  126.90    4.85
   0  -4  -6  129.47    4.77
   0   4   6  130.79    5.00
   0   4   6  129.17    4.66
   0   4   6  138.00    4.92
  -1  -4  -6   21.28    1.44
  -1  -4  -6   20.15    1.66
  -1  -4  -6   19.02    0.83
  -1  -4  -6   20.56    1.23
  -1  -4  -6   21.30    1.42
  -1  -4  -6   20.36    0.99
  -1  -4  -6   19.47    1.44
   1   4   6   18.29    1.14
   1   4   6   18.95    1.54
   1   4   6   22.30    1.62
  -2  -4  -6   52.58    2.71
  -2  -4  -6   57.05    1.98
  -2  -4  -6   55.61    2.40
  -2  -4  -6   53.90    2.67
  -2  -4  -6   55.45    2.08
  -2  -4  -6   59.47    3.18
  -2  -4  -6   57.07    2.67
   2   4   6   54.25    2.85
   2   4   6   55.47    2.94
   2   4   6   54.49    2.03
   2   4   6   56.95    2.06
  -3  -4  -6   23.51    1.57
  -3  -4  -6   24.66    1.72
  -3  -4  -6   23.17    2.01
  -3  -4  -6   23.16    1.29
   3   4   6   19.51    1.88
   3   4   6   21.22    2.27
   3   4   6   23.57    1.58
   8  -5  -6   44.35    2.18
   8  -5  -6   40.99    2.60
   8  -5  -6   39.99    2.24
  -8   5   6   41.57    2.49
  -8   5   6   40.41    2.54
  -8   5   6   38.35    2.39
   7  -5  -6   81.04    3.58
   7  -5  -6   77.77    3.27
   7  -5  -6   81.02    3.21
  -7   5   6   80.44    3.40
  -7   5   6   82.00    3.67
   6  -5  -6   27.24    1.83
   6  -5  -6   29.53    1.58
   6  -5  -6   27.65    1.96
   6  -5  -6   30.05    1.44
  -6   5   6   24.61    1.76
   5  -5  -6   41.68    2.19
   5  -5  -6   41.07    1.75
   5  -5  -6   44.98    2.26
   5  -5  -6   40.64    1.73
   5  -5  -6   43.08    1.67
   5  -5  -6   40.74    1.95
  -5   5   6   45.00    1.69
  -5   5   6   43.77    2.29
   4  -5  -6   24.06    1.01
   4  -5  -6   25.80    1.06
   4  -5  -6   25.49    1.60
   4  -5  -6   23.17    1.20
   4  -5  -6   23.69    1.77
   4  -5  -6   24.13    1.37
  -4   5   6   25.49    1.24
   3  -5  -6  100.47    3.68
   3  -5  -6   95.95    3.57
   3  -5  -6   94.70    4.02
   3  -5  -6  100.45    3.80
  -3   5   6   93.66    3.88
  -3   5   6   99.33    3.66
   2  -5  -6   23.99    1.36
   2  -5  -6   24.69    1.43
   2  -5  -6   24.82    1.76
   2  -5  -6   22.56    1.33
  -2   5   6   24.13    1.47
  -2   5   6   24.89    1.52
   1  -5  -6   81.12    3.17
   1  -5  -6   85.77    3.44
   1  -5  -6   86.26    3.70
   1  -5  -6   79.35    3.25
   1  -5  -6   87.17    3.40
  -1   5   6   87.07    3.61
  -1   5   6   85.59    3.31
   0  -5  -6   18.27    1.04
   0  -5  -6   18.25    1.47
   0  -5  -6   19.57    1.60
   0  -5  -6   20.01    1.86
   0  -5  -6   18.99    1.44
   0  -5  -6   20.99    1.29
   0   5   6   18.65    1.59
   0   5   6   18.14    1.63
  -1  -5  -6   36.88    1.45
  -1  -5  -6   39.07    1.93
  -1  -5  -6   36.18    2.10
  -1  -5  -6   36.88    1.40
  -1  -5  -6   37.50    2.17
   1   5   6   35.73    2.32
  -2  -5  -6   25.69    1.73
  -2  -5  -6   26.96    1.82
  -2  -5  -6   25.20    2.07
  -2  -5  -6   24.47    1.25
   2   5   6   23.12    2.20
   8  -6  -6   41.20    2.90
   8  -6  -6   45.58    2.36
   8  -6  -6   40.77    2.43
  -8   6   6   44.38    2.62
   7  -6  -6   29.58    1.75
   7  -6  -6   33.99    1.86
   7  -6  -6   26.76    2.10
  -7   6   6   29.28    2.11
   6  -6  -6   73.51    2.62
   6  -6  -6   76.45    2.69
   6  -6  -6   73.16    3.07
   6  -6  -6   76.56    2.88
   6  -6  -6   73.41    3.41
  -6   6   6   71.07    3.45
   5  -6  -6   39.51    1.68
   5  -6  -6   40.84    2.31
   5  -6  -6   41.32    2.33
   5  -6  -6   40.47    1.94
   5  -6  -6   39.65    1.62
   5  -6  -6   38.57    1.71
   5  -6  -6   43.21    2.88
   5  -6  -6   42.08    2.01
  -5   6   6   38.07    2.27
  -5   6   6   42.26    1.78
   4  -6  -6   82.76    3.67
   4  -6  -6   77.12    3.31
   4  -6  -6   73.78    2.65
   4  -6  -6   73.73    3.08
   4  -6  -6   77.26    2.64
   4  -6  -6   74.43    2.93
  -4   6   6   76.02    2.99
   3  -6  -6   29.02    1.63
   3  -6  -6   31.69    2.22
   3  -6  -6   29.87    1.60
   3  -6  -6   29.78    1.78
  -3   6   6   29.84    1.68
   2  -6  -6   72.70    3.06
   2  -6  -6   68.96    3.55
   2  -6  -6   80.54    3.07
   2  -6  -6   73.75    3.04
  -2   6   6   72.60    3.22
   1  -6  -6   69.74    3.01
   1  -6  -6   70.16    3.12
  -1   6   6   76.25    3.42
   0  -6  -6   47.51    2.70
   0  -6  -6   60.93    2.56
   0  -6  -6   53.73    2.76
   0  -6  -6   54.90    2.55
   0   6   6   55.38    3.08
  -1  -6  -6   28.38    1.92
  -1  -6  -6   22.88    2.19
  -1  -6  -6   26.98    1.92
   1   6   6   26.20    2.20
   7  -7  -6   43.92    2.38
   7  -7  -6   39.12    2.76
  -7   7   6   42.33    2.65
   6  -7  -6   23.59    1.35
   6  -7  -6   26.33    1.41
   6  -7  -6   29.45    1.84
   6  -7  -6   25.96    2.17
  -6   7   6   25.99    2.58
   5  -7  -6   98.79    3.94
   5  -7  -6   91.88    4.19
   5  -7  -6   96.05    3.63
   5  -7  -6   95.75    3.59
   5  -7  -6   90.85    3.83
   5  -7  -6   98.61    3.35
  -5   7   6   95.70    3.64
   4  -7  -6   34.92    2.00
   4  -7  -6   34.68    1.88
   4  -7  -6   33.68    2.25
   4  -7  -6   36.27    1.36
  -4   7   6   34.53    1.90
   3  -7  -6   67.36    2.93
   3  -7  -6   66.56    3.04
   3  -7  -6   66.66    2.98
  -3   7   6   68.59    3.06
   2  -7  -6   20.88    1.73
   2  -7  -6   19.62    1.58
   2  -7  -6   22.58    1.68
  -2   7   6   23.94    1.78
   1  -7  -6   86.23    3.92
   1  -7  -6   89.28    4.18
   1  -7  -6   88.83    4.03
  -1   7   6   96.39    4.29
  -1   9  -7   37.58    2.62
   1  -9   7   44.98    2.03
   1  -9   7   41.63    2.35
  -2   9  -7   26.01    1.96
   2  -9   7   24.96    1.54
   2  -9   7   27.56    1.88
   2  -9   7   23.78    1.82
   3  -9   7   16.64    1.41
   3  -9   7   21.20    1.39
   3  -9   7   19.04    1.59
  -4   9  -7   80.10    3.20
   4  -9   7   79.91    3.09
   4  -9   7   78.06    3.22
   4  -9   7   73.70    3.35
   4  -9   7   78.92    2.89
  -5   9  -7   51.51    2.54
   5  -9   7   53.03    2.03
   5  -9   7   54.22    2.70
   5  -9   7   51.78    2.06
   5  -9   7   50.44    2.51
   5  -9   7   47.52    2.54
  -6   9  -7   47.60    2.60
   6  -9   7   50.75    2.55
   6  -9   7   48.06    2.59
   6  -9   7   52.31    2.23
   1   8  -7   25.84    2.13
   1   8  -7   24.53    1.92
  -1  -8   7   24.99    2.01
  -1  -8   7   29.17    1.38
  -1  -8   7   25.30    1.93
   0   8  -7   34.95    2.11
   0   8  -7   27.88    2.02
   0  -8   7   32.77    1.97
   0  -8   7   30.76    1.57
   0  -8   7   38.17    2.85
  -1   8  -7   55.95    2.52
  -1   8  -7   50.53    2.69
   1  -8   7   53.04    2.22
   1  -8   7   52.55    2.43
   1  -8   7   53.59    2.50
  -2   8  -7   23.29    1.71
   2  -8   7   25.25    1.37
   2  -8   7   22.50    1.40
   2  -8   7   25.72    2.13
   2  -8   7   25.72    1.58
  -3   8  -7   75.66    2.93
   3  -8   7   77.76    3.52
   3  -8   7   77.38    2.96
   3  -8   7   75.55    3.15
   3  -8   7   74.59    3.02
   3  -8   7   78.12    3.63
  -4   8  -7   13.63    1.21
   4  -8   7   16.71    1.81
   4  -8   7   16.79    1.30
   4  -8   7   18.21    1.77
   4  -8   7   15.15    0.91
   4  -8   7   16.31    1.22
   4  -8   7   15.60    0.82
   4  -8   7   15.26    1.04
  -5   8  -7   63.99    2.90
   5  -8   7   64.57    2.33
   5  -8   7   67.38    3.27
   5  -8   7   64.51    2.80
   5  -8   7   61.93    2.46
   5  -8   7   64.77    2.27
   5  -8   7   63.90    2.82
  -6   8  -7   22.73    1.69
   6  -8   7   21.40    1.62
   6  -8   7   25.48    1.42
   6  -8   7   26.17    2.18
  -7   8  -7   31.56    2.67
  -7   8  -7   32.87    2.21
   7  -8   7   28.74    1.98
   7  -8   7   32.53    2.28
   7  -8   7   30.80    1.92
   3   7  -7   13.23    1.60
   3   7  -7   12.20    1.58
  -3  -7   7   14.65    1.89
  -3  -7   7   15.27    1.69
   2   7  -7   54.58    2.79
   2   7  -7   58.02    2.95
  -2  -7   7   58.97    2.81
  -2  -7   7   59.76    2.23
  -2  -7   7   54.72    2.83
   1   7  -7   24.26    1.74
   1   7  -7   25.36    1.73
  -1  -7   7   28.07    1.70
  -1  -7   7   26.97    1.36
  -1  -7   7   24.22    1.72
  -1  -7   7   24.79    2.06
   0   7  -7   99.22    3.77
   0   7  -7   94.95    3.89
   0  -7   7   91.43    4.01
   0  -7   7   90.80    3.44
   0  -7   7   95.08    3.64
   0  -7   7   91.17    3.67
  -1   7  -7   12.44    1.20
  -1   7  -7   14.37    1.04
  -1   7  -7   13.90    1.16
   1  -7   7   14.14    1.49
   1  -7   7   13.94    1.12
   1  -7   7   15.68    1.09
   1  -7   7   14.03    0.94
  -2   7  -7  113.93    4.01
  -2   7  -7  116.68    4.19
   2  -7   7  111.23    4.16
   2  -7   7  120.48    4.65
   2  -7   7  114.01    4.29
   2  -7   7  118.15    4.16
  -3   7  -7   55.17    2.24
   3  -7   7   53.74    2.63
   3  -7   7   54.59    2.12
   3  -7   7   52.13    2.30
   3  -7   7   54.28    2.56
   3  -7   7   48.86    2.24
  -4   7  -7   67.08    2.82
  -4   7  -7   65.27    3.16
   4  -7   7   68.70    2.44
   4  -7   7   63.59    2.72
   4  -7   7   66.12    2.75
   4  -7   7   68.47    3.09
   4  -7   7   66.69    2.42
   4  -7   7   69.15    3.01
  -5   7  -7   24.53    1.88
  -5   7  -7   24.31    1.59
   5  -7   7   25.71    1.85
   5  -7   7   25.34    1.46
   5  -7   7   21.91    1.79
   5  -7   7   24.18    1.25
  -6   7  -7   80.70    3.52
  -6   7  -7   81.96    3.74
   6  -7   7   82.77    3.58
   6  -7   7   78.97    3.29
   6  -7   7   76.59    3.59
   6  -7   7   80.17    3.14
  -7   7  -7   29.39    2.06
  -7   7  -7   30.85    2.40
  -7   7  -7   31.46    2.21
   7  -7   7   32.25    1.87
   7  -7   7   31.79    2.15
   7  -7   7   29.02    1.87
   7  -7   7   31.11    2.23
  -8   7  -7   75.80    4.00
  -8   7  -7   70.29    3.60
   8  -7   7   75.20    3.40
   8  -7   7   73.76    3.53
   8  -7   7   75.67    3.49
   4   6  -7   21.85    2.21
   4   6  -7   19.96    1.64
   4   6  -7   22.36    1.88
  -4  -6   7   18.56    1.73
  -4  -6   7   20.49    2.07
   3   6  -7   64.84    2.55
   3   6  -7   63.35    3.12
   3   6  -7   64.53    2.95
   3   6  -7   66.81    2.35
  -3  -6   7   64.78    2.42
  -3  -6   7   59.63    2.85
  -3  -6   7   61.68    3.22
  -3  -6   7   65.12    2.37
  -3  -6   7   64.86    3.01
   2   6  -7   50.24    2.52
   2   6  -7   57.20    2.08
   2   6  -7   49.49    2.45
   2   6  -7   51.30    2.56
  -2  -6   7   51.78    2.40
  -2  -6   7   53.66    2.71
  -2  -6   7   53.23    2.12
  -2  -6   7   53.25    2.48
  -2  -6   7   51.12    2.43
   1   6  -7   78.15    3.26
   1   6  -7   82.90    2.96
   1   6  -7   80.81    3.29
   1   6  -7   75.51    3.29
  -1  -6   7   79.82    3.22
  -1  -6   7   80.67    3.17
  -1  -6   7   79.43    2.99
  -1  -6   7   81.06    3.44
   0   6  -7   13.09    0.89
   0   6  -7   11.61    1.07
   0   6  -7   13.03    1.06
   0  -6   7   12.62    0.87
   0  -6   7   14.89    1.34
   0  -6   7   12.69    0.97
   0  -6   7   11.30    1.27
  -1   6  -7   74.53    3.14
  -1   6  -7   78.61    2.96
  -1   6  -7   76.41    2.62
  -1   6  -7   78.98    2.92
   1  -6   7   77.41    3.26
   1  -6   7   73.57    2.87
   1  -6   7   73.82    2.97
   1  -6   7   77.47    2.89
  -2   6  -7   63.16    2.89
  -2   6  -7   61.70    2.41
  -2   6  -7   55.21    2.60
  -2   6  -7   68.20    2.55
   2  -6   7   62.56    2.46
   2  -6   7   60.90    2.50
   2  -6   7   62.99    2.77
   2  -6   7   67.01    2.41
  -3   6  -7  196.57    6.65
  -3   6  -7  191.50    7.02
  -3   6  -7  188.91    6.39
  -3   6  -7  190.70    6.65
   3  -6   7  186.26    6.61
   3  -6   7  195.48    6.81
   3  -6   7  192.67    6.61
   3  -6   7  201.14    6.94
   3  -6   7  188.62    6.28
   3  -6   7  191.64    6.41
  -4   6  -7   53.88    2.42
  -4   6  -7   54.64    2.72
   4  -6   7   56.18    1.96
   4  -6   7   55.03    2.11
   4  -6   7   56.65    2.51
   4  -6   7   58.27    2.63
  -5   6  -7   83.43    3.49
  -5   6  -7   81.30    3.71
  -5   6  -7   91.97    3.33
   5  -6   7   84.54    3.33
   5  -6   7   81.11    3.17
   5  -6   7   85.66    3.49
   5  -6   7   87.90    3.58
  -6   6  -7   34.69    1.91
  -6   6  -7   31.27    2.20
  -6   6  -7   31.04    1.90
   6  -6   7   30.58    1.96
   6  -6   7   32.30    1.97
   6  -6   7   31.74    2.02
   6  -6   7   30.76    1.65
   6  -6   7   31.61    1.71
  -7   6  -7   79.48    3.45
  -7   6  -7   68.95    3.57
  -7   6  -7   70.93    3.41
   7  -6   7   74.96    3.39
   7  -6   7   69.57    3.12
   7  -6   7   72.83    3.36
   7  -6   7   75.50    3.17
  -8   6  -7   25.83    2.65
  -8   6  -7   22.56    2.03
   8  -6   7   29.06    2.10
   8  -6   7   22.50    1.85
   8  -6   7   26.95    1.99
   5   5  -7   25.06    1.72
   5   5  -7   28.12    2.11
   5   5  -7   25.92    2.26
  -5  -5   7   23.67    1.85
  -5  -5   7   24.25    2.19
  -5  -5   7   29.31    1.82
  -5  -5   7   27.91    2.75
   4   5  -7   44.32    1.79
   4   5  -7   45.80    2.48
   4   5  -7   42.68    2.15
   4   5  -7   43.76    2.18
  -4  -5   7   44.26    2.44
  -4  -5   7   43.98    1.85
  -4  -5   7   45.00    2.17
  -4  -5   7   42.57    2.45
  -4  -5   7   44.42    1.88
   3   5  -7   30.99    1.44
   3   5  -7   31.68    1.87
   3   5  -7   31.49    1.74
   3   5  -7   31.05    1.50
   3   5  -7   32.86    1.95
  -3  -5   7   32.43    1.86
  -3  -5   7   32.68    1.35
  -3  -5   7   34.65    1.52
  -3  -5   7   31.32    1.90
  -3  -5   7   31.65    1.78
  -3  -5   7   32.62    1.71
   2   5  -7   91.33    3.69
   2   5  -7   95.11    3.44
   2   5  -7   93.16    3.82
   2   5  -7  100.29    3.77
  -2  -5   7   99.53    3.68
  -2  -5   7   94.88    3.50
  -2  -5   7  101.58    3.86
  -2  -5   7   90.81    3.70
   1   5  -7   48.13    1.95
   1   5  -7   47.77    2.14
   1   5  -7   47.19    2.15
   1   5  -7   48.55    2.12
  -1  -5   7   49.46    2.29
  -1  -5   7   45.34    1.95
  -1  -5   7   48.03    2.10
  -1  -5   7   50.13    2.08
   0   5  -7   82.43    3.13
   0   5  -7   84.25    3.05
   0   5  -7   80.03    3.22
   0  -5   7   82.48    3.11
   0  -5   7   83.08    3.06
   0  -5   7   79.77    3.10
   0  -5   7   84.50    3.35
  -1   5  -7   51.81    2.38
  -1   5  -7   51.01    2.08
  -1   5  -7   53.33    1.95
  -1   5  -7   49.49    2.11
   1  -5   7   51.19    2.04
   1  -5   7   52.94    2.09
   1  -5   7   55.49    2.38
   1  -5   7   52.17    2.11
  -2   5  -7  100.41    4.06
  -2   5  -7  105.88    3.74
  -2   5  -7  101.23    3.64
  -2   5  -7  108.46    3.81
   2  -5   7  105.48    3.77
   2  -5   7  107.85    3.65
   2  -5   7  105.56    4.02
   2  -5   7  101.82    3.75
  -3   5  -7   50.09    1.86
  -3   5  -7   50.46    2.11
  -3   5  -7   52.96    2.12
  -3   5  -7   49.19    2.37
  -3   5  -7   47.58    1.79
   3  -5   7   46.91    1.81
   3  -5   7   51.76    2.20
   3  -5   7   51.80    2.32
   3  -5   7   49.01    1.80
   3  -5   7   47.17    2.03
  -4   5  -7   31.39    1.46
  -4   5  -7   30.39    1.53
  -4   5  -7   30.71    1.62
  -4   5  -7   30.37    1.81
   4  -5   7   29.90    1.49
   4  -5   7   31.77    1.74
   4  -5   7   30.84    1.63
   4  -5   7   30.09    1.36
  -5   5  -7   17.95    1.29
  -5   5  -7   16.96    1.85
  -5   5  -7   19.02    1.61
   5  -5   7   17.41    1.30
   5  -5   7   19.43    1.46
   5  -5   7   19.10    1.19
   5  -5   7   18.28    1.38
   5  -5   7   18.93    1.13
  -6   5  -7   78.54    3.17
  -6   5  -7   71.90    3.46
  -6   5  -7   69.71    3.20
   6  -5   7   71.63    2.95
   6  -5   7   70.87    2.98
   6  -5   7   68.24    3.20
   6  -5   7   77.63    3.16
   6  -5   7   69.88    3.14
  -7   5  -7   26.69    2.03
  -7   5  -7   26.65    2.18
  -7   5  -7   25.06    1.82
   7  -5   7   27.82    1.75
   7  -5   7   23.42    1.87
   7  -5   7   25.96    1.65
   7  -5   7   22.09    1.74
  -8   5  -7   36.89    2.42
  -8   5  -7   38.23    2.99
   8  -5   7   39.25    2.22
   8  -5   7   38.33    2.42
   8  -5   7   38.89    2.36
   6   4  -7   28.06    2.24
   6   4  -7   27.25    2.29
   6   4  -7   27.99    1.71
  -6  -4   7   29.47    1.85
  -6  -4   7   30.97    2.26
  -6  -4   7   21.49    2.30
  -6  -4   7   28.79    1.92
   5   4  -7   48.92    2.33
   5   4  -7   50.77    2.45
   5   4  -7   55.77    2.72
   5   4  -7   51.26    2.16
  -5  -4   7   47.45    2.66
  -5  -4   7   49.44    2.55
  -5  -4   7   54.01    2.20
  -5  -4   7   53.03    2.26
  -5  -4   7   50.45    2.34
   4   4  -7   28.66    1.41
   4   4  -7   29.06    1.77
   4   4  -7   25.92    1.72
   4   4  -7   24.39    1.47
   4   4  -7   25.79    1.49
  -4  -4   7   26.18    1.37
  -4  -4   7   26.21    1.47
  -4  -4   7   24.77    1.63
  -4  -4   7   26.21    1.62
  -4  -4   7   27.28    1.72
  -4  -4   7   27.03    1.30
   3   4  -7   75.07    3.35
   3   4  -7   79.03    2.95
   3   4  -7   76.32    2.87
   3   4  -7   78.43    3.09
  -3  -4   7   77.47    2.77
  -3  -4   7   81.59    3.15
  -3  -4   7   78.60    2.99
  -3  -4   7   78.48    3.66
  -3  -4   7   81.07    3.20
   2   4  -7   10.16    0.79
   2   4  -7    9.37    0.83
   2   4  -7    8.00    0.88
   2   4  -7    9.18    0.55
  -2  -4   7    8.60    0.83
  -2  -4   7   11.75    0.89
  -2  -4   7    9.90    0.95
  -2  -4   7    9.73    0.80
   1   4  -7  152.54    4.91
   1   4  -7  137.44    4.99
   1   4  -7  140.87    4.99
   1   4  -7  147.39    4.97
  -1  -4   7  132.32    4.95
  -1  -4   7  133.39    4.91
  -1  -4   7  138.44    4.89
   0   4  -7   54.16    1.92
   0   4  -7   55.50    2.14
   0   4  -7   51.82    2.30
   0   4  -7   51.03    2.13
   0  -4   7   51.35    2.10
   0  -4   7   56.86    2.32
   0  -4   7   53.01    2.10
   0  -4   7   53.98    2.10
  -1   4  -7  132.28    4.55
  -1   4  -7  124.96    4.46
  -1   4  -7  124.80    4.75
  -1   4  -7  131.27    4.44
   1  -4   7  124.68    4.47
   1  -4   7  135.48    4.75
   1  -4   7  128.24    4.52
   1  -4   7  132.69    4.45
  -2   4  -7   26.56    1.07
  -2   4  -7   27.42    1.14
  -2   4  -7   28.06    1.31
   2  -4   7   26.00    1.05
   2  -4   7   24.32    1.65
   2  -4   7   25.68    1.25
   2  -4   7   28.04    1.12
   2  -4   7   26.96    1.22
  -3   4  -7  126.44    4.28
  -3   4  -7  125.58    4.40
  -3   4  -7  121.83    4.08
  -3   4  -7  117.04    4.65
  -3   4  -7  121.99    4.47
   3  -4   7  116.60    4.35
   3  -4   7  124.89    4.24
   3  -4   7  121.09    4.06
   3  -4   7  135.01    4.63
  -4   4  -7   93.24    3.93
  -4   4  -7  102.07    3.62
  -4   4  -7  100.28    3.64
  -4   4  -7   95.66    3.75
   4  -4   7   97.40    3.54
   4  -4   7   98.78    3.60
   4  -4   7  101.16    3.68
   4  -4   7   97.37    3.80
   4  -4   7   88.58    3.83
  -5   4  -7  185.41    6.50
  -5   4  -7  182.41    6.64
  -5   4  -7  184.38    6.43
  -5   4  -7  169.71    6.78
   5  -4   7  185.67    6.59
   5  -4   7  183.40    6.71
   5  -4   7  192.75    6.51
   5  -4   7  186.37    6.43
  -6   4  -7   44.68    2.22
  -6   4  -7   40.64    2.19
  -6   4  -7   40.80    2.50
   6  -4   7   40.66    2.13
   6  -4   7   39.10    2.18
   6  -4   7   41.09    2.13
   6  -4   7   40.73    1.96
  -7   4  -7   86.43    3.77
  -7   4  -7   78.10    3.64
  -7   4  -7   81.29    3.93
   7  -4   7   82.05    3.33
   7  -4   7   76.65    3.54
   7  -4   7   79.15    3.49
   7  -4   7   80.31    3.52
   7  -4   7   81.24    3.56
  -8   4  -7   25.29    2.01
  -8   4  -7   24.25    2.81
   8  -4   7   24.56    1.87
   8  -4   7   25.43    1.89
   8  -4   7   27.55    2.26
   6   3  -7   72.59    3.29
   6   3  -7   70.93    2.87
   6   3  -7   58.71    3.73
   6   3  -7   71.49    2.92
  -6  -3   7   70.58    2.96
  -6  -3   7   67.29    2.84
  -6  -3   7   73.73    3.39
  -6  -3   7   69.84    3.02
   5   3  -7   13.24    1.00
   5   3  -7   12.22    1.35
   5   3  -7    9.71    1.24
   5   3  -7   13.80    1.19
  -5  -3   7   13.07    1.34
  -5  -3   7   12.86    1.30
  -5  -3   7   12.95    0.97
  -5  -3   7   12.55    0.98
  -5  -3   7   12.76    1.23
  -5  -3   7   11.70    0.87
  -5  -3   7   11.81    1.05
   4   3  -7  151.88    5.31
   4   3  -7  129.04    5.07
   4   3  -7  143.01    5.12
   4   3  -7  144.53    5.35
   4   3  -7  159.41    5.22
  -4  -3   7  144.33    5.51
  -4  -3   7  147.31    5.26
  -4  -3   7  144.18    5.15
  -4  -3   7  146.23    5.01
  -4  -3   7  143.19    5.06
   3   3  -7   54.17    2.18
   3   3  -7   57.00    2.27
   3   3  -7   55.33    2.29
   3   3  -7   51.49    2.05
   3   3  -7   54.65    2.34
  -3  -3   7   51.10    2.28
  -3  -3   7   53.74    2.26
  -3  -3   7   52.10    2.20
  -3  -3   7   53.89    2.28
   2   3  -7  118.93    4.25
   2   3  -7  132.10    4.52
   2   3  -7  123.22    4.59
   2   3  -7  127.15    4.27
   2   3  -7  129.61    4.55
  -2  -3   7  133.37    4.55
  -2  -3   7  129.27    4.56
  -2  -3   7  124.57    4.54
  -2  -3   7  132.82    4.61
   1   3  -7   77.31    2.58
   1   3  -7   74.23    2.76
   1   3  -7   76.12    2.73
   1   3  -7   69.04    2.76
   1   3  -7   70.54    2.82
  -1  -3   7   73.71    2.83
  -1  -3   7   73.94    2.73
  -1  -3   7   66.98    2.67
  -1  -3   7   71.73    2.74
   0   3  -7  281.20    8.64
   0   3  -7  241.45    8.55
   0   3  -7  252.63    8.72
   0   3  -7  264.46    8.50
   0  -3   7  270.51    8.73
   0  -3   7  249.69    8.51
   0  -3   7  251.09    8.58
   0  -3   7  250.48    8.50
  -1   3  -7  172.21    6.41
  -1   3  -7  199.22    6.31
  -1   3  -7  178.17    6.16
  -1   3  -7  180.46    6.03
   1  -3   7  180.40    6.15
   1  -3   7  179.06    6.25
   1  -3   7  193.45    6.44
   1  -3   7  184.82    6.03
   1  -3   7  191.35    6.14
  -2   3  -7  150.31    5.71
  -2   3  -7  159.30    5.58
  -2   3  -7  161.52    5.39
  -2   3  -7  151.86    5.33
  -2   3  -7  170.28    5.54
   2  -3   7  154.42    5.36
   2  -3   7  175.94    5.73
   2  -3   7  161.29    5.49
   2  -3   7  156.07    5.49
   2  -3   7  161.67    5.29
  -3   3  -7    5.18    0.72
  -3   3  -7    4.60    0.56
  -3   3  -7    4.12    0.36
  -3   3  -7    5.45    0.79
  -3   3  -7    5.11    0.58
   3  -3   7    3.03    0.43
   3  -3   7    3.67    0.65
   3  -3   7    5.11    0.70
   3  -3   7    3.47    0.49
   3  -3   7    4.27    0.52
  -4   3  -7  221.16    7.14
  -4   3  -7  207.13    7.04
  -4   3  -7  195.51    7.38
  -4   3  -7  198.58    7.23
   4  -3   7  208.55    7.33
   4  -3   7  201.98    7.20
   4  -3   7  200.48    7.02
   4  -3   7  211.96    7.06
   4  -3   7  205.11    7.05
  -5   3  -7   30.81    2.05
  -5   3  -7   33.12    1.62
  -5   3  -7   30.93    1.80
  -5   3  -7   33.57    1.79
   5  -3   7   33.15    1.87
   5  -3   7   36.21    1.82
   5  -3   7   32.04    1.60
   5  -3   7   33.27    1.73
   5  -3   7   34.81    1.74
  -6   3  -7   69.40    3.18
  -6   3  -7   69.96    3.03
  -6   3  -7   73.11    3.21
  -6   3  -7   65.06    3.39
   6  -3   7   72.26    2.90
   6  -3   7   72.86    3.12
   6  -3   7   70.26    3.18
   6  -3   7   71.51    3.07
   6  -3   7   72.41    3.05
  -7   3  -7   23.23    1.82
  -7   3  -7   23.74    2.33
  -7   3  -7   19.90    1.74
   7  -3   7   23.97    1.92
   7  -3   7   28.24    1.99
   7  -3   7   22.72    1.88
   7  -3   7   22.88    1.75
   7  -3   7   24.93    1.57
   7   2  -7   55.19    2.68
   7   2  -7   55.17    2.92
   7   2  -7   54.98    2.88
   7   2  -7   55.28    2.34
  -7  -2   7   48.11    2.67
  -7  -2   7   57.28    2.36
  -7  -2   7   55.80    3.09
  -7  -2   7   58.70    2.39
   6   2  -7   54.15    2.68
   6   2  -7   56.24    2.67
   6   2  -7   56.66    2.70
   6   2  -7   57.00    2.29
   6   2  -7   59.01    2.57
  -6  -2   7   56.66    2.39
  -6  -2   7   54.13    2.24
  -6  -2   7   55.16    2.47
  -6  -2   7   53.57    2.76
  -6  -2   7   56.93    2.29
  -6  -2   7   55.84    2.71
  -6  -2   7   58.79    2.54
   5   2  -7   80.41    3.42
   5   2  -7   83.58    3.30
   5   2  -7   83.52    3.08
   5   2  -7   88.44    3.41
   5   2  -7   81.06    3.30
  -5  -2   7   83.09    3.48
  -5  -2   7   86.14    3.10
  -5  -2   7   86.11    3.20
  -5  -2   7   84.78    3.36
  -5  -2   7   83.21    3.18
  -5  -2   7   80.38    3.05
  -5  -2   7   87.00    3.33
   4   2  -7   38.35    1.63
   4   2  -7   39.76    1.73
   4   2  -7   37.39    1.90
   4   2  -7   40.31    1.85
   4   2  -7   43.02    1.84
  -4  -2   7   39.59    1.83
  -4  -2   7   38.60    1.83
  -4  -2   7   38.23    1.62
  -4  -2   7   36.47    1.87
  -4  -2   7   38.97    1.71
   3   2  -7   55.51    2.24
   3   2  -7   52.98    2.03
   3   2  -7   51.09    2.22
   3   2  -7   53.49    2.04
   3   2  -7   48.88    2.52
  -3  -2   7   51.92    2.19
  -3  -2   7   54.86    2.19
  -3  -2   7   51.91    2.20
  -3  -2   7   50.80    2.10
   2   2  -7   36.19    1.57
   2   2  -7   34.77    1.46
   2   2  -7   33.07    1.32
   2   2  -7   30.92    1.53
   2   2  -7   31.54    1.47
  -2  -2   7   32.31    1.49
  -2  -2   7   33.80    1.47
  -2  -2   7   33.22    1.56
  -2  -2   7   33.87    1.49
   1   2  -7  119.49    4.06
   1   2  -7  121.35    4.20
   1   2  -7  112.51    4.16
   1   2  -7  113.03    4.19
   1   2  -7  113.90    3.93
   1   2  -7  122.51    4.14
   1   2  -7  117.79    3.98
  -1  -2   7  115.71    4.06
  -1  -2   7  117.14    4.19
  -1  -2   7  127.94    4.15
  -1  -2   7  115.66    4.19
   0   2  -7   55.21    2.19
   0   2  -7   60.06    2.27
   0   2  -7   56.83    2.31
   0   2  -7   58.03    2.09
   0  -2   7   57.04    2.09
   0  -2   7   59.11    2.15
   0  -2   7   52.77    2.22
   0  -2   7   61.50    2.32
  -1   2  -7  162.93    5.39
  -1   2  -7  156.97    5.38
  -1   2  -7  154.09    5.62
  -1   2  -7  159.34    5.55
  -1   2  -7  165.50    5.49
   1  -2   7  159.78    5.36
   1  -2   7  158.17    5.31
   1  -2   7  158.35    5.31
   1  -2   7  173.13    5.64
   1  -2   7  147.51    5.44
   1  -2   7  157.19    5.37
   1  -2   7  160.64    5.64
  -2   2  -7   12.27    0.81
  -2   2  -7   14.18    0.73
  -2   2  -7   13.46    0.93
  -2   2  -7   13.38    0.83
   2  -2   7   13.51    0.64
   2  -2   7   13.46    0.78
   2  -2   7   12.31    0.77
   2  -2   7   12.33    0.80
   2  -2   7   13.12    0.96
   2  -2   7   13.39    1.00
  -3   2  -7   56.49    2.48
  -3   2  -7   61.19    2.42
  -3   2  -7   57.70    2.59
  -3   2  -7   59.02    2.13
   3  -2   7   61.00    2.30
   3  -2   7   57.06    2.55
   3  -2   7   58.95    2.31
   3  -2   7   58.59    2.36
   3  -2   7   60.55    2.49
  -4   2  -7   62.82    2.18
  -4   2  -7   61.29    2.21
  -4   2  -7   59.93    2.82
  -4   2  -7   67.60    2.69
  -4   2  -7   60.59    2.70
  -4   2  -7   63.51    2.48
   4  -2   7   67.43    2.53
   4  -2   7   58.77    2.56
   4  -2   7   63.26    2.48
   4  -2   7   59.40    2.72
   4  -2   7   64.49    2.67
  -5   2  -7   73.03    2.49
  -5   2  -7   77.75    3.17
  -5   2  -7   75.78    2.93
  -5   2  -7   64.37    3.10
  -5   2  -7   66.94    3.28
  -5   2  -7   72.78    2.50
  -5   2  -7   73.80    2.85
   5  -2   7   77.20    3.07
   5  -2   7   72.81    2.86
   5  -2   7   73.91    3.16
   5  -2   7   74.16    2.96
   5  -2   7   66.25    3.26
  -6   2  -7   55.11    2.51
  -6   2  -7   54.16    2.80
  -6   2  -7   52.51    2.68
  -6   2  -7   55.40    2.94
   6  -2   7   57.58    2.66
   6  -2   7   57.15    2.40
   6  -2   7   51.71    2.65
   6  -2   7   52.14    2.54
   6  -2   7   55.36    2.73
  -7   2  -7   41.87    2.51
  -7   2  -7   45.54    2.47
  -7   2  -7   42.24    2.99
   7  -2   7   45.28    2.74
   7  -2   7   47.81    2.24
   7  -2   7   50.82    3.10
   7  -2   7   43.90    2.51
   8   1  -7   45.46    2.87
   8   1  -7   46.47    2.73
  -8  -1   7   42.22    2.16
  -8  -1   7   42.79    3.06
   7   1  -7   17.31    1.06
   7   1  -7   15.30    1.61
   7   1  -7   19.71    1.60
   7   1  -7   15.13    1.64
  -7  -1   7   19.92    1.94
  -7  -1   7   16.04    1.20
  -7  -1   7   16.86    1.06
  -7  -1   7   16.24    0.99
  -7  -1   7   15.94    1.49
  -7  -1   7   17.18    1.79
   6   1  -7   53.01    2.39
   6   1  -7   52.52    2.02
   6   1  -7   49.72    2.38
   6   1  -7   54.29    2.48
   6   1  -7   52.82    2.41
  -6  -1   7   46.85    2.47
  -6  -1   7   48.10    1.93
  -6  -1   7   52.13    2.20
  -6  -1   7   51.17    2.01
  -6  -1   7   53.42    2.43
  -6  -1   7   50.87    2.38
   5   1  -7   24.17    1.13
   5   1  -7   27.29    1.52
   5   1  -7   23.58    1.38
   5   1  -7   26.31    1.44
   5   1  -7   27.67    1.50
  -5  -1   7   23.67    1.47
  -5  -1   7   25.16    1.54
  -5  -1   7   24.42    1.18
  -5  -1   7   23.41    1.07
  -5  -1   7   26.32    1.29
  -5  -1   7   25.79    1.45
   4   1  -7   94.33    4.02
   4   1  -7   97.90    3.67
   4   1  -7  101.51    3.68
   4   1  -7  103.12    3.79
  -4  -1   7   97.37    3.80
  -4  -1   7  103.17    3.65
  -4  -1   7  105.78    3.76
  -4  -1   7   97.69    3.77
  -4  -1   7  105.63    3.56
   3   1  -7   70.12    2.64
   3   1  -7   74.04    2.84
   3   1  -7   69.35    2.77
   3   1  -7   74.44    2.67
  -3  -1   7   70.22    2.62
  -3  -1   7   72.58    2.85
  -3  -1   7   71.28    2.74
   2   1  -7  148.95    5.19
   2   1  -7  148.24    5.12
   2   1  -7  154.55    5.13
   2   1  -7  147.31    5.26
   2   1  -7  157.12    5.35
  -2  -1   7  151.78    5.19
  -2  -1   7  147.46    5.35
  -2  -1   7  153.57    5.18
  -2  -1   7  158.37    5.25
   1   1  -7   80.00    2.95
   1   1  -7   79.55    2.89
   1   1  -7   79.98    2.97
   1   1  -7   77.96    2.77
  -1  -1   7   81.93    2.97
  -1  -1   7   77.29    2.79
  -1  -1   7   77.25    3.02
  -1  -1   7   82.91    2.98
  -1  -1   7   85.73    2.93
   0   1  -7  118.41    4.17
   0   1  -7  112.58    4.28
   0   1  -7  121.23    4.25
   0   1  -7  125.58    4.35
   0   1  -7  122.08    4.20
   0  -1   7  115.10    4.25
   0  -1   7  115.66    4.11
   0  -1   7  125.57    4.32
   0  -1   7  119.18    4.01
   0  -1   7  127.82    4.35
  -1   1  -7   36.46    1.53
  -1   1  -7   37.66    1.67
  -1   1  -7   35.14    1.55
  -1   1  -7   33.22    1.63
  -1   1  -7   33.77    1.42
   1  -1   7   35.02    1.37
   1  -1   7   34.63    1.36
   1  -1   7   33.30    1.29
   1  -1   7   36.35    1.63
   1  -1   7   36.59    1.66
   1  -1   7   32.93    1.51
   1  -1   7   35.37    1.52
  -2   1  -7  202.00    7.11
  -2   1  -7  211.76    7.02
  -2   1  -7  200.48    6.75
  -2   1  -7  213.84    6.90
  -2   1  -7  199.25    7.10
   2  -1   7  210.95    7.14
   2  -1   7  198.07    7.13
   2  -1   7  205.92    6.97
   2  -1   7  202.51    6.77
   2  -1   7  194.88    6.89
  -3   1  -7  117.15    4.58
  -3   1  -7  124.60    4.50
  -3   1  -7  122.03    4.58
  -3   1  -7  118.14    4.26
  -3   1  -7  118.04    4.13
   3  -1   7  122.59    4.46
   3  -1   7  126.07    4.26
   3  -1   7  122.00    4.58
   3  -1   7  117.01    4.31
   3  -1   7  128.17    4.52
  -4   1  -7  102.31    4.12
  -4   1  -7  108.55    4.10
  -4   1  -7  107.95    3.64
  -4   1  -7  104.47    3.79
  -4   1  -7  100.10    4.16
  -4   1  -7  102.50    3.60
  -4   1  -7  107.21    3.79
   4  -1   7  106.27    4.04
   4  -1   7  103.57    4.05
   4  -1   7  107.69    3.84
   4  -1   7  100.98    3.80
   4  -1   7  103.86    4.14
  -5   1  -7   25.78    1.20
  -5   1  -7   24.31    1.62
  -5   1  -7   25.48    1.43
  -5   1  -7   22.89    1.74
  -5   1  -7   25.26    1.36
  -5   1  -7   26.58    1.80
  -5   1  -7   25.09    1.14
   5  -1   7   27.02    1.57
   5  -1   7   26.13    1.68
   5  -1   7   27.59    1.69
   5  -1   7   24.91    1.70
   5  -1   7   26.16    1.39
  -6   1  -7   68.60    3.52
  -6   1  -7   67.61    3.33
  -6   1  -7   73.06    3.13
  -6   1  -7   75.99    2.70
  -6   1  -7   74.84    2.76
   6  -1   7   80.30    3.53
   6  -1   7   76.47    3.08
   6  -1   7   71.96    3.37
   6  -1   7   75.31    3.23
   6  -1   7   76.45    3.41
  -7   1  -7   38.67    2.32
  -7   1  -7   33.11    2.31
  -7   1  -7   34.52    2.78
   7  -1   7   39.96    2.08
   7  -1   7   37.79    2.74
   8   0  -7   21.43    1.91
   8   0  -7   22.49    2.13
   8   0  -7   23.16    2.08
  -8   0   7   20.32    1.46
  -8   0   7   17.18    2.16
   7   0  -7   69.13    3.08
   7   0  -7   69.24    3.10
   7   0  -7   68.28    3.06
   7   0  -7   70.35    3.13
  -7   0   7   76.44    3.10
  -7   0   7   70.86    2.95
  -7   0   7   66.63    3.24
   6   0  -7   31.88    1.80
   6   0  -7   30.16    1.72
   6   0  -7   32.28    1.74
   6   0  -7   31.14    1.65
  -6   0   7   31.49    1.69
  -6   0   7   34.26    1.88
  -6   0   7   31.29    1.89
  -6   0   7   27.64    1.54
   5   0  -7  131.01    4.68
   5   0  -7  135.38    4.85
   5   0  -7  133.71    4.79
   5   0  -7  131.09    4.76
  -5   0   7  119.81    4.77
  -5   0   7  137.99    4.76
  -5   0   7  138.56    4.77
  -5   0   7  126.59    4.31
  -5   0   7  126.56    4.87
   4   0  -7   59.95    2.25
   4   0  -7   54.03    2.28
   4   0  -7   59.57    2.44
   4   0  -7   58.97    2.37
  -4   0   7   54.96    2.32
  -4   0   7   57.51    2.01
  -4   0   7   55.53    2.31
  -4   0   7   57.21    2.05
  -4   0   7   54.61    2.43
  -4   0   7   59.12    2.34
   3   0  -7  197.56    6.90
   3   0  -7  206.40    6.74
   3   0  -7  202.59    6.98
   3   0  -7  197.08    6.83
   3   0  -7  198.93    6.71
  -3   0   7  204.34    6.93
  -3   0   7  204.94    6.72
  -3   0   7  203.37    7.03
  -3   0   7  201.46    6.90
  -3   0   7  198.10    6.82
  -3   0   7  213.95    6.69
   2   0  -7   82.31    2.76
   2   0  -7   82.93    2.89
   2   0  -7   73.92    2.94
  -2   0   7   80.82    2.90
  -2   0   7   78.33    2.85
  -2   0   7   77.12    3.08
  -2   0   7   77.73    2.81
  -2   0   7   84.07    2.96
   1   0  -7  307.41    9.99
   1   0  -7  274.72    9.87
   1   0  -7  297.35    9.93
   1   0  -7  304.34    9.98
  -1   0   7  292.64   10.04
  -1   0   7  319.94    9.97
  -1   0   7  307.87    9.94
  -1   0   7  299.23    9.68
  -1   0   7  294.84    9.86
   0   0  -7   21.77    1.17
   0   0  -7   23.06    1.19
   0   0  -7   24.59    1.29
   0   0  -7   22.08    1.05
   0   0  -7   24.43    1.16
   0   0   7   24.51    1.23
   0   0   7   24.32    1.22
   0   0   7   21.28    1.17
   0   0   7   21.36    1.02
   0   0   7   22.31    0.87
   0   0   7   22.11    0.84
  -1   0  -7  201.02    7.00
  -1   0  -7  200.49    6.76
  -1   0  -7  210.92    7.00
  -1   0  -7  200.34    7.08
  -1   0  -7  211.85    6.87
   1   0   7  206.50    6.62
   1   0   7  204.79    7.05
   1   0   7  192.15    6.89
   1   0   7  204.20    6.98
   1   0   7  196.07    6.95
  -2   0  -7  114.50    3.79
  -2   0  -7  103.36    3.68
  -2   0  -7   97.97    4.22
  -2   0  -7  101.18    4.00
  -2   0  -7  106.95    4.08
   2   0   7  107.82    3.65
   2   0   7  103.10    3.82
   2   0   7  107.88    4.06
   2   0   7  102.69    3.96
   2   0   7  113.00    4.00
  -3   0  -7  142.66    4.91
  -3   0  -7  135.94    5.27
  -3   0  -7  140.06    5.29
  -3   0  -7  144.37    4.86
  -3   0  -7  143.45    4.89
  -3   0  -7  151.85    5.29
  -3   0  -7  136.96    4.83
   3   0   7  146.34    5.21
   3   0   7  139.28    4.99
   3   0   7  137.43    5.21
   3   0   7  146.54    4.93
   3   0   7  140.10    5.29
  -4   0  -7   16.23    1.37
  -4   0  -7   15.35    0.94
  -4   0  -7   14.22    1.35
  -4   0  -7   13.25    1.20
  -4   0  -7   13.94    0.94
  -4   0  -7   13.60    0.84
  -4   0  -7   13.63    0.93
   4   0   7   12.90    1.22
   4   0   7   13.51    1.05
   4   0   7   13.43    1.27
   4   0   7   12.90    0.98
   4   0   7   14.39    1.25
  -5   0  -7   66.82    2.55
  -5   0  -7   63.77    3.23
  -5   0  -7   62.43    3.08
  -5   0  -7   69.75    3.29
  -5   0  -7   67.65    2.77
  -5   0  -7   73.87    2.68
   5   0   7   71.58    3.21
   5   0   7   70.13    3.14
   5   0   7   66.30    3.15
   5   0   7   68.84    2.89
   5   0   7   66.48    2.74
  -6   0  -7   19.37    1.57
  -6   0  -7   19.31    1.68
  -6   0  -7   23.18    2.19
  -6   0  -7   19.92    1.42
  -6   0  -7   19.90    1.20
   6   0   7   18.47    1.71
   6   0   7   15.81    1.68
   6   0   7   18.12    1.45
   6   0   7   17.68    1.96
   8  -1  -7   83.10    3.50
   8  -1  -7   80.63    3.68
  -8   1   7   77.07    3.38
  -8   1   7   77.42    3.80
   7  -1  -7   30.54    1.79
   7  -1  -7   29.35    1.87
   7  -1  -7   30.45    1.94
   7  -1  -7   28.93    1.74
  -7   1   7   29.18    1.98
  -7   1   7   31.41    1.74
  -7   1   7   33.68    1.83
   6  -1  -7   52.18    2.45
   6  -1  -7   55.89    2.51
   6  -1  -7   56.72    2.34
  -6   1   7   58.83    2.43
  -6   1   7   54.16    2.51
  -6   1   7   51.68    2.37
  -6   1   7   46.66    3.02
   5  -1  -7   54.57    2.39
   5  -1  -7   55.86    2.30
   5  -1  -7   50.13    2.27
  -5   1   7   53.90    2.28
  -5   1   7   53.55    2.46
  -5   1   7   50.56    2.28
  -5   1   7   52.57    2.31
   4  -1  -7   87.40    3.41
   4  -1  -7   88.43    3.43
   4  -1  -7   94.40    3.56
   4  -1  -7   94.20    3.27
   4  -1  -7   91.27    3.07
  -4   1   7   93.77    3.50
  -4   1   7   90.41    3.60
  -4   1   7   91.68    3.05
  -4   1   7   95.99    3.45
  -4   1   7   89.18    3.37
   3  -1  -7   30.47    1.42
   3  -1  -7   29.89    2.02
   3  -1  -7   29.92    1.24
   3  -1  -7   30.07    1.21
   3  -1  -7   29.98    1.40
  -3   1   7   30.85    1.19
  -3   1   7   28.81    1.48
  -3   1   7   31.16    1.31
  -3   1   7   27.93    1.56
  -3   1   7   31.61    1.26
   2  -1  -7  203.53    7.10
   2  -1  -7  210.02    7.10
   2  -1  -7  203.59    6.97
   2  -1  -7  207.02    6.92
   2  -1  -7  204.15    6.68
  -2   1   7  216.83    6.92
  -2   1   7  206.37    6.74
  -2   1   7  201.86    7.16
  -2   1   7  211.99    6.96
  -2   1   7  201.78    6.95
   1  -1  -7   24.94    1.19
   1  -1  -7   25.96    1.36
   1  -1  -7   24.97    1.23
   1  -1  -7   25.67    1.29
  -1   1   7   23.34    1.34
  -1   1   7   25.83    1.19
  -1   1   7   27.35    1.30
  -1   1   7   29.28    1.33
   0  -1  -7   55.05    2.27
   0  -1  -7   52.59    2.03
   0  -1  -7   54.24    2.10
   0  -1  -7   49.64    2.15
   0  -1  -7   51.52    2.32
   0   1   7   57.40    2.23
   0   1   7   47.38    2.17
   0   1   7   49.33    2.18
  -1  -1  -7   11.51    0.96
  -1  -1  -7   10.76    0.74
  -1  -1  -7   10.38    0.71
  -1  -1  -7    9.69    0.88
  -1  -1  -7    9.69    0.94
   1   1   7    9.34    0.81
   1   1   7    9.92    0.90
   1   1   7   11.10    0.91
   1   1   7   11.38    0.94
  -2  -1  -7  124.40    4.67
  -2  -1  -7  121.51    4.31
  -2  -1  -7  122.33    4.73
  -2  -1  -7  120.93    4.64
  -2  -1  -7  125.83    4.34
   2   1   7  123.66    4.46
   2   1   7  119.99    4.70
   2   1   7  127.35    4.18
   2   1   7  132.96    4.67
   2   1   7  121.08    4.67
  -3  -1  -7   61.44    2.39
  -3  -1  -7   62.32    2.33
  -3  -1  -7   64.89    2.39
  -3  -1  -7   62.79    2.84
  -3  -1  -7   64.65    2.86
  -3  -1  -7   58.46    2.79
  -3  -1  -7   61.02    2.47
   3   1   7   65.94    2.79
   3   1   7   59.13    2.84
   3   1   7   64.50    2.87
   3   1   7   63.20    2.53
   3   1   7   63.82    2.39
  -4  -1  -7   77.27    2.97
  -4  -1  -7   81.04    3.53
  -4  -1  -7   83.31    3.08
  -4  -1  -7   75.46    3.41
  -4  -1  -7   78.97    2.96
  -4  -1  -7   78.45    2.91
  -4  -1  -7   83.17    3.59
   4   1   7   77.24    3.37
   4   1   7   75.31    3.50
   4   1   7   75.87    3.50
   4   1   7   77.56    3.05
   4   1   7   82.90    3.06
  -5  -1  -7   26.50    2.20
  -5  -1  -7   25.78    1.54
  -5  -1  -7   25.88    1.61
  -5  -1  -7   22.11    1.74
   5   1   7   26.29    1.52
   5   1   7   23.83    1.88
   5   1   7   25.31    1.65
   5   1   7   28.33    2.17
   8  -2  -7   29.48    2.19
   8  -2  -7   42.16    2.64
   8  -2  -7   32.90    1.97
  -8   2   7   29.84    1.94
  -8   2   7   31.76    2.38
  -8   2   7   37.16    2.19
   7  -2  -7   33.75    2.15
   7  -2  -7   39.89    2.14
   7  -2  -7   37.57    1.96
   7  -2  -7   37.68    1.91
  -7   2   7   38.07    2.00
  -7   2   7   35.39    2.18
  -7   2   7   39.62    2.03
   6  -2  -7   14.69    1.25
   6  -2  -7   13.40    1.04
   6  -2  -7   13.58    1.31
  -6   2   7   14.75    1.17
  -6   2   7   12.80    1.24
  -6   2   7   14.16    1.14
  -6   2   7   13.99    1.40
   5  -2  -7   96.62    3.38
   5  -2  -7   99.57    3.72
   5  -2  -7   88.01    3.57
   5  -2  -7   92.88    3.56
  -5   2   7   90.24    3.66
  -5   2   7   90.17    3.53
  -5   2   7   95.35    3.57
  -5   2   7   93.06    3.80
   4  -2  -7   42.31    1.59
   4  -2  -7   44.00    1.97
   4  -2  -7   44.52    1.71
   4  -2  -7   43.02    2.05
   4  -2  -7   44.93    1.93
  -4   2   7   42.79    2.04
  -4   2   7   42.96    1.79
  -4   2   7   43.77    1.56
  -4   2   7   48.43    1.98
  -4   2   7   44.92    2.15
   3  -2  -7  171.71    5.86
   3  -2  -7  161.87    5.67
   3  -2  -7  177.48    6.00
   3  -2  -7  172.35    5.55
  -3   2   7  171.06    5.85
  -3   2   7  178.28    5.70
  -3   2   7  165.66    5.58
  -3   2   7  155.34    6.03
  -3   2   7  171.16    5.61
   2  -2  -7   58.01    2.66
   2  -2  -7   55.47    2.25
   2  -2  -7   57.11    2.22
   2  -2  -7   56.96    2.50
  -2   2   7   52.90    2.45
  -2   2   7   61.47    2.25
  -2   2   7   54.69    2.24
  -2   2   7   61.83    2.29
   1  -2  -7   74.58    2.87
   1  -2  -7   71.06    2.80
   1  -2  -7   76.53    3.06
   1  -2  -7   73.90    2.88
  -1   2   7   82.45    2.99
  -1   2   7   80.11    2.95
  -1   2   7   69.00    2.99
   0  -2  -7  175.86    5.94
   0  -2  -7  167.87    5.90
   0  -2  -7  177.03    6.07
   0  -2  -7  170.35    6.28
   0  -2  -7  185.06    6.24
   0   2   7  182.74    6.13
   0   2   7  162.27    6.13
   0   2   7  163.62    6.07
  -1  -2  -7  119.52    4.70
  -1  -2  -7  128.39    4.70
  -1  -2  -7  125.92    4.59
  -1  -2  -7  121.20    4.32
  -1  -2  -7  126.62    4.32
   1   2   7  128.34    4.62
   1   2   7  118.22    4.66
   1   2   7  121.49    4.68
   1   2   7  116.36    4.45
  -2  -2  -7   45.35    1.66
  -2  -2  -7   45.11    1.92
  -2  -2  -7   46.12    2.26
  -2  -2  -7   46.44    2.30
  -2  -2  -7   48.11    2.33
  -2  -2  -7   45.46    1.83
  -2  -2  -7   46.34    2.02
   2   2   7   45.52    2.33
   2   2   7   40.86    2.25
   2   2   7   44.63    2.02
   2   2   7   46.16    2.23
   2   2   7   45.48    1.64
  -3  -2  -7   74.08    3.44
  -3  -2  -7   78.12    3.46
  -3  -2  -7   84.98    3.20
  -3  -2  -7   80.47    2.88
  -3  -2  -7   83.75    3.60
  -3  -2  -7   81.02    2.90
   3   2   7   83.90    3.50
   3   2   7   80.92    2.89
   3   2   7   74.01    3.52
   3   2   7   79.68    3.57
   3   2   7   77.17    3.09
  -4  -2  -7   25.34    1.42
  -4  -2  -7   24.88    1.74
  -4  -2  -7   24.78    1.59
  -4  -2  -7   22.89    2.01
  -4  -2  -7   24.95    1.33
   4   2   7   18.10    1.62
   4   2   7   22.84    1.81
   4   2   7   21.02    1.40
   4   2   7   25.83    2.14
  -5  -2  -7   50.20    2.72
  -5  -2  -7   48.96    2.73
  -5  -2  -7   53.42    2.37
  -5  -2  -7   48.22    3.14
   5   2   7   49.56    2.86
   5   2   7   52.88    3.32
   8  -3  -7   56.12    2.82
   8  -3  -7   64.79    3.18
   8  -3  -7   66.86    2.88
  -8   3   7   65.58    3.07
  -8   3   7   62.31    3.01
  -8   3   7   61.99    3.24
   7  -3  -7   66.90    3.15
   7  -3  -7   65.81    3.03
   7  -3  -7   64.87    2.82
   7  -3  -7   63.85    2.69
  -7   3   7   63.80    2.97
  -7   3   7   66.33    2.88
   6  -3  -7  184.41    6.52
   6  -3  -7  168.04    6.44
   6  -3  -7  174.91    6.31
   6  -3  -7  182.12    6.14
  -6   3   7  168.91    6.50
  -6   3   7  170.10    6.64
  -6   3   7  195.67    6.40
  -6   3   7  181.48    6.37
   5  -3  -7   47.50    1.86
   5  -3  -7   37.34    2.46
   5  -3  -7   47.96    2.09
   5  -3  -7   50.92    2.29
  -5   3   7   49.01    2.11
  -5   3   7   45.06    2.25
  -5   3   7   45.82    2.49
  -5   3   7   46.32    1.97
   4  -3  -7  108.12    3.62
   4  -3  -7  107.42    4.09
   4  -3  -7  104.60    3.64
   4  -3  -7  104.52    3.90
   4  -3  -7  104.77    4.03
  -4   3   7  105.33    3.67
  -4   3   7  103.94    4.13
  -4   3   7  105.38    4.24
  -4   3   7  113.50    3.96
   3  -3  -7   65.91    2.51
   3  -3  -7   66.79    2.78
   3  -3  -7   68.93    2.94
   3  -3  -7   63.32    2.61
  -3   3   7   69.93    2.54
  -3   3   7   68.62    2.48
  -3   3   7   67.75    2.65
  -3   3   7   65.90    2.92
   2  -3  -7  106.98    3.90
   2  -3  -7  106.98    3.99
   2  -3  -7  105.20    3.87
   2  -3  -7  104.80    4.18
  -2   3   7  112.01    3.93
  -2   3   7  100.24    4.12
  -2   3   7  115.99    3.98
   1  -3  -7   30.75    1.53
   1  -3  -7   30.84    1.48
   1  -3  -7   30.28    1.75
   1  -3  -7   29.83    1.52
  -1   3   7   33.00    1.68
  -1   3   7   30.44    1.71
  -1   3   7   32.16    1.60
   0  -3  -7  176.43    6.36
   0  -3  -7  193.02    6.74
   0  -3  -7  186.57    6.54
   0  -3  -7  175.65    6.74
   0  -3  -7  186.50    6.33
   0   3   7  184.69    6.58
   0   3   7  194.88    6.63
   0   3   7  186.61    6.69
  -1  -3  -7   31.67    1.40
  -1  -3  -7   29.84    1.72
  -1  -3  -7   31.85    1.64
  -1  -3  -7   30.63    1.56
  -1  -3  -7   30.62    1.82
  -1  -3  -7   34.28    1.96
   1   3   7   28.82    1.88
   1   3   7   28.87    1.69
   1   3   7   30.32    1.85
   1   3   7   30.49    1.81
  -2  -3  -7   62.45    2.17
  -2  -3  -7   64.35    2.71
  -2  -3  -7   64.75    2.33
  -2  -3  -7   62.03    3.02
  -2  -3  -7   61.68    2.53
  -2  -3  -7   61.00    2.89
  -2  -3  -7   60.64    2.86
   2   3   7   64.36    2.97
   2   3   7   60.52    3.00
   2   3   7   56.76    2.55
   2   3   7   61.70    2.12
   2   3   7   60.11    2.96
  -3  -3  -7   12.30    1.45
  -3  -3  -7   15.18    0.92
  -3  -3  -7   15.08    1.67
  -3  -3  -7   15.31    1.19
  -3  -3  -7   13.90    0.84
  -3  -3  -7   13.55    1.35
   3   3   7   14.29    1.60
   3   3   7   14.15    1.65
   3   3   7   12.33    1.11
   3   3   7   13.31    0.87
  -4  -3  -7   78.47    3.61
  -4  -3  -7   77.08    3.87
  -4  -3  -7   81.87    3.04
  -4  -3  -7   76.61    3.24
   4   3   7   74.17    3.76
   4   3   7   77.78    4.02
   8  -4  -7   12.33    1.46
   8  -4  -7   13.40    1.35
   8  -4  -7   11.48    1.18
  -8   4   7   11.63    1.35
  -8   4   7   12.58    1.45
  -8   4   7   13.00    1.46
   7  -4  -7   65.88    2.77
   7  -4  -7   68.90    3.18
   7  -4  -7   69.06    2.93
  -7   4   7   65.56    3.15
  -7   4   7   65.22    3.04
  -7   4   7   71.05    3.05
   6  -4  -7   16.70    1.25
   6  -4  -7   16.43    1.35
   6  -4  -7   14.59    1.22
   6  -4  -7   13.58    1.53
  -6   4   7   17.74    1.37
  -6   4   7   14.88    1.34
  -6   4   7   15.20    1.19
   5  -4  -7   89.02    3.44
   5  -4  -7   85.93    3.60
   5  -4  -7   89.41    3.15
   5  -4  -7   90.10    3.02
   5  -4  -7   89.93    3.64
  -5   4   7   89.85    3.47
  -5   4   7   88.49    3.84
  -5   4   7   84.34    3.69
   4  -4  -7   27.32    1.25
   4  -4  -7   25.78    1.08
   4  -4  -7   27.31    1.84
   4  -4  -7   28.07    1.66
   4  -4  -7   28.13    1.47
  -4   4   7   21.39    2.67
  -4   4   7   29.38    1.22
   3  -4  -7   84.69    3.43
   3  -4  -7   86.45    3.34
   3  -4  -7   83.25    3.21
   3  -4  -7   89.97    3.68
  -3   4   7   83.22    3.62
  -3   4   7   90.96    3.27
  -3   4   7   89.42    3.23
   2  -4  -7   27.45    1.81
   2  -4  -7   28.36    1.47
   2  -4  -7   30.94    1.61
   2  -4  -7   28.55    1.51
  -2   4   7   30.62    1.62
  -2   4   7   33.54    1.61
  -2   4   7   29.18    1.78
   1  -4  -7  120.94    4.37
   1  -4  -7  121.62    4.76
   1  -4  -7  119.12    4.38
   1  -4  -7  114.70    4.44
  -1   4   7  114.75    4.53
  -1   4   7  126.56    4.67
  -1   4   7  125.88    4.60
   0  -4  -7   36.36    2.07
   0  -4  -7   37.22    1.80
   0  -4  -7   36.26    1.95
   0  -4  -7   41.16    2.28
   0  -4  -7   39.39    1.70
   0   4   7   38.44    2.16
   0   4   7   37.83    1.91
   0   4   7   37.30    2.08
  -1  -4  -7   91.54    3.75
  -1  -4  -7   93.53    4.04
  -1  -4  -7   91.60    3.90
  -1  -4  -7   94.97    3.29
  -1  -4  -7   94.25    3.81
  -1  -4  -7   90.70    3.52
   1   4   7   84.98    3.93
   1   4   7   93.33    3.96
   1   4   7   88.68    3.47
  -2  -4  -7   17.01    1.53
  -2  -4  -7   19.61    1.79
  -2  -4  -7   20.00    0.99
  -2  -4  -7   19.16    0.88
  -2  -4  -7   20.94    1.44
   2   4   7   17.70    1.76
   2   4   7   18.41    2.04
   2   4   7   18.89    1.20
  -3  -4  -7   48.10    3.06
  -3  -4  -7   48.75    2.72
  -3  -4  -7   55.79    2.56
   3   4   7   52.42    3.01
   3   4   7   51.30    3.34
   8  -5  -7   44.89    2.39
   8  -5  -7   43.07    2.83
   8  -5  -7   42.81    2.38
  -8   5   7   47.78    2.68
   7  -5  -7   34.55    1.98
   7  -5  -7   38.35    2.36
   7  -5  -7   32.05    1.80
  -7   5   7   33.10    2.21
  -7   5   7   35.40    2.06
   6  -5  -7   74.17    3.15
   6  -5  -7   80.50    3.79
   6  -5  -7   75.68    2.88
   6  -5  -7   77.47    3.45
  -6   5   7   76.51    3.53
   5  -5  -7   56.42    2.70
   5  -5  -7   53.58    2.44
   5  -5  -7   58.41    2.77
   5  -5  -7   56.32    2.11
   5  -5  -7   58.38    2.16
  -5   5   7   53.69    2.75
   4  -5  -7   71.22    2.77
   4  -5  -7   71.00    2.95
   4  -5  -7   73.31    3.15
   4  -5  -7   69.13    3.38
  -4   5   7   68.94    3.29
  -4   5   7   78.82    2.78
   3  -5  -7   24.00    1.34
   3  -5  -7   26.50    1.96
   3  -5  -7   23.72    1.56
   3  -5  -7   23.34    1.40
  -3   5   7   21.58    2.01
  -3   5   7   24.23    1.39
   2  -5  -7   71.02    2.92
   2  -5  -7   69.85    2.85
   2  -5  -7   70.28    3.32
   2  -5  -7   66.65    3.14
  -2   5   7   69.85    2.98
  -2   5   7   68.91    3.05
   1  -5  -7   40.04    1.95
   1  -5  -7   39.45    1.85
   1  -5  -7   36.63    2.02
   1  -5  -7   36.35    2.34
  -1   5   7   41.00    2.25
  -1   5   7   39.40    2.21
  -1   5   7   41.87    2.04
   0  -5  -7   71.64    3.41
   0  -5  -7   73.63    3.11
   0  -5  -7   73.64    3.31
   0  -5  -7   75.17    2.85
   0   5   7   78.87    3.61
   0   5   7   88.35    4.36
   0   5   7   72.56    3.01
  -1  -5  -7   29.83    1.98
  -1  -5  -7   30.96    1.84
  -1  -5  -7   28.72    2.11
   1   5   7   25.79    2.16
   7  -6  -7   43.83    2.37
   7  -6  -7   46.50    2.73
   7  -6  -7   47.17    2.52
  -7   6   7   38.35    2.84
   6  -6  -7   42.75    2.17
   6  -6  -7   42.33    2.58
   6  -6  -7   39.48    1.79
   6  -6  -7   43.18    1.74
   6  -6  -7   40.51    1.63
  -6   6   7   37.56    2.41
   5  -6  -7   58.67    3.03
   5  -6  -7   62.23    2.19
   5  -6  -7   61.12    2.71
   5  -6  -7   60.70    2.22
   5  -6  -7   61.57    3.11
   5  -6  -7   60.49    2.44
   4  -6  -7   36.76    2.29
   4  -6  -7   39.66    2.04
   4  -6  -7   40.37    1.87
  -4   6   7   37.30    1.89
   3  -6  -7   78.44    3.18
   3  -6  -7   74.05    3.26
   3  -6  -7   76.36    3.22
  -3   6   7   78.95    3.24
   2  -6  -7   53.84    2.45
   2  -6  -7   53.20    2.51
   2  -6  -7   53.16    2.51
  -2   6   7   51.03    2.60
   1  -6  -7   72.55    3.32
   1  -6  -7   73.66    2.95
   1  -6  -7   77.93    3.22
   1  -6  -7   73.77    3.54
  -1   6   7   74.03    3.52
   0  -6  -7   10.12    1.26
   0  -6  -7    8.66    1.26
   0  -6  -7    9.91    1.41
   0   6   7   11.48    1.61
   6  -7  -7   49.44    2.55
   6  -7  -7   44.90    3.45
   5  -7  -7   15.55    1.38
   5  -7  -7   13.02    1.60
   5  -7  -7   15.77    1.63
   4  -7  -7  100.45    4.01
   4  -7  -7   98.57    4.16
   4  -7  -7  108.53    4.93
  -4   7   7  104.85    4.08
   3  -7  -7   10.96    1.17
   3  -7  -7   11.31    1.37
   3  -7  -7   13.37    1.57
  -3   7   7   11.00    1.39
  -1   9  -8   26.54    2.01
   1  -9   8   25.40    1.99
   1  -9   8   28.79    1.72
   2  -9   8   20.77    1.73
   2  -9   8   22.57    1.79
   2  -9   8   20.72    1.47
   3  -9   8   35.20    1.92
   3  -9   8   37.00    1.98
   3  -9   8   36.95    2.15
  -4   9  -8   35.76    1.95
   4  -9   8   35.51    1.87
   4  -9   8   38.76    2.18
   4  -9   8   38.39    2.04
  -5   9  -8   54.31    2.68
   5  -9   8   54.81    2.77
   5  -9   8   57.33    2.68
  -6   9  -8    8.88    1.35
   6  -9   8    5.72    1.09
   6  -9   8    4.19    1.20
   1   8  -8   25.08    2.23
   1   8  -8   26.04    2.89
  -1  -8   8   26.06    1.97
  -1  -8   8   24.94    1.99
  -1  -8   8   27.33    1.52
   0   8  -8   64.54    3.00
   0   8  -8   55.45    2.97
   0  -8   8   62.44    2.57
   0  -8   8   61.86    2.88
  -1   8  -8   17.76    1.49
  -1   8  -8   15.03    1.47
   1  -8   8   19.53    1.46
   1  -8   8   11.74    1.32
   1  -8   8   16.74    1.23
  -2   8  -8   51.80    2.78
   2  -8   8   58.09    2.46
   2  -8   8   57.22    2.46
   2  -8   8   59.38    2.64
  -3   8  -8   15.27    1.10
   3  -8   8   14.11    1.11
   3  -8   8   12.39    1.87
   3  -8   8   12.99    1.26
   3  -8   8   13.58    1.15
  -4   8  -8   75.21    3.05
   4  -8   8   72.33    2.73
   4  -8   8   70.28    3.07
   4  -8   8   71.63    3.00
  -5   8  -8   43.46    2.33
   5  -8   8   47.37    2.28
   5  -8   8   45.08    1.68
   5  -8   8   47.27    1.87
   5  -8   8   46.17    1.64
   5  -8   8   44.13    2.29
  -6   8  -8   63.35    3.09
  -6   8  -8   67.36    3.63
   6  -8   8   64.60    2.95
   6  -8   8   63.36    2.63
  -7   8  -8   23.47    2.00
  -7   8  -8   19.42    2.61
   7  -8   8   25.48    1.74
   7  -8   8   19.46    1.90
   7  -8   8   25.05    2.64
   3   7  -8   41.27    2.97
   3   7  -8   43.44    2.98
  -3  -7   8   39.77    2.70
  -3  -7   8   45.05    2.49
   2   7  -8   28.42    2.25
   2   7  -8   31.03    1.51
   2   7  -8   27.15    1.92
  -2  -7   8   28.50    2.07
  -2  -7   8   33.07    1.60
  -2  -7   8   29.78    1.99
   1   7  -8   94.47    3.42
   1   7  -8   92.23    3.87
   1   7  -8   88.46    3.84
  -1  -7   8   90.51    4.60
  -1  -7   8   93.76    3.78
  -1  -7   8   87.22    3.72
  -1  -7   8   92.03    3.45
   0   7  -8   37.15    1.79
   0   7  -8   37.38    2.05
   0   7  -8   38.18    2.10
   0  -7   8   38.14    1.78
   0  -7   8   36.43    1.94
   0  -7   8   36.76    1.91
   0  -7   8   40.00    2.42
  -1   7  -8   58.02    2.56
  -1   7  -8   55.02    2.71
  -1   7  -8   64.41    2.52
   1  -7   8   55.52    2.52
   1  -7   8   59.99    2.48
   1  -7   8   58.96    2.43
   1  -7   8   61.79    2.96
  -2   7  -8   40.20    1.69
  -2   7  -8   39.95    1.82
  -2   7  -8   41.32    1.92
   2  -7   8   40.27    2.29
   2  -7   8   39.20    1.85
   2  -7   8   37.71    1.89
   2  -7   8   38.87    1.78
  -3   7  -8  133.85    4.77
  -3   7  -8  146.25    5.07
  -3   7  -8  135.68    4.93
   3  -7   8  140.00    5.26
   3  -7   8  129.21    4.94
   3  -7   8  140.82    4.78
   3  -7   8  133.37    4.99
   3  -7   8  140.69    5.35
  -4   7  -8   30.25    1.69
  -4   7  -8   30.55    2.11
   4  -7   8   32.71    2.07
   4  -7   8   30.45    1.63
   4  -7   8   30.64    1.29
   4  -7   8   29.87    1.94
   4  -7   8   30.21    1.26
   4  -7   8   31.24    1.65
  -5   7  -8   99.31    4.07
  -5   7  -8   93.09    4.35
   5  -7   8  101.40    4.18
   5  -7   8  103.22    3.94
   5  -7   8  103.09    3.63
   5  -7   8  100.70    4.25
  -6   7  -8   20.74    1.64
  -6   7  -8   20.77    2.14
   6  -7   8   22.01    1.57
   6  -7   8   21.76    1.82
   6  -7   8   18.70    2.01
   6  -7   8   22.67    1.38
  -7   7  -8   53.17    2.84
  -7   7  -8   48.18    2.74
  -7   7  -8   47.54    3.24
   7  -7   8   46.54    2.49
   7  -7   8   48.15    2.76
   7  -7   8   49.06    2.42
   4   6  -8   36.90    2.11
   4   6  -8   33.87    2.64
  -4  -6   8   33.33    2.18
  -4  -6   8   34.60    2.51
   3   6  -8   36.81    1.63
   3   6  -8   32.79    1.96
   3   6  -8   38.22    2.33
  -3  -6   8   36.08    2.42
  -3  -6   8   34.52    2.19
  -3  -6   8   32.12    1.98
  -3  -6   8   35.19    1.72
   2   6  -8   56.93    2.71
   2   6  -8   56.87    2.73
   2   6  -8   55.52    2.26
   2   6  -8   53.44    2.58
  -2  -6   8   55.90    2.60
  -2  -6   8   55.34    2.83
  -2  -6   8   57.73    2.34
  -2  -6   8   56.74    2.59
   1   6  -8   30.03    1.71
   1   6  -8   26.80    1.67
   1   6  -8   31.49    1.46
  -1  -6   8   28.58    1.62
  -1  -6   8   27.78    1.45
  -1  -6   8   28.48    1.59
  -1  -6   8   26.10    1.87
   0   6  -8   55.88    2.56
   0   6  -8   57.99    2.34
   0   6  -8   56.18    2.46
   0  -6   8   56.34    2.43
   0  -6   8   58.30    2.73
   0  -6   8   55.48    2.32
   0  -6   8   57.58    2.38
  -1   6  -8   26.63    1.43
  -1   6  -8   27.39    1.17
  -1   6  -8   29.27    1.45
   1  -6   8   28.21    1.76
   1  -6   8   24.51    1.36
   1  -6   8   27.27    1.37
  -2   6  -8  111.22    3.97
  -2   6  -8  106.48    3.80
  -2   6  -8  110.20    3.82
   2  -6   8  104.24    3.88
   2  -6   8  104.38    4.20
   2  -6   8  112.32    3.79
   2  -6   8   90.14    4.06
  -3   6  -8   19.47    0.99
  -3   6  -8   19.17    1.56
  -3   6  -8   19.29    1.18
  -3   6  -8   18.74    1.24
   3  -6   8   19.64    1.40
   3  -6   8   17.68    1.44
   3  -6   8   19.94    0.81
   3  -6   8   20.55    0.98
   3  -6   8   20.48    1.49
   3  -6   8   17.64    1.25
  -4   6  -8   38.41    1.93
  -4   6  -8   39.63    1.66
  -4   6  -8   40.28    1.94
  -4   6  -8   38.54    2.30
   4  -6   8   41.35    2.15
   4  -6   8   39.76    1.60
   4  -6   8   38.10    1.41
   4  -6   8   37.85    1.84
   4  -6   8   38.90    2.04
  -5   6  -8   61.23    2.45
  -5   6  -8   50.91    2.55
  -5   6  -8   51.66    2.89
   5  -6   8   51.86    2.73
   5  -6   8   53.27    2.42
   5  -6   8   54.37    2.24
   5  -6   8   58.71    2.76
   5  -6   8   59.17    2.65
  -6   6  -8   77.63    3.44
  -6   6  -8   75.08    3.72
  -6   6  -8   82.16    3.34
   6  -6   8   73.01    3.39
   6  -6   8   71.83    3.42
   6  -6   8   76.89    3.20
   6  -6   8   74.66    3.52
   6  -6   8   79.38    3.11
  -7   6  -8   35.27    2.31
  -7   6  -8   36.38    2.83
  -7   6  -8   37.81    2.47
   7  -6   8   39.11    2.10
   7  -6   8   40.79    2.16
   7  -6   8   33.15    2.27
   5   5  -8   28.53    2.11
   5   5  -8   28.01    1.78
   5   5  -8   25.69    2.37
  -5  -5   8   28.73    1.90
  -5  -5   8   30.82    2.85
  -5  -5   8   28.44    2.35
   4   5  -8   19.24    1.40
   4   5  -8   22.16    1.44
   4   5  -8   21.17    1.30
   4   5  -8   19.65    1.80
  -4  -5   8   18.57    1.45
  -4  -5   8   16.50    1.78
  -4  -5   8   20.61    1.28
  -4  -5   8   21.20    1.80
   3   5  -8   38.81    1.74
   3   5  -8   34.93    2.09
   3   5  -8   42.09    2.17
   3   5  -8   35.83    1.91
   3   5  -8   35.73    1.52
  -3  -5   8   38.49    1.77
  -3  -5   8   36.86    2.10
  -3  -5   8   36.82    2.03
  -3  -5   8   36.15    2.02
   2   5  -8   36.51    1.85
   2   5  -8   37.60    1.92
   2   5  -8   35.70    1.93
   2   5  -8   34.32    1.81
  -2  -5   8   33.53    1.94
  -2  -5   8   36.13    1.69
  -2  -5   8   35.58    1.83
  -2  -5   8   36.00    1.81
   1   5  -8   99.49    3.65
   1   5  -8   96.52    3.67
   1   5  -8   90.75    3.64
  -1  -5   8   97.57    3.80
  -1  -5   8   89.87    3.49
  -1  -5   8   94.55    3.56
  -1  -5   8   90.41    3.56
   0   5  -8   27.33    1.46
   0   5  -8   30.95    1.46
   0  -5   8   29.98    1.71
   0  -5   8   28.37    1.41
   0  -5   8   29.08    1.42
   0  -5   8   27.40    1.41
  -1   5  -8  136.82    5.22
  -1   5  -8  135.02    4.88
  -1   5  -8  145.26    4.78
  -1   5  -8  143.65    4.95
   1  -5   8  147.85    4.87
   1  -5   8  144.18    5.20
   1  -5   8  131.13    4.90
   1  -5   8  130.96    4.88
  -2   5  -8   71.16    3.24
  -2   5  -8   78.00    3.00
  -2   5  -8   79.91    2.94
  -2   5  -8   77.51    2.82
   2  -5   8   78.42    2.93
   2  -5   8   76.80    2.79
   2  -5   8   75.65    3.19
   2  -5   8   80.11    2.97
  -3   5  -8  103.79    3.83
  -3   5  -8  100.78    3.83
  -3   5  -8  108.59    3.55
  -3   5  -8  100.33    3.48
  -3   5  -8   94.15    4.08
   3  -5   8  103.73    4.03
   3  -5   8   99.50    3.70
   3  -5   8  101.86    3.78
   3  -5   8   97.50    3.49
   3  -5   8  104.77    3.47
   3  -5   8  105.37    3.89
  -4   5  -8   42.72    2.05
  -4   5  -8   42.68    1.85
  -4   5  -8   43.38    1.97
  -4   5  -8   36.62    2.55
   4  -5   8   43.49    2.03
   4  -5   8   39.17    1.72
   4  -5   8   40.03    1.94
   4  -5   8   48.33    2.25
   4  -5   8   40.30    2.20
  -5   5  -8   60.26    2.77
  -5   5  -8   61.11    2.59
  -5   5  -8   55.63    3.01
  -5   5  -8   64.09    2.64
   5  -5   8   59.25    2.67
   5  -5   8   60.12    2.47
   5  -5   8   59.59    2.87
   5  -5   8   60.00    2.55
   5  -5   8   58.87    2.76
  -6   5  -8   27.80    2.29
  -6   5  -8   29.80    1.91
  -6   5  -8   31.73    1.95
   6  -5   8   29.34    1.95
   6  -5   8   32.92    1.74
   6  -5   8   32.02    2.00
   6  -5   8   25.97    1.96
   6  -5   8   31.19    1.98
  -7   5  -8   49.69    2.82
  -7   5  -8   62.07    3.15
  -7   5  -8   55.64    3.35
   7  -5   8   50.31    2.54
   7  -5   8   52.64    2.82
   7  -5   8   55.65    2.67
   6   4  -8   28.71    1.69
   6   4  -8   27.15    2.27
   6   4  -8   31.13    2.42
  -6  -4   8   29.84    1.87
  -6  -4   8   26.19    2.53
   5   4  -8   30.28    1.64
   5   4  -8   24.60    1.75
   5   4  -8   29.63    2.08
   5   4  -8   29.92    1.68
  -5  -4   8   30.59    1.64
  -5  -4   8   28.47    1.89
  -5  -4   8   29.47    1.65
  -5  -4   8   29.35    1.53
  -5  -4   8   23.56    2.01
   4   4  -8  160.89    5.96
   4   4  -8  168.17    5.75
   4   4  -8  157.90    6.03
   4   4  -8  160.90    5.79
   4   4  -8  154.87    5.65
  -4  -4   8  158.79    5.72
  -4  -4   8  161.47    6.00
  -4  -4   8  163.45    5.73
  -4  -4   8  164.40    5.93
  -4  -4   8  170.78    5.94
   3   4  -8   45.03    1.80
   3   4  -8   44.05    2.03
   3   4  -8   43.37    2.20
   3   4  -8   48.79    2.19
  -3  -4   8   45.07    2.02
  -3  -4   8   47.23    2.14
  -3  -4   8   43.85    2.16
  -3  -4   8   47.64    2.22
   2   4  -8  112.41    4.04
   2   4  -8  106.11    3.97
   2   4  -8  106.49    3.97
   2   4  -8  104.66    4.08
  -2  -4   8  104.89    3.95
  -2  -4   8  109.05    4.09
  -2  -4   8  105.63    3.99
  -2  -4   8  107.87    3.97
   1   4  -8    9.25    0.60
   1   4  -8    9.10    0.83
   1   4  -8   10.09    0.88
   1   4  -8   10.38    0.83
   1   4  -8    7.98    0.79
  -1  -4   8   10.33    0.80
  -1  -4   8    9.87    0.80
  -1  -4   8    9.38    0.96
  -1  -4   8    9.87    0.81
   0   4  -8  152.92    5.48
   0   4  -8  141.04    5.26
   0   4  -8  159.23    5.10
   0  -4   8  147.29    5.21
   0  -4   8  148.16    5.27
   0  -4   8  154.53    5.23
   0  -4   8  152.02    5.44
  -1   4  -8   75.79    3.18
  -1   4  -8   76.36    2.89
  -1   4  -8   82.22    3.01
  -1   4  -8   79.72    2.92
   1  -4   8   80.18    3.15
   1  -4   8   75.78    2.95
   1  -4   8   77.81    2.88
   1  -4   8   77.16    2.85
  -2   4  -8   95.94    3.43
  -2   4  -8   98.07    3.35
  -2   4  -8   96.49    3.85
  -2   4  -8  102.71    3.64
  -2   4  -8   96.51    3.61
   2  -4   8   97.63    3.50
   2  -4   8   91.12    3.56
   2  -4   8   96.29    3.33
   2  -4   8   98.69    3.38
   2  -4   8  103.11    3.81
  -3   4  -8   57.33    2.21
  -3   4  -8   56.85    2.34
  -3   4  -8   55.82    2.02
  -3   4  -8   58.07    2.44
  -3   4  -8   54.99    2.60
   3  -4   8   55.79    2.15
   3  -4   8   57.50    2.61
   3  -4   8   60.52    2.59
   3  -4   8   55.00    2.29
   3  -4   8   54.70    2.33
   3  -4   8   54.54    1.96
  -4   4  -8  138.54    4.94
  -4   4  -8  131.17    5.07
  -4   4  -8  129.29    5.27
  -4   4  -8  138.59    4.90
   4  -4   8  144.08    5.14
   4  -4   8  131.46    5.21
   4  -4   8  137.29    4.91
   4  -4   8  139.10    4.96
   4  -4   8  138.52    4.84
  -5   4  -8    9.50    1.09
  -5   4  -8   11.52    1.45
  -5   4  -8   11.32    1.00
  -5   4  -8    9.73    1.08
   5  -4   8    9.16    1.10
   5  -4   8   10.31    1.16
   5  -4   8   10.50    0.99
   5  -4   8    8.79    0.95
   5  -4   8    8.50    1.13
  -6   4  -8  105.51    4.48
  -6   4  -8  112.55    4.42
  -6   4  -8  103.99    4.74
   6  -4   8  111.26    4.19
   6  -4   8  108.63    4.39
   6  -4   8  110.27    4.28
   6  -4   8  112.03    4.31
   6  -4   8  109.64    4.51
  -7   4  -8   47.56    3.25
  -7   4  -8   47.87    2.68
   7  -4   8   48.61    2.43
   7  -4   8   48.04    2.60
   7  -4   8   47.45    2.63
   6   3  -8   18.58    1.90
   6   3  -8   17.94    1.27
   6   3  -8   19.69    2.04
   6   3  -8   18.88    1.58
  -6  -3   8   18.46    1.63
  -6  -3   8   20.45    1.52
  -6  -3   8   18.06    1.30
  -6  -3   8   21.03    1.94
   5   3  -8   44.11    2.15
   5   3  -8   43.32    2.19
   5   3  -8   44.46    2.00
   5   3  -8   49.84    2.43
   5   3  -8   45.70    2.37
  -5  -3   8   47.79    2.19
  -5  -3   8   47.01    2.00
  -5  -3   8   45.71    2.21
  -5  -3   8   43.15    2.33
  -5  -3   8   48.06    2.42
   4   3  -8   33.64    1.63
   4   3  -8   36.33    1.80
   4   3  -8   37.39    1.85
   4   3  -8   36.67    1.66
   4   3  -8   32.37    1.93
  -4  -3   8   35.30    1.82
  -4  -3   8   34.26    1.79
  -4  -3   8   36.57    1.80
  -4  -3   8   33.71    1.88
   3   3  -8   89.31    3.26
   3   3  -8   87.77    3.61
   3   3  -8   90.54    3.50
   3   3  -8   88.94    3.39
   3   3  -8   98.35    3.63
  -3  -3   8   92.43    3.52
  -3  -3   8   91.05    3.52
  -3  -3   8   92.77    3.55
  -3  -3   8   98.86    3.56
   2   3  -8   24.34    1.24
   2   3  -8   21.85    0.96
   2   3  -8   24.38    1.29
   2   3  -8   22.40    1.32
   2   3  -8   22.76    1.09
  -2  -3   8   22.08    1.22
  -2  -3   8   22.55    1.24
  -2  -3   8   23.10    1.28
  -2  -3   8   23.67    1.32
   1   3  -8  106.52    3.97
   1   3  -8  108.26    3.81
   1   3  -8  105.22    3.58
   1   3  -8  112.16    3.88
   1   3  -8  106.95    4.03
   1   3  -8  105.45    3.60
   1   3  -8  108.39    3.98
  -1  -3   8  113.46    3.92
  -1  -3   8  110.96    3.98
  -1  -3   8  105.08    3.86
  -1  -3   8  115.24    4.06
   0   3  -8   95.86    3.24
   0   3  -8   99.47    3.60
   0   3  -8   95.96    3.51
   0   3  -8   93.46    3.66
   0   3  -8   90.58    3.50
   0  -3   8  104.76    3.49
   0  -3   8   95.82    3.42
   0  -3   8   92.88    3.55
   0  -3   8  103.24    3.69
  -1   3  -8  201.26    7.19
  -1   3  -8  203.87    6.59
  -1   3  -8  210.44    6.87
  -1   3  -8  193.43    6.72
  -1   3  -8  189.27    6.98
   1  -3   8  205.81    6.66
   1  -3   8  190.92    6.80
   1  -3   8  197.65    6.67
   1  -3   8  205.17    7.39
  -2   3  -8   19.38    1.00
  -2   3  -8   18.04    0.95
  -2   3  -8   18.94    1.11
  -2   3  -8   19.53    1.16
  -2   3  -8   19.85    1.31
   2  -3   8   19.87    0.98
   2  -3   8   20.02    1.09
   2  -3   8   19.80    0.96
   2  -3   8   20.09    1.08
   2  -3   8   19.32    0.87
   2  -3   8   22.14    1.32
   2  -3   8   19.75    1.30
  -3   3  -8  130.89    4.59
  -3   3  -8  125.61    4.73
  -3   3  -8  130.74    4.56
  -3   3  -8  120.67    4.30
  -3   3  -8  124.02    4.90
   3  -3   8  125.84    4.86
   3  -3   8  127.21    4.57
   3  -3   8  138.34    4.82
   3  -3   8  124.61    4.50
   3  -3   8  130.77    4.55
  -4   3  -8   49.35    2.35
  -4   3  -8   53.96    2.20
  -4   3  -8   45.87    1.76
  -4   3  -8   49.28    1.74
  -4   3  -8   52.08    2.60
  -4   3  -8   53.12    2.27
   4  -3   8   49.85    2.16
   4  -3   8   50.63    2.18
   4  -3   8   51.29    2.35
   4  -3   8   51.96    2.46
   4  -3   8   49.74    2.17
  -5   3  -8   93.55    4.15
  -5   3  -8  100.45    3.87
  -5   3  -8   87.17    3.89
  -5   3  -8  101.53    3.69
   5  -3   8   94.19    3.84
   5  -3   8   94.21    3.65
   5  -3   8   98.54    3.79
   5  -3   8   87.28    3.91
   5  -3   8  102.18    3.74
  -6   3  -8   23.68    1.79
  -6   3  -8   26.38    1.97
  -6   3  -8   23.48    2.16
   6  -3   8   29.04    1.91
   6  -3   8   25.46    1.80
   6  -3   8   26.50    1.78
   6  -3   8   29.66    1.62
   6  -3   8   26.34    1.82
  -7   3  -8   37.33    2.45
  -7   3  -8   31.48    2.95
   7  -3   8   37.81    2.10
   7  -3   8   37.87    2.33
   7  -3   8   40.11    2.51
   7   2  -8   32.64    2.26
   7   2  -8   26.95    2.13
   7   2  -8   29.49    1.58
   7   2  -8   28.01    2.10
  -7  -2   8   27.64    1.61
  -7  -2   8   33.10    1.70
  -7  -2   8   30.63    2.45
   6   2  -8   54.51    2.49
   6   2  -8   51.96    2.58
   6   2  -8   48.71    2.61
   6   2  -8   50.97    2.47
   6   2  -8   49.22    2.06
  -6  -2   8   51.57    2.65
  -6  -2   8   50.21    2.21
  -6  -2   8   47.58    2.92
  -6  -2   8   50.46    2.12
  -6  -2   8   48.37    2.46
  -6  -2   8   45.42    2.02
   5   2  -8   24.92    1.48
   5   2  -8   25.93    1.27
   5   2  -8   24.73    1.56
   5   2  -8   26.47    1.55
   5   2  -8   24.49    1.66
  -5  -2   8   25.31    1.57
  -5  -2   8   24.59    1.23
  -5  -2   8   25.33    1.69
  -5  -2   8   26.07    1.41
  -5  -2   8   25.44    1.29
  -5  -2   8   25.09    1.54
   4   2  -8   83.04    3.58
   4   2  -8   85.62    3.29
   4   2  -8   90.82    3.21
   4   2  -8   92.01    3.49
   4   2  -8   83.21    3.36
  -4  -2   8   89.13    3.31
  -4  -2   8   88.77    3.49
  -4  -2   8   91.86    3.52
  -4  -2   8   91.28    3.45
   3   2  -8   37.50    1.81
   3   2  -8   38.11    1.80
   3   2  -8   37.58    1.67
   3   2  -8   36.61    1.56
  -3  -2   8   38.39    1.76
  -3  -2   8   38.65    1.81
  -3  -2   8   36.02    1.66
  -3  -2   8   37.39    1.73
   2   2  -8  127.86    4.73
   2   2  -8  136.29    4.82
   2   2  -8  127.21    4.47
   2   2  -8  126.96    4.67
   2   2  -8  138.62    4.62
  -2  -2   8  134.85    4.69
  -2  -2   8  137.58    4.71
  -2  -2   8  129.91    4.78
  -2  -2   8  132.76    4.63
   1   2  -8   94.26    3.23
   1   2  -8   91.40    3.20
   1   2  -8   91.87    3.41
   1   2  -8   88.16    3.37
   1   2  -8   89.61    3.13
   1   2  -8   92.86    3.39
   1   2  -8   90.56    3.41
  -1  -2   8   96.09    3.33
  -1  -2   8   87.03    3.40
  -1  -2   8   89.26    3.23
  -1  -2   8   92.69    3.40
   0   2  -8   58.35    2.20
   0   2  -8   59.85    2.39
   0   2  -8   57.23    2.42
   0   2  -8   59.99    2.37
   0   2  -8   57.61    2.29
   0  -2   8   57.58    2.15
   0  -2   8   60.67    2.43
   0  -2   8   56.29    2.35
   0  -2   8   63.32    2.27
  -1   2  -8   40.84    1.71
  -1   2  -8   44.19    1.92
  -1   2  -8   42.33    1.89
  -1   2  -8   42.65    1.73
  -1   2  -8   41.95    1.95
   1  -2   8   40.84    1.80
   1  -2   8   40.67    1.68
   1  -2   8   41.33    1.94
   1  -2   8   41.38    1.59
   1  -2   8   44.03    1.94
   1  -2   8   40.82    1.62
   1  -2   8   39.66    1.66
  -2   2  -8   92.84    3.43
  -2   2  -8   93.54    3.61
  -2   2  -8   97.52    3.45
  -2   2  -8   89.61    3.64
  -2   2  -8   89.05    3.29
   2  -2   8   87.78    3.40
   2  -2   8   90.31    3.17
   2  -2   8   96.86    3.68
   2  -2   8   93.41    3.59
   2  -2   8   93.09    3.39
   2  -2   8   93.66    3.31
  -3   2  -8   66.72    2.53
  -3   2  -8   62.08    2.33
  -3   2  -8   66.36    2.65
  -3   2  -8   60.94    2.81
  -3   2  -8   64.34    2.77
   3  -2   8   62.11    2.56
   3  -2   8   63.42    2.53
   3  -2   8   65.62    2.73
   3  -2   8   65.07    2.48
   3  -2   8   60.21    2.75
  -4   2  -8  104.39    3.80
  -4   2  -8   90.24    3.81
  -4   2  -8   95.17    3.55
  -4   2  -8   92.13    3.23
  -4   2  -8   90.95    3.27
   4  -2   8   96.77    3.76
   4  -2   8   88.69    3.81
   4  -2   8   93.37    3.68
   4  -2   8   95.33    3.57
   4  -2   8   95.81    3.57
  -5   2  -8   33.39    1.33
  -5   2  -8   35.83    2.08
  -5   2  -8   31.86    2.16
  -5   2  -8   33.86    1.69
  -5   2  -8   31.35    1.93
  -5   2  -8   32.72    1.35
   5  -2   8   36.29    1.83
   5  -2   8   37.21    1.97
   5  -2   8   31.30    1.93
   5  -2   8   34.67    1.94
  -6   2  -8   54.16    2.59
  -6   2  -8   53.85    3.11
  -6   2  -8   63.83    3.60
  -6   2  -8   51.79    2.82
   6  -2   8   54.84    2.84
   6  -2   8   55.40    2.68
   6  -2   8   54.86    2.81
   6  -2   8   53.83    2.49
   6  -2   8   67.12    3.53
  -7   2  -8   16.77    1.79
  -7   2  -8   14.11    1.60
  -7   2  -8   12.66    1.71
   7  -2   8   12.00    2.03
   7  -2   8   17.00    1.82
   7  -2   8   17.09    1.56
   7   1  -8   68.97    3.24
   7   1  -8   73.41    3.35
   7   1  -8   75.32    3.27
  -7  -1   8   64.33    3.38
  -7  -1   8   73.73    2.97
   6   1  -8   32.29    1.91
   6   1  -8   32.12    1.88
   6   1  -8   30.85    1.78
   6   1  -8   29.85    1.79
  -6  -1   8   29.49    1.27
  -6  -1   8   31.95    1.60
  -6  -1   8   30.50    1.36
  -6  -1   8   30.66    1.83
  -6  -1   8   31.33    1.94
  -6  -1   8   29.74    1.92
   5   1  -8  116.22    4.21
   5   1  -8  119.61    4.36
   5   1  -8  113.03    4.19
   5   1  -8  111.20    4.32
  -5  -1   8  108.61    4.33
  -5  -1   8  116.87    3.95
  -5  -1   8  110.22    4.11
  -5  -1   8  112.78    4.26
  -5  -1   8  110.28    4.31
  -5  -1   8  112.86    3.86
   4   1  -8   24.15    1.33
   4   1  -8   28.65    1.54
   4   1  -8   28.51    1.37
   4   1  -8   28.32    1.56
  -4  -1   8   27.59    1.47
  -4  -1   8   25.54    1.33
  -4  -1   8   25.50    1.53
  -4  -1   8   27.00    1.43
  -4  -1   8   27.24    1.24
   3   1  -8   85.14    3.17
   3   1  -8   75.97    2.93
   3   1  -8   78.86    2.92
   3   1  -8   81.85    2.94
   3   1  -8   78.14    3.09
  -3  -1   8   75.74    3.15
  -3  -1   8   82.24    3.07
  -3  -1   8   80.21    2.93
  -3  -1   8   80.23    3.01
   2   1  -8   96.83    3.43
   2   1  -8   94.69    3.50
   2   1  -8   91.95    3.32
   2   1  -8   96.47    3.44
   2   1  -8   99.33    3.32
  -2  -1   8   96.85    3.44
  -2  -1   8   93.86    3.60
  -2  -1   8   78.88    3.77
  -2  -1   8   96.71    3.36
   1   1  -8  227.38    7.52
   1   1  -8  220.46    7.56
   1   1  -8  218.62    7.58
   1   1  -8  231.68    7.62
  -1  -1   8  227.78    7.51
  -1  -1   8  218.93    7.65
  -1  -1   8  218.27    7.35
  -1  -1   8  224.22    7.58
  -1  -1   8  224.90    7.58
   0   1  -8   43.34    1.80
   0   1  -8   41.32    1.86
   0   1  -8   41.77    1.88
   0   1  -8   40.23    1.74
   0   1  -8   38.83    1.70
   0  -1   8   41.38    1.86
   0  -1   8   42.32    1.87
   0  -1   8   41.14    1.82
   0  -1   8   40.51    1.51
   0  -1   8   40.56    1.65
  -1   1  -8  161.09    5.59
  -1   1  -8  172.26    5.73
  -1   1  -8  158.12    5.87
  -1   1  -8  163.76    5.86
  -1   1  -8  175.05    5.77
   1  -1   8  155.31    5.71
   1  -1   8  160.31    5.52
   1  -1   8  163.81    5.42
   1  -1   8  165.63    5.71
   1  -1   8  171.31    5.90
   1  -1   8  163.42    6.05
   1  -1   8  165.53    5.48
  -2   1  -8   29.68    1.64
  -2   1  -8   28.85    1.29
  -2   1  -8   30.42    1.55
  -2   1  -8   29.85    1.45
  -2   1  -8   28.83    1.61
   2  -1   8   28.67    1.44
   2  -1   8   31.04    1.52
   2  -1   8   30.44    1.28
   2  -1   8   30.56    1.59
   2  -1   8   30.14    1.64
  -3   1  -8  122.64    4.95
  -3   1  -8  143.32    4.94
  -3   1  -8  125.45    4.96
  -3   1  -8  131.14    4.50
  -3   1  -8  130.44    4.65
   3  -1   8  136.35    4.89
   3  -1   8  132.04    4.71
   3  -1   8  128.43    4.82
   3  -1   8  130.93    4.57
   3  -1   8  131.27    4.98
  -4   1  -8   45.49    2.28
  -4   1  -8   42.62    1.92
  -4   1  -8   42.15    1.74
  -4   1  -8   39.54    2.18
  -4   1  -8   45.35    1.73
  -4   1  -8   40.56    2.27
   4  -1   8   43.01    1.94
   4  -1   8   43.63    2.18
   4  -1   8   39.38    2.18
   4  -1   8   46.66    1.94
  -5   1  -8  100.86    4.16
  -5   1  -8   92.37    4.13
  -5   1  -8   98.30    3.63
  -5   1  -8   97.67    3.44
  -5   1  -8   97.35    3.41
  -5   1  -8   99.56    3.68
  -5   1  -8   87.85    4.01
   5  -1   8   98.59    3.77
   5  -1   8   95.91    3.98
   5  -1   8   89.03    4.00
   5  -1   8   98.86    3.71
   5  -1   8   94.85    4.02
  -6   1  -8   52.30    2.04
  -6   1  -8   52.30    2.46
  -6   1  -8   52.41    2.28
  -6   1  -8   48.53    2.71
  -6   1  -8   45.13    2.95
   6  -1   8   50.43    2.40
   6  -1   8   46.72    2.67
   6  -1   8   50.80    2.58
   6  -1   8   53.29    2.88
   8   0  -8   62.79    3.16
   8   0  -8   65.15    3.34
  -8   0   8   61.72    3.42
  -8   0   8   62.79    2.85
   7   0  -8   21.70    1.69
   7   0  -8   22.73    1.72
   7   0  -8   25.32    1.86
   7   0  -8   24.78    1.80
  -7   0   8   24.48    1.93
  -7   0   8   22.43    1.47
  -7   0   8   22.82    1.82
  -7   0   8   24.98    1.78
   6   0  -8  117.52    4.59
   6   0  -8  118.41    4.53
   6   0  -8  121.33    4.60
   6   0  -8  118.61    4.42
  -6   0   8  118.71    4.44
  -6   0   8  109.81    4.53
  -6   0   8  124.59    4.50
  -6   0   8  119.88    4.67
   5   0  -8   30.39    1.57
   5   0  -8   30.29    1.69
   5   0  -8   29.06    1.48
  -5   0   8   29.03    1.60
  -5   0   8   27.90    1.11
  -5   0   8   28.39    1.07
  -5   0   8   29.13    1.74
  -5   0   8   28.11    1.50
  -5   0   8   28.58    1.57
   4   0  -8   42.55    2.02
   4   0  -8   44.04    1.78
   4   0  -8   41.63    1.87
   4   0  -8   42.03    1.94
  -4   0   8   42.26    1.63
  -4   0   8   45.39    1.94
  -4   0   8   42.23    1.88
  -4   0   8   41.14    1.58
  -4   0   8   39.74    1.87
  -4   0   8   42.42    2.08
   3   0  -8   44.30    1.96
   3   0  -8   41.26    1.77
   3   0  -8   42.18    1.86
   3   0  -8   39.77    1.66
   3   0  -8   43.24    1.65
  -3   0   8   38.41    1.70
  -3   0   8   43.99    1.65
  -3   0   8   40.68    1.67
  -3   0   8   42.52    1.84
  -3   0   8   41.02    1.98
   2   0  -8  254.73    8.72
   2   0  -8  269.64    8.78
   2   0  -8  259.43    8.66
   2   0  -8  272.61    8.85
   2   0  -8  261.06    8.45
  -2   0   8  242.65    9.22
  -2   0   8  264.28    8.66
  -2   0   8  263.49    8.62
  -2   0   8  249.25    8.51
  -2   0   8  257.14    8.90
   1   0  -8   61.89    2.46
   1   0  -8   59.85    2.40
   1   0  -8   55.96    2.33
   1   0  -8   60.91    2.48
  -1   0   8   59.30    2.11
  -1   0   8   64.27    2.34
  -1   0   8   60.54    2.41
  -1   0   8   62.54    2.43
  -1   0   8   59.86    2.52
   0   0  -8  149.54    5.29
   0   0  -8  141.62    5.12
   0   0  -8  150.87    5.43
   0   0  -8  152.64    5.24
   0   0  -8  147.92    5.28
   0   0   8  147.18    5.10
   0   0   8  143.26    5.29
   0   0   8  148.62    4.87
   0   0   8  147.22    4.85
   0   0   8  156.21    5.36
   0   0   8  156.81    5.32
  -1   0  -8   27.20    1.46
  -1   0  -8   28.03    1.49
  -1   0  -8   24.88    1.21
  -1   0  -8   26.76    1.30
  -1   0  -8   24.85    1.49
   1   0   8   26.03    1.04
   1   0   8   25.64    1.36
   1   0   8   27.20    0.98
   1   0   8   27.29    1.44
   1   0   8   25.93    1.40
   1   0   8   26.32    1.48
  -2   0  -8  170.50    6.01
  -2   0  -8  184.03    6.51
  -2   0  -8  172.76    6.38
  -2   0  -8  163.13    6.29
  -2   0  -8  190.17    6.41
   2   0   8  179.42    5.94
   2   0   8  172.49    6.19
   2   0   8  181.57    6.37
   2   0   8  185.58    6.37
   2   0   8  181.64    6.45
  -3   0  -8   40.67    2.19
  -3   0  -8   39.02    2.15
  -3   0  -8   42.71    1.83
  -3   0  -8   43.08    1.80
  -3   0  -8   47.53    2.24
  -3   0  -8   43.08    1.75
   3   0   8   45.43    2.15
   3   0   8   40.50    2.14
   3   0   8   41.43    1.93
   3   0   8   44.02    1.80
   3   0   8   39.69    2.15
  -4   0  -8   88.73    3.38
  -4   0  -8   88.62    3.89
  -4   0  -8   93.01    3.95
  -4   0  -8   91.26    3.34
  -4   0  -8   95.06    3.43
  -4   0  -8   93.17    3.44
  -4   0  -8   96.66    3.94
   4   0   8   91.62    3.56
   4   0   8   94.33    3.85
   4   0   8  100.01    3.53
   4   0   8   93.77    3.90
   4   0   8   82.28    3.82
  -5   0  -8   33.62    2.39
  -5   0  -8   39.07    1.81
  -5   0  -8   36.24    1.82
  -5   0  -8   31.95    2.12
  -5   0  -8   37.45    1.67
   5   0   8   36.22    1.92
   5   0   8   37.04    2.36
   5   0   8   38.03    1.98
   5   0   8   33.20    2.18
  -6   0  -8   52.53    2.56
  -6   0  -8   48.82    3.15
  -6   0  -8   48.30    2.80
  -6   0  -8   52.45    2.26
   6   0   8   49.47    3.13
   6   0   8   52.62    2.61
   6   0   8   49.84    2.89
   6   0   8   52.91    2.90
   8  -1  -8   23.30    2.04
   8  -1  -8   21.55    1.93
  -8   1   8   20.01    2.19
  -8   1   8   20.51    1.56
   7  -1  -8   24.51    2.02
   7  -1  -8   28.85    1.77
   7  -1  -8   28.53    1.69
   7  -1  -8   26.70    1.77
  -7   1   8   23.86    1.57
  -7   1   8   20.89    1.89
  -7   1   8   26.73    1.84
  -7   1   8   24.20    1.85
   6  -1  -8   44.92    2.03
   6  -1  -8   47.86    2.22
   6  -1  -8   45.13    2.23
   6  -1  -8   44.86    2.29
  -6   1   8   41.17    2.19
  -6   1   8   42.18    2.14
  -6   1   8   47.64    2.18
  -6   1   8   44.46    2.39
   5  -1  -8  101.81    3.83
   5  -1  -8   89.64    3.68
   5  -1  -8   96.54    3.68
   5  -1  -8   98.91    3.93
  -5   1   8  101.08    3.69
  -5   1   8   93.84    3.70
  -5   1   8   86.99    4.35
  -5   1   8   93.73    3.63
   4  -1  -8   65.04    2.64
   4  -1  -8   64.25    2.58
   4  -1  -8   67.14    2.75
   4  -1  -8   65.24    2.39
   4  -1  -8   64.52    2.27
  -4   1   8   63.81    2.25
  -4   1   8   64.29    2.81
  -4   1   8   59.18    2.64
  -4   1   8   64.63    2.61
  -4   1   8   60.84    2.48
   3  -1  -8  138.98    5.02
   3  -1  -8  151.83    5.18
   3  -1  -8  141.75    4.73
   3  -1  -8  140.40    4.85
  -3   1   8  143.70    4.84
  -3   1   8  137.40    5.23
  -3   1   8  149.06    5.05
  -3   1   8  135.44    4.75
  -3   1   8  138.96    4.81
   2  -1  -8   21.05    1.16
   2  -1  -8   20.61    1.12
   2  -1  -8   24.00    1.31
   2  -1  -8   23.54    1.33
  -2   1   8   23.77    1.19
  -2   1   8   22.13    1.37
  -2   1   8   22.94    1.17
  -2   1   8   23.60    1.15
  -2   1   8   20.64    0.88
   1  -1  -8   98.54    4.12
   1  -1  -8  103.29    3.78
   1  -1  -8  101.78    3.83
   1  -1  -8  106.27    3.94
  -1   1   8  113.79    3.92
  -1   1   8  105.32    3.77
  -1   1   8  100.13    3.97
  -1   1   8  112.24    3.91
   0  -1  -8   33.34    1.79
   0  -1  -8   33.30    1.63
   0  -1  -8   35.15    1.73
   0  -1  -8   32.66    1.49
   0   1   8   34.20    1.70
   0   1   8   32.29    1.67
   0   1   8   34.36    1.67
  -1  -1  -8   58.44    2.73
  -1  -1  -8   51.36    2.60
  -1  -1  -8   62.60    2.40
  -1  -1  -8   65.81    2.70
  -1  -1  -8   69.48    2.79
   1   1   8   61.71    2.70
   1   1   8   63.35    2.71
   1   1   8   60.14    2.56
   1   1   8   67.62    2.72
  -2  -1  -8   55.02    2.59
  -2  -1  -8   65.06    2.83
  -2  -1  -8   64.09    2.43
  -2  -1  -8   64.86    2.89
   2   1   8   66.11    2.80
   2   1   8   60.81    2.81
   2   1   8   58.92    2.85
   2   1   8   63.15    2.19
   2   1   8   63.25    2.60
  -3  -1  -8   38.44    1.89
  -3  -1  -8   41.77    2.26
  -3  -1  -8   42.67    2.34
  -3  -1  -8   41.86    1.83
  -3  -1  -8   44.34    2.37
  -3  -1  -8   44.30    1.83
   3   1   8   42.67    2.31
   3   1   8   42.66    1.98
   3   1   8   43.54    1.73
   3   1   8   43.37    2.27
   3   1   8   40.83    2.27
  -4  -1  -8   15.00    1.05
  -4  -1  -8   15.77    1.13
  -4  -1  -8   15.59    1.71
  -4  -1  -8   14.24    1.44
  -4  -1  -8   16.57    1.28
  -4  -1  -8   16.43    1.08
   4   1   8   16.19    1.14
   4   1   8   16.03    1.25
   4   1   8   16.67    1.58
   4   1   8   15.94    1.71
  -5  -1  -8   45.85    2.91
  -5  -1  -8   45.40    2.29
  -5  -1  -8   45.84    2.18
  -5  -1  -8   43.73    2.10
  -5  -1  -8   44.71    2.59
   5   1   8   46.33    2.89
   5   1   8   47.13    2.26
   5   1   8   45.83    2.46
   8  -2  -8   67.89    3.28
   8  -2  -8   65.68    3.04
  -8   2   8   61.08    3.01
  -8   2   8   63.18    3.32
   7  -2  -8   31.14    1.88
   7  -2  -8   31.89    2.03
   7  -2  -8   34.15    2.20
   7  -2  -8   30.65    1.77
  -7   2   8   28.96    2.18
  -7   2   8   34.92    2.00
  -7   2   8   31.07    1.87
  -7   2   8   31.16    2.06
   6  -2  -8   54.56    2.44
   6  -2  -8   53.84    2.59
   6  -2  -8   54.79    2.26
   6  -2  -8   52.09    2.49
  -6   2   8   52.14    2.69
  -6   2   8   52.01    2.45
  -6   2   8   54.58    2.44
  -6   2   8   52.81    2.52
   5  -2  -8   26.55    1.55
   5  -2  -8   27.62    1.28
   5  -2  -8   24.74    1.66
   5  -2  -8   25.85    1.63
  -5   2   8   28.31    1.54
  -5   2   8   23.12    1.71
  -5   2   8   23.94    1.53
  -5   2   8   26.81    1.44
   4  -2  -8  128.25    4.29
   4  -2  -8  128.43    4.73
   4  -2  -8  125.80    4.64
   4  -2  -8  126.79    4.27
   4  -2  -8  126.67    4.60
  -4   2   8  119.54    4.81
  -4   2   8  128.19    4.23
  -4   2   8  120.01    4.74
  -4   2   8  124.42    4.37
  -4   2   8  133.26    4.62
   3  -2  -8   52.65    2.20
   3  -2  -8   53.38    1.82
   3  -2  -8   56.23    2.38
   3  -2  -8   52.42    2.07
   3  -2  -8   53.00    2.43
  -3   2   8   51.48    1.84
  -3   2   8   50.19    2.18
  -3   2   8   51.79    2.44
  -3   2   8   54.97    2.07
  -3   2   8   51.03    1.97
   2  -2  -8   49.07    2.25
   2  -2  -8   45.89    1.95
   2  -2  -8   48.33    2.13
   2  -2  -8   47.92    1.99
  -2   2   8   44.23    1.97
  -2   2   8   49.50    2.04
  -2   2   8   44.41    2.21
  -2   2   8   45.29    1.95
   1  -2  -8   50.33    2.22
   1  -2  -8   55.95    2.49
   1  -2  -8   53.98    2.26
   1  -2  -8   54.88    2.19
  -1   2   8   49.41    2.38
  -1   2   8   58.80    2.37
  -1   2   8   50.36    2.57
   0  -2  -8  192.89    6.57
   0  -2  -8  203.42    6.92
   0  -2  -8  193.17    6.74
   0  -2  -8  188.77    6.97
   0  -2  -8  194.98    6.60
   0   2   8  179.28    6.74
   0   2   8  183.79    6.84
   0   2   8  198.37    6.81
  -1  -2  -8   81.00    3.47
  -1  -2  -8   83.21    3.08
  -1  -2  -8   77.52    3.25
  -1  -2  -8   82.65    3.46
   1   2   8   82.01    3.45
   1   2   8   78.83    3.22
   1   2   8   85.24    3.40
   1   2   8   76.91    3.43
  -2  -2  -8   97.35    4.09
  -2  -2  -8  100.25    4.09
  -2  -2  -8   97.40    4.00
  -2  -2  -8   99.41    3.75
   2   2   8   94.90    3.75
   2   2   8  102.00    4.04
   2   2   8   93.52    4.06
   2   2   8   98.83    4.12
  -3  -2  -8   37.80    2.32
  -3  -2  -8   37.41    2.19
  -3  -2  -8   37.29    1.78
  -3  -2  -8   36.11    1.93
  -3  -2  -8   36.18    1.51
   3   2   8   38.87    2.39
   3   2   8   37.06    1.48
   3   2   8   35.04    1.85
   3   2   8   35.59    2.23
  -4  -2  -8   99.85    3.70
  -4  -2  -8   93.05    3.87
  -4  -2  -8   96.68    4.34
  -4  -2  -8  100.49    3.52
  -4  -2  -8   96.17    4.22
   4   2   8   95.79    4.42
   4   2   8   91.62    3.69
   4   2   8   89.68    4.22
   8  -3  -8   30.69    2.05
   8  -3  -8   26.86    2.21
   8  -3  -8   30.20    1.99
  -8   3   8   28.96    2.30
  -8   3   8   26.54    1.91
   7  -3  -8   60.04    2.76
   7  -3  -8   64.74    3.01
   7  -3  -8   64.24    2.61
  -7   3   8   57.86    2.89
  -7   3   8   55.76    3.23
  -7   3   8   61.71    2.92
   6  -3  -8   24.78    1.30
   6  -3  -8   23.10    1.62
   6  -3  -8   22.92    1.56
   6  -3  -8   20.72    1.80
  -6   3   8   22.37    1.58
  -6   3   8   28.17    1.65
  -6   3   8   24.79    1.52
  -6   3   8   24.62    1.89
   5  -3  -8  130.99    4.92
   5  -3  -8  136.36    4.98
   5  -3  -8  124.25    4.75
   5  -3  -8  134.05    4.47
  -5   3   8  127.82    5.12
  -5   3   8  128.01    4.56
  -5   3   8  134.69    4.82
  -5   3   8  120.28    4.96
   4  -3  -8   61.81    3.22
   4  -3  -8   69.27    2.56
   4  -3  -8   67.48    2.81
   4  -3  -8   70.65    2.43
   4  -3  -8   70.04    3.00
  -4   3   8   64.62    3.27
  -4   3   8   71.73    2.52
  -4   3   8   76.31    2.89
  -4   3   8   72.38    2.41
  -4   3   8   69.82    2.46
   3  -3  -8  244.21    8.34
   3  -3  -8  245.41    8.17
   3  -3  -8  224.90    7.86
  -3   3   8  216.87    8.25
  -3   3   8  239.82    7.89
   2  -3  -8   25.59    1.48
   2  -3  -8   25.32    1.65
   2  -3  -8   23.01    1.31
  -2   3   8   22.98    1.57
  -2   3   8   25.20    1.34
  -2   3   8   24.40    1.58
   1  -3  -8   73.69    3.09
   1  -3  -8   80.57    3.11
   1  -3  -8   76.98    3.12
   1  -3  -8   83.84    3.42
  -1   3   8   75.30    3.31
  -1   3   8   79.32    3.25
  -1   3   8   82.94    3.28
   0  -3  -8   40.29    1.75
   0  -3  -8   34.50    2.13
   0  -3  -8   39.09    2.14
   0  -3  -8   38.60    1.79
   0  -3  -8   34.14    2.04
   0   3   8   36.39    2.04
   0   3   8   41.11    2.10
   0   3   8   37.52    2.01
  -1  -3  -8  105.48    3.64
  -1  -3  -8   98.90    4.20
  -1  -3  -8   98.01    4.01
  -1  -3  -8   97.79    3.87
  -1  -3  -8   98.28    3.73
  -1  -3  -8   99.00    4.14
   1   3   8   95.77    3.90
   1   3   8   95.91    4.14
   1   3   8  103.00    4.11
  -2  -3  -8   21.04    1.71
  -2  -3  -8   25.68    1.28
  -2  -3  -8   22.83    1.72
  -2  -3  -8   24.31    1.47
  -2  -3  -8   24.44    1.86
   2   3   8   23.14    1.84
   2   3   8   22.24    1.59
   2   3   8   24.44    2.01
  -3  -3  -8   57.05    3.13
  -3  -3  -8   60.04    2.62
  -3  -3  -8   58.93    2.14
  -3  -3  -8   56.22    2.96
   3   3   8   58.80    3.27
   3   3   8   55.13    2.53
   3   3   8   59.37    3.16
   8  -4  -8   50.73    2.57
   8  -4  -8   52.73    2.73
   8  -4  -8   53.80    3.10
  -8   4   8   51.36    2.82
   7  -4  -8   15.57    1.27
   7  -4  -8   17.93    1.78
   7  -4  -8   17.31    1.59
  -7   4   8   15.65    1.55
  -7   4   8   14.90    1.54
   6  -4  -8   76.12    3.12
   6  -4  -8   74.18    3.33
   6  -4  -8   72.38    2.81
   6  -4  -8   73.47    3.78
  -6   4   8   71.17    3.60
  -6   4   8   74.18    3.40
  -6   4   8   76.24    3.27
  -6   4   8   74.60    2.94
   5  -4  -8   25.07    1.10
   5  -4  -8   24.25    1.67
   5  -4  -8   24.50    1.77
   5  -4  -8   25.63    1.14
   5  -4  -8   26.83    1.53
  -5   4   8   26.23    2.00
  -5   4   8   24.55    1.70
  -5   4   8   23.71    1.58
   4  -4  -8   66.16    3.10
   4  -4  -8   60.29    2.42
   4  -4  -8   62.24    2.63
   4  -4  -8   62.63    2.83
  -4   4   8   65.68    2.36
  -4   4   8   58.75    3.06
   3  -4  -8   18.91    1.67
   3  -4  -8   19.63    1.43
   3  -4  -8   17.25    1.25
   3  -4  -8   20.26    1.17
  -3   4   8   16.10    1.97
  -3   4   8   19.43    1.16
  -3   4   8   18.83    1.20
   2  -4  -8   55.62    2.36
   2  -4  -8   54.76    2.35
   2  -4  -8   50.05    2.37
   2  -4  -8   52.37    2.72
  -2   4   8   52.79    2.70
  -2   4   8   57.64    2.50
  -2   4   8   51.96    2.38
   1  -4  -8   40.01    1.85
   1  -4  -8   34.28    1.94
   1  -4  -8   37.06    1.84
   1  -4  -8   39.35    2.33
  -1   4   8   41.97    2.16
  -1   4   8   36.90    2.07
  -1   4   8   35.56    2.11
   0  -4  -8   77.04    3.62
   0  -4  -8   77.28    3.73
   0  -4  -8   82.77    3.47
   0  -4  -8   82.04    3.27
   0  -4  -8   80.94    3.13
   0   4   8   84.66    3.69
   0   4   8   91.67    3.70
   0   4   8   79.10    3.40
  -1  -4  -8   19.80    1.38
  -1  -4  -8   13.98    1.33
  -1  -4  -8   15.93    1.63
  -1  -4  -8   15.91    1.50
   1   4   8   15.31    1.43
   1   4   8   13.84    1.59
  -2  -4  -8   62.75    3.26
  -2  -4  -8   64.60    2.84
  -2  -4  -8   61.16    3.12
   2   4   8   58.64    3.37
   7  -5  -8   76.31    3.05
   7  -5  -8   74.12    3.62
   7  -5  -8   81.45    3.40
  -7   5   8   75.58    3.86
   6  -5  -8   35.57    2.00
   6  -5  -8   37.32    2.30
   6  -5  -8   37.75    1.61
  -6   5   8   31.06    2.18
   5  -5  -8   47.78    2.69
   5  -5  -8   49.40    1.81
   5  -5  -8   48.29    2.62
   5  -5  -8   52.11    2.02
   5  -5  -8   48.33    2.36
  -5   5   8   53.75    3.01
   4  -5  -8   36.23    2.12
   4  -5  -8   32.84    1.84
   4  -5  -8   33.27    1.66
  -4   5   8   33.76    2.31
  -4   5   8   35.36    1.65
   3  -5  -8   66.38    2.91
   3  -5  -8   63.85    2.70
   3  -5  -8   63.70    2.77
  -3   5   8   64.30    3.14
  -3   5   8   61.81    2.70
   2  -5  -8   79.81    3.32
   2  -5  -8   86.30    3.34
   2  -5  -8   81.88    3.29
  -2   5   8   77.25    3.37
  -2   5   8   75.02    3.84
   1  -5  -8   79.15    3.38
   1  -5  -8   83.43    3.27
   1  -5  -8   83.21    3.50
   1  -5  -8   75.94    3.73
  -1   5   8   80.11    3.54
  -1   5   8   90.36    3.84
  -1   5   8   86.67    3.71
   0  -5  -8   19.81    1.78
   0  -5  -8   18.29    1.82
   0  -5  -8   24.08    1.66
   0  -5  -8   26.11    1.41
   0   5   8   22.22    1.96
   0   5   8   21.88    1.66
  -1  -5  -8   48.25    3.27
  -1  -5  -8   55.56    2.64
  -1  -5  -8   50.62    2.96
   6  -6  -8   81.46    3.47
   6  -6  -8   78.60    3.87
   5  -6  -8   45.14    2.42
   5  -6  -8   49.43    2.14
   5  -6  -8   48.96    2.83
   4  -6  -8   51.27    2.76
   4  -6  -8   53.84    2.91
   4  -6  -8   53.27    2.63
  -4   6   8   58.03    2.46
   3  -6  -8   17.15    1.52
   3  -6  -8   17.36    1.55
   3  -6  -8   13.78    1.70
  -3   6   8   17.56    1.45
   2  -6  -8  131.58    5.02
   2  -6  -8  124.63    4.96
   2  -6  -8  130.49    4.90
  -2   6   8  131.19    5.15
   1  -6  -8   21.79    1.95
   1  -6  -8   20.17    1.87
  -1   6   8   18.83    1.93
  -1   9  -9   24.37    1.99
  -1   9  -9   23.98    2.26
   1  -9   9   23.71    2.15
   1  -9   9   25.73    1.73
   2  -9   9   29.00    1.99
   2  -9   9   29.11    2.10
   2  -9   9   29.30    1.79
   3  -9   9   12.08    1.37
   3  -9   9   14.25    1.43
  -4   9  -9   42.89    2.17
   4  -9   9   41.71    2.38
   4  -9   9   42.05    2.28
  -5   9  -9   23.36    1.78
   5  -9   9   23.86    1.86
   5  -9   9   24.54    1.98
   1   8  -9   69.03    3.31
   1   8  -9   50.72    3.48
  -1  -8   9   57.40    3.04
  -1  -8   9   62.81    2.65
   0   8  -9   16.31    1.43
   0   8  -9   16.65    1.80
   0   8  -9   13.99    1.51
   0  -8   9   14.15    1.56
  -1   8  -9   56.34    2.54
  -1   8  -9   57.91    2.67
   1  -8   9   52.23    2.58
   1  -8   9   53.22    2.54
   1  -8   9   54.14    2.47
  -2   8  -9   37.57    2.04
   2  -8   9   41.36    1.98
   2  -8   9   37.94    1.94
   2  -8   9   41.11    2.14
  -3   8  -9   47.42    2.13
   3  -8   9   46.57    2.35
   3  -8   9   49.15    2.14
   3  -8   9   48.05    2.26
  -4   8  -9   18.15    1.43
   4  -8   9   18.37    1.45
   4  -8   9   17.64    1.12
   4  -8   9   19.54    1.51
  -5   8  -9   76.88    4.07
  -5   8  -9   79.54    3.49
   5  -8   9   81.15    2.88
   5  -8   9   82.05    3.42
   5  -8   9   76.78    3.38
  -6   8  -9   14.46    1.84
  -6   8  -9   20.98    1.74
   6  -8   9   21.56    1.79
   6  -8   9   23.00    1.40
   6  -8   9   22.84    1.76
   6  -8   9   18.69    2.18
   2   7  -9   46.30    2.19
   2   7  -9   39.36    2.35
   2   7  -9   38.84    2.69
  -2  -7   9   46.80    2.52
  -2  -7   9   46.08    2.10
   1   7  -9   30.38    1.65
   1   7  -9   26.79    1.81
   1   7  -9   30.66    2.07
  -1  -7   9   27.54    2.04
  -1  -7   9   26.38    1.82
  -1  -7   9   26.59    1.59
   0   7  -9   45.90    2.41
   0   7  -9   44.94    2.16
   0   7  -9   47.61    2.38
   0  -7   9   43.98    2.21
   0  -7   9   46.44    2.27
   0  -7   9   49.80    2.75
   0  -7   9   48.41    2.18
  -1   7  -9   44.47    2.05
  -1   7  -9   36.30    2.92
   1  -7   9   43.13    1.97
   1  -7   9   40.16    2.02
   1  -7   9   40.21    2.75
   1  -7   9   38.46    2.43
  -2   7  -9  115.78    4.27
  -2   7  -9  120.94    4.42
  -2   7  -9  115.22    4.34
   2  -7   9  118.29    4.34
   2  -7   9  120.73    4.24
   2  -7   9  110.44    4.73
   2  -7   9  112.51    4.34
  -3   7  -9   25.50    1.62
  -3   7  -9   24.66    1.33
  -3   7  -9   27.57    1.49
  -3   7  -9   28.15    2.07
   3  -7   9   26.89    1.94
   3  -7   9   26.62    1.34
   3  -7   9   27.27    1.53
   3  -7   9   25.72    1.50
   3  -7   9   25.07    2.01
  -4   7  -9   99.00    4.47
  -4   7  -9  107.58    4.06
  -4   7  -9  103.04    4.08
   4  -7   9  106.46    3.52
   4  -7   9  102.85    4.41
   4  -7   9   95.52    4.22
   4  -7   9  100.66    3.48
   4  -7   9  100.53    3.95
   4  -7   9  101.52    3.95
  -5   7  -9   29.69    2.53
  -5   7  -9   36.61    2.04
   5  -7   9   33.98    1.93
   5  -7   9   34.85    1.59
   5  -7   9   45.73    3.24
   5  -7   9   33.00    1.88
  -6   7  -9   61.97    3.09
  -6   7  -9   69.07    2.96
  -6   7  -9   59.93    3.63
   6  -7   9   65.77    2.70
   6  -7   9   62.02    2.91
   6  -7   9   63.03    3.28
  -7   7  -9   26.82    2.20
  -7   7  -9   27.03    3.01
   7  -7   9   25.05    2.01
   7  -7   9   27.98    1.87
   4   6  -9   11.61    1.38
   4   6  -9    7.65    1.58
  -4  -6   9   10.03    1.24
  -4  -6   9    7.89    1.38
   3   6  -9   56.56    2.69
   3   6  -9   57.98    2.97
   3   6  -9   54.75    2.41
  -3  -6   9   52.40    2.81
  -3  -6   9   55.95    2.65
  -3  -6   9   58.69    2.46
   2   6  -9   84.01    4.50
   2   6  -9   67.57    3.13
   2   6  -9   70.64    2.80
   2   6  -9   65.11    3.00
  -2  -6   9   64.28    2.98
  -2  -6   9   70.13    3.32
  -2  -6   9   67.19    3.03
  -2  -6   9   67.83    2.83
   1   6  -9   57.52    2.63
   1   6  -9   57.56    2.43
   1   6  -9   56.04    2.65
  -1  -6   9   58.28    2.45
  -1  -6   9   57.03    2.53
  -1  -6   9   57.99    2.86
  -1  -6   9   55.78    2.53
   0   6  -9   22.39    1.35
   0   6  -9   22.97    1.48
   0  -6   9   20.01    1.32
   0  -6   9   22.01    1.34
   0  -6   9   23.62    1.35
   0  -6   9   20.17    1.70
  -1   6  -9   59.17    2.44
  -1   6  -9   53.60    2.37
  -1   6  -9   59.42    2.15
   1  -6   9   54.41    2.38
   1  -6   9   56.03    2.39
   1  -6   9   55.71    2.33
   1  -6   9   55.21    2.71
  -2   6  -9   24.18    1.79
  -2   6  -9   26.11    1.49
  -2   6  -9   27.24    1.34
  -2   6  -9   24.74    1.30
   2  -6   9   23.64    1.72
   2  -6   9   24.99    1.28
   2  -6   9   24.65    1.38
  -3   6  -9   56.85    2.20
  -3   6  -9   58.24    2.55
  -3   6  -9   54.10    2.86
  -3   6  -9   59.27    2.49
   3  -6   9   60.93    2.84
   3  -6   9   54.60    2.43
   3  -6   9   55.67    2.16
   3  -6   9   59.40    2.43
   3  -6   9   59.82    2.66
  -4   6  -9   29.86    2.11
  -4   6  -9   31.63    1.79
  -4   6  -9   33.15    1.48
  -4   6  -9   34.18    1.83
   4  -6   9   35.15    2.13
   4  -6   9   30.30    1.62
   4  -6   9   31.67    1.90
   4  -6   9   31.75    1.39
   4  -6   9   31.33    1.19
   4  -6   9   32.09    1.71
  -5   6  -9   46.03    2.41
  -5   6  -9   49.10    2.86
  -5   6  -9   48.20    2.45
   5  -6   9   52.88    2.74
   5  -6   9   46.60    2.58
   5  -6   9   47.58    2.29
   5  -6   9   49.59    2.08
   5  -6   9   50.66    2.58
  -6   6  -9   20.04    1.72
  -6   6  -9   17.96    2.29
  -6   6  -9   18.99    1.64
   6  -6   9   17.10    1.64
   6  -6   9   17.64    1.49
   6  -6   9   17.96    1.38
  -7   6  -9   23.86    1.99
  -7   6  -9   22.26    2.82
  -7   6  -9   25.03    2.54
   7  -6   9   22.83    1.98
   7  -6   9   26.05    1.89
   7  -6   9   25.70    1.82
   5   5  -9   10.60    1.74
   5   5  -9   13.39    1.33
  -5  -5   9   12.11    1.23
  -5  -5   9   15.53    1.59
  -5  -5   9   12.25    1.67
   4   5  -9   38.86    2.07
   4   5  -9   38.28    1.86
   4   5  -9   40.64    2.56
   4   5  -9   40.26    2.06
  -4  -5   9   41.74    2.09
  -4  -5   9   40.50    2.47
  -4  -5   9   42.84    2.46
  -4  -5   9   43.60    2.05
   3   5  -9   23.20    1.52
   3   5  -9   28.06    1.58
   3   5  -9   22.85    1.79
   3   5  -9   27.54    1.87
  -3  -5   9   27.68    1.73
  -3  -5   9   25.07    1.82
  -3  -5   9   23.69    1.50
  -3  -5   9   23.26    1.70
   2   5  -9   82.00    3.19
   2   5  -9   76.09    3.01
   2   5  -9   69.41    3.18
   2   5  -9   72.68    3.08
  -2  -5   9   77.52    3.27
  -2  -5   9   71.66    3.05
  -2  -5   9   74.56    3.02
  -2  -5   9   75.40    3.11
   1   5  -9   18.54    1.23
   1   5  -9   16.94    1.31
  -1  -5   9   18.13    1.46
  -1  -5   9   18.66    1.20
  -1  -5   9   17.12    1.16
  -1  -5   9   16.88    1.19
   0   5  -9   85.30    3.18
   0   5  -9   77.42    3.13
   0   5  -9   80.78    2.80
   0   5  -9   81.08    3.41
   0  -5   9   78.14    3.35
   0  -5   9   78.57    3.12
   0  -5   9   82.57    3.09
   0  -5   9   75.99    3.06
  -1   5  -9   19.56    1.22
  -1   5  -9   19.48    1.07
  -1   5  -9   19.38    1.46
  -1   5  -9   19.13    1.14
   1  -5   9   21.42    1.10
   1  -5   9   18.83    1.17
   1  -5   9   16.80    1.37
   1  -5   9   16.30    1.06
  -2   5  -9  147.79    5.24
  -2   5  -9  151.62    5.33
  -2   5  -9  138.23    5.58
  -2   5  -9  149.01    5.11
   2  -5   9  149.66    5.06
   2  -5   9  145.87    5.19
   2  -5   9  147.34    5.27
   2  -5   9  154.00    5.57
  -3   5  -9   96.90    3.44
  -3   5  -9   98.04    3.82
  -3   5  -9   93.13    4.10
  -3   5  -9  106.02    3.83
  -3   5  -9  101.09    3.51
   3  -5   9   96.55    3.44
   3  -5   9   96.99    3.65
   3  -5   9   96.96    3.40
   3  -5   9  107.23    3.88
   3  -5   9   99.77    4.02
   3  -5   9  100.92    3.79
  -4   5  -9   95.01    3.88
  -4   5  -9   92.00    4.14
  -4   5  -9  101.62    3.66
  -4   5  -9   96.03    3.78
   4  -5   9   97.47    3.73
   4  -5   9   98.78    3.54
   4  -5   9   98.04    3.81
   4  -5   9   97.00    4.09
   4  -5   9   98.54    4.02
  -5   5  -9   32.78    1.84
  -5   5  -9   31.71    1.93
  -5   5  -9   33.60    2.35
  -5   5  -9   33.24    1.85
   5  -5   9   30.39    2.01
   5  -5   9   33.29    1.79
   5  -5   9   29.85    2.04
   5  -5   9   33.65    1.66
   5  -5   9   34.83    1.93
  -6   5  -9   76.37    3.38
  -6   5  -9   67.17    3.79
  -6   5  -9   72.06    3.43
   6  -5   9   73.86    3.19
   6  -5   9   74.34    3.17
   6  -5   9   86.01    3.86
   6  -5   9   67.01    3.43
   6  -5   9   78.45    3.40
  -7   5  -9   32.00    3.12
  -7   5  -9   25.97    2.52
   7  -5   9   31.24    2.08
   7  -5   9   28.93    2.16
   7  -5   9   32.27    2.06
   5   4  -9   58.34    2.75
   5   4  -9   63.43    2.80
   5   4  -9   60.74    3.16
   5   4  -9   60.93    2.66
  -5  -4   9   66.94    3.17
  -5  -4   9   65.08    2.79
  -5  -4   9   60.78    2.92
  -5  -4   9   58.96    2.66
   4   4  -9   43.09    2.00
   4   4  -9   44.41    2.43
   4   4  -9   47.34    2.42
   4   4  -9   50.00    2.30
   4   4  -9   43.44    2.11
  -4  -4   9   42.70    2.31
  -4  -4   9   51.59    2.45
  -4  -4   9   47.65    2.24
  -4  -4   9   46.77    2.33
  -4  -4   9   45.11    2.09
   3   4  -9   82.50    3.51
   3   4  -9   83.08    3.36
   3   4  -9   86.06    3.40
   3   4  -9   84.77    3.29
   3   4  -9   79.91    2.95
  -3  -4   9   82.21    3.40
  -3  -4   9   86.08    3.36
  -3  -4   9   88.96    3.47
  -3  -4   9   82.63    3.37
   2   4  -9   36.47    1.74
   2   4  -9   31.22    1.86
   2   4  -9   33.52    1.73
  -2  -4   9   33.22    1.69
  -2  -4   9   34.69    1.72
  -2  -4   9   32.76    1.70
  -2  -4   9   36.54    1.86
   1   4  -9  179.09    5.96
   1   4  -9  168.05    5.60
   1   4  -9  158.54    6.02
   1   4  -9  158.65    5.94
  -1  -4   9  165.15    6.02
  -1  -4   9  166.66    5.83
  -1  -4   9  161.74    5.89
  -1  -4   9  181.62    5.90
   0   4  -9   97.43    3.50
   0   4  -9   84.34    3.40
   0   4  -9   91.43    3.29
   0   4  -9   92.23    3.64
   0  -4   9   90.10    3.33
   0  -4   9   96.94    3.63
   0  -4   9   81.32    3.53
   0  -4   9   89.45    3.44
  -1   4  -9  138.76    4.74
  -1   4  -9  123.08    4.57
  -1   4  -9  122.14    4.87
  -1   4  -9  133.31    4.64
   1  -4   9  134.25    4.88
   1  -4   9  123.12    4.52
   1  -4   9  129.40    4.68
   1  -4   9  132.78    4.51
  -2   4  -9   14.15    1.01
  -2   4  -9   12.57    0.74
  -2   4  -9   12.01    0.82
  -2   4  -9   11.75    1.18
  -2   4  -9   12.88    0.98
   2  -4   9   12.42    0.71
   2  -4   9   11.63    0.97
   2  -4   9   12.39    0.74
   2  -4   9   12.84    0.94
   2  -4   9   12.92    0.83
   2  -4   9   14.00    1.17
  -3   4  -9  132.20    4.60
  -3   4  -9  132.65    4.76
  -3   4  -9  129.25    4.86
  -3   4  -9  126.48    4.42
  -3   4  -9  124.26    5.08
   3  -4   9  132.42    4.55
   3  -4   9  137.58    5.01
   3  -4   9  129.00    4.73
   3  -4   9  126.55    4.34
   3  -4   9  131.63    5.06
   3  -4   9  132.27    4.73
  -4   4  -9   34.77    1.26
  -4   4  -9   34.75    1.79
  -4   4  -9   35.72    1.93
  -4   4  -9   36.62    2.22
   4  -4   9   33.91    1.74
   4  -4   9   36.76    2.03
   4  -4   9   36.03    2.06
   4  -4   9   32.66    1.63
   4  -4   9   35.07    1.78
  -5   4  -9   89.04    3.50
  -5   4  -9   79.14    3.58
  -5   4  -9   81.01    3.88
  -5   4  -9   86.95    3.40
   5  -4   9   81.31    3.67
   5  -4   9   79.33    3.55
   5  -4   9   84.34    3.36
   5  -4   9   84.22    3.36
   5  -4   9   83.41    3.40
  -6   4  -9   16.64    2.14
  -6   4  -9   18.26    1.63
  -6   4  -9   18.96    1.80
   6  -4   9   20.46    1.74
   6  -4   9   19.32    1.49
   6  -4   9   20.89    1.62
   6  -4   9   19.51    1.67
  -7   4  -9   78.47    4.29
  -7   4  -9   72.48    3.72
   7  -4   9   79.88    3.63
   7  -4   9   67.94    4.71
   7  -4   9   79.29    3.41
   6   3  -9   28.34    1.98
   6   3  -9   29.05    2.27
   6   3  -9   29.45    1.59
   6   3  -9   28.04    2.03
  -6  -3   9   28.09    2.28
  -6  -3   9   29.67    1.96
  -6  -3   9   29.23    1.60
  -6  -3   9   29.74    1.96
   5   3  -9   37.46    1.76
   5   3  -9   37.86    2.05
   5   3  -9   37.22    2.15
   5   3  -9   39.29    2.31
   5   3  -9   35.75    1.90
  -5  -3   9   35.55    1.73
  -5  -3   9   37.88    2.20
  -5  -3   9   35.46    2.02
  -5  -3   9   39.87    2.03
   4   3  -9   64.55    2.58
   4   3  -9   69.18    2.84
   4   3  -9   59.84    2.91
   4   3  -9   63.27    2.60
   4   3  -9   68.18    2.82
  -4  -3   9   66.77    2.84
  -4  -3   9   67.07    2.84
  -4  -3   9   67.14    2.76
  -4  -3   9   62.63    2.85
   3   3  -9   22.97    1.46
   3   3  -9   22.53    1.21
   3   3  -9   20.93    1.09
   3   3  -9   22.47    1.32
   3   3  -9   20.57    1.70
  -3  -3   9   22.64    1.37
  -3  -3   9   22.01    1.35
  -3  -3   9   21.60    1.37
  -3  -3   9   23.51    1.43
   2   3  -9   79.67    2.94
   2   3  -9   79.84    2.77
   2   3  -9   80.21    3.02
   2   3  -9   79.78    3.17
   2   3  -9   73.84    3.09
   2   3  -9   77.93    3.12
   2   3  -9   80.21    2.74
  -2  -3   9   81.02    3.03
  -2  -3   9   74.37    3.04
  -2  -3   9   77.13    3.12
   1   3  -9   14.85    1.10
   1   3  -9   16.47    1.10
   1   3  -9   16.46    1.14
   1   3  -9   15.33    0.70
   1   3  -9   15.72    0.74
  -1  -3   9   14.76    1.29
  -1  -3   9   18.92    1.04
  -1  -3   9   15.38    0.93
  -1  -3   9   15.85    1.07
   0   3  -9  120.15    4.18
   0   3  -9  114.56    3.87
   0   3  -9  117.47    4.23
   0   3  -9  106.96    4.13
   0   3  -9  107.98    4.27
   0  -3   9  111.75    4.18
   0  -3   9  114.40    4.26
   0  -3   9  116.17    4.01
   0  -3   9  118.11    4.05
  -1   3  -9   55.34    2.18
  -1   3  -9   60.59    2.45
  -1   3  -9   55.47    2.31
  -1   3  -9   58.34    2.45
  -1   3  -9   62.01    2.61
   1  -3   9   59.74    2.22
   1  -3   9   60.45    2.60
   1  -3   9   59.23    2.54
   1  -3   9   56.12    2.20
   1  -3   9   57.49    2.41
  -2   3  -9   55.01    2.32
  -2   3  -9   55.06    2.54
  -2   3  -9   54.92    2.42
  -2   3  -9   52.84    2.14
  -2   3  -9   55.63    2.21
   2  -3   9   54.67    2.21
   2  -3   9   52.97    2.08
   2  -3   9   54.95    2.53
   2  -3   9   55.27    2.15
   2  -3   9   52.32    2.27
   2  -3   9   54.78    2.02
   2  -3   9   55.47    2.49
  -3   3  -9   53.54    2.21
  -3   3  -9   50.13    2.35
  -3   3  -9   51.48    2.18
  -3   3  -9   48.44    1.95
  -3   3  -9   47.21    2.50
   3  -3   9   49.85    2.10
   3  -3   9   48.70    2.16
   3  -3   9   49.14    2.44
   3  -3   9   52.03    2.41
  -4   3  -9   70.30    2.80
  -4   3  -9   63.21    2.98
  -4   3  -9   64.19    2.38
  -4   3  -9   65.85    3.18
  -4   3  -9   69.29    2.89
   4  -3   9   68.17    3.07
   4  -3   9   69.58    3.00
   4  -3   9   68.49    2.74
   4  -3   9   67.95    2.78
   4  -3   9   63.65    2.76
  -5   3  -9   31.91    2.02
  -5   3  -9   36.03    2.10
  -5   3  -9   34.27    2.29
  -5   3  -9   36.14    1.85
   5  -3   9   33.37    1.86
   5  -3   9   33.43    2.05
   5  -3   9   36.62    1.83
   5  -3   9   34.37    1.95
   5  -3   9   34.75    2.11
  -6   3  -9   60.35    3.08
  -6   3  -9   65.43    3.20
  -6   3  -9   57.39    3.41
   6  -3   9   60.95    2.74
   6  -3   9   61.07    2.90
   6  -3   9   55.61    2.98
   6  -3   9   62.51    2.97
  -7   3  -9   20.83    2.71
  -7   3  -9   14.10    1.65
   7  -3   9   16.14    2.03
   7  -3   9   16.14    1.68
   7  -3   9   15.78    1.74
   7   2  -9   23.82    2.27
   7   2  -9   20.22    2.12
   7   2  -9   21.14    1.99
  -7  -2   9   27.69    2.43
  -7  -2   9   21.19    1.47
   6   2  -9   24.80    1.84
   6   2  -9   25.10    1.90
   6   2  -9   26.15    2.02
  -6  -2   9   29.63    2.03
  -6  -2   9   25.65    1.34
  -6  -2   9   28.63    1.90
  -6  -2   9   26.51    1.55
   5   2  -9  120.07    4.35
   5   2  -9  112.52    4.41
   5   2  -9  105.57    4.12
   5   2  -9  109.34    4.23
  -5  -2   9  107.77    3.91
  -5  -2   9  108.95    4.03
  -5  -2   9  114.21    4.32
  -5  -2   9  109.25    4.36
   4   2  -9   30.72    1.67
   4   2  -9   27.86    1.68
   4   2  -9   30.70    1.57
   4   2  -9   23.40    1.37
  -4  -2   9   29.13    1.48
  -4  -2   9   29.29    1.62
  -4  -2   9   28.05    1.62
  -4  -2   9   30.01    1.71
   3   2  -9   61.49    2.44
   3   2  -9   66.18    2.74
   3   2  -9   66.40    2.57
   3   2  -9   66.23    2.74
  -3  -2   9   64.01    2.62
  -3  -2   9   66.73    2.60
  -3  -2   9   65.83    2.78
  -3  -2   9   62.73    2.64
   2   2  -9   34.39    1.53
   2   2  -9   36.68    1.56
   2   2  -9   36.94    1.76
   2   2  -9   33.78    1.66
   2   2  -9   35.46    1.71
   2   2  -9   35.26    1.45
  -2  -2   9   34.78    1.75
  -2  -2   9   33.27    1.56
  -2  -2   9   37.77    1.68
  -2  -2   9   35.64    1.65
   1   2  -9   89.61    3.50
   1   2  -9   89.00    3.33
   1   2  -9   90.73    3.56
   1   2  -9   98.06    3.58
   1   2  -9   94.05    3.53
  -1  -2   9   91.20    3.32
  -1  -2   9   93.32    3.58
  -1  -2   9   99.61    3.56
  -1  -2   9   99.74    3.57
   0   2  -9  113.24    4.00
   0   2  -9  112.07    4.10
   0   2  -9  112.54    4.21
   0   2  -9  111.02    4.24
   0   2  -9  113.94    4.18
   0  -2   9  111.75    4.17
   0  -2   9  111.21    3.90
   0  -2   9  118.84    4.03
   0  -2   9  116.16    4.25
  -1   2  -9  145.98    5.41
  -1   2  -9  154.82    5.31
  -1   2  -9  152.97    5.21
  -1   2  -9  145.72    5.45
  -1   2  -9  144.31    5.17
   1  -2   9  148.29    5.05
   1  -2   9  145.95    5.08
   1  -2   9  159.96    5.44
   1  -2   9  145.37    5.28
   1  -2   9  146.91    5.46
   1  -2   9  145.73    5.00
  -2   2  -9   56.28    2.57
  -2   2  -9   61.08    2.44
  -2   2  -9   59.05    2.43
  -2   2  -9   57.55    2.63
  -2   2  -9   54.37    2.24
   2  -2   9   55.60    2.12
   2  -2   9   57.12    2.24
   2  -2   9   58.82    2.37
   2  -2   9   55.65    2.59
   2  -2   9   63.88    2.62
   2  -2   9   56.79    2.40
   2  -2   9   57.08    2.13
  -3   2  -9   90.90    3.36
  -3   2  -9   85.53    3.62
  -3   2  -9   83.17    3.13
  -3   2  -9   90.70    3.47
  -3   2  -9   79.68    4.14
   3  -2   9   91.91    3.57
   3  -2   9   83.32    3.61
   3  -2   9   88.43    3.24
   3  -2   9   87.99    3.39
   3  -2   9   87.19    3.37
  -4   2  -9   16.92    1.44
  -4   2  -9   16.01    1.51
  -4   2  -9   15.47    0.94
  -4   2  -9   15.42    1.17
  -4   2  -9   15.37    0.87
  -4   2  -9   15.05    1.31
   4  -2   9   15.64    1.35
   4  -2   9   19.83    1.48
   4  -2   9   19.38    1.19
   4  -2   9   18.67    1.35
  -5   2  -9  112.58    3.95
  -5   2  -9  115.78    4.33
  -5   2  -9  120.64    4.74
  -5   2  -9  114.27    3.92
  -5   2  -9  112.32    4.71
  -5   2  -9  121.87    4.92
   5  -2   9  114.98    4.38
   5  -2   9  114.46    4.58
   5  -2   9  115.09    4.35
   5  -2   9  108.73    4.66
   5  -2   9  114.68    4.59
  -6   2  -9   65.02    3.57
  -6   2  -9   57.74    3.16
   6  -2   9   61.38    3.20
   6  -2   9   67.57    2.92
   6  -2   9   68.70    3.03
   6  -2   9   61.35    3.16
   7   1  -9   24.31    1.99
   7   1  -9   23.26    2.18
   7   1  -9   27.00    1.92
  -7  -1   9   20.93    1.93
  -7  -1   9   21.28    1.48
  -7  -1   9   23.00    2.12
   6   1  -9   95.12    4.03
   6   1  -9  102.68    4.05
   6   1  -9  103.67    3.94
  -6  -1   9   95.24    3.40
  -6  -1   9   98.04    4.07
  -6  -1   9   96.04    3.35
  -6  -1   9   93.34    3.99
  -6  -1   9   99.92    3.97
  -6  -1   9  100.09    3.77
   5   1  -9   22.67    1.58
   5   1  -9   21.77    1.33
   5   1  -9   21.04    1.50
   5   1  -9   22.10    1.34
  -5  -1   9   19.15    1.66
  -5  -1   9   19.42    0.97
  -5  -1   9   21.44    1.09
  -5  -1   9   19.69    1.42
  -5  -1   9   21.07    1.60
   4   1  -9  100.27    4.48
   4   1  -9  104.18    3.82
   4   1  -9  105.55    4.06
   4   1  -9  106.61    3.87
  -4  -1   9  106.33    3.73
  -4  -1   9  103.17    3.93
  -4  -1   9  100.56    4.10
  -4  -1   9  110.28    3.98
   3   1  -9   57.17    2.50
   3   1  -9   58.20    2.45
   3   1  -9   57.58    2.27
   3   1  -9   55.92    2.26
   3   1  -9   59.60    2.25
  -3  -1   9   55.58    2.31
  -3  -1   9   59.49    2.57
  -3  -1   9   60.40    2.40
  -3  -1   9   58.09    2.28
  -3  -1   9   52.78    2.38
   2   1  -9  192.84    6.63
   2   1  -9  211.82    6.82
   2   1  -9  197.09    6.46
   2   1  -9  188.45    6.63
   2   1  -9  188.37    6.70
   2   1  -9  184.68    6.50
  -2  -1   9  191.06    6.82
  -2  -1   9  184.64    6.49
  -2  -1   9  201.22    6.66
  -2  -1   9  194.93    6.63
  -2  -1   9  191.36    6.60
   1   1  -9   61.30    2.55
   1   1  -9   64.31    2.63
   1   1  -9   63.92    2.53
   1   1  -9   67.15    2.72
   1   1  -9   61.18    2.59
  -1  -1   9   70.37    2.56
  -1  -1   9   65.02    2.61
  -1  -1   9   62.74    2.66
  -1  -1   9   65.10    2.34
  -1  -1   9   63.53    2.59
   0   1  -9  149.92    5.17
   0   1  -9  143.83    5.28
   0   1  -9  146.18    5.11
   0   1  -9  153.10    5.22
   0   1  -9  141.91    5.31
   0  -1   9  150.07    5.04
   0  -1   9  143.76    5.27
   0  -1   9  143.31    5.24
   0  -1   9  143.55    4.91
   0  -1   9  146.88    4.86
  -1   1  -9   42.92    2.06
  -1   1  -9   40.98    1.79
  -1   1  -9   42.70    1.91
  -1   1  -9   42.00    2.07
  -1   1  -9   46.20    2.00
   1  -1   9   40.95    1.90
   1  -1   9   46.11    2.08
   1  -1   9   43.59    1.73
   1  -1   9   42.97    1.96
   1  -1   9   43.72    2.08
   1  -1   9   42.03    1.58
   1  -1   9   43.47    1.66
  -2   1  -9  161.83    5.49
  -2   1  -9  145.78    5.71
  -2   1  -9  152.65    5.30
  -2   1  -9  151.88    5.72
  -2   1  -9  162.57    5.62
   2  -1   9  154.37    5.71
   2  -1   9  149.70    5.49
   2  -1   9  153.82    5.23
   2  -1   9  151.23    5.54
   2  -1   9  160.24    5.65
  -3   1  -9   20.75    1.48
  -3   1  -9   17.87    1.47
  -3   1  -9   18.34    1.02
  -3   1  -9   17.23    1.39
  -3   1  -9   19.09    1.18
   3  -1   9   19.23    1.34
   3  -1   9   18.99    1.24
   3  -1   9   17.28    1.07
   3  -1   9   18.59    1.40
  -4   1  -9   83.29    3.88
  -4   1  -9   91.09    3.34
  -4   1  -9   89.50    3.31
  -4   1  -9   99.62    3.98
  -4   1  -9   92.93    3.52
  -4   1  -9   93.10    3.96
   4  -1   9   97.19    3.86
   4  -1   9   92.48    3.83
   4  -1   9   90.23    3.91
   4  -1   9   89.41    3.67
  -5   1  -9   32.57    1.59
  -5   1  -9   29.87    2.34
  -5   1  -9   33.90    1.53
  -5   1  -9   32.68    1.75
  -5   1  -9   30.30    2.09
   5  -1   9   31.76    2.12
   5  -1   9   36.55    2.24
   5  -1   9   34.56    1.91
   5  -1   9   34.01    1.89
  -6   1  -9   48.04    2.74
  -6   1  -9   47.28    3.14
   6  -1   9   51.44    2.48
   6  -1   9   42.71    2.63
   6  -1   9   48.53    2.95
   6  -1   9   49.08    2.63
   7   0  -9   67.15    3.69
   7   0  -9   59.43    2.90
   7   0  -9   60.36    2.94
   7   0  -9   57.71    2.83
  -7   0   9   58.98    2.67
  -7   0   9   56.42    2.96
  -7   0   9   54.36    2.98
   6   0  -9   37.04    2.03
   6   0  -9   37.07    1.90
   6   0  -9   37.43    2.15
   6   0  -9   36.06    2.05
  -6   0   9   35.20    2.03
  -6   0   9   37.70    1.90
  -6   0   9   37.37    2.22
  -6   0   9   38.01    2.08
   5   0  -9   60.98    2.63
   5   0  -9   64.33    2.73
   5   0  -9   62.84    2.52
   5   0  -9   64.83    2.82
  -5   0   9   61.44    2.85
  -5   0   9   60.92    2.63
  -5   0   9   62.88    2.68
  -5   0   9   57.21    2.58
  -5   0   9   59.40    2.16
   4   0  -9   29.35    1.69
   4   0  -9   29.26    1.34
   4   0  -9   27.97    1.45
   4   0  -9   28.52    1.66
   4   0  -9   27.55    1.25
  -4   0   9   25.99    1.49
  -4   0   9   30.82    1.79
  -4   0   9   27.91    1.20
  -4   0   9   27.07    1.42
  -4   0   9   27.35    1.23
   3   0  -9  102.76    3.96
   3   0  -9  105.80    3.59
   3   0  -9  101.23    3.68
   3   0  -9  100.11    3.75
   3   0  -9  104.18    3.89
  -3   0   9  101.32    3.67
  -3   0   9  102.50    4.05
  -3   0   9  104.56    3.63
  -3   0   9   99.96    3.66
  -3   0   9  107.74    3.86
   2   0  -9   40.94    1.95
   2   0  -9   40.60    1.54
   2   0  -9   39.68    1.91
   2   0  -9   41.84    1.81
   2   0  -9   40.29    1.86
  -2   0   9   40.13    2.02
  -2   0   9   44.86    1.81
  -2   0   9   43.38    1.85
  -2   0   9   44.03    1.82
  -2   0   9   38.37    1.59
   1   0  -9   75.73    2.87
   1   0  -9   73.15    2.86
   1   0  -9   68.70    2.79
   1   0  -9   68.09    2.73
  -1   0   9   67.38    2.90
  -1   0   9   74.04    2.71
  -1   0   9   69.17    2.43
  -1   0   9   68.22    2.78
  -1   0   9   72.60    2.81
   0   0  -9    5.25    0.69
   0   0  -9    4.43    0.75
   0   0  -9    3.90    0.50
   0   0  -9    3.78    0.56
   0   0   9    3.67    0.31
   0   0   9    4.08    0.33
   0   0   9    5.13    0.58
   0   0   9    5.41    0.74
   0   0   9    4.16    0.64
   0   0   9    3.87    0.64
  -1   0  -9  151.80    5.29
  -1   0  -9  146.05    5.17
  -1   0  -9  148.33    5.57
  -1   0  -9  153.69    5.46
  -1   0  -9  143.42    5.44
   1   0   9  149.60    5.52
   1   0   9  144.05    4.86
   1   0   9  159.74    5.50
   1   0   9  147.87    5.42
   1   0   9  148.82    4.91
   1   0   9  149.96    5.39
  -2   0  -9   58.09    2.36
  -2   0  -9   65.10    2.77
  -2   0  -9   62.70    2.50
  -2   0  -9   55.42    3.14
  -2   0  -9   62.38    2.83
   2   0   9   59.58    2.21
   2   0   9   63.25    2.71
   2   0   9   61.15    2.78
   2   0   9   56.23    2.66
   2   0   9   59.74    2.56
  -3   0  -9   82.56    3.19
  -3   0  -9   88.14    3.67
  -3   0  -9   86.38    3.70
  -3   0  -9   85.54    3.25
  -3   0  -9   83.89    3.64
  -3   0  -9   84.13    3.13
   3   0   9   81.00    3.57
   3   0   9   83.21    3.62
   3   0   9   84.15    3.10
   3   0   9   85.64    3.37
   3   0   9   85.18    3.56
  -4   0  -9   35.29    1.82
  -4   0  -9   38.62    1.83
  -4   0  -9   43.15    2.52
  -4   0  -9   39.13    1.73
  -4   0  -9   34.43    2.20
  -4   0  -9   34.10    2.26
   4   0   9   35.81    2.19
   4   0   9   38.29    2.01
   4   0   9   37.50    1.78
   4   0   9   39.64    2.30
  -5   0  -9   52.59    2.91
  -5   0  -9   53.98    3.14
  -5   0  -9   58.13    2.46
  -5   0  -9   56.40    2.35
  -5   0  -9   53.40    2.42
   5   0   9   51.55    2.97
   5   0   9   57.30    2.53
   5   0   9   52.63    3.07
   5   0   9   58.10    2.66
   8  -1  -9   44.24    2.69
   8  -1  -9   43.78    2.63
  -8   1   9   46.20    2.92
  -8   1   9   43.86    2.39
   7  -1  -9   17.02    1.49
   7  -1  -9   18.76    1.66
   7  -1  -9   16.12    1.62
  -7   1   9   17.00    1.89
  -7   1   9   16.68    1.40
  -7   1   9   20.23    1.74
   6  -1  -9   48.57    2.56
   6  -1  -9   51.09    2.19
   6  -1  -9   47.02    2.42
   6  -1  -9   51.84    2.41
  -6   1   9   46.86    2.34
  -6   1   9   45.79    2.34
  -6   1   9   50.46    2.38
  -6   1   9   48.03    2.60
   5  -1  -9   29.71    1.74
   5  -1  -9   24.65    1.27
   5  -1  -9   25.42    1.54
   5  -1  -9   25.63    1.54
  -5   1   9   23.14    1.46
  -5   1   9   22.55    1.70
  -5   1   9   22.76    1.38
  -5   1   9   24.26    1.52
   4  -1  -9   72.57    3.01
   4  -1  -9   75.63    2.71
   4  -1  -9   75.68    2.75
   4  -1  -9   80.83    3.20
  -4   1   9   71.57    2.84
  -4   1   9   74.31    2.68
  -4   1   9   80.06    3.06
   3  -1  -9   69.58    2.46
   3  -1  -9   70.73    2.95
   3  -1  -9   71.71    2.99
   3  -1  -9   70.48    2.83
   3  -1  -9   69.72    2.66
  -3   1   9   68.03    2.53
  -3   1   9   71.94    2.58
  -3   1   9   74.77    2.85
  -3   1   9   67.09    3.06
  -3   1   9   70.31    2.64
   2  -1  -9  143.20    5.06
   2  -1  -9  145.74    5.26
   2  -1  -9  143.76    5.19
   2  -1  -9  139.06    5.02
  -2   1   9  135.60    5.27
  -2   1   9  145.69    5.05
  -2   1   9  145.11    5.03
  -2   1   9  140.61    4.98
   1  -1  -9  113.28    4.24
   1  -1  -9  105.21    3.99
   1  -1  -9  115.31    4.13
   1  -1  -9  111.11    4.09
  -1   1   9  103.40    4.39
  -1   1   9  109.34    4.25
  -1   1   9  117.26    4.02
  -1   1   9  107.78    4.08
   0  -1  -9   91.99    3.44
   0  -1  -9   96.63    3.74
   0  -1  -9   92.29    3.62
   0  -1  -9   95.40    3.53
   0  -1  -9   86.03    3.77
   0   1   9   91.93    3.68
   0   1   9   91.36    3.67
   0   1   9   99.68    3.71
  -1  -1  -9   27.40    1.78
  -1  -1  -9   30.87    1.47
  -1  -1  -9   30.80    1.79
  -1  -1  -9   30.72    1.81
  -1  -1  -9   31.89    1.55
   1   1   9   31.23    1.70
   1   1   9   30.68    1.78
   1   1   9   32.08    1.77
  -2  -1  -9   70.41    3.09
  -2  -1  -9   65.90    2.67
  -2  -1  -9   63.51    2.99
  -2  -1  -9   68.31    2.65
  -2  -1  -9   64.43    3.07
   2   1   9   67.45    3.04
   2   1   9   63.27    3.02
   2   1   9   69.70    3.08
   2   1   9   66.96    2.82
  -3  -1  -9   50.23    2.69
  -3  -1  -9   52.43    2.35
  -3  -1  -9   52.64    2.25
  -3  -1  -9   53.08    2.79
  -3  -1  -9   57.49    2.92
   3   1   9   53.56    2.00
   3   1   9   56.28    2.80
   3   1   9   52.82    2.73
   3   1   9   51.88    2.75
   3   1   9   51.27    2.41
  -4  -1  -9   65.26    3.34
  -4  -1  -9   63.21    2.59
  -4  -1  -9   62.23    3.19
  -4  -1  -9   62.37    2.61
  -4  -1  -9   62.78    2.75
   4   1   9   64.23    2.51
   4   1   9   56.06    3.12
   4   1   9   61.94    3.34
   4   1   9   65.15    2.83
   8  -2  -9   55.84    2.79
   8  -2  -9   50.34    2.89
  -8   2   9   47.57    2.97
  -8   2   9   45.83    2.60
   7  -2  -9   85.24    3.52
   7  -2  -9   79.16    3.58
   7  -2  -9   79.44    3.23
  -7   2   9   79.69    3.51
  -7   2   9   77.92    3.48
  -7   2   9   81.44    3.86
   6  -2  -9   28.17    1.79
   6  -2  -9   31.14    1.88
   6  -2  -9   32.09    1.59
   6  -2  -9   32.21    2.12
  -6   2   9   34.17    1.96
  -6   2   9   31.48    2.15
  -6   2   9   30.58    1.85
  -6   2   9   31.27    1.77
   5  -2  -9   64.05    2.88
   5  -2  -9   61.97    2.73
   5  -2  -9   65.50    2.39
   5  -2  -9   59.42    2.69
  -5   2   9   60.74    2.81
  -5   2   9   59.84    2.50
  -5   2   9   64.54    2.73
  -5   2   9   59.33    2.97
   4  -2  -9   85.12    3.39
   4  -2  -9   79.31    2.88
   4  -2  -9   81.19    2.80
   4  -2  -9   77.54    3.18
   4  -2  -9   78.18    3.26
  -4   2   9   78.84    2.89
  -4   2   9   78.04    3.47
  -4   2   9   82.65    3.23
  -4   2   9   80.07    2.84
   3  -2  -9  152.80    5.45
   3  -2  -9  147.62    5.02
   3  -2  -9  125.62    5.35
   3  -2  -9  147.57    5.32
  -3   2   9  149.24    5.02
  -3   2   9  145.88    4.92
  -3   2   9  148.64    5.17
  -3   2   9  128.64    5.50
   2  -2  -9   10.62    0.91
   2  -2  -9   11.23    1.03
   2  -2  -9   11.19    1.06
   2  -2  -9   11.30    1.20
  -2   2   9   11.79    0.93
  -2   2   9   11.76    0.92
  -2   2   9   11.23    0.99
  -2   2   9    9.47    1.19
   1  -2  -9  110.82    4.51
   1  -2  -9  126.94    4.53
   1  -2  -9  128.35    4.76
   1  -2  -9  119.63    4.52
  -1   2   9  120.53    4.57
  -1   2   9  117.23    4.67
  -1   2   9  134.27    4.66
   0  -2  -9   27.33    1.81
   0  -2  -9   29.38    1.69
   0  -2  -9   29.64    1.83
   0  -2  -9   31.19    1.85
   0  -2  -9   29.87    1.54
   0   2   9   29.65    1.78
   0   2   9   28.07    1.72
   0   2   9   30.56    1.77
  -1  -2  -9   75.37    2.95
  -1  -2  -9   77.19    3.26
  -1  -2  -9   72.07    2.90
  -1  -2  -9   71.60    3.34
  -1  -2  -9   78.81    3.40
   1   2   9   73.34    3.14
   1   2   9   74.75    3.27
   1   2   9   74.22    3.33
  -2  -2  -9   38.37    1.85
  -2  -2  -9   37.92    1.79
  -2  -2  -9   40.13    2.27
  -2  -2  -9   36.17    1.97
  -2  -2  -9   35.55    2.20
  -2  -2  -9   40.47    2.43
   2   2   9   38.56    2.34
   2   2   9   36.12    1.98
   2   2   9   36.76    2.24
   2   2   9   40.37    2.34
  -3  -2  -9   98.58    3.64
  -3  -2  -9   97.97    3.75
  -3  -2  -9   95.77    3.95
  -3  -2  -9   97.03    4.28
  -3  -2  -9  105.59    4.42
   3   2   9   99.48    3.87
   3   2   9   96.68    4.41
   3   2   9   89.18    4.26
  -4  -2  -9   50.32    2.83
  -4  -2  -9   49.01    2.44
  -4  -2  -9   52.71    4.21
   4   2   9   46.68    2.82
   4   2   9   48.71    3.76
   8  -3  -9   35.90    2.61
   8  -3  -9   32.25    2.16
   8  -3  -9   37.68    2.31
  -8   3   9   30.08    2.37
  -8   3   9   29.95    2.41
   7  -3  -9   19.67    1.65
   7  -3  -9   17.40    1.38
   7  -3  -9   12.93    1.71
  -7   3   9   16.97    2.06
  -7   3   9   15.21    1.52
  -7   3   9   13.92    1.63
   6  -3  -9   72.08    3.13
   6  -3  -9   75.56    3.24
   6  -3  -9   72.20    2.75
  -6   3   9   68.40    2.91
  -6   3   9   68.55    3.24
  -6   3   9   73.12    3.21
  -6   3   9   73.43    3.55
   5  -3  -9   21.66    1.59
   5  -3  -9   24.03    1.10
   5  -3  -9   22.68    1.77
   5  -3  -9   20.85    1.44
  -5   3   9   22.18    1.84
  -5   3   9   21.70    1.58
  -5   3   9   22.49    1.21
   4  -3  -9  117.17    4.45
   4  -3  -9  117.60    4.64
   4  -3  -9  117.25    3.91
   4  -3  -9  122.43    4.20
   4  -3  -9  122.76    4.82
  -4   3   9  123.94    4.04
  -4   3   9  118.01    4.15
  -4   3   9  124.82    4.51
  -4   3   9  108.71    4.75
   3  -3  -9   15.44    1.32
   3  -3  -9   15.77    1.04
   3  -3  -9   17.31    1.18
   3  -3  -9   13.93    1.50
  -3   3   9   14.91    1.05
  -3   3   9   14.75    0.99
  -3   3   9   13.29    1.48
   2  -3  -9   82.38    3.26
   2  -3  -9   84.89    3.29
   2  -3  -9   82.98    3.37
   2  -3  -9   90.84    3.68
  -2   3   9   79.45    3.25
  -2   3   9   69.61    3.83
  -2   3   9   92.06    3.39
   1  -3  -9   54.30    2.39
   1  -3  -9   56.05    2.78
   1  -3  -9   52.04    2.35
   1  -3  -9   55.54    2.55
  -1   3   9   52.50    2.52
  -1   3   9   61.95    2.69
  -1   3   9   51.92    2.67
   0  -3  -9   99.26    3.82
   0  -3  -9   98.25    4.01
   0  -3  -9  102.99    3.80
   0  -3  -9  101.04    4.27
   0  -3  -9   97.47    4.23
   0   3   9   96.43    4.07
   0   3   9  109.79    4.22
   0   3   9   99.20    4.17
  -1  -3  -9   34.44    1.72
  -1  -3  -9   34.09    2.14
  -1  -3  -9   33.72    2.11
  -1  -3  -9   37.36    1.87
  -1  -3  -9   37.83    2.17
   1   3   9   38.63    2.40
   1   3   9   34.32    2.21
   1   3   9   33.51    2.07
  -2  -3  -9   58.96    2.61
  -2  -3  -9   55.85    3.05
  -2  -3  -9   55.03    2.99
  -2  -3  -9   60.75    2.41
   2   3   9   57.71    2.78
   2   3   9   56.12    3.07
  -3  -3  -9    8.62    2.03
   3   3   9    3.10    1.83
   7  -4  -9   51.45    2.67
   7  -4  -9   52.63    2.91
   7  -4  -9   49.92    2.28
  -7   4   9   50.71    2.53
  -7   4   9   49.76    2.76
   6  -4  -9   32.44    1.89
   6  -4  -9   29.66    1.42
   6  -4  -9   27.79    2.04
  -6   4   9   26.97    2.40
  -6   4   9   30.31    1.63
  -6   4   9   29.14    2.04
   5  -4  -9   89.47    3.00
   5  -4  -9   90.11    3.12
   5  -4  -9   87.96    3.58
   5  -4  -9   86.74    3.75
   5  -4  -9   86.84    3.91
  -5   4   9   83.53    4.02
   4  -4  -9   23.83    1.89
   4  -4  -9   26.02    1.38
   4  -4  -9   26.12    1.59
   4  -4  -9   27.91    2.22
  -4   4   9   23.52    2.05
   3  -4  -9   53.54    2.31
   3  -4  -9   49.92    2.35
   3  -4  -9   50.62    2.53
   3  -4  -9   49.88    2.87
  -3   4   9   53.95    2.25
  -3   4   9   51.48    2.34
  -3   4   9   50.58    2.80
   2  -4  -9   36.53    2.03
   2  -4  -9   41.42    2.02
   2  -4  -9   40.64    2.52
  -2   4   9   40.48    2.17
  -2   4   9   41.24    2.07
  -2   4   9   41.87    2.50
   1  -4  -9   63.88    2.77
   1  -4  -9   63.80    2.88
   1  -4  -9   62.33    2.70
  -1   4   9   62.07    2.95
  -1   4   9   66.76    3.11
   0  -4  -9   37.12    2.16
   0  -4  -9   35.39    1.83
   0  -4  -9   33.63    2.23
   0  -4  -9   38.36    2.00
   0   4   9   32.80    2.29
   0   4   9   35.23    2.22
  -1  -4  -9   55.29    2.96
  -1  -4  -9   54.94    2.98
  -1  -4  -9   57.93    2.70
  -1  -4  -9   58.89    2.45
   1   4   9   54.42    3.12
   1   4   9   56.42    2.79
   7  -5  -9   19.27    2.25
   7  -5  -9   26.39    1.97
  -7   5   9   19.52    1.87
   6  -5  -9   87.34    3.64
   6  -5  -9   82.35    3.87
   5  -5  -9   49.36    2.07
   5  -5  -9   47.41    2.44
   5  -5  -9   47.41    2.72
  -5   5   9   54.52    3.23
   4  -5  -9   48.42    2.49
   4  -5  -9   53.78    2.93
   4  -5  -9   51.15    2.34
  -4   5   9   52.36    2.26
  -4   5   9   59.00    3.27
   3  -5  -9   41.90    2.45
   3  -5  -9   45.09    2.32
   3  -5  -9   47.02    2.26
  -3   5   9   46.65    2.22
  -3   5   9   45.83    2.85
   2  -5  -9   63.53    2.88
   2  -5  -9   62.37    2.86
   2  -5  -9   64.63    2.90
  -2   5   9   63.48    2.93
  -2   5   9   61.02    3.24
  -2   5   9   63.06    3.17
   1  -5  -9   15.48    1.64
   1  -5  -9   13.09    1.51
   1  -5  -9   16.27    1.66
   1  -5  -9   12.90    1.43
  -1   5   9   16.11    1.60
  -1   5   9   14.30    1.56
   0  -5  -9   67.39    3.53
   0  -5  -9   73.87    3.54
   0  -5  -9   71.77    3.33
   0   5   9   72.04    3.50
   0   5   9   77.62    3.73
   5  -6  -9   55.38    3.04
   5  -6  -9   78.02    4.57
   5  -6  -9   67.20    3.47
   4  -6  -9    9.82    1.13
   4  -6  -9    6.99    1.23
  -4   6   9    8.82    1.05
   3  -6  -9   69.90    3.69
   3  -6  -9   74.83    3.31
  -3   6   9   75.35    3.28
  -2   9 -10   19.00    1.88
   2  -9  10   17.62    1.64
   2  -9  10   10.64    1.90
   2  -9  10   15.54    1.49
   3  -9  10   36.75    2.48
   3  -9  10   41.35    2.25
   4  -9  10   29.63    2.08
   4  -9  10   37.40    3.26
   0   8 -10   54.86    2.65
   0   8 -10   54.13    3.03
   0  -8  10   57.35    2.82
   0  -8  10   54.72    2.59
  -1   8 -10   45.60    2.43
  -1   8 -10   41.44    2.31
   1  -8  10   44.31    2.20
   1  -8  10   41.50    2.29
   1  -8  10   41.58    2.29
  -2   8 -10   65.13    2.94
  -2   8 -10   57.32    2.75
   2  -8  10   62.37    2.83
   2  -8  10   61.01    2.73
   2  -8  10   60.43    2.69
  -3   8 -10   20.10    1.39
  -3   8 -10   16.67    1.32
   3  -8  10   18.95    1.54
   3  -8  10   16.38    1.45
   3  -8  10   17.38    1.36
  -4   8 -10   66.13    3.81
  -4   8 -10   73.67    3.08
   4  -8  10   66.66    3.03
   4  -8  10   65.45    3.03
   4  -8  10   68.62    2.59
  -5   8 -10   24.97    2.68
  -5   8 -10   21.44    1.69
   5  -8  10   18.11    1.64
   5  -8  10   19.47    1.68
   2   7 -10   20.60    1.66
   2   7 -10   25.37    2.26
  -2  -7  10   16.17    1.92
  -2  -7  10   21.61    1.94
   1   7 -10   58.51    2.53
   1   7 -10   50.22    2.68
   1   7 -10   55.24    2.86
  -1  -7  10   51.36    2.49
  -1  -7  10   52.78    2.64
   0   7 -10   31.52    1.81
   0   7 -10   25.35    1.83
   0  -7  10   30.10    1.79
   0  -7  10   28.97    1.72
   0  -7  10   30.15    1.78
  -1   7 -10   43.66    2.25
  -1   7 -10   48.09    2.31
   1  -7  10   45.35    2.14
   1  -7  10   46.58    3.11
   1  -7  10   43.44    2.20
   1  -7  10   43.03    2.17
  -2   7 -10   10.03    1.33
  -2   7 -10   14.43    1.19
  -2   7 -10   13.61    1.08
   2  -7  10   11.03    1.14
   2  -7  10   12.04    1.11
   2  -7  10   11.39    1.14
   2  -7  10   12.83    1.51
  -3   7 -10   43.60    2.32
  -3   7 -10   35.93    2.55
  -3   7 -10   43.36    1.87
  -3   7 -10   43.59    2.06
   3  -7  10   42.78    2.48
   3  -7  10   39.70    2.05
   3  -7  10   42.02    2.05
   3  -7  10   49.60    3.87
   3  -7  10   40.58    1.80
  -4   7 -10   54.31    3.08
  -4   7 -10   52.05    2.50
   4  -7  10   50.40    2.39
   4  -7  10   50.92    1.92
   4  -7  10   51.01    2.45
  -5   7 -10   93.17    4.56
  -5   7 -10   93.92    3.95
   5  -7  10   98.22    3.84
   5  -7  10   87.46    3.70
   5  -7  10   87.49    4.21
   5  -7  10   93.96    3.41
  -6   7 -10   26.45    2.97
  -6   7 -10   26.80    2.01
   6  -7  10   25.48    1.97
   6  -7  10   28.70    1.68
   3   6 -10   20.32    2.07
   3   6 -10   19.77    1.61
   3   6 -10   19.67    1.52
  -3  -6  10   23.80    1.93
  -3  -6  10   21.25    1.60
   2   6 -10   55.67    2.61
   2   6 -10   53.24    2.47
   2   6 -10   51.72    2.84
  -2  -6  10   54.24    2.63
  -2  -6  10   55.05    2.99
  -2  -6  10   52.64    2.50
   1   6 -10   31.62    1.93
   1   6 -10   32.42    1.77
  -1  -6  10   31.85    1.77
  -1  -6  10   26.31    1.97
  -1  -6  10   31.84    1.83
  -1  -6  10   32.69    2.15
   0   6 -10   65.00    2.76
   0   6 -10   60.65    2.79
   0  -6  10   68.00    2.71
   0  -6  10   62.67    2.70
   0  -6  10   62.89    3.06
   0  -6  10   63.30    2.85
  -1   6 -10   48.48    2.04
  -1   6 -10   47.78    2.63
  -1   6 -10   48.14    2.24
  -1   6 -10   53.22    2.38
   1  -6  10   55.07    2.23
   1  -6  10   46.19    2.19
   1  -6  10   54.04    2.67
   1  -6  10   51.12    2.31
  -2   6 -10   85.87    3.28
  -2   6 -10   89.83    3.32
  -2   6 -10   83.18    3.81
  -2   6 -10   86.89    3.49
   2  -6  10   87.77    3.43
   2  -6  10   86.14    3.35
   2  -6  10   81.63    3.39
   2  -6  10   87.39    3.74
  -3   6 -10   22.60    1.89
  -3   6 -10   23.59    1.60
  -3   6 -10   23.92    1.47
  -3   6 -10   22.42    1.17
   3  -6  10   21.52    1.40
   3  -6  10   22.03    1.64
   3  -6  10   23.24    1.13
   3  -6  10   23.06    1.77
   3  -6  10   21.88    1.36
  -4   6 -10   65.70    2.46
  -4   6 -10   62.51    2.87
  -4   6 -10   61.28    2.85
  -4   6 -10   61.25    3.25
  -4   6 -10   61.00    2.17
   4  -6  10   61.57    3.12
   4  -6  10   62.14    3.19
   4  -6  10   61.72    2.15
   4  -6  10   62.06    2.90
   4  -6  10   62.66    2.73
   4  -6  10   62.31    2.37
   4  -6  10   62.19    2.62
  -5   6 -10   29.75    2.45
  -5   6 -10   30.13    1.73
  -5   6 -10   24.85    1.79
   5  -6  10   26.57    2.02
   5  -6  10   23.40    1.67
   5  -6  10   23.93    1.98
   5  -6  10   26.89    1.46
  -6   6 -10   33.72    2.25
  -6   6 -10   34.04    2.33
  -6   6 -10   31.86    2.97
   6  -6  10   32.13    2.06
   6  -6  10   34.79    2.32
   6  -6  10   34.34    1.96
   4   5 -10   19.35    1.40
   4   5 -10   20.42    2.06
   4   5 -10   18.15    1.66
  -4  -5  10   18.97    1.48
  -4  -5  10   17.71    1.86
  -4  -5  10   17.84    2.02
   3   5 -10   53.89    2.85
   3   5 -10   56.96    2.55
   3   5 -10   56.66    2.60
  -3  -5  10   51.66    2.66
  -3  -5  10   56.39    2.57
  -3  -5  10   56.94    2.81
   2   5 -10   27.50    1.68
   2   5 -10   26.56    1.77
   2   5 -10   29.18    1.68
  -2  -5  10   24.52    1.60
  -2  -5  10   25.87    1.62
  -2  -5  10   25.03    1.60
  -2  -5  10   25.91    1.82
   1   5 -10   94.44    3.49
   1   5 -10   80.25    3.48
  -1  -5  10   84.90    3.41
  -1  -5  10   87.42    3.40
  -1  -5  10   82.71    3.36
  -1  -5  10   83.93    3.59
   0   5 -10   32.18    1.95
   0   5 -10   34.20    1.77
   0   5 -10   32.12    1.45
   0   5 -10   29.45    1.72
   0  -5  10   33.36    1.73
   0  -5  10   33.08    1.63
   0  -5  10   32.27    1.91
  -1   5 -10   65.64    2.82
  -1   5 -10   72.57    2.78
  -1   5 -10   71.75    3.22
  -1   5 -10   74.61    2.99
   1  -5  10   71.51    2.75
   1  -5  10   70.55    2.82
   1  -5  10   73.67    3.16
  -2   5 -10   28.90    1.92
  -2   5 -10   29.45    1.58
  -2   5 -10   31.71    1.69
  -2   5 -10   30.17    1.47
   2  -5  10   28.22    1.58
   2  -5  10   29.82    1.48
   2  -5  10   28.43    1.81
   2  -5  10   29.78    1.69
   2  -5  10   29.96    1.36
  -3   5 -10  133.26    5.37
  -3   5 -10  135.82    4.65
  -3   5 -10  137.27    4.69
  -3   5 -10  134.23    5.04
  -3   5 -10  136.04    5.08
   3  -5  10  141.19    5.29
   3  -5  10  137.02    4.65
   3  -5  10  133.04    4.57
   3  -5  10  139.94    5.04
   3  -5  10  130.76    5.32
   3  -5  10  132.29    4.97
  -4   5 -10   23.53    1.62
  -4   5 -10   26.99    1.50
  -4   5 -10   23.05    0.96
  -4   5 -10   24.94    2.00
  -4   5 -10   25.77    1.67
   4  -5  10   25.97    1.65
   4  -5  10   22.42    1.82
   4  -5  10   23.31    1.29
   4  -5  10   23.56    1.79
   4  -5  10   24.94    1.51
  -5   5 -10   83.47    3.41
  -5   5 -10   80.59    3.99
  -5   5 -10   74.63    3.52
   5  -5  10   81.12    3.21
   5  -5  10   76.03    3.64
   5  -5  10   79.84    3.42
   5  -5  10   80.16    3.34
   5  -5  10   82.52    4.31
  -6   5 -10   45.35    2.65
  -6   5 -10   45.15    2.64
  -6   5 -10   42.45    3.25
   6  -5  10   41.16    2.58
   6  -5  10   43.33    2.36
   6  -5  10   47.92    2.38
   5   4 -10   22.00    2.07
   5   4 -10   18.00    1.59
   5   4 -10   18.99    1.36
   5   4 -10   20.26    1.82
  -5  -4  10   18.47    1.71
  -5  -4  10   19.27    1.85
  -5  -4  10   19.23    1.98
  -5  -4  10   19.41    1.49
   4   4 -10   59.37    2.53
   4   4 -10   56.86    2.37
   4   4 -10   65.05    2.82
   4   4 -10   59.82    2.94
   4   4 -10   56.10    2.97
  -4  -4  10   56.52    2.75
  -4  -4  10   53.23    2.94
  -4  -4  10   59.20    2.84
   3   4 -10   53.81    2.44
   3   4 -10   49.68    1.89
   3   4 -10   52.60    2.47
   3   4 -10   51.38    1.92
   3   4 -10   48.84    2.57
  -3  -4  10   53.27    2.44
  -3  -4  10   55.43    2.52
  -3  -4  10   49.72    2.41
  -3  -4  10   54.36    2.48
   2   4 -10   72.80    2.88
   2   4 -10   62.99    2.98
   2   4 -10   69.70    2.95
   2   4 -10   67.75    2.52
  -2  -4  10   72.64    2.89
  -2  -4  10   67.53    3.52
  -2  -4  10   67.29    2.96
  -2  -4  10   72.18    2.94
   1   4 -10   24.38    1.52
   1   4 -10   28.40    1.66
   1   4 -10   25.40    1.59
   1   4 -10   25.96    1.31
  -1  -4  10   29.72    1.67
  -1  -4  10   24.43    1.49
  -1  -4  10   26.03    1.42
  -1  -4  10   25.79    1.40
   0   4 -10  146.67    5.23
   0   4 -10  143.66    5.05
   0   4 -10  137.04    5.15
   0   4 -10  140.19    5.36
   0  -4  10  147.10    5.04
   0  -4  10  151.18    5.36
   0  -4  10  135.15    4.99
   0  -4  10  141.78    5.19
  -1   4 -10   18.07    0.79
  -1   4 -10   15.77    1.10
  -1   4 -10   16.61    1.14
  -1   4 -10   15.82    1.36
  -1   4 -10   18.99    1.27
   1  -4  10   17.48    1.00
   1  -4  10   18.49    1.38
   1  -4  10   15.88    1.17
   1  -4  10   16.77    1.00
  -2   4 -10  152.34    5.36
  -2   4 -10  150.43    5.39
  -2   4 -10  144.73    6.28
  -2   4 -10  151.61    5.03
  -2   4 -10  136.80    5.08
   2  -4  10  137.12    5.47
   2  -4  10  152.30    5.53
   2  -4  10  149.35    5.26
   2  -4  10  144.14    5.09
   2  -4  10  147.89    5.00
   2  -4  10  144.88    5.58
  -3   4 -10   72.47    3.11
  -3   4 -10   79.83    3.00
  -3   4 -10   75.48    3.24
  -3   4 -10   75.13    3.51
  -3   4 -10   74.33    2.80
   3  -4  10   82.23    3.40
   3  -4  10   75.53    2.69
   3  -4  10   77.61    3.12
   3  -4  10   77.90    3.08
   3  -4  10   80.67    3.50
   3  -4  10   74.32    2.89
   3  -4  10   77.35    2.92
  -4   4 -10   56.23    2.59
  -4   4 -10   55.92    2.73
  -4   4 -10   58.30    2.54
  -4   4 -10   54.96    2.02
  -4   4 -10   58.75    3.02
   4  -4  10   50.80    2.46
   4  -4  10   62.37    2.88
   4  -4  10   52.92    2.78
   4  -4  10   56.78    2.39
   4  -4  10   60.28    2.54
  -5   4 -10   13.64    1.54
  -5   4 -10   13.97    1.37
  -5   4 -10   12.98    1.39
  -5   4 -10   15.86    1.92
   5  -4  10   12.13    1.40
   5  -4  10   13.32    1.71
   5  -4  10   14.11    1.28
   5  -4  10   13.92    1.48
  -6   4 -10   37.98    2.42
  -6   4 -10   39.27    2.67
  -6   4 -10   38.68    2.97
   6  -4  10   43.40    2.49
   6  -4  10   37.47    2.25
   6  -4  10   37.32    2.39
   6  -4  10   40.19    2.23
   6   3 -10   25.81    2.24
   6   3 -10   26.14    1.99
   6   3 -10   20.85    2.10
  -6  -3  10   22.63    1.94
  -6  -3  10   22.13    2.14
  -6  -3  10   19.83    1.45
   5   3 -10   49.87    2.83
   5   3 -10   56.43    2.44
   5   3 -10   51.26    2.65
  -5  -3  10   52.86    2.52
  -5  -3  10   53.75    2.75
  -5  -3  10   56.30    2.30
  -5  -3  10   57.19    2.69
   4   3 -10   38.75    2.18
   4   3 -10   37.24    1.97
   4   3 -10   35.89    1.72
   4   3 -10   40.71    2.08
  -4  -3  10   35.56    2.09
  -4  -3  10   38.06    2.07
  -4  -3  10   39.42    1.99
  -4  -3  10   36.90    2.03
   3   3 -10   89.71    3.47
   3   3 -10   81.95    3.47
   3   3 -10   82.19    3.01
   3   3 -10   82.85    3.27
  -3  -3  10   82.33    3.44
  -3  -3  10   82.36    3.32
  -3  -3  10   83.15    3.32
  -3  -3  10   84.79    3.35
   2   3 -10   19.56    1.40
   2   3 -10   19.80    1.32
   2   3 -10   19.67    0.99
   2   3 -10   22.34    1.26
   2   3 -10   19.99    0.93
   2   3 -10   19.75    1.33
   2   3 -10   21.33    1.22
  -2  -3  10   18.52    1.18
  -2  -3  10   20.53    1.36
  -2  -3  10   21.33    1.27
  -2  -3  10   17.73    1.34
   1   3 -10   56.82    2.47
   1   3 -10   57.74    2.54
   1   3 -10   58.10    2.38
   1   3 -10   58.17    2.50
   1   3 -10   56.04    2.10
   1   3 -10   55.69    2.04
  -1  -3  10   53.89    2.25
  -1  -3  10   58.51    2.51
  -1  -3  10   61.87    2.39
  -1  -3  10   54.72    2.47
   0   3 -10   43.50    2.00
   0   3 -10   45.46    2.08
   0   3 -10   43.45    2.03
   0   3 -10   45.18    2.17
   0   3 -10   43.84    1.76
   0  -3  10   42.67    2.05
   0  -3  10   47.02    2.17
   0  -3  10   44.77    1.82
   0  -3  10   46.91    1.91
  -1   3 -10   81.58    3.00
  -1   3 -10   82.57    3.43
  -1   3 -10   78.86    3.12
  -1   3 -10   81.27    3.24
  -1   3 -10   81.14    3.29
   1  -3  10   80.79    2.96
   1  -3  10   85.03    3.00
   1  -3  10   83.19    3.37
   1  -3  10   80.62    3.23
   1  -3  10   78.18    3.36
   1  -3  10   80.36    3.07
  -2   3 -10   75.29    3.21
  -2   3 -10   77.25    2.97
  -2   3 -10   78.76    3.11
  -2   3 -10   74.33    2.92
  -2   3 -10   71.13    3.39
   2  -3  10   80.01    3.27
   2  -3  10   75.94    3.32
   2  -3  10   75.03    2.80
   2  -3  10   74.53    2.89
   2  -3  10   75.29    3.21
   2  -3  10   79.10    2.95
   2  -3  10   77.78    2.76
  -3   3 -10   48.22    2.15
  -3   3 -10   45.46    2.32
  -3   3 -10   42.90    2.45
  -3   3 -10   43.40    1.90
  -3   3 -10   45.43    2.12
   3  -3  10   45.21    2.03
   3  -3  10   47.73    2.03
   3  -3  10   45.27    2.38
   3  -3  10   43.61    2.12
   3  -3  10   46.43    2.33
  -4   3 -10   18.36    1.52
  -4   3 -10   17.52    1.37
  -4   3 -10   20.41    1.07
  -4   3 -10   21.13    1.80
  -4   3 -10   18.20    1.52
   4  -3  10   17.50    1.35
   4  -3  10   21.92    1.39
   4  -3  10   20.03    1.64
   4  -3  10   20.27    1.40
   4  -3  10   19.45    1.56
  -5   3 -10   71.84    3.10
  -5   3 -10   69.43    3.39
  -5   3 -10   68.17    3.59
  -5   3 -10   75.89    3.38
   5  -3  10   76.37    3.10
   5  -3  10   66.46    3.32
   5  -3  10   69.69    3.05
   5  -3  10   70.39    3.15
  -6   3 -10   21.43    2.50
   6  -3  10   18.91    1.89
   6  -3  10   17.37    2.16
   6  -3  10   19.06    1.92
   6  -3  10   18.82    1.70
   6   2 -10   50.78    2.75
   6   2 -10   52.37    2.75
  -6  -2  10   50.77    2.70
  -6  -2  10   47.29    2.27
  -6  -2  10   48.71    2.05
  -6  -2  10   48.61    2.74
   5   2 -10   25.33    1.68
   5   2 -10   28.48    1.93
   5   2 -10   29.41    1.57
   5   2 -10   25.92    1.78
  -5  -2  10   27.79    1.82
  -5  -2  10   26.59    1.50
  -5  -2  10   29.22    1.89
  -5  -2  10   24.97    1.31
  -5  -2  10   23.84    1.80
   4   2 -10   70.63    2.85
   4   2 -10   64.44    2.71
   4   2 -10   68.08    3.00
   4   2 -10   68.90    3.05
  -4  -2  10   69.40    3.00
  -4  -2  10   74.52    2.81
  -4  -2  10   71.85    3.12
  -4  -2  10   72.49    2.97
   3   2 -10   40.24    1.96
   3   2 -10   35.67    1.90
   3   2 -10   34.74    1.60
   3   2 -10   35.50    1.75
   3   2 -10   35.37    1.68
  -3  -2  10   38.66    1.77
  -3  -2  10   37.74    2.00
  -3  -2  10   38.86    1.77
  -3  -2  10   35.79    1.81
   2   2 -10  151.47    5.31
   2   2 -10  135.01    4.92
   2   2 -10  142.39    5.20
   2   2 -10  148.32    5.26
   2   2 -10  149.97    5.02
   2   2 -10  151.60    5.26
   2   2 -10  147.74    5.05
  -2  -2  10  139.93    5.30
  -2  -2  10  140.25    5.13
  -2  -2  10  138.84    5.38
  -2  -2  10  141.85    5.04
   1   2 -10   40.68    1.96
   1   2 -10   41.36    1.92
   1   2 -10   38.94    1.72
   1   2 -10   41.30    1.90
   1   2 -10   38.45    1.89
  -1  -2  10   41.02    1.82
  -1  -2  10   40.47    1.67
  -1  -2  10   39.86    1.91
  -1  -2  10   41.07    1.99
  -1  -2  10   42.46    1.95
   0   2 -10   97.78    3.89
   0   2 -10  109.00    3.88
   0   2 -10  102.17    3.78
   0   2 -10   99.87    3.94
   0   2 -10  101.65    3.68
   0  -2  10  100.06    3.52
   0  -2  10   98.04    3.91
   0  -2  10   96.29    3.84
   0  -2  10   99.15    3.88
   0  -2  10  103.81    3.67
  -1   2 -10   42.92    1.99
  -1   2 -10   44.06    1.94
  -1   2 -10   43.09    2.18
  -1   2 -10   43.65    2.14
  -1   2 -10   43.79    1.90
   1  -2  10   42.42    1.67
   1  -2  10   43.52    2.04
   1  -2  10   41.60    1.77
   1  -2  10   43.67    1.77
   1  -2  10   43.59    2.14
   1  -2  10   41.26    2.12
  -2   2 -10  104.87    4.09
  -2   2 -10  112.22    4.06
  -2   2 -10  105.16    4.25
  -2   2 -10  104.67    3.84
   2  -2  10  104.85    4.26
   2  -2  10  103.89    3.96
   2  -2  10  113.50    4.24
   2  -2  10  100.19    3.67
   2  -2  10  107.07    3.72
   2  -2  10  107.89    3.80
   2  -2  10  103.80    4.03
  -3   2 -10   36.15    1.95
  -3   2 -10   33.70    2.10
  -3   2 -10   33.88    1.57
  -3   2 -10   31.53    1.98
  -3   2 -10   36.62    1.78
   3  -2  10   38.09    2.05
   3  -2  10   36.50    1.65
   3  -2  10   33.90    1.81
   3  -2  10   32.23    1.99
   3  -2  10   32.42    1.80
  -4   2 -10  117.36    4.81
  -4   2 -10  115.24    4.84
  -4   2 -10  117.01    4.41
  -4   2 -10  115.51    4.11
  -4   2 -10  113.21    4.06
  -4   2 -10  122.29    4.71
   4  -2  10  115.84    4.76
   4  -2  10  120.27    4.33
   4  -2  10  112.14    4.45
   4  -2  10  117.32    4.58
   4  -2  10  118.96    4.69
  -5   2 -10   53.68    3.12
  -5   2 -10   51.78    2.88
  -5   2 -10   53.06    2.56
  -5   2 -10   56.99    3.04
  -5   2 -10   54.34    2.16
  -5   2 -10   53.79    2.11
   5  -2  10   53.22    2.86
   5  -2  10   58.98    2.59
   5  -2  10   56.05    2.82
   5  -2  10   53.65    2.60
  -6   2 -10   62.64    3.72
  -6   2 -10   56.40    3.17
   6  -2  10   59.39    3.11
   6  -2  10   61.07    3.09
   6  -2  10   59.64    3.23
   6  -2  10   56.85    2.95
   7   1 -10   60.55    3.13
   7   1 -10   58.69    2.90
  -7  -1  10   54.75    3.08
  -7  -1  10   53.10    3.12
   6   1 -10   30.95    1.90
   6   1 -10   27.63    2.00
   6   1 -10   27.97    1.78
   6   1 -10   25.79    2.11
  -6  -1  10   29.74    2.09
  -6  -1  10   26.34    1.24
  -6  -1  10   28.61    1.17
  -6  -1  10   25.81    1.90
   5   1 -10   69.88    2.89
   5   1 -10   69.60    2.86
   5   1 -10   66.68    3.05
   5   1 -10   75.16    3.18
  -5  -1  10   70.51    3.05
  -5  -1  10   65.36    2.62
  -5  -1  10   68.23    2.60
  -5  -1  10   70.49    3.01
  -5  -1  10   70.94    3.19
   4   1 -10   17.34    1.41
   4   1 -10   19.49    1.15
   4   1 -10   16.16    1.34
   4   1 -10   18.69    1.16
  -4  -1  10   17.46    1.47
  -4  -1  10   17.01    1.07
  -4  -1  10   17.18    1.22
  -4  -1  10   16.13    1.27
  -4  -1  10   16.76    1.07
   3   1 -10  120.18    4.49
   3   1 -10  122.00    4.46
   3   1 -10  132.92    4.42
   3   1 -10  128.40    4.60
   3   1 -10  126.83    4.72
  -3  -1  10  116.95    4.86
  -3  -1  10  121.23    4.47
  -3  -1  10  125.87    4.46
  -3  -1  10  134.04    4.64
  -3  -1  10  126.50    4.49
   2   1 -10   43.87    1.87
   2   1 -10   46.91    2.05
   2   1 -10   43.64    2.11
   2   1 -10   44.72    2.08
   2   1 -10   45.06    2.03
  -2  -1  10   42.09    1.80
  -2  -1  10   45.64    2.20
  -2  -1  10   47.27    2.01
  -2  -1  10   44.81    1.99
  -2  -1  10   44.81    1.96
   1   1 -10  106.67    4.10
   1   1 -10  107.01    4.10
   1   1 -10  106.44    4.04
   1   1 -10  111.00    4.03
   1   1 -10  110.18    4.22
  -1  -1  10  109.61    3.76
  -1  -1  10  104.81    4.05
  -1  -1  10  116.28    4.11
  -1  -1  10  113.74    4.00
  -1  -1  10  103.47    4.16
   0   1 -10   67.16    2.72
   0   1 -10   62.64    2.58
   0   1 -10   67.75    2.68
   0   1 -10   63.62    2.81
   0   1 -10   64.08    2.76
   0  -1  10   63.31    2.74
   0  -1  10   67.25    2.53
   0  -1  10   64.12    2.75
   0  -1  10   63.90    2.35
   0  -1  10   63.58    2.30
   0  -1  10   66.50    2.77
  -1   1 -10  178.58    6.69
  -1   1 -10  177.92    6.63
  -1   1 -10  182.75    6.35
  -1   1 -10  191.89    6.54
  -1   1 -10  190.79    6.49
   1  -1  10  180.26    6.24
   1  -1  10  177.41    6.51
   1  -1  10  200.60    6.68
   1  -1  10  181.07    6.06
   1  -1  10  181.37    6.65
   1  -1  10  183.87    6.13
  -2   1 -10   27.38    1.30
  -2   1 -10   24.17    1.44
  -2   1 -10   24.28    1.64
  -2   1 -10   26.35    1.61
  -2   1 -10   21.33    1.63
   2  -1  10   22.33    1.48
   2  -1  10   23.11    1.04
   2  -1  10   23.75    1.50
   2  -1  10   25.33    1.18
   2  -1  10   25.15    1.65
   2  -1  10   24.36    1.65
  -3   1 -10   87.37    3.45
  -3   1 -10   82.20    3.79
  -3   1 -10   87.55    3.85
  -3   1 -10   88.31    3.27
  -3   1 -10   94.57    3.78
   3  -1  10   88.18    3.67
   3  -1  10   87.43    3.55
   3  -1  10   90.34    3.72
   3  -1  10   89.01    3.26
   3  -1  10   85.78    3.77
  -4   1 -10   25.68    1.92
  -4   1 -10   28.46    1.44
  -4   1 -10   28.10    2.14
  -4   1 -10   31.35    2.31
  -4   1 -10   29.40    1.50
  -4   1 -10   28.93    1.67
   4  -1  10   28.05    1.61
   4  -1  10   29.84    1.98
   4  -1  10   27.83    1.74
   4  -1  10   27.81    1.91
  -5   1 -10   72.05    3.67
  -5   1 -10   77.88    2.88
  -5   1 -10   73.61    3.16
  -5   1 -10   76.03    3.82
   5  -1  10   65.87    3.60
   5  -1  10   73.58    3.26
   5  -1  10   76.04    3.19
   5  -1  10   77.39    3.65
   7   0 -10   36.42    2.29
   7   0 -10   40.62    2.44
  -7   0  10   38.56    2.62
  -7   0  10   37.56    2.50
  -7   0  10   37.15    2.02
   6   0 -10  101.43    4.16
   6   0 -10  108.43    4.04
   6   0 -10  106.32    4.39
   6   0 -10  104.19    4.28
  -6   0  10  103.65    4.18
  -6   0  10  107.37    4.47
   5   0 -10   23.82    1.39
   5   0 -10   25.15    1.79
   5   0 -10   26.65    1.66
   5   0 -10   25.13    1.55
  -5   0  10   24.21    1.51
  -5   0  10   22.18    1.78
  -5   0  10   26.35    1.66
  -5   0  10   24.02    1.07
   4   0 -10   55.52    2.37
   4   0 -10   59.29    2.64
   4   0 -10   58.47    2.54
   4   0 -10   54.54    2.18
   4   0 -10   54.55    2.16
  -4   0  10   52.97    2.05
  -4   0  10   52.22    2.26
  -4   0  10   56.70    2.72
  -4   0  10   53.16    2.13
  -4   0  10   56.31    2.44
   3   0 -10   30.74    1.67
   3   0 -10   29.13    1.62
   3   0 -10   27.79    2.01
   3   0 -10   29.00    1.25
   3   0 -10   27.15    1.45
   3   0 -10   28.91    1.41
  -3   0  10   27.50    2.20
  -3   0  10   26.60    1.32
  -3   0  10   29.63    1.53
  -3   0  10   27.94    1.40
   2   0 -10   97.64    3.69
   2   0 -10  103.05    3.85
   2   0 -10   97.97    3.81
   2   0 -10   95.17    3.72
  -2   0  10  100.61    3.67
  -2   0  10  102.81    3.71
  -2   0  10   92.53    3.38
  -2   0  10   92.65    3.92
  -2   0  10  100.88    3.64
   1   0 -10   56.48    2.43
   1   0 -10   60.96    2.58
   1   0 -10   59.01    2.71
   1   0 -10   62.09    2.56
   1   0 -10   56.76    2.50
  -1   0  10   61.57    2.41
  -1   0  10   56.71    2.05
  -1   0  10   55.74    2.47
  -1   0  10   59.43    2.05
  -1   0  10   62.84    2.54
  -1   0  10   60.14    2.66
   0   0 -10   61.82    2.65
   0   0 -10   57.87    2.44
   0   0 -10   60.23    2.65
   0   0 -10   62.52    2.56
   0   0 -10   55.99    2.73
   0   0  10   61.60    2.65
   0   0  10   61.74    2.64
   0   0  10   58.69    2.66
   0   0  10   63.67    2.43
  -1   0 -10   18.88    1.13
  -1   0 -10   18.06    1.42
  -1   0 -10   18.36    1.21
  -1   0 -10   19.64    1.44
   1   0  10   20.34    1.38
   1   0  10   19.17    1.42
   1   0  10   19.05    1.41
  -2   0 -10   36.42    2.15
  -2   0 -10   40.26    2.17
  -2   0 -10   35.77    2.09
  -2   0 -10   39.54    1.73
  -2   0 -10   39.37    1.88
   2   0  10   38.16    2.12
   2   0  10   38.09    2.08
   2   0  10   36.08    1.45
   2   0  10   38.11    2.00
   2   0  10   34.46    2.05
   2   0  10   36.47    1.36
  -3   0 -10   18.03    1.29
  -3   0 -10   18.15    1.57
  -3   0 -10   19.25    1.31
  -3   0 -10   16.49    1.82
  -3   0 -10   14.90    1.61
  -3   0 -10   17.87    1.18
   3   0  10   18.70    1.56
   3   0  10   17.64    1.44
   3   0  10   20.98    1.65
   3   0  10   18.19    1.71
   3   0  10   19.46    1.06
  -4   0 -10   66.32    2.81
  -4   0 -10   65.59    2.67
  -4   0 -10   66.07    3.37
  -4   0 -10   64.06    3.30
  -4   0 -10   62.15    2.74
   4   0  10   62.80    3.24
   4   0  10   67.05    2.97
   4   0  10   66.94    2.63
   4   0  10   66.74    3.34
  -5   0 -10   41.81    2.12
  -5   0 -10   47.58    4.57
   5   0  10   39.06    2.96
   7  -1 -10   49.56    2.74
   7  -1 -10   53.61    2.54
   7  -1 -10   51.29    2.74
  -7   1  10   48.50    2.67
  -7   1  10   52.39    2.56
  -7   1  10   52.32    3.07
   6  -1 -10   11.64    1.42
   6  -1 -10   11.58    1.36
   6  -1 -10   12.76    1.18
  -6   1  10   12.99    1.40
  -6   1  10   12.02    1.20
  -6   1  10   14.60    1.77
   5  -1 -10   53.69    2.53
   5  -1 -10   55.24    2.51
   5  -1 -10   55.74    2.21
   5  -1 -10   56.66    2.75
  -5   1  10   53.06    2.51
  -5   1  10   55.25    2.81
  -5   1  10   52.28    2.33
   4  -1 -10   59.54    2.61
   4  -1 -10   61.07    2.25
   4  -1 -10   59.17    2.29
   4  -1 -10   59.81    2.65
   4  -1 -10   60.10    2.77
  -4   1  10   57.67    2.34
  -4   1  10   58.92    2.26
  -4   1  10   64.27    2.64
  -4   1  10   58.81    2.88
   3  -1 -10   45.11    2.23
   3  -1 -10   45.86    1.96
   3  -1 -10   47.55    2.31
   3  -1 -10   43.13    2.09
   3  -1 -10   45.46    1.65
  -3   1  10   44.07    1.91
  -3   1  10   45.48    1.73
  -3   1  10   43.10    2.36
  -3   1  10   47.11    2.11
   2  -1 -10   47.27    2.68
   2  -1 -10   59.90    2.56
   2  -1 -10   56.88    2.38
   2  -1 -10   58.05    2.62
  -2   1  10   57.61    2.37
  -2   1  10   56.47    2.31
   1  -1 -10  161.06    5.64
   1  -1 -10  156.35    5.62
   1  -1 -10  148.86    5.73
   1  -1 -10  159.11    5.77
  -1   1  10  148.87    5.78
  -1   1  10  155.98    5.50
  -1   1  10  162.71    5.66
  -1   1  10  155.98    5.61
   0  -1 -10   40.84    2.22
   0  -1 -10   40.74    2.08
   0  -1 -10   36.73    2.01
   0  -1 -10   44.18    2.00
   0  -1 -10   42.81    2.20
   0   1  10   44.41    2.19
   0   1  10   42.61    2.12
   0   1  10   43.57    2.16
  -1  -1 -10  109.21    4.38
  -1  -1 -10  105.19    4.27
  -1  -1 -10  100.19    4.39
  -1  -1 -10  106.83    4.05
   1   1  10  120.99    4.41
   1   1  10  107.71    4.24
   1   1  10  106.73    4.37
  -2  -1 -10   50.76    2.84
  -2  -1 -10   53.86    2.31
  -2  -1 -10   56.70    2.39
  -2  -1 -10   54.58    2.73
  -2  -1 -10   51.33    2.75
   2   1  10   53.40    2.71
   2   1  10   54.93    2.84
   2   1  10   49.04    2.79
   2   1  10   55.20    2.76
  -3  -1 -10  113.74    4.22
  -3  -1 -10  120.57    4.28
  -3  -1 -10  111.16    4.80
  -3  -1 -10  113.73    4.35
  -3  -1 -10  112.28    4.83
   3   1  10  106.72    4.77
   3   1  10  114.18    4.48
   3   1  10  113.28    3.79
   3   1  10  118.22    4.87
  -4  -1 -10   32.58    2.31
  -4  -1 -10   37.06    1.91
  -4  -1 -10   37.58    2.31
  -4  -1 -10   31.58    2.69
  -4  -1 -10   35.19    2.22
   4   1  10   36.78    2.81
   4   1  10   35.70    2.20
   4   1  10   33.22    2.36
   7  -2 -10   23.70    2.13
   7  -2 -10   28.87    1.75
   7  -2 -10   28.87    2.05
  -7   2  10   27.30    1.87
  -7   2  10   26.95    1.98
  -7   2  10   24.52    2.38
   6  -2 -10   66.76    3.13
   6  -2 -10   69.33    2.73
   6  -2 -10   68.58    3.09
  -6   2  10   71.08    3.51
  -6   2  10   67.93    2.89
   5  -2 -10   56.39    2.86
   5  -2 -10   53.54    2.63
   5  -2 -10   58.88    2.67
   5  -2 -10   58.87    2.24
  -5   2  10   57.53    2.99
  -5   2  10   63.83    2.77
  -5   2  10   57.04    2.37
   4  -2 -10  166.32    6.04
   4  -2 -10  171.67    6.32
   4  -2 -10  174.29    6.24
   4  -2 -10  164.43    5.72
   4  -2 -10  167.18    5.52
   4  -2 -10  163.08    6.06
  -4   2  10  156.72    6.32
  -4   2  10  177.15    6.09
  -4   2  10  168.04    5.59
  -4   2  10  166.82    5.68
   3  -2 -10   21.61    1.56
   3  -2 -10   19.16    1.68
   3  -2 -10   19.26    1.34
   3  -2 -10   23.37    1.26
  -3   2  10   23.43    1.26
  -3   2  10   19.93    1.67
  -3   2  10   17.59    1.35
  -3   2  10   20.53    1.17
   2  -2 -10   99.83    3.89
   2  -2 -10   99.77    4.08
   2  -2 -10   92.00    3.73
   2  -2 -10   98.45    3.74
  -2   2  10   96.32    4.08
  -2   2  10  104.98    3.80
  -2   2  10   95.34    3.70
   1  -2 -10   24.94    1.51
   1  -2 -10   24.13    1.78
   1  -2 -10   24.49    1.42
   1  -2 -10   25.62    1.55
  -1   2  10   26.87    1.65
  -1   2  10   21.29    1.70
  -1   2  10   25.12    1.51
   0  -2 -10   98.11    3.83
   0  -2 -10  101.37    4.23
   0  -2 -10   92.85    4.20
   0  -2 -10  104.14    3.88
   0  -2 -10   98.49    4.03
   0   2  10  100.33    4.11
   0   2  10  113.57    4.22
  -1  -2 -10   32.37    2.24
  -1  -2 -10   33.29    2.02
  -1  -2 -10   31.23    1.68
  -1  -2 -10   28.67    1.66
  -1  -2 -10   29.14    1.99
   1   2  10   32.21    2.03
   1   2  10   34.36    2.23
  -2  -2 -10   51.57    2.85
  -2  -2 -10   51.94    2.64
  -2  -2 -10   49.45    2.79
  -2  -2 -10   54.01    2.33
  -2  -2 -10   50.22    2.35
   2   2  10   51.01    2.81
  -3  -2 -10   21.50    1.93
  -3  -2 -10   23.41    2.35
  -3  -2 -10   29.83    1.79
   3   2  10   21.21    2.06
   3   2  10   25.86    2.44
   3   2  10   22.44    2.38
   7  -3 -10   29.56    2.15
   7  -3 -10   30.49    2.31
   7  -3 -10   30.53    1.79
  -7   3  10   33.06    2.15
  -7   3  10   32.98    2.70
   6  -3 -10   13.21    1.55
   6  -3 -10   17.07    1.57
  -6   3  10   11.37    1.22
  -6   3  10   14.23    1.67
   5  -3 -10   53.16    2.47
   5  -3 -10   50.36    1.88
   5  -3 -10   48.94    1.90
   5  -3 -10   51.33    2.58
   5  -3 -10   48.48    2.90
  -5   3  10   50.74    1.98
  -5   3  10   47.71    2.85
   4  -3 -10   19.98    2.05
   4  -3 -10   24.82    1.90
   4  -3 -10   22.29    1.28
   4  -3 -10   25.55    1.59
  -4   3  10   22.58    1.64
  -4   3  10   23.42    1.27
  -4   3  10   26.00    2.03
   3  -3 -10   86.09    3.44
   3  -3 -10   87.15    3.32
   3  -3 -10   90.58    3.67
   3  -3 -10   82.49    3.85
  -3   3  10   83.07    3.80
  -3   3  10   86.53    3.25
  -3   3  10   83.20    3.34
   2  -3 -10   26.81    1.54
   2  -3 -10   28.51    2.11
   2  -3 -10   24.90    1.66
   2  -3 -10   26.66    1.60
  -2   3  10   23.01    1.90
  -2   3  10   25.89    1.65
  -2   3  10   25.13    1.53
   1  -3 -10   53.75    2.48
   1  -3 -10   55.03    2.90
   1  -3 -10   52.85    2.57
   1  -3 -10   54.48    2.46
   1  -3 -10   49.06    2.78
  -1   3  10   59.51    2.74
  -1   3  10   54.53    2.59
  -1   3  10   56.18    2.83
   0  -3 -10   14.75    1.56
   0  -3 -10   13.51    1.31
   0  -3 -10   15.71    1.31
   0  -3 -10   16.96    1.58
   0   3  10   14.22    1.66
   0   3  10   16.19    1.87
   0   3  10   15.24    1.44
  -1  -3 -10   65.67    3.26
  -1  -3 -10   59.59    3.22
  -1  -3 -10   66.77    2.91
  -1  -3 -10   72.00    2.83
   1   3  10   65.30    3.23
   1   3  10   65.47    3.31
  -2  -3 -10   33.58    2.00
  -2  -3 -10   27.30    2.50
  -2  -3 -10   27.42    2.11
   2   3  10   27.53    2.53
   7  -4 -10   17.89    1.91
   7  -4 -10   17.26    2.26
  -7   4  10   12.25    2.27
   6  -4 -10   52.98    2.67
   6  -4 -10   52.88    2.87
  -6   4  10   49.04    3.26
   5  -4 -10   37.69    1.58
   5  -4 -10   31.20    2.02
   5  -4 -10   33.66    2.25
  -5   4  10   34.37    2.71
   4  -4 -10   78.19    3.34
   4  -4 -10   82.14    3.09
  -4   4  10   73.45    3.83
   3  -4 -10   50.04    2.34
   3  -4 -10   49.24    2.62
   3  -4 -10   49.54    2.39
  -3   4  10   47.51    2.92
  -3   4  10   49.89    2.36
  -3   4  10   48.71    2.25
   2  -4 -10   50.73    2.51
   2  -4 -10   50.20    2.45
   2  -4 -10   48.79    2.45
  -2   4  10   53.31    2.64
  -2   4  10   49.70    2.46
  -2   4  10   43.28    2.83
   1  -4 -10   28.42    2.14
   1  -4 -10   34.75    1.97
   1  -4 -10   28.84    1.88
   1  -4 -10   33.86    2.09
  -1   4  10   36.66    2.80
  -1   4  10   32.91    2.03
  -1   4  10   33.60    2.47
   0  -4 -10   59.18    2.85
   0  -4 -10   57.20    3.07
   0  -4 -10   61.10    2.70
   0   4  10   62.34    3.15
   0   4  10   63.75    3.29
   5  -5 -10   57.80    2.84
   5  -5 -10   55.01    2.82
   5  -5 -10   57.12    3.18
  -5   5  10   56.60    3.62
   4  -5 -10   16.04    1.63
   4  -5 -10   13.99    1.43
  -4   5  10   15.86    1.65
  -4   5  10   13.87    1.89
   3  -5 -10   96.15    4.05
   3  -5 -10   98.13    4.00
  -3   5  10   97.85    4.73
  -3   5  10   98.77    3.93
   2  -5 -10   33.89    2.19
   2  -5 -10   33.37    2.18
   2  -5 -10   32.97    2.23
  -2   5  10   32.81    2.08
  -2   5  10   37.73    2.88
   0   8 -11   19.26    1.92
   0   8 -11   26.82    2.08
   0  -8  11   20.69    1.74
   0  -8  11   22.20    2.01
  -1   8 -11   78.55    3.61
   1  -8  11   76.38    3.44
   1  -8  11   76.57    3.41
   1  -8  11   82.16    3.45
  -2   8 -11   24.89    1.85
   2  -8  11   23.57    1.78
   2  -8  11   22.25    1.66
   2  -8  11   24.72    1.74
  -3   8 -11   56.92    2.56
  -3   8 -11   57.56    2.47
   3  -8  11   53.16    2.67
   3  -8  11   53.12    2.40
   3  -8  11   53.68    2.68
  -4   8 -11   32.08    2.95
  -4   8 -11   32.40    1.98
   4  -8  11   31.95    2.04
   4  -8  11   29.41    1.96
  -5   8 -11   59.20    4.07
   5  -8  11   63.04    3.10
   5  -8  11   61.02    3.01
   2   7 -11   37.87    2.79
  -2  -7  11   35.42    2.16
  -2  -7  11   31.74    2.44
   1   7 -11   14.05    1.61
   1   7 -11   10.24    1.43
  -1  -7  11   12.97    1.46
  -1  -7  11   13.47    1.57
   0   7 -11   45.16    2.50
   0   7 -11   44.58    2.43
   0  -7  11   45.27    2.38
   0  -7  11   42.31    2.31
   0  -7  11   45.96    2.30
  -1   7 -11   33.78    2.02
  -1   7 -11   35.95    2.19
   1  -7  11   34.96    1.95
   1  -7  11   32.93    1.91
   1  -7  11   35.03    1.86
  -2   7 -11   25.28    1.50
  -2   7 -11   24.29    2.23
  -2   7 -11   25.13    1.65
  -2   7 -11   25.71    1.97
   2  -7  11   26.64    1.68
   2  -7  11   25.00    1.49
   2  -7  11   25.36    1.69
  -3   7 -11   20.71    1.47
  -3   7 -11   19.30    2.16
  -3   7 -11   20.83    1.34
   3  -7  11   22.43    1.55
   3  -7  11   21.46    1.52
   3  -7  11   18.82    1.42
  -4   7 -11   43.72    2.31
  -4   7 -11   46.12    3.02
   4  -7  11   42.09    2.26
   4  -7  11   40.82    1.63
   4  -7  11   38.73    2.15
  -5   7 -11   17.18    1.60
  -5   7 -11   16.98    2.07
   5  -7  11   18.13    1.62
   5  -7  11   16.71    1.54
   5  -7  11   16.80    1.17
   3   6 -11   38.54    2.33
   3   6 -11   38.61    2.85
  -3  -6  11   39.95    2.31
  -3  -6  11   40.68    2.52
   2   6 -11   15.66    1.88
   2   6 -11   14.56    1.63
  -2  -6  11   22.33    1.75
  -2  -6  11   17.12    1.55
   1   6 -11   57.93    2.93
   1   6 -11   61.17    2.83
  -1  -6  11   59.61    2.76
  -1  -6  11   63.92    3.15
  -1  -6  11   61.19    2.81
  -1  -6  11   60.69    2.76
   0   6 -11   30.74    1.89
   0   6 -11   27.54    1.87
   0  -6  11   34.61    1.77
   0  -6  11   29.81    1.81
   0  -6  11   29.63    1.71
   0  -6  11   31.71    2.29
  -1   6 -11   59.60    2.71
  -1   6 -11   59.15    3.09
  -1   6 -11   67.89    2.89
  -1   6 -11   62.39    2.48
   1  -6  11   63.35    2.58
   1  -6  11   61.71    2.73
   1  -6  11   60.21    3.11
   1  -6  11   58.72    2.62
  -2   6 -11   40.33    2.26
  -2   6 -11   42.00    2.54
  -2   6 -11   39.69    2.00
  -2   6 -11   44.44    1.98
   2  -6  11   43.37    2.35
   2  -6  11   41.90    1.98
   2  -6  11   41.27    2.11
   2  -6  11   41.31    1.84
   2  -6  11   43.48    2.51
  -3   6 -11   97.34    3.92
  -3   6 -11   87.45    3.34
  -3   6 -11   89.02    4.19
  -3   6 -11   92.83    3.73
   3  -6  11   83.70    3.50
   3  -6  11   96.73    4.38
   3  -6  11   90.38    3.69
   3  -6  11   91.21    3.26
   3  -6  11   94.00    3.85
  -4   6 -11   36.45    1.70
  -4   6 -11   35.31    2.69
  -4   6 -11   35.93    1.40
  -4   6 -11   38.09    2.12
   4  -6  11   34.24    1.99
   4  -6  11   33.57    1.87
   4  -6  11   37.50    1.62
   4  -6  11   33.89    2.28
   4  -6  11   35.02    2.34
   4  -6  11   36.99    1.37
  -5   6 -11   85.72    4.46
  -5   6 -11   94.92    3.70
  -5   6 -11   85.94    3.91
   5  -6  11   88.38    3.55
   5  -6  11   90.15    3.42
   5  -6  11   80.77    4.07
   5  -6  11   89.60    3.72
  -6   6 -11   25.83    2.09
  -6   6 -11   25.21    2.65
   6  -6  11   23.35    1.95
   6  -6  11   24.61    1.82
   6  -6  11   20.44    2.00
   4   5 -11   56.57    2.90
   4   5 -11   52.83    3.19
  -4  -5  11   53.42    2.93
  -4  -5  11   52.28    2.58
  -4  -5  11   55.22    3.14
  -4  -5  11   52.69    2.77
   3   5 -11   31.64    2.31
   3   5 -11   33.18    2.11
  -3  -5  11   30.69    2.05
  -3  -5  11   33.92    2.01
  -3  -5  11   30.58    2.25
   2   5 -11   98.86    3.94
   2   5 -11   92.76    4.02
  -2  -5  11   92.53    3.81
  -2  -5  11   95.98    4.02
  -2  -5  11   98.77    3.89
  -2  -5  11   96.04    3.87
   1   5 -11   70.55    3.06
   1   5 -11   65.12    3.06
  -1  -5  11   71.92    2.93
  -1  -5  11   71.24    3.18
  -1  -5  11   67.27    2.85
  -1  -5  11   67.41    2.97
   0   5 -11   56.18    2.24
   0   5 -11   49.77    2.68
   0   5 -11   53.10    2.52
   0   5 -11   55.14    2.55
   0  -5  11   52.95    2.48
   0  -5  11   53.44    2.32
   0  -5  11   54.47    2.34
   0  -5  11   53.66    2.68
  -1   5 -11    5.20    0.80
  -1   5 -11    7.75    0.90
  -1   5 -11    5.41    0.89
  -1   5 -11    6.36    1.05
   1  -5  11    5.67    0.82
   1  -5  11    4.23    0.61
   1  -5  11    3.90    0.85
   1  -5  11    4.48    0.66
  -2   5 -11  142.34    5.52
  -2   5 -11  135.93    5.12
  -2   5 -11  146.98    5.23
  -2   5 -11  131.15    4.90
   2  -5  11  139.27    5.13
   2  -5  11  139.16    5.37
   2  -5  11  136.35    4.93
   2  -5  11  135.44    4.97
   2  -5  11  135.17    5.12
  -3   5 -11   38.70    2.11
  -3   5 -11   38.21    1.75
  -3   5 -11   37.55    2.43
  -3   5 -11   41.94    2.23
  -3   5 -11   40.14    1.70
   3  -5  11   38.33    2.29
   3  -5  11   41.14    2.05
   3  -5  11   39.76    2.39
   3  -5  11   40.19    2.07
   3  -5  11   38.60    1.57
   3  -5  11   37.88    1.64
   3  -5  11   37.31    1.83
  -4   5 -11   85.60    2.92
  -4   5 -11   86.90    3.71
  -4   5 -11   80.01    4.06
   4  -5  11   86.20    3.52
   4  -5  11   84.06    3.29
   4  -5  11   82.35    3.25
   4  -5  11   84.61    3.92
   4  -5  11   89.84    3.59
  -5   5 -11   12.96    1.50
  -5   5 -11   13.27    1.62
  -5   5 -11   12.66    1.83
   5  -5  11   11.31    1.42
   5  -5  11   13.59    1.32
   5  -5  11   15.96    1.49
   5  -5  11   11.42    1.54
  -6   5 -11   48.29    3.10
  -6   5 -11   47.23    3.66
   6  -5  11   49.23    2.66
   6  -5  11   53.87    2.62
   6  -5  11   46.55    2.81
   5   4 -11   33.57    2.45
   5   4 -11   36.10    2.68
  -5  -4  11   34.68    1.96
  -5  -4  11   37.55    2.32
  -5  -4  11   35.50    2.46
   4   4 -11   20.56    1.25
   4   4 -11   19.26    1.99
   4   4 -11   18.52    1.76
  -4  -4  11   18.28    1.74
  -4  -4  11   22.23    1.78
  -4  -4  11   21.96    1.76
   3   4 -11   42.66    2.18
   3   4 -11   44.68    2.31
   3   4 -11   41.85    2.40
  -3  -4  11   42.80    2.26
  -3  -4  11   39.26    2.10
  -3  -4  11   39.83    2.18
  -3  -4  11   40.55    2.22
   2   4 -11   19.57    1.52
   2   4 -11   20.35    1.22
   2   4 -11   17.25    1.55
   2   4 -11   19.73    1.39
  -2  -4  11   18.59    1.46
  -2  -4  11   19.27    1.39
  -2  -4  11   17.75    1.51
  -2  -4  11   20.78    1.36
   1   4 -11   84.68    3.39
   1   4 -11   68.79    4.17
   1   4 -11   68.97    3.61
   1   4 -11   84.05    3.13
  -1  -4  11   85.41    3.45
  -1  -4  11   84.05    3.17
  -1  -4  11   78.40    3.31
  -1  -4  11   84.57    3.22
   0   4 -11   28.60    2.06
   0   4 -11   30.09    1.74
   0   4 -11   27.98    1.67
   0   4 -11   29.17    1.54
   0  -4  11   30.07    1.46
   0  -4  11   25.80    1.44
   0  -4  11   28.76    1.80
   0  -4  11   26.62    1.62
  -1   4 -11   70.48    2.92
  -1   4 -11   61.02    2.99
  -1   4 -11   62.65    2.77
  -1   4 -11   64.55    2.71
  -1   4 -11   63.64    2.36
   1  -4  11   62.84    2.80
   1  -4  11   66.03    3.00
   1  -4  11   68.55    3.02
   1  -4  11   65.04    2.57
   1  -4  11   68.20    2.57
  -2   4 -11   38.08    1.83
  -2   4 -11   40.10    1.75
  -2   4 -11   37.80    2.04
  -2   4 -11   42.36    2.35
  -2   4 -11   39.37    2.07
   2  -4  11   39.27    2.02
   2  -4  11   39.60    1.65
   2  -4  11   40.52    1.73
   2  -4  11   42.21    2.27
   2  -4  11   36.64    2.17
   2  -4  11   36.79    1.89
  -3   4 -11   54.63    2.68
  -3   4 -11   57.48    2.65
  -3   4 -11   58.33    2.47
  -3   4 -11   53.26    2.23
  -3   4 -11   57.10    2.99
   3  -4  11   54.06    2.82
   3  -4  11   57.05    2.30
   3  -4  11   57.40    2.48
   3  -4  11   56.27    2.09
   3  -4  11   57.11    2.87
   3  -4  11   54.53    2.32
   3  -4  11   55.42    2.54
  -4   4 -11   35.78    1.52
  -4   4 -11   37.64    2.09
  -4   4 -11   35.92    2.19
  -4   4 -11   35.14    2.14
  -4   4 -11   39.48    2.61
   4  -4  11   38.59    1.90
   4  -4  11   32.93    2.22
   4  -4  11   38.70    2.00
   4  -4  11   36.71    2.04
   4  -4  11   47.18    3.53
  -5   4 -11   46.42    2.52
  -5   4 -11   39.09    2.90
  -5   4 -11   40.43    2.47
   5  -4  11   38.98    2.51
   5  -4  11   37.89    2.29
   5  -4  11   40.18    2.27
   5  -4  11   43.59    2.24
  -6   4 -11   27.98    2.94
  -6   4 -11   20.94    1.96
   6  -4  11   22.82    1.98
   6  -4  11   26.10    2.04
   6  -4  11   24.69    1.94
   5   3 -11   22.09    1.53
   5   3 -11   19.68    2.03
   5   3 -11   24.43    2.10
  -5  -3  11   23.36    1.87
  -5  -3  11   17.47    1.88
  -5  -3  11   19.59    1.67
  -5  -3  11   21.80    1.34
   4   3 -11   37.03    2.32
   4   3 -11   42.10    2.12
   4   3 -11   41.22    1.93
   4   3 -11   40.74    1.83
   4   3 -11   41.07    2.25
  -4  -3  11   42.13    2.28
  -4  -3  11   37.81    2.14
  -4  -3  11   39.85    2.12
   3   3 -11   44.46    2.08
   3   3 -11   44.12    2.31
   3   3 -11   42.49    1.82
   3   3 -11   46.42    2.05
   3   3 -11   44.01    1.88
   3   3 -11   46.80    2.34
  -3  -3  11   46.53    2.21
  -3  -3  11   44.48    2.19
  -3  -3  11   41.47    2.28
  -3  -3  11   44.53    2.15
   2   3 -11   73.54    3.09
   2   3 -11   71.26    2.57
   2   3 -11   74.24    2.92
   2   3 -11   71.56    3.04
   2   3 -11   72.91    3.10
   2   3 -11   69.43    2.63
  -2  -3  11   68.92    2.91
  -2  -3  11   69.71    3.08
  -2  -3  11   72.74    2.86
  -2  -3  11   71.88    3.02
   1   3 -11   36.60    1.90
   1   3 -11   36.54    1.96
   1   3 -11   35.67    1.89
   1   3 -11   34.43    1.50
   1   3 -11   35.86    1.78
   1   3 -11   34.62    1.42
  -1  -3  11   34.75    1.61
  -1  -3  11   36.54    1.90
  -1  -3  11   36.64    1.73
  -1  -3  11   33.18    1.88
   0   3 -11   91.98    3.32
   0   3 -11   91.68    3.59
   0   3 -11   87.33    3.62
   0   3 -11   90.93    3.77
   0   3 -11   95.22    3.66
   0  -3  11   90.20    3.33
   0  -3  11   89.16    3.71
   0  -3  11   95.38    3.74
   0  -3  11   87.05    3.63
   0  -3  11   98.43    3.47
  -1   3 -11   42.43    2.38
  -1   3 -11   42.16    2.02
  -1   3 -11   45.80    2.18
  -1   3 -11   43.36    1.94
  -1   3 -11   44.13    2.20
   1  -3  11   44.09    1.87
   1  -3  11   45.31    2.28
   1  -3  11   43.90    1.82
   1  -3  11   45.12    2.29
   1  -3  11   46.34    2.17
  -2   3 -11   88.00    3.43
  -2   3 -11   94.36    3.66
  -2   3 -11   90.62    3.88
  -2   3 -11   93.34    3.51
  -2   3 -11   84.41    3.74
   2  -3  11   87.66    3.80
   2  -3  11   88.65    3.60
   2  -3  11   93.03    3.41
   2  -3  11   89.80    3.23
   2  -3  11   86.33    3.39
   2  -3  11   93.36    3.82
   2  -3  11   90.83    3.26
  -3   3 -11   32.75    1.87
  -3   3 -11   29.15    1.91
  -3   3 -11   31.54    1.79
  -3   3 -11   30.70    1.57
  -3   3 -11   30.69    2.09
   3  -3  11   29.88    1.99
   3  -3  11   37.28    2.14
   3  -3  11   30.53    1.65
   3  -3  11   33.21    1.69
   3  -3  11   26.78    1.75
   3  -3  11   31.49    1.44
  -4   3 -11   86.04    4.00
  -4   3 -11   84.23    3.55
  -4   3 -11   88.80    3.69
  -4   3 -11   81.28    3.77
  -4   3 -11   80.15    3.10
   4  -3  11   87.96    3.41
   4  -3  11   85.00    3.54
   4  -3  11   81.29    3.47
   4  -3  11   80.33    3.77
  -5   3 -11   49.15    3.17
  -5   3 -11   52.96    3.09
  -5   3 -11   47.96    2.82
  -5   3 -11   48.22    2.01
   5  -3  11   51.79    2.64
   5  -3  11   49.23    2.53
   5  -3  11   51.83    2.64
   5  -3  11   49.52    2.80
   6   2 -11   20.60    2.15
   6   2 -11   23.41    1.83
  -6  -2  11   23.07    2.16
  -6  -2  11   17.89    1.98
   5   2 -11   74.98    3.23
   5   2 -11   74.61    3.49
   5   2 -11   74.33    3.08
   5   2 -11   74.35    3.44
  -5  -2  11   78.81    3.49
  -5  -2  11   77.29    3.31
  -5  -2  11   75.31    2.98
   4   2 -11   53.82    2.60
   4   2 -11   51.67    2.22
   4   2 -11   51.55    2.56
   4   2 -11   57.05    2.36
  -4  -2  11   51.36    2.49
  -4  -2  11   50.17    2.60
  -4  -2  11   51.87    2.43
  -4  -2  11   46.19    2.88
   3   2 -11  117.61    4.63
   3   2 -11  120.20    4.47
   3   2 -11  120.42    4.30
   3   2 -11  121.53    4.65
   3   2 -11  122.30    4.38
   3   2 -11  120.09    4.40
  -3  -2  11  120.34    4.43
  -3  -2  11  121.73    4.43
  -3  -2  11  123.36    4.53
  -3  -2  11  118.69    4.71
  -3  -2  11  122.19    4.46
   2   2 -11   14.56    1.24
   2   2 -11   14.62    1.06
   2   2 -11   13.19    1.14
   2   2 -11   13.20    1.19
   2   2 -11   12.89    0.88
   2   2 -11   13.97    1.14
  -2  -2  11   12.21    1.14
  -2  -2  11   11.81    1.23
  -2  -2  11   12.75    0.93
  -2  -2  11   13.73    1.08
  -2  -2  11   15.52    1.14
   1   2 -11  101.26    3.99
   1   2 -11  103.16    3.96
   1   2 -11  103.49    3.92
   1   2 -11  101.94    3.97
   1   2 -11   97.37    3.71
  -1  -2  11   99.13    3.92
  -1  -2  11  107.46    3.81
  -1  -2  11  103.33    3.95
  -1  -2  11   98.98    3.61
  -1  -2  11   97.06    3.98
   0   2 -11   57.90    2.65
   0   2 -11   59.40    2.54
   0   2 -11   60.14    2.61
   0   2 -11   58.12    2.71
   0   2 -11   61.03    2.48
   0  -2  11   61.11    2.69
   0  -2  11   61.19    2.43
   0  -2  11   55.79    2.63
   0  -2  11   61.28    2.34
   0  -2  11   60.01    2.66
   0  -2  11   59.38    2.24
  -1   2 -11  143.83    5.72
  -1   2 -11  159.52    5.56
  -1   2 -11  154.03    5.40
  -1   2 -11  156.84    5.52
  -1   2 -11  145.35    5.68
   1  -2  11  148.66    5.68
   1  -2  11  150.15    5.24
   1  -2  11  149.26    5.22
   1  -2  11  160.63    5.68
   1  -2  11  146.92    5.54
   1  -2  11  150.54    5.12
  -2   2 -11   32.66    1.64
  -2   2 -11   31.47    1.86
  -2   2 -11   33.42    1.84
  -2   2 -11   32.72    2.04
  -2   2 -11   33.14    1.99
   2  -2  11   36.67    1.78
   2  -2  11   32.81    1.84
   2  -2  11   32.49    1.97
   2  -2  11   33.46    1.57
   2  -2  11   37.59    2.06
   2  -2  11   31.79    1.40
  -3   2 -11   53.67    2.44
  -3   2 -11   46.89    2.63
  -3   2 -11   55.64    2.60
  -3   2 -11   47.20    2.12
  -3   2 -11   47.45    2.68
   3  -2  11   49.83    2.62
   3  -2  11   47.04    1.95
   3  -2  11   52.85    2.29
   3  -2  11   53.39    2.71
   3  -2  11   51.90    2.45
  -4   2 -11   17.18    1.16
  -4   2 -11   15.86    1.59
  -4   2 -11   17.48    1.14
  -4   2 -11   15.60    1.87
  -4   2 -11   17.03    1.58
  -4   2 -11   12.19    1.47
   4  -2  11   16.55    1.61
   4  -2  11   17.42    1.51
   4  -2  11   15.02    1.39
   4  -2  11   14.93    1.55
  -5   2 -11   63.01    3.67
   5  -2  11   75.75    3.14
   5  -2  11   73.45    3.30
   5  -2  11   59.07    4.50
   5  -2  11   69.60    3.43
   6   1 -11   47.77    2.53
   6   1 -11   46.27    2.50
   6   1 -11   51.50    2.80
  -6  -1  11   52.50    2.91
  -6  -1  11   50.61    2.70
  -6  -1  11   54.05    2.07
   5   1 -11   20.56    1.49
   5   1 -11   20.60    1.43
   5   1 -11   18.17    1.69
   5   1 -11   22.04    1.86
  -5  -1  11   18.93    1.78
  -5  -1  11   20.88    1.56
  -5  -1  11   18.52    1.19
   4   1 -11   77.04    3.28
   4   1 -11   78.09    2.93
   4   1 -11   75.03    3.00
   4   1 -11   72.49    3.21
  -4  -1  11   79.19    3.19
  -4  -1  11   69.12    2.98
  -4  -1  11   73.59    2.88
  -4  -1  11   74.27    3.37
  -4  -1  11   71.66    2.84
   3   1 -11   15.06    1.24
   3   1 -11   14.77    1.28
   3   1 -11   14.89    0.95
   3   1 -11   14.91    1.04
   3   1 -11   14.55    1.33
   3   1 -11   14.01    1.09
  -3  -1  11   16.14    1.19
  -3  -1  11   14.24    1.39
  -3  -1  11   13.93    1.04
  -3  -1  11   15.45    1.06
  -3  -1  11   14.78    1.12
   2   1 -11   58.62    2.60
   2   1 -11   63.76    2.74
   2   1 -11   62.60    2.66
   2   1 -11   61.42    2.67
  -2  -1  11   60.47    2.81
  -2  -1  11   62.66    2.55
  -2  -1  11   60.37    2.56
  -2  -1  11   59.40    2.35
  -2  -1  11   61.23    2.58
   1   1 -11   16.94    1.23
   1   1 -11   18.41    1.31
   1   1 -11   18.44    1.30
   1   1 -11   15.32    1.27
  -1  -1  11   19.75    1.41
  -1  -1  11   17.19    1.23
  -1  -1  11   19.28    1.17
  -1  -1  11   17.47    1.30
  -1  -1  11   16.50    0.90
   0   1 -11  120.41    4.41
   0   1 -11  119.92    4.47
   0   1 -11  119.16    4.59
   0   1 -11  118.70    4.49
   0   1 -11  117.30    4.66
   0  -1  11  127.96    4.59
   0  -1  11  118.84    4.07
   0  -1  11  119.28    4.56
   0  -1  11  121.26    4.30
   0  -1  11  116.61    4.02
   0  -1  11  111.21    4.54
  -1   1 -11   55.98    2.78
  -1   1 -11   59.69    2.47
  -1   1 -11   60.20    2.78
  -1   1 -11   59.47    2.59
  -1   1 -11   58.83    2.67
   1  -1  11   58.96    2.18
   1  -1  11   58.96    2.11
   1  -1  11   60.34    2.77
   1  -1  11   62.75    2.78
   1  -1  11   58.99    2.68
   1  -1  11   56.72    2.35
  -2   1 -11   61.46    2.78
  -2   1 -11   57.83    2.83
  -2   1 -11   57.04    2.58
  -2   1 -11   58.98    2.41
  -2   1 -11   54.39    2.80
   2  -1  11   62.42    2.83
   2  -1  11   56.21    2.20
   2  -1  11   54.88    2.08
   2  -1  11   54.97    2.62
   2  -1  11   59.51    2.82
  -3   1 -11   21.03    1.72
  -3   1 -11   19.06    1.83
  -3   1 -11   21.40    1.30
  -3   1 -11   20.97    1.52
  -3   1 -11   19.99    1.88
   3  -1  11   20.91    1.01
   3  -1  11   20.00    1.68
   3  -1  11   17.86    1.53
   3  -1  11   23.46    1.74
   3  -1  11   21.36    1.27
  -4   1 -11   94.94    3.53
  -4   1 -11   89.27    4.21
  -4   1 -11   93.37    3.56
  -4   1 -11   88.77    4.31
  -4   1 -11   92.90    3.81
   4  -1  11   85.14    4.08
   4  -1  11   95.72    3.92
   4  -1  11   96.89    4.14
   4  -1  11   96.81    3.59
   7   0 -11   39.57    2.44
   7   0 -11   34.28    2.56
  -7   0  11   37.63    2.76
  -7   0  11   32.12    2.49
   6   0 -11   13.34    1.36
   6   0 -11   15.58    1.54
   6   0 -11   12.18    1.39
  -6   0  11   16.48    1.99
  -6   0  11   13.95    1.53
   5   0 -11   71.55    3.34
   5   0 -11   75.53    2.86
   5   0 -11   70.86    3.06
   5   0 -11   72.29    3.22
  -5   0  11   67.96    2.55
  -5   0  11   71.68    2.96
  -5   0  11   68.31    3.37
   4   0 -11   33.62    1.95
   4   0 -11   34.09    2.05
   4   0 -11   35.52    1.82
   4   0 -11   37.07    1.61
   4   0 -11   34.72    1.62
   4   0 -11   34.26    2.05
  -4   0  11   33.92    1.58
  -4   0  11   34.46    1.67
  -4   0  11   35.25    2.18
  -4   0  11   35.64    1.94
  -4   0  11   35.98    1.51
   3   0 -11   85.61    3.33
   3   0 -11   82.37    3.28
   3   0 -11   85.06    3.54
   3   0 -11   86.58    3.03
   3   0 -11   83.98    3.45
   3   0 -11   88.96    3.54
  -3   0  11   82.32    3.16
  -3   0  11   80.64    3.08
  -3   0  11   84.03    3.67
  -3   0  11   87.60    3.43
  -3   0  11   92.67    3.28
   2   0 -11   99.36    3.97
   2   0 -11   96.98    3.85
   2   0 -11  101.62    3.84
   2   0 -11  100.59    3.98
  -2   0  11   95.74    3.42
  -2   0  11  100.10    4.10
  -2   0  11   96.40    3.71
  -2   0  11  108.85    3.84
  -2   0  11  101.02    3.82
   1   0 -11   59.85    2.67
   1   0 -11   62.45    2.73
   1   0 -11   57.31    2.81
   1   0 -11   60.76    2.66
   1   0 -11   57.93    2.58
  -1   0  11   63.14    2.64
  -1   0  11   61.22    2.81
  -1   0  11   58.63    2.57
  -1   0  11   61.48    2.51
   0   0 -11   36.66    2.00
   0   0 -11   35.32    2.05
   0   0 -11   36.09    1.86
   0   0  11   33.26    1.87
   0   0  11   34.68    2.00
   0   0  11   35.71    1.70
   0   0  11   37.01    1.97
  -1   0 -11   61.03    2.92
  -1   0 -11   62.15    2.96
  -1   0 -11   67.24    2.77
  -1   0 -11   62.06    3.01
   1   0  11   65.75    2.98
   1   0  11   70.63    3.04
   1   0  11   61.22    2.87
  -2   0 -11   33.42    2.13
  -2   0 -11   29.60    1.93
  -2   0 -11   30.01    2.09
  -2   0 -11   32.73    1.86
  -2   0 -11   34.07    2.21
   2   0  11   35.16    2.10
   2   0  11   38.06    2.14
   2   0  11   38.27    2.25
   2   0  11   33.38    1.96
  -3   0 -11   75.98    3.21
  -3   0 -11   77.89    3.06
  -3   0 -11   77.17    3.65
  -3   0 -11   74.37    3.13
  -3   0 -11   73.75    3.63
   3   0  11   78.36    2.64
   3   0  11   78.77    2.71
   3   0  11   75.38    3.57
   3   0  11   73.52    3.31
   3   0  11   72.08    3.54
  -4   0 -11   17.09    1.39
  -4   0 -11   10.95    1.70
  -4   0 -11   14.25    1.67
  -4   0 -11   11.02    1.56
   4   0  11   11.96    1.58
   4   0  11   13.86    1.71
   4   0  11   16.58    2.09
   7  -1 -11   27.42    2.22
   7  -1 -11   23.87    1.90
   7  -1 -11   27.38    2.25
  -7   1  11   26.24    2.11
  -7   1  11   25.00    2.56
   6  -1 -11   60.98    3.03
   6  -1 -11   59.67    2.97
   6  -1 -11   67.13    2.68
  -6   1  11   61.91    3.37
   5  -1 -11   40.55    2.13
   5  -1 -11   39.26    2.22
   5  -1 -11   42.46    1.81
  -5   1  11   42.01    1.95
  -5   1  11   40.86    2.54
  -5   1  11   40.18    1.55
   4  -1 -11   59.94    2.67
   4  -1 -11   61.20    2.91
   4  -1 -11   60.77    2.24
   4  -1 -11   58.35    2.89
   4  -1 -11   60.44    2.72
   4  -1 -11   59.86    2.37
  -4   1  11   58.42    2.33
  -4   1  11   60.29    2.73
  -4   1  11   57.87    2.33
  -4   1  11   60.91    3.04
   3  -1 -11   15.27    1.42
   3  -1 -11   14.35    1.25
   3  -1 -11   17.83    1.60
   3  -1 -11   15.20    1.11
  -3   1  11   13.16    1.49
  -3   1  11   16.73    1.26
  -3   1  11   16.08    1.06
  -3   1  11   15.70    0.77
  -3   1  11   15.32    1.30
   2  -1 -11  105.38    4.02
   2  -1 -11  106.77    4.06
   2  -1 -11  112.11    4.31
   2  -1 -11  107.59    4.17
  -2   1  11  108.51    4.02
  -2   1  11  106.19    4.02
  -2   1  11   96.27    3.89
  -2   1  11  103.54    4.33
   1  -1 -11   46.44    2.40
   1  -1 -11   46.50    2.25
   1  -1 -11   45.72    2.28
   1  -1 -11   44.35    2.45
   1  -1 -11   46.79    2.15
  -1   1  11   46.30    2.46
  -1   1  11   48.21    2.28
  -1   1  11   47.56    2.19
   0  -1 -11   90.80    3.58
   0  -1 -11   93.88    3.69
   0  -1 -11   92.78    3.80
   0  -1 -11   95.47    3.95
   0  -1 -11   89.73    3.98
   0   1  11   86.06    3.75
   0   1  11   94.51    3.90
   0   1  11   98.17    3.88
  -1  -1 -11   15.89    1.49
  -1  -1 -11   13.81    1.72
  -1  -1 -11   14.55    1.28
  -1  -1 -11   15.51    1.51
  -1  -1 -11   15.48    1.20
   1   1  11   13.44    1.49
   1   1  11   16.02    1.44
   1   1  11   15.83    1.78
  -2  -1 -11   95.10    3.74
  -2  -1 -11   95.85    3.67
  -2  -1 -11   90.19    4.10
  -2  -1 -11   92.25    4.20
   2   1  11   93.43    3.93
   2   1  11   96.07    4.18
  -3  -1 -11   61.30    2.85
  -3  -1 -11   62.60    3.06
  -3  -1 -11   68.49    2.83
  -3  -1 -11   51.35    3.32
  -3  -1 -11   63.94    3.41
   3   1  11   70.49    3.11
   3   1  11   67.67    3.46
   7  -2 -11   69.62    3.32
   7  -2 -11   64.43    3.38
  -7   2  11   64.04    3.10
  -7   2  11   63.80    3.89
   6  -2 -11   11.88    1.36
   6  -2 -11   13.70    1.16
   6  -2 -11    9.69    1.21
  -6   2  11   13.55    1.36
  -6   2  11   10.59    1.50
   5  -2 -11   54.69    3.13
   5  -2 -11   50.94    2.65
   5  -2 -11   57.50    2.13
   5  -2 -11   55.02    2.69
   5  -2 -11   54.35    2.05
  -5   2  11   55.04    2.24
  -5   2  11   54.62    1.97
  -5   2  11   54.38    3.06
   4  -2 -11   28.93    1.44
   4  -2 -11   24.72    2.09
   4  -2 -11   25.28    1.70
   4  -2 -11   26.96    1.75
   4  -2 -11   26.06    2.07
  -4   2  11   26.54    1.40
  -4   2  11   26.96    2.09
   3  -2 -11  100.58    4.22
   3  -2 -11   95.99    3.83
   3  -2 -11   97.05    3.68
   3  -2 -11   94.00    3.99
  -3   2  11   95.56    3.66
  -3   2  11   95.78    3.55
  -3   2  11   94.04    4.19
  -3   2  11   99.51    3.89
   2  -2 -11   54.14    2.91
   2  -2 -11   57.96    2.57
   2  -2 -11   53.85    2.51
   2  -2 -11   58.33    2.70
  -2   2  11   53.53    2.44
  -2   2  11   55.36    2.88
  -2   2  11   61.30    2.60
   1  -2 -11   94.94    4.19
   1  -2 -11   89.29    4.20
   1  -2 -11  102.08    3.85
   1  -2 -11   98.29    3.95
   1  -2 -11  104.28    3.96
  -1   2  11   95.87    3.91
  -1   2  11   96.86    4.14
  -1   2  11  104.14    4.04
   0  -2 -11   13.83    1.44
   0  -2 -11   16.31    2.20
   0  -2 -11   11.77    1.42
   0  -2 -11   11.38    1.32
   0  -2 -11   15.00    1.27
   0   2  11   12.88    1.32
   0   2  11   14.39    1.60
   0   2  11   17.42    1.79
  -1  -2 -11   53.61    2.43
  -1  -2 -11   52.64    2.79
  -1  -2 -11   45.63    2.75
  -1  -2 -11   51.63    2.42
   1   2  11   50.10    2.69
   1   2  11   48.71    2.68
  -2  -2 -11   14.80    1.63
  -2  -2 -11   13.35    1.51
  -2  -2 -11   12.57    1.49
  -2  -2 -11   13.77    1.48
   2   2  11   14.52    1.78
   2   2  11   14.78    1.51
   6  -3 -11   44.36    2.51
   6  -3 -11   45.78    2.61
  -6   3  11   42.78    2.34
  -6   3  11   45.68    3.19
   5  -3 -11   32.47    2.05
   5  -3 -11   34.31    1.49
   5  -3 -11   30.92    2.22
  -5   3  11   30.75    2.60
   4  -3 -11   53.73    2.24
   4  -3 -11   48.12    2.52
  -4   3  11   48.55    3.04
   3  -3 -11   30.46    2.25
   3  -3 -11   24.69    1.63
   3  -3 -11   28.59    1.74
  -3   3  11   24.05    2.21
  -3   3  11   25.49    1.66
  -3   3  11   26.28    1.48
   2  -3 -11   64.61    2.86
   2  -3 -11   59.84    2.83
   2  -3 -11   64.42    3.01
  -2   3  11   60.97    3.21
  -2   3  11   68.11    2.95
  -2   3  11   62.39    2.78
   1  -3 -11   20.11    1.66
   1  -3 -11   20.58    1.56
   1  -3 -11   20.22    1.68
  -1   3  11   15.79    1.48
  -1   3  11   20.28    1.96
  -1   3  11   18.53    1.92
   0  -3 -11   50.08    2.58
   0  -3 -11   57.15    2.90
   0  -3 -11   50.81    2.99
   0  -3 -11   54.25    2.63
   0   3  11   54.76    2.81
   0   3  11   55.43    2.94
  -1  -3 -11   35.79    2.25
  -1  -3 -11   35.74    2.62
  -1  -3 -11   35.34    2.42
  -1  -3 -11   38.30    2.19
   1   3  11   38.67    2.53
   1   3  11   39.31    2.64
   5  -4 -11   47.32    2.64
   5  -4 -11   51.86    2.87
  -5   4  11   47.21    3.40
   4  -4 -11   34.67    1.89
   4  -4 -11   33.60    2.11
  -4   4  11   33.56    2.87
   3  -4 -11   72.83    3.12
   3  -4 -11   69.92    3.17
  -3   4  11   72.21    3.16
  -3   4  11   63.13    3.79
  -3   4  11   70.56    2.98
   2  -4 -11   15.96    1.60
   2  -4 -11   15.42    1.68
  -2   4  11   15.50    1.83
  -2   4  11   14.14    1.46
  -2   4  11   14.89    1.57
   1  -4 -11   52.93    3.10
   1  -4 -11   58.74    3.03
   1  -4 -11   55.61    2.97
   1  -4 -11   56.12    2.88
  -1   4  11   59.71    2.91
  -1   4  11   57.90    3.44
  -1   8 -12   15.91    1.70
   1  -8  12   14.15    1.75
   1  -8  12   10.72    1.36
  -2   8 -12   40.71    2.46
   2  -8  12   42.36    2.25
   2  -8  12   41.63    2.41
   2  -8  12   43.27    2.44
  -3   8 -12   27.85    1.90
  -3   8 -12   28.42    3.37
  -3   8 -12   30.95    2.06
   3  -8  12   32.78    2.17
   3  -8  12   32.39    2.11
   1   7 -12   58.89    3.25
  -1  -7  12   59.04    2.86
  -1  -7  12   53.80    2.90
   0   7 -12   43.86    2.66
   0  -7  12   44.48    2.40
   0  -7  12   43.58    2.40
  -1   7 -12   54.66    2.69
   1  -7  12   50.20    2.52
   1  -7  12   49.58    2.44
   1  -7  12   54.07    2.67
  -2   7 -12   12.67    1.30
  -2   7 -12   12.58    1.60
   2  -7  12   12.91    1.23
   2  -7  12   12.18    1.38
   2  -7  12   12.38    1.37
  -3   7 -12   23.86    2.47
  -3   7 -12   23.90    1.70
  -3   7 -12   23.45    1.53
   3  -7  12   25.82    1.42
   3  -7  12   24.77    1.73
   3  -7  12   23.41    1.81
  -4   7 -12   26.67    1.91
  -4   7 -12   25.04    2.81
   4  -7  12   28.62    1.83
   4  -7  12   21.45    2.08
   4  -7  12   28.35    1.95
   2   6 -12   58.04    3.04
   2   6 -12   56.60    3.20
  -2  -6  12   57.77    2.91
  -2  -6  12   58.61    2.84
   1   6 -12   21.97    2.06
   1   6 -12   21.73    2.02
  -1  -6  12   22.01    1.68
  -1  -6  12   17.27    1.63
   0   6 -12   42.36    2.39
   0   6 -12   43.15    2.49
   0  -6  12   43.43    2.29
   0  -6  12   41.22    2.17
   0  -6  12   44.99    2.19
  -1   6 -12   28.08    1.61
  -1   6 -12   32.15    2.22
  -1   6 -12   25.66    2.18
  -1   6 -12   30.15    1.85
   1  -6  12   24.88    1.56
   1  -6  12   28.96    1.69
   1  -6  12   28.56    1.84
  -2   6 -12   74.27    3.74
  -2   6 -12   76.80    3.11
  -2   6 -12   78.28    3.18
   2  -6  12   70.24    3.26
   2  -6  12   74.01    2.94
   2  -6  12   77.30    3.47
   2  -6  12   75.37    3.10
  -3   6 -12   24.04    1.41
  -3   6 -12   22.96    1.66
  -3   6 -12   19.83    2.26
   3  -6  12   21.97    1.96
   3  -6  12   23.50    1.23
   3  -6  12   24.87    1.77
   3  -6  12   24.21    1.49
   3  -6  12   20.30    1.89
  -4   6 -12   85.27    3.78
  -4   6 -12   83.89    4.37
  -4   6 -12   83.75    3.03
   4  -6  12   86.12    4.09
   4  -6  12   83.17    3.67
   4  -6  12   86.46    3.16
   4  -6  12   87.14    3.46
  -5   6 -12   29.98    3.12
  -5   6 -12   30.65    2.22
   5  -6  12   29.62    2.26
   5  -6  12   31.07    2.12
   5  -6  12   30.25    1.78
   5  -6  12   27.14    1.86
   3   5 -12   36.30    2.58
   3   5 -12   39.49    2.65
  -3  -5  12   36.63    2.31
  -3  -5  12   37.75    2.60
  -3  -5  12   37.57    2.30
   2   5 -12   23.38    2.14
   2   5 -12   29.57    2.22
  -2  -5  12   29.11    2.18
  -2  -5  12   29.26    1.85
  -2  -5  12   31.76    1.94
   1   5 -12   97.72    4.10
   1   5 -12   95.67    4.06
  -1  -5  12   95.59    3.78
  -1  -5  12   98.15    3.97
  -1  -5  12   97.66    3.83
  -1  -5  12   92.91    4.10
   0   5 -12   23.95    1.75
   0   5 -12   24.48    1.44
   0   5 -12   26.35    1.90
   0   5 -12   24.91    1.90
   0  -5  12   22.47    1.64
   0  -5  12   25.55    1.94
   0  -5  12   25.25    1.51
   0  -5  12   22.52    1.45
  -1   5 -12   80.59    3.68
  -1   5 -12   80.15    3.24
  -1   5 -12   73.95    3.26
  -1   5 -12   76.77    3.48
   1  -5  12   80.77    3.09
   1  -5  12   79.36    3.37
   1  -5  12   76.11    3.10
   1  -5  12   80.31    3.63
  -2   5 -12   37.01    1.86
  -2   5 -12   37.75    2.05
  -2   5 -12   37.91    2.21
  -2   5 -12   37.82    2.45
   2  -5  12   33.38    2.03
   2  -5  12   37.89    2.28
   2  -5  12   37.79    1.79
   2  -5  12   36.21    1.69
   2  -5  12   35.53    2.06
   2  -5  12   37.43    2.45
  -3   5 -12   64.96    3.10
  -3   5 -12   68.95    3.55
  -3   5 -12   61.61    2.62
  -3   5 -12   70.22    2.71
   3  -5  12   70.94    3.07
   3  -5  12   66.01    2.72
   3  -5  12   63.44    2.47
   3  -5  12   70.40    3.03
   3  -5  12   63.46    3.27
  -4   5 -12   12.52    0.86
  -4   5 -12   13.90    1.50
  -4   5 -12   14.90    1.86
  -4   5 -12   11.87    1.44
   4  -5  12   11.53    1.14
   4  -5  12   11.60    1.15
   4  -5  12   10.37    1.27
   4  -5  12   12.17    1.58
   4  -5  12   12.20    1.47
  -5   5 -12   47.30    2.86
  -5   5 -12   38.08    3.20
  -5   5 -12   42.94    2.63
   5  -5  12   41.53    2.48
   5  -5  12   42.76    2.30
   5  -5  12   39.31    2.63
   5  -5  12   43.32    2.16
   4   4 -12   46.84    3.25
   4   4 -12   45.26    2.79
  -4  -4  12   44.36    2.52
  -4  -4  12   39.20    2.50
  -4  -4  12   45.52    2.59
   3   4 -12   30.96    2.20
   3   4 -12   27.27    2.18
   3   4 -12   29.12    1.93
  -3  -4  12   30.81    2.06
  -3  -4  12   30.85    1.87
  -3  -4  12   30.84    2.02
   2   4 -12   52.77    2.23
   2   4 -12   48.78    2.53
   2   4 -12   43.43    2.52
  -2  -4  12   50.97    2.42
  -2  -4  12   46.04    2.47
  -2  -4  12   48.19    2.44
  -2  -4  12   47.21    2.26
   1   4 -12   38.85    2.23
   1   4 -12   40.11    2.20
   1   4 -12   35.94    2.15
   1   4 -12   41.03    1.96
  -1  -4  12   38.21    1.94
  -1  -4  12   36.27    2.10
  -1  -4  12   40.13    2.22
  -1  -4  12   38.68    1.87
   0   4 -12   33.02    2.09
   0   4 -12   34.86    1.99
   0   4 -12   32.51    1.81
   0  -4  12   31.36    1.85
   0  -4  12   31.95    2.05
   0  -4  12   31.33    1.59
   0  -4  12   31.04    1.67
  -1   4 -12   29.77    1.40
  -1   4 -12   30.08    1.79
  -1   4 -12   30.24    1.81
  -1   4 -12   28.28    2.06
  -1   4 -12   29.80    1.96
   1  -4  12   31.69    1.73
   1  -4  12   33.94    1.61
   1  -4  12   29.82    1.52
   1  -4  12   30.68    1.92
   1  -4  12   32.86    2.05
   1  -4  12   32.54    1.86
  -2   4 -12   66.46    2.73
  -2   4 -12   63.87    2.81
  -2   4 -12   66.14    3.33
  -2   4 -12   70.20    3.12
  -2   4 -12   66.97    3.13
   2  -4  12   72.32    3.32
   2  -4  12   67.37    3.00
   2  -4  12   67.57    2.58
   2  -4  12   68.59    2.68
   2  -4  12   64.55    3.18
   2  -4  12   69.50    2.87
  -3   4 -12   29.72    2.31
  -3   4 -12   29.51    1.94
  -3   4 -12   35.17    1.86
  -3   4 -12   26.19    1.58
   3  -4  12   28.95    1.80
   3  -4  12   30.67    1.60
   3  -4  12   26.35    2.00
   3  -4  12   33.76    1.94
  -4   4 -12   62.48    3.58
  -4   4 -12   67.33    3.10
  -4   4 -12   64.80    2.48
  -4   4 -12   65.61    3.25
   4  -4  12   65.46    2.92
   4  -4  12   66.02    2.94
   4  -4  12   61.38    3.27
   4  -4  12   62.04    3.04
   4  -4  12   63.78    2.63
  -5   4 -12   15.92    2.20
  -5   4 -12   15.21    2.02
  -5   4 -12   15.04    1.79
   5  -4  12   17.57    1.82
   5  -4  12   14.42    1.64
   5  -4  12   16.75    1.61
   5  -4  12   15.69    1.73
   5   3 -12   34.92    2.63
   5   3 -12   38.94    2.07
  -5  -3  12   40.02    2.60
  -5  -3  12   39.08    2.50
   4   3 -12   44.18    2.09
   4   3 -12   43.54    2.09
   4   3 -12   43.78    1.98
   4   3 -12   46.81    2.61
   4   3 -12   43.70    2.66
   4   3 -12   44.66    2.32
  -4  -3  12   41.25    2.25
  -4  -3  12   45.12    2.37
  -4  -3  12   45.52    2.53
   3   3 -12   84.30    3.51
   3   3 -12   75.93    3.14
   3   3 -12   74.37    2.88
   3   3 -12   81.26    3.19
   3   3 -12   75.65    2.97
   3   3 -12   80.93    3.51
  -3  -3  12   78.74    3.29
  -3  -3  12   77.75    3.31
  -3  -3  12   76.84    3.46
  -3  -3  12   79.58    3.23
   2   3 -12   27.31    1.87
   2   3 -12   27.92    1.29
   2   3 -12   28.35    1.38
   2   3 -12   30.43    1.90
   2   3 -12   26.81    1.65
   2   3 -12   26.97    1.79
  -2  -3  12   27.26    1.81
  -2  -3  12   27.72    1.55
  -2  -3  12   29.58    1.80
  -2  -3  12   27.48    1.66
   1   3 -12   56.18    2.55
   1   3 -12   58.38    2.64
   1   3 -12   56.50    2.65
   1   3 -12   54.17    2.20
   1   3 -12   51.22    2.93
   1   3 -12   54.64    2.12
  -1  -3  12   57.06    2.44
  -1  -3  12   56.62    2.64
  -1  -3  12   57.62    2.65
  -1  -3  12   54.50    2.29
  -1  -3  12   54.82    2.59
   0   3 -12   13.76    1.06
   0   3 -12   13.45    1.30
   0   3 -12   19.05    1.44
   0   3 -12   14.99    1.48
   0   3 -12   14.68    1.26
   0  -3  12   16.50    1.16
   0  -3  12   15.27    0.98
   0  -3  12   15.13    1.35
   0  -3  12   13.02    1.30
   0  -3  12   14.99    1.46
  -1   3 -12  129.22    4.88
  -1   3 -12  126.34    4.60
  -1   3 -12  125.27    4.70
  -1   3 -12  125.71    5.04
  -1   3 -12  123.17    4.93
   1  -3  12  126.78    4.44
   1  -3  12  128.12    4.97
   1  -3  12  127.63    4.87
   1  -3  12  126.35    4.56
   1  -3  12  129.06    4.51
   1  -3  12  121.24    4.95
  -2   3 -12   45.12    2.41
  -2   3 -12   43.98    2.08
  -2   3 -12   43.20    2.39
  -2   3 -12   43.66    2.53
  -2   3 -12   47.56    2.23
   2  -3  12   46.44    2.07
   2  -3  12   41.32    2.39
   2  -3  12   44.83    1.86
   2  -3  12   44.62    1.88
   2  -3  12   41.88    2.27
   2  -3  12   46.84    2.55
  -3   3 -12   76.39    3.11
  -3   3 -12   73.93    3.71
  -3   3 -12   80.98    3.64
  -3   3 -12   85.54    3.48
  -3   3 -12   76.76    3.64
   3  -3  12   79.90    2.98
   3  -3  12   79.77    3.19
   3  -3  12   79.38    3.28
   3  -3  12   81.87    3.70
   3  -3  12   77.73    3.43
  -4   3 -12   43.37    2.99
  -4   3 -12   44.46    2.06
  -4   3 -12   43.76    2.67
  -4   3 -12   44.78    2.69
   4  -3  12   45.51    2.39
   4  -3  12   46.63    2.28
   4  -3  12   44.98    2.52
   4  -3  12   43.85    2.64
  -5   3 -12   45.31    2.77
  -5   3 -12   44.33    3.40
   5  -3  12   47.12    2.63
   5  -3  12   40.16    2.58
   5  -3  12   38.17    2.58
   5   2 -12   21.50    1.79
   5   2 -12   20.47    1.53
   5   2 -12   21.64    1.99
  -5  -2  12   20.95    1.80
  -5  -2  12   20.87    1.54
  -5  -2  12   23.54    2.12
   4   2 -12   71.97    2.87
   4   2 -12   73.91    2.97
   4   2 -12   70.31    3.30
   4   2 -12   72.55    3.01
   4   2 -12   70.43    3.32
  -4  -2  12   67.89    3.04
  -4  -2  12   70.05    2.86
  -4  -2  12   71.37    2.97
  -4  -2  12   73.42    3.37
   3   2 -12   33.35    1.74
   3   2 -12   31.29    1.94
   3   2 -12   30.72    1.55
   3   2 -12   32.63    1.61
   3   2 -12   28.16    1.98
   3   2 -12   30.97    1.75
   3   2 -12   29.92    1.78
  -3  -2  12   27.95    1.77
  -3  -2  12   30.96    1.66
  -3  -2  12   33.64    1.93
  -3  -2  12   31.16    1.69
  -3  -2  12   31.25    1.98
   2   2 -12   91.76    3.74
   2   2 -12   92.60    3.51
   2   2 -12   91.81    3.70
   2   2 -12   90.34    3.37
   2   2 -12   98.12    3.82
   2   2 -12   89.37    3.69
  -2  -2  12   92.59    3.83
  -2  -2  12   89.52    3.61
  -2  -2  12   88.56    3.57
  -2  -2  12   89.99    3.63
  -2  -2  12   88.62    3.40
   1   2 -12   31.14    1.86
   1   2 -12   31.39    1.91
   1   2 -12   33.57    1.84
   1   2 -12   29.66    1.82
   1   2 -12   33.26    1.68
  -1  -2  12   29.54    1.45
  -1  -2  12   28.11    1.71
  -1  -2  12   32.72    1.87
  -1  -2  12   34.59    1.71
  -1  -2  12   36.29    2.00
   0   2 -12  151.24    5.79
   0   2 -12  153.42    5.68
   0   2 -12  151.79    5.72
   0   2 -12  148.63    5.77
   0  -2  12  153.88    5.24
   0  -2  12  148.97    5.72
   0  -2  12  153.11    5.74
   0  -2  12  152.85    5.31
   0  -2  12  160.43    5.46
   0  -2  12  162.26    5.77
  -1   2 -12   31.57    1.69
  -1   2 -12   33.74    1.80
  -1   2 -12   30.13    1.97
  -1   2 -12   30.13    1.90
  -1   2 -12   32.20    1.87
   1  -2  12   30.73    1.96
   1  -2  12   29.47    1.47
   1  -2  12   30.18    1.90
   1  -2  12   30.85    1.35
   1  -2  12   31.06    1.52
   1  -2  12   26.88    1.82
  -2   2 -12   56.54    2.98
  -2   2 -12   58.27    2.92
  -2   2 -12   58.11    2.52
  -2   2 -12   62.23    2.82
  -2   2 -12   59.20    2.80
   2  -2  12   59.64    2.79
   2  -2  12   56.67    2.22
   2  -2  12   57.42    2.87
   2  -2  12   60.42    2.38
   2  -2  12   62.83    3.03
  -3   2 -12   29.31    2.07
  -3   2 -12   28.12    2.05
  -3   2 -12   29.53    2.13
  -3   2 -12   29.37    1.60
  -3   2 -12   29.73    2.26
   3  -2  12   25.64    1.93
   3  -2  12   28.14    1.33
   3  -2  12   30.43    1.88
   3  -2  12   20.88    2.13
   3  -2  12   29.79    2.05
  -4   2 -12   74.03    3.69
  -4   2 -12   69.25    3.79
  -4   2 -12   73.56    2.94
   4  -2  12   72.17    3.42
   4  -2  12   80.32    3.43
   4  -2  12   69.22    3.65
   4  -2  12   70.86    3.42
   4  -2  12   75.80    2.80
   6   1 -12   21.44    2.25
   6   1 -12   23.74    1.86
  -6  -1  12   26.21    2.41
  -6  -1  12   23.84    2.07
   5   1 -12   41.67    2.66
   5   1 -12   48.47    2.69
   5   1 -12   48.36    2.26
  -5  -1  12   46.07    2.02
  -5  -1  12   52.57    2.87
  -5  -1  12   46.09    2.36
   4   1 -12   28.85    1.92
   4   1 -12   27.42    1.62
   4   1 -12   26.04    1.81
   4   1 -12   26.10    1.47
   4   1 -12   35.73    2.96
  -4  -1  12   28.22    2.08
  -4  -1  12   25.35    1.59
  -4  -1  12   25.51    1.77
  -4  -1  12   25.33    1.42
   3   1 -12   85.78    3.49
   3   1 -12   85.55    3.31
   3   1 -12   83.67    3.43
   3   1 -12   80.17    3.20
   3   1 -12   79.00    3.52
  -3  -1  12   79.85    3.12
  -3  -1  12   84.48    3.65
  -3  -1  12   82.35    3.25
  -3  -1  12   80.23    3.37
  -3  -1  12   79.95    3.15
   2   1 -12   15.58    1.46
   2   1 -12   14.64    1.36
   2   1 -12   15.29    1.31
   2   1 -12   15.89    1.34
   2   1 -12   18.29    1.41
  -2  -1  12   15.31    0.99
  -2  -1  12   15.28    1.48
  -2  -1  12   14.33    1.24
  -2  -1  12   15.72    1.20
  -2  -1  12   17.51    1.31
   1   1 -12   36.61    2.07
   1   1 -12   38.99    2.02
   1   1 -12   37.80    2.13
   1   1 -12   39.42    1.99
   1   1 -12   39.81    2.08
  -1  -1  12   39.47    2.14
  -1  -1  12   38.30    1.97
  -1  -1  12   38.10    1.60
  -1  -1  12   38.12    2.04
  -1  -1  12   41.31    1.92
  -1  -1  12   38.73    1.58
   0   1 -12   32.80    1.81
   0   1 -12   35.61    2.05
   0   1 -12   32.33    1.98
   0   1 -12   34.15    1.95
   0   1 -12   36.82    1.94
   0  -1  12   33.94    1.36
   0  -1  12   33.83    1.42
   0  -1  12   33.52    1.69
   0  -1  12   35.06    2.02
   0  -1  12   34.64    1.93
   0  -1  12   35.50    2.02
  -1   1 -12   40.33    2.17
  -1   1 -12   37.21    2.21
  -1   1 -12   39.51    2.09
  -1   1 -12   35.03    2.20
  -1   1 -12   39.78    2.28
   1  -1  12   40.01    2.20
   1  -1  12   40.16    2.18
   1  -1  12   39.30    1.57
   1  -1  12   40.14    2.25
   1  -1  12   38.38    1.47
  -2   1 -12   21.81    1.91
  -2   1 -12   23.06    1.75
  -2   1 -12   21.32    1.75
  -2   1 -12   25.62    1.91
   2  -1  12   24.03    1.77
   2  -1  12   23.35    1.04
   2  -1  12   23.63    1.17
   2  -1  12   23.54    1.76
  -3   1 -12   50.41    2.94
  -3   1 -12   61.65    3.91
  -3   1 -12   62.48    3.31
  -3   1 -12   55.34    3.09
   3  -1  12   55.23    2.87
   3  -1  12   52.97    2.79
   3  -1  12   56.24    2.50
   3  -1  12   53.28    2.06
   3  -1  12   51.04    2.91
  -4   1 -12   23.98    2.61
  -4   1 -12   26.70    2.21
  -4   1 -12   27.29    2.13
   4  -1  12   27.38    2.22
   4  -1  12   25.42    2.09
   4  -1  12   25.53    2.34
   6   0 -12   53.76    2.80
   6   0 -12   49.41    2.94
   6   0 -12   54.28    2.57
  -6   0  12   53.44    2.72
  -6   0  12   57.80    3.24
   5   0 -12   35.38    2.30
   5   0 -12   35.43    2.07
   5   0 -12   35.65    1.84
  -5   0  12   35.72    1.57
  -5   0  12   38.94    2.01
  -5   0  12   36.38    2.51
   4   0 -12   33.38    2.02
   4   0 -12   35.93    2.17
   4   0 -12   30.30    1.84
   4   0 -12   27.11    1.97
   4   0 -12   34.04    1.66
  -4   0  12   31.92    1.61
  -4   0  12   32.20    2.26
  -4   0  12   34.08    1.63
   3   0 -12   18.68    1.43
   3   0 -12   20.06    1.69
   3   0 -12   20.11    1.35
   3   0 -12   18.90    1.48
   3   0 -12   17.68    1.67
  -3   0  12   18.47    1.08
  -3   0  12   22.01    1.62
  -3   0  12   19.93    1.77
  -3   0  12   21.10    1.21
  -3   0  12   20.71    1.35
   2   0 -12   97.92    3.84
   2   0 -12   98.61    3.99
   2   0 -12   95.25    3.97
   2   0 -12   97.11    3.85
  -2   0  12  101.26    3.84
  -2   0  12   98.30    3.30
  -2   0  12   99.29    3.79
  -2   0  12   93.53    3.28
  -2   0  12   99.20    4.10
  -2   0  12   90.20    3.68
   1   0 -12   77.29    3.32
   1   0 -12   78.62    3.36
   1   0 -12   74.69    3.47
   1   0 -12   77.20    3.35
   1   0 -12   76.26    3.19
  -1   0  12   78.61    3.16
  -1   0  12   81.46    3.25
  -1   0  12   77.74    3.27
  -1   0  12   77.86    3.46
   0   0 -12  102.49    4.18
   0   0 -12   98.65    4.38
   0   0 -12  108.83    4.31
   0   0 -12  103.76    4.06
   0   0 -12  112.47    4.35
   0   0  12  108.31    4.26
   0   0  12  109.05    4.29
   0   0  12  103.72    4.31
  -1   0 -12   38.60    2.34
  -1   0 -12   42.04    2.06
  -1   0 -12   43.42    2.47
  -1   0 -12   43.35    2.45
  -1   0 -12   43.19    2.26
   1   0  12   41.84    2.37
   1   0  12   44.53    2.55
   1   0  12   43.73    2.32
  -2   0 -12   84.29    3.33
  -2   0 -12   76.03    3.79
  -2   0 -12   81.13    3.50
  -2   0 -12   83.93    3.86
   2   0  12   81.98    3.62
   2   0  12   85.11    3.77
  -3   0 -12   18.23    1.79
  -3   0 -12   20.25    1.83
  -3   0 -12   18.69    2.27
  -3   0 -12   20.28    1.54
   3   0  12   23.57    1.98
   3   0  12   20.21    2.11
   6  -1 -12   30.39    1.72
   6  -1 -12   28.08    2.21
   6  -1 -12   32.19    2.20
  -6   1  12   21.92    2.58
  -6   1  12   23.84    2.83
   5  -1 -12  111.16    4.52
   5  -1 -12  105.30    4.76
   5  -1 -12  113.09    4.02
   5  -1 -12  108.22    4.40
  -5   1  12  109.63    4.09
  -5   1  12  107.85    4.86
  -5   1  12  121.27    4.09
   4  -1 -12   13.16    1.12
   4  -1 -12   12.71    1.43
   4  -1 -12   16.76    1.44
   4  -1 -12   13.84    1.49
  -4   1  12   13.05    1.09
  -4   1  12   13.16    0.95
  -4   1  12   10.14    1.40
   3  -1 -12   70.37    3.35
   3  -1 -12   71.23    2.95
   3  -1 -12   71.26    3.12
  -3   1  12   71.86    2.93
  -3   1  12   72.70    2.79
  -3   1  12   70.88    3.44
   2  -1 -12   45.58    2.24
   2  -1 -12   44.45    2.54
   2  -1 -12   43.09    2.38
   2  -1 -12   46.34    2.22
  -2   1  12   41.16    2.51
  -2   1  12   46.31    2.22
  -2   1  12   41.39    2.06
  -2   1  12   45.10    2.28
   1  -1 -12   77.46    3.81
   1  -1 -12   88.50    3.50
   1  -1 -12   84.33    3.78
   1  -1 -12   87.10    3.65
   1  -1 -12   87.39    3.62
  -1   1  12   86.34    3.80
  -1   1  12   83.12    3.50
  -1   1  12   91.13    3.64
   0  -1 -12   16.90    1.65
   0  -1 -12   18.98    1.72
   0  -1 -12   20.91    1.47
   0  -1 -12   19.38    1.66
   0  -1 -12   22.53    2.07
   0   1  12   24.61    1.98
   0   1  12   19.73    1.56
   0   1  12   21.67    1.83
  -1  -1 -12   41.25    2.14
  -1  -1 -12   45.63    2.53
  -1  -1 -12   40.71    2.26
  -1  -1 -12   37.08    2.45
   1   1  12   41.57    2.38
   1   1  12   41.95    2.49
  -2  -1 -12   25.67    1.89
  -2  -1 -12   19.27    1.86
  -2  -1 -12   25.65    2.20
  -2  -1 -12   22.61    1.70
   2   1  12   21.77    1.97
   2   1  12   21.43    2.04
   6  -2 -12   45.04    2.73
   6  -2 -12   47.82    2.70
  -6   2  12   44.64    3.31
   5  -2 -12   19.38    1.18
   5  -2 -12   22.09    1.84
   5  -2 -12   21.04    1.85
  -5   2  12   25.27    2.37
  -5   2  12   19.98    1.44
   4  -2 -12   45.13    2.04
   4  -2 -12   44.87    2.40
   4  -2 -12   45.14    2.43
  -4   2  12   39.58    2.82
   3  -2 -12   35.49    2.93
   3  -2 -12   35.69    1.88
   3  -2 -12   28.75    1.95
  -3   2  12   32.93    1.83
  -3   2  12   32.16    1.66
  -3   2  12   30.49    2.42
   2  -2 -12   50.51    2.53
   2  -2 -12   51.01    2.49
  -2   2  12   55.16    2.97
  -2   2  12   49.10    2.35
  -2   2  12   51.78    2.51
   1  -2 -12   12.22    1.43
   1  -2 -12   12.30    1.38
   1  -2 -12    9.92    1.27
   1  -2 -12   11.97    1.51
  -1   2  12   13.08    1.73
  -1   2  12   12.98    1.29
  -1   2  12   11.99    1.45
   0  -2 -12   74.24    3.64
   0  -2 -12   73.22    3.43
   0  -2 -12   71.99    3.19
   0  -2 -12   72.09    3.36
   0   2  12   77.34    3.60
   0   2  12   70.90    3.33
  -1  -2 -12   22.30    2.09
  -1  -2 -12   18.39    1.81
  -1  -2 -12   20.36    1.71
   1   2  12   23.79    2.23
   1   2  12   17.63    1.78
   5  -3 -12   32.79    2.39
   5  -3 -12   30.99    2.25
  -5   3  12   35.74    3.04
   4  -3 -12   42.77    2.07
   4  -3 -12   40.42    2.37
   4  -3 -12   38.40    2.43
  -4   3  12   41.02    3.00
   3  -3 -12   64.98    2.92
   3  -3 -12   60.65    2.96
  -3   3  12   63.98    2.72
  -3   3  12   63.84    2.89
  -3   3  12   61.83    3.56
   2  -3 -12   32.71    2.04
   2  -3 -12   33.17    2.08
  -2   3  12   32.82    1.92
  -2   3  12   32.46    2.32
  -2   3  12   29.70    2.60
   1  -3 -12   57.42    2.97
   1  -3 -12   54.57    3.09
   1  -3 -12   61.86    2.81
  -1   3  12   51.03    3.23
  -1   3  12   53.24    2.75
   0   7 -13   54.81    3.32
   0  -7  13   56.76    2.92
   0  -7  13   61.15    3.01
  -1   7 -13   35.51    2.35
   1  -7  13   30.92    2.22
   1  -7  13   33.40    2.08
   1  -7  13   32.36    2.04
  -2   7 -13   55.84    2.84
  -2   7 -13   55.31    3.57
  -2   7 -13   62.01    2.71
   2  -7  13   59.46    2.59
   2  -7  13   53.30    2.89
   2  -7  13   58.12    2.76
  -3   7 -13   32.27    2.02
  -3   7 -13   24.04    3.01
   3  -7  13   25.29    2.24
   3  -7  13   31.55    2.24
   3  -7  13   31.79    1.99
   2   6 -13   21.80    2.60
  -2  -6  13   24.30    2.19
  -2  -6  13   26.29    2.17
   1   6 -13   47.94    3.07
  -1  -6  13   57.29    2.88
  -1  -6  13   54.89    2.74
   0   6 -13    8.73    1.49
   0   6 -13   14.86    1.77
   0  -6  13   14.11    1.40
   0  -6  13   10.03    1.24
   0  -6  13    9.74    1.18
  -1   6 -13   76.70    3.16
  -1   6 -13   71.84    3.81
  -1   6 -13   78.25    3.35
   1  -6  13   71.32    3.14
   1  -6  13   74.82    3.42
   1  -6  13   74.57    3.09
  -2   6 -13   23.53    2.42
  -2   6 -13   24.63    1.75
  -2   6 -13   23.47    1.74
   2  -6  13   24.89    2.01
   2  -6  13   22.64    1.86
   2  -6  13   26.56    1.56
   2  -6  13   23.26    1.60
  -3   6 -13   45.29    2.48
  -3   6 -13   45.34    2.16
  -3   6 -13   46.15    3.15
   3  -6  13   44.56    2.53
   3  -6  13   47.18    2.30
   3  -6  13   43.45    3.03
  -4   6 -13   12.16    1.55
  -4   6 -13   12.45    2.01
   4  -6  13   13.29    1.43
   4  -6  13    8.48    1.33
   4  -6  13    8.74    1.22
  -3  -5  13    6.22    1.19
  -3  -5  13   11.19    1.34
   2   5 -13   73.50    3.73
  -2  -5  13   76.28    3.53
  -2  -5  13   78.54    3.40
   1   5 -13   33.89    2.35
   1   5 -13   35.00    1.88
   1   5 -13   33.05    2.42
  -1  -5  13   34.95    2.21
  -1  -5  13   32.84    1.94
  -1  -5  13   37.52    2.08
   0   5 -13   30.86    2.31
   0   5 -13   33.54    2.18
   0   5 -13   28.98    1.79
   0  -5  13   33.12    1.76
   0  -5  13   31.09    1.81
   0  -5  13   30.76    2.04
  -1   5 -13   23.08    1.87
  -1   5 -13   23.33    2.18
  -1   5 -13   24.68    1.66
   1  -5  13   23.90    1.86
   1  -5  13   22.46    1.80
   1  -5  13   21.64    1.84
   1  -5  13   27.31    1.52
   1  -5  13   23.77    1.47
  -2   5 -13   35.91    2.12
  -2   5 -13   35.94    2.67
  -2   5 -13   34.15    2.00
   2  -5  13   37.14    1.82
   2  -5  13   34.85    2.12
   2  -5  13   35.51    1.74
   2  -5  13   30.26    2.22
   2  -5  13   37.59    2.22
  -3   5 -13   37.07    2.82
  -3   5 -13   36.81    2.25
  -3   5 -13   36.87    1.88
   3  -5  13   32.12    2.20
   3  -5  13   37.58    1.64
   3  -5  13   38.11    2.27
   3  -5  13   32.57    2.33
   3  -5  13   35.19    1.84
  -4   5 -13   59.34    3.14
  -4   5 -13   56.72    3.68
   4  -5  13   56.16    3.00
   4  -5  13   59.59    2.61
   4  -5  13   52.32    3.12
   4  -5  13   56.59    2.58
   4  -5  13   68.81    3.49
   4   4 -13   12.20    1.75
  -4  -4  13   19.33    2.10
  -4  -4  13   15.76    1.56
   3   4 -13   44.29    2.77
  -3  -4  13   41.70    2.52
  -3  -4  13   43.88    2.61
  -3  -4  13   44.87    2.40
   2   4 -13   42.38    2.38
   2   4 -13   41.29    2.05
   2   4 -13   36.18    2.43
  -2  -4  13   34.54    2.30
  -2  -4  13   36.56    2.04
  -2  -4  13   37.26    2.30
   1   4 -13   42.93    2.18
   1   4 -13   39.71    2.34
   1   4 -13   44.95    2.47
  -1  -4  13   40.11    2.25
  -1  -4  13   40.37    2.33
  -1  -4  13   38.65    2.00
  -1  -4  13   39.92    2.15
  -1  -4  13   40.91    2.46
   0   4 -13   33.80    2.26
   0   4 -13   32.40    2.07
   0   4 -13   32.58    1.96
   0   4 -13   34.12    1.40
   0   4 -13   33.23    1.30
   0  -4  13   32.67    2.09
   0  -4  13   33.21    1.80
   0  -4  13   34.83    2.32
   0  -4  13   34.33    1.76
   0  -4  13   32.46    2.02
  -1   4 -13   69.17    3.45
  -1   4 -13   68.44    3.19
  -1   4 -13   72.75    2.73
   1  -4  13   63.81    3.24
   1  -4  13   70.50    3.43
   1  -4  13   68.55    3.17
   1  -4  13   70.67    2.99
   1  -4  13   72.06    2.84
  -2   4 -13   21.56    1.66
  -2   4 -13   23.36    1.57
  -2   4 -13   22.01    2.18
  -2   4 -13   18.50    1.66
   2  -4  13   20.61    1.54
   2  -4  13   19.34    1.26
   2  -4  13   18.75    1.68
   2  -4  13   16.92    1.88
   2  -4  13   18.57    1.74
  -3   4 -13   79.66    4.09
  -3   4 -13   80.05    3.31
  -3   4 -13   87.50    3.63
  -3   4 -13   83.18    3.82
   3  -4  13   81.42    3.67
   3  -4  13   82.23    3.18
   3  -4  13   86.90    3.47
   3  -4  13   76.66    3.84
  -4   4 -13   36.81    2.46
  -4   4 -13   37.23    3.10
  -4   4 -13   32.90    2.50
   4  -4  13   35.01    2.37
   4  -4  13   31.93    1.76
   4  -4  13   31.86    2.38
   4  -4  13   38.07    2.16
   4  -4  13   33.54    2.22
   4   3 -13   53.74    3.04
   4   3 -13   55.24    2.62
   4   3 -13   57.20    2.49
   4   3 -13   60.70    3.23
  -4  -3  13   56.19    2.82
  -4  -3  13   57.63    3.06
  -4  -3  13   57.01    2.77
  -4  -3  13   55.50    2.59
   3   3 -13   25.69    1.70
   3   3 -13   25.93    1.36
   3   3 -13   23.88    2.12
   3   3 -13   24.12    1.48
  -3  -3  13   27.69    1.68
  -3  -3  13   24.57    1.87
  -3  -3  13   24.83    1.69
  -3  -3  13   26.19    2.04
   2   3 -13   73.35    2.87
   2   3 -13   77.80    3.41
   2   3 -13   74.48    2.76
   2   3 -13   76.13    3.19
   2   3 -13   72.24    3.32
  -2  -3  13   71.26    3.20
  -2  -3  13   69.20    3.15
  -2  -3  13   77.20    3.31
  -2  -3  13   74.81    3.40
   1   3 -13   40.46    2.24
   1   3 -13   37.32    1.82
   1   3 -13   49.06    2.99
   1   3 -13   40.70    2.15
   1   3 -13   37.09    2.28
   1   3 -13   38.55    1.71
  -1  -3  13   38.46    2.15
  -1  -3  13   41.68    2.29
  -1  -3  13   39.10    2.03
  -1  -3  13   38.75    1.85
  -1  -3  13   38.37    2.27
   0   3 -13   92.66    3.92
   0   3 -13   95.55    3.61
   0   3 -13   93.99    3.84
   0   3 -13   94.38    4.07
   0  -3  13  101.02    4.07
   0  -3  13   92.09    3.96
   0  -3  13   89.58    3.92
   0  -3  13   94.88    3.50
   0  -3  13   92.86    3.64
   0  -3  13   98.23    3.68
  -1   3 -13   16.17    1.60
  -1   3 -13   14.45    1.69
  -1   3 -13   16.21    1.46
  -1   3 -13   14.58    1.73
   1  -3  13   15.38    1.02
   1  -3  13   20.03    1.62
   1  -3  13   14.59    1.17
   1  -3  13   13.55    1.26
   1  -3  13   13.06    1.39
   1  -3  13   17.99    1.77
  -2   3 -13   57.70    2.57
  -2   3 -13   58.54    2.92
  -2   3 -13   58.57    3.14
  -2   3 -13   57.14    2.73
   2  -3  13   55.12    2.26
   2  -3  13   55.48    2.83
   2  -3  13   55.00    2.46
   2  -3  13   52.98    2.30
   2  -3  13   51.82    2.84
  -3   3 -13   21.89    2.21
  -3   3 -13   22.75    2.03
  -3   3 -13   22.23    1.58
  -3   3 -13   22.87    1.94
   3  -3  13   21.37    1.28
   3  -3  13   23.72    1.64
   3  -3  13   22.47    1.90
   3  -3  13   22.32    1.97
  -4   3 -13   65.68    3.50
  -4   3 -13   55.95    3.47
  -4   3 -13   61.66    3.76
   4  -3  13   67.49    3.15
   4  -3  13   63.81    2.61
   4  -3  13   62.25    3.35
   4  -3  13   65.29    3.26
   5   2 -13   33.39    2.70
   5   2 -13   36.81    2.16
  -5  -2  13   40.08    2.43
  -5  -2  13   43.62    2.82
   4   2 -13   34.84    2.41
   4   2 -13   35.92    1.92
   4   2 -13   33.20    2.03
   4   2 -13   36.70    2.13
   4   2 -13   36.50    1.88
  -4  -2  13   34.80    1.86
  -4  -2  13   32.44    2.39
  -4  -2  13   35.20    2.00
  -4  -2  13   34.33    2.01
   3   2 -13   49.78    2.66
   3   2 -13   52.02    2.20
   3   2 -13   50.12    2.34
   3   2 -13   45.50    2.40
   3   2 -13   48.50    2.44
  -3  -2  13   51.65    2.31
  -3  -2  13   50.48    2.72
  -3  -2  13   47.26    2.26
  -3  -2  13   46.25    2.40
   2   2 -13    9.74    1.21
   2   2 -13    8.52    1.20
   2   2 -13    6.36    1.05
   2   2 -13    8.32    1.00
   2   2 -13    6.54    0.99
  -2  -2  13    8.37    1.13
  -2  -2  13    6.98    1.14
  -2  -2  13    7.09    0.95
  -2  -2  13    8.02    1.09
  -2  -2  13    7.62    0.91
   1   2 -13   65.32    3.15
   1   2 -13   80.32    3.94
   1   2 -13   70.15    3.08
   1   2 -13   69.22    3.17
   1   2 -13   73.53    2.96
  -1  -2  13   67.91    2.93
  -1  -2  13   65.05    3.02
  -1  -2  13   69.57    3.12
  -1  -2  13   68.53    3.23
  -1  -2  13   69.95    2.67
   0   2 -13   30.82    1.85
   0   2 -13   34.80    1.89
   0   2 -13   29.99    1.95
   0   2 -13   29.32    2.05
   0  -2  13   31.51    1.57
   0  -2  13   31.84    1.43
   0  -2  13   29.78    1.69
   0  -2  13   31.61    2.05
   0  -2  13   31.10    1.90
   0  -2  13   31.72    2.04
  -1   2 -13   81.60    3.43
  -1   2 -13   76.84    3.58
  -1   2 -13   82.19    3.68
  -1   2 -13   79.38    3.31
   1  -2  13   82.89    3.57
   1  -2  13   80.68    3.13
   1  -2  13   79.17    3.01
   1  -2  13   85.08    3.71
   1  -2  13   75.12    2.88
   1  -2  13   78.41    3.54
  -2   2 -13   36.26    2.28
  -2   2 -13   35.31    1.99
  -2   2 -13   33.94    2.26
  -2   2 -13   37.40    2.51
   2  -2  13   37.86    2.33
   2  -2  13   34.56    1.77
   2  -2  13   35.41    1.54
   2  -2  13   35.06    2.21
  -3   2 -13   74.36    3.72
  -3   2 -13   73.28    3.65
  -3   2 -13   75.20    3.84
  -3   2 -13   72.22    3.36
   3  -2  13   72.41    3.55
   3  -2  13   74.23    3.40
   3  -2  13   74.39    2.74
   3  -2  13   71.05    3.52
   5   1 -13   40.39    2.55
   5   1 -13   40.77    2.33
   5   1 -13   43.58    2.73
   5   1 -13   40.62    2.18
  -5  -1  13   41.05    2.79
  -5  -1  13   38.68    2.24
   4   1 -13   61.45    2.54
   4   1 -13   63.45    3.11
   4   1 -13   62.76    2.66
   4   1 -13   52.87    3.60
   4   1 -13   59.38    2.97
  -4  -1  13   61.12    2.49
  -4  -1  13   61.57    2.65
  -4  -1  13   64.61    3.30
  -4  -1  13   59.13    2.63
   3   1 -13   41.63    2.34
   3   1 -13   43.55    2.32
   3   1 -13   43.64    2.20
   3   1 -13   42.32    2.33
   3   1 -13   41.27    2.06
  -3  -1  13   43.50    1.92
  -3  -1  13   39.28    1.97
  -3  -1  13   42.89    2.15
  -3  -1  13   40.96    2.58
   2   1 -13   39.59    2.24
   2   1 -13   42.44    2.26
   2   1 -13   38.55    2.38
   2   1 -13   38.97    1.98
   2   1 -13   44.18    2.25
  -2  -1  13   40.69    2.17
  -2  -1  13   40.78    2.41
  -2  -1  13   42.20    1.75
  -2  -1  13   39.68    2.00
  -2  -1  13   38.13    2.16
   1   1 -13   26.23    1.79
   1   1 -13   23.42    1.75
   1   1 -13   21.18    1.59
   1   1 -13   23.79    1.75
  -1  -1  13   26.79    1.64
  -1  -1  13   24.33    1.88
  -1  -1  13   22.69    1.13
  -1  -1  13   22.69    1.56
  -1  -1  13   23.35    1.18
  -1  -1  13   24.40    1.74
   0   1 -13   74.19    3.05
   0   1 -13   66.16    3.26
   0   1 -13   72.70    3.31
   0   1 -13   69.66    3.19
   0  -1  13   68.49    3.30
   0  -1  13   69.43    3.15
   0  -1  13   73.07    3.29
   0  -1  13   71.52    2.96
   0  -1  13   72.47    2.51
   0  -1  13   70.23    2.47
  -1   1 -13   40.53    2.45
  -1   1 -13   42.70    2.44
  -1   1 -13   46.48    2.19
  -1   1 -13   39.71    2.48
   1  -1  13   40.59    2.43
   1  -1  13   40.07    2.31
  -2   1 -13   40.37    2.56
  -2   1 -13   43.87    2.20
  -2   1 -13   44.51    2.75
  -2   1 -13   43.84    2.76
   2  -1  13   45.66    2.66
   2  -1  13   42.68    2.54
  -3   1 -13   12.63    1.47
  -3   1 -13    6.59    1.26
  -3   1 -13    7.52    1.52
   3  -1  13    8.39    1.38
   3  -1  13    7.34    1.19
   5   0 -13   45.46    3.03
   5   0 -13   46.49    2.49
   5   0 -13   42.26    2.15
   5   0 -13   49.76    2.76
  -5   0  13   47.82    3.01
  -5   0  13   47.03    2.32
   4   0 -13    7.41    1.25
   4   0 -13    9.60    1.18
   4   0 -13    7.72    1.37
   4   0 -13   10.26    1.34
  -4   0  13    6.67    1.28
  -4   0  13    9.58    1.08
  -4   0  13    9.49    1.13
   3   0 -13   84.43    3.62
   3   0 -13   84.13    3.77
   3   0 -13   84.68    3.48
   3   0 -13   84.66    3.47
  -3   0  13   87.87    3.27
  -3   0  13   86.19    3.93
  -3   0  13   80.52    3.03
  -3   0  13   85.78    3.39
   2   0 -13   28.29    1.88
   2   0 -13   29.63    1.98
   2   0 -13   28.64    1.89
   2   0 -13   28.90    2.09
  -2   0  13   28.84    1.64
  -2   0  13   30.29    1.85
  -2   0  13   28.82    2.20
   1   0 -13   72.84    3.40
   1   0 -13   72.10    3.46
   1   0 -13   70.15    3.18
   1   0 -13   75.61    3.33
  -1   0  13   75.05    3.16
  -1   0  13   72.56    3.14
  -1   0  13   75.90    3.28
  -1   0  13   76.58    3.54
   0   0 -13   21.93    2.08
   0   0 -13   21.27    1.57
   0   0 -13   20.65    1.76
   0   0 -13   21.79    1.86
   0   0  13   21.25    1.60
   0   0  13   20.76    1.96
   0   0  13   26.36    2.00
  -1   0 -13   66.35    3.38
  -1   0 -13   72.03    3.42
  -1   0 -13   67.20    2.98
   1   0  13   67.60    3.32
   1   0  13   65.03    3.19
  -2   0 -13   66.42    2.94
  -2   0 -13   61.69    3.33
  -2   0 -13   67.25    3.52
   2   0  13   63.83    3.36
   2   0  13   62.34    3.32
   5  -1 -13   21.75    1.92
   5  -1 -13   20.26    2.04
  -5   1  13   17.68    2.38
   4  -1 -13   69.66    2.84
   4  -1 -13   63.33    3.16
   4  -1 -13   64.58    3.13
   4  -1 -13   76.57    4.12
  -4   1  13   62.71    3.55
  -4   1  13   73.45    3.39
   3  -1 -13   36.07    2.57
   3  -1 -13   27.83    1.99
   3  -1 -13   30.83    1.89
  -3   1  13   26.70    1.81
  -3   1  13   30.72    1.62
  -3   1  13   27.41    2.43
   2  -1 -13   61.93    3.27
   2  -1 -13   65.63    3.02
   2  -1 -13   65.73    3.00
   2  -1 -13   67.91    3.43
  -2   1  13   66.09    2.97
  -2   1  13   64.32    2.81
  -2   1  13   67.51    3.44
   1  -1 -13   31.02    1.98
   1  -1 -13   31.12    2.02
   1  -1 -13   27.78    2.14
  -1   1  13   30.21    1.82
  -1   1  13   28.21    2.21
  -1   1  13   29.09    2.35
   0  -1 -13   51.33    2.50
   0  -1 -13   44.46    3.00
   0  -1 -13   48.99    2.77
   0   1  13   49.26    2.56
   0   1  13   44.76    2.85
  -1  -1 -13   13.89    1.62
  -1  -1 -13    9.56    1.45
  -1  -1 -13   12.95    1.60
   1   1  13   11.51    1.58
   1   1  13   11.75    1.56
   4  -2 -13   15.11    1.41
   4  -2 -13   16.93    1.86
   4  -2 -13   14.21    1.76
  -4   2  13   10.55    1.64
   3  -2 -13   45.96    2.62
   3  -2 -13   50.96    2.57
  -3   2  13   48.73    2.50
  -3   2  13   51.34    2.31
  -3   2  13   49.76    3.14
   2  -2 -13   37.98    2.29
   2  -2 -13   41.80    2.30
  -2   2  13   34.25    2.78
  -2   2  13   39.13    2.45
  -2   2  13   36.72    2.01
   1  -2 -13   58.17    2.98
   1  -2 -13   55.72    3.10
   1  -2 -13   52.10    2.73
  -1   2  13   54.24    2.68
  -1   2  13   48.26    3.27
   0   6 -14   60.62    3.36
   0   6 -14   64.03    3.65
   0  -6  14   62.17    3.22
   0  -6  14   61.18    3.00
  -1   6 -14   26.20    2.63
  -1   6 -14   23.26    1.79
  -1   6 -14   27.12    2.09
   1  -6  14   24.35    2.08
   1  -6  14   20.63    2.53
   1  -6  14   21.43    1.78
   1  -6  14   23.64    1.85
  -2   6 -14   37.13    2.36
  -2   6 -14   40.18    3.20
  -2   6 -14   36.91    2.23
   2  -6  14   35.71    2.11
   2  -6  14   38.64    2.57
   2  -6  14   32.94    2.41
   2   5 -14   19.54    2.38
  -2  -5  14   13.54    1.77
  -2  -5  14   17.58    2.02
   1   5 -14   23.42    2.51
   1   5 -14   27.07    2.49
   1   5 -14   31.14    1.98
  -1  -5  14   32.46    2.30
  -1  -5  14   34.45    2.02
   0   5 -14   31.80    2.64
   0   5 -14   39.46    2.11
   0   5 -14   34.36    2.49
   0  -5  14   33.45    1.98
   0  -5  14   33.56    2.05
   0  -5  14   34.59    2.31
   0  -5  14   33.14    2.28
  -1   5 -14   41.11    2.31
  -1   5 -14   39.38    2.84
  -1   5 -14   35.20    2.41
   1  -5  14   35.60    2.43
   1  -5  14   40.02    2.43
   1  -5  14   39.79    2.08
   1  -5  14   39.78    2.02
   1  -5  14   38.19    2.48
  -2   5 -14   22.46    1.86
  -2   5 -14   24.34    2.04
  -2   5 -14   25.13    2.56
   2  -5  14   25.16    1.58
   2  -5  14   25.30    1.54
   2  -5  14   24.73    2.07
   2  -5  14   23.71    2.05
   2  -5  14   20.55    2.13
  -3   5 -14   41.53    3.29
  -3   5 -14   40.42    2.55
   3  -5  14   40.03    2.77
   3  -5  14   41.04    2.07
   3  -5  14   36.80    2.61
   3  -5  14   37.06    2.52
   3   4 -14   23.40    2.42
  -3  -4  14   13.90    1.63
  -3  -4  14   12.34    1.80
  -3  -4  14   15.09    1.83
   2   4 -14   56.58    3.02
   2   4 -14   55.68    2.65
   2   4 -14   47.71    3.08
  -2  -4  14   53.99    2.60
  -2  -4  14   53.12    2.70
  -2  -4  14   66.53    4.38
  -2  -4  14   52.05    2.97
   1   4 -14   24.43    1.80
   1   4 -14   21.75    2.05
   1   4 -14   23.00    2.14
  -1  -4  14   24.70    1.62
  -1  -4  14   29.38    2.11
  -1  -4  14   22.76    1.77
   0   4 -14   64.33    3.35
   0   4 -14   62.03    2.29
   0   4 -14   64.62    3.14
   0   4 -14   61.17    3.00
   0  -4  14   64.91    2.85
   0  -4  14   61.06    2.67
   0  -4  14   66.01    3.17
   0  -4  14   61.20    3.09
  -1   4 -14   22.58    2.26
  -1   4 -14   22.14    1.94
  -1   4 -14   23.35    1.81
   1  -4  14   22.24    1.87
   1  -4  14   24.66    1.58
   1  -4  14   24.43    2.02
   1  -4  14   22.63    1.47
   1  -4  14   25.15    1.76
  -2   4 -14   54.27    3.21
  -2   4 -14   56.13    2.90
  -2   4 -14   49.95    2.76
   2  -4  14   54.47    2.89
   2  -4  14   53.08    2.32
   2  -4  14   49.67    2.88
   2  -4  14   51.29    2.29
   2  -4  14   53.08    2.61
  -3   4 -14   36.78    2.20
  -3   4 -14   33.93    3.04
  -3   4 -14   38.91    2.51
   3  -4  14   39.31    1.91
   3  -4  14   35.80    2.45
   3  -4  14   35.68    2.59
   3   3 -14   70.91    3.60
   3   3 -14   67.35    3.12
  -3  -3  14   73.63    3.55
  -3  -3  14   68.82    3.09
  -3  -3  14   72.62    3.36
  -3  -3  14   72.73    3.11
   2   3 -14   41.20    2.43
   2   3 -14   38.89    1.78
   2   3 -14   40.33    2.60
   2   3 -14   38.37    2.20
  -2  -3  14   42.24    2.07
  -2  -3  14   34.65    2.44
  -2  -3  14   35.05    2.43
  -2  -3  14   37.77    2.16
   1   3 -14   74.96    3.41
   1   3 -14   68.71    3.41
   1   3 -14   69.57    3.29
   1   3 -14   71.58    2.95
   1   3 -14   72.11    2.83
  -1  -3  14   73.31    3.49
  -1  -3  14   82.00    3.76
  -1  -3  14   71.40    3.45
  -1  -3  14   74.48    2.94
  -1  -3  14   69.55    3.21
   0   3 -14   19.79    1.96
   0   3 -14   16.33    1.50
   0   3 -14   19.80    1.73
   0  -3  14   16.06    1.18
   0  -3  14   15.00    1.43
   0  -3  14   18.65    1.59
   0  -3  14   18.03    1.82
   0  -3  14   15.38    1.50
  -1   3 -14   54.00    2.85
  -1   3 -14   56.63    2.69
  -1   3 -14   53.23    2.65
  -1   3 -14   55.83    3.13
   1  -3  14   53.81    2.25
   1  -3  14   52.41    2.43
   1  -3  14   57.10    2.92
   1  -3  14   53.27    2.82
   1  -3  14   53.10    2.47
  -2   3 -14   23.35    2.12
  -2   3 -14   26.33    2.49
  -2   3 -14   25.52    2.06
  -2   3 -14   26.29    1.88
   2  -3  14   29.15    2.13
   2  -3  14   28.25    1.45
   2  -3  14   27.17    2.17
  -3   3 -14   82.34    4.48
  -3   3 -14   88.86    4.58
   3  -3  14   88.15    3.57
   3  -3  14   91.09    4.13
   3  -3  14   85.61    4.06
   4   2 -14   48.65    3.08
   4   2 -14   48.49    2.44
   4   2 -14   50.23    2.55
  -4  -2  14   50.96    2.55
  -4  -2  14   48.55    3.08
   3   2 -14   22.44    1.50
   3   2 -14   18.81    2.32
   3   2 -14   18.34    2.03
   3   2 -14   17.33    1.51
   3   2 -14   16.93    1.77
  -3  -2  14   18.96    2.08
  -3  -2  14   18.93    1.76
  -3  -2  14   18.32    1.46
   2   2 -14   24.44    1.56
   2   2 -14   21.34    1.83
   2   2 -14   17.87    1.89
   2   2 -14   22.52    1.76
   2   2 -14   25.12    1.76
  -2  -2  14   21.96    1.86
  -2  -2  14   21.40    1.59
  -2  -2  14   23.68    2.05
  -2  -2  14   23.73    1.43
   1   2 -14   19.06    1.63
   1   2 -14   22.97    1.82
   1   2 -14   22.68    1.88
   1   2 -14   22.43    1.75
  -1  -2  14   19.54    1.56
  -1  -2  14   21.31    1.26
  -1  -2  14   20.47    1.92
  -1  -2  14   22.10    2.01
  -1  -2  14   22.07    1.75
   0   2 -14   44.40    2.34
   0   2 -14   43.27    2.62
   0   2 -14   41.02    2.45
   0   2 -14   39.93    2.33
   0  -2  14   43.64    1.96
   0  -2  14   43.90    2.25
   0  -2  14   42.58    2.58
   0  -2  14   42.76    1.83
   0  -2  14   44.07    2.39
  -1   2 -14   15.11    1.64
  -1   2 -14   13.68    1.67
  -1   2 -14   14.79    1.79
  -1   2 -14   14.66    1.55
   1  -2  14   15.25    1.01
   1  -2  14   16.69    1.84
   1  -2  14   16.16    1.57
  -2   2 -14   47.41    2.97
  -2   2 -14   49.30    2.52
  -2   2 -14   51.21    3.10
  -2   2 -14   52.00    3.11
   2  -2  14   48.89    2.77
   2  -2  14   50.35    2.89
   4   1 -14   36.35    2.55
   4   1 -14   35.77    2.07
   4   1 -14   24.54    3.34
   4   1 -14   36.57    2.13
  -4  -1  14   33.74    2.70
  -4  -1  14   30.14    1.94
   3   1 -14   73.76    3.26
   3   1 -14   70.86    3.35
   3   1 -14   72.10    3.09
   3   1 -14   68.80    3.35
   3   1 -14   76.20    3.43
  -3  -1  14   71.96    3.13
  -3  -1  14   69.55    2.94
  -3  -1  14   77.30    3.71
  -3  -1  14   68.63    2.81
   2   1 -14   39.00    2.39
   2   1 -14   38.78    2.37
   2   1 -14   40.78    2.32
   2   1 -14   37.05    2.07
   2   1 -14   44.75    2.36
  -2  -1  14   37.29    2.28
  -2  -1  14   38.64    2.58
  -2  -1  14   36.91    1.69
  -2  -1  14   41.04    2.09
   1   1 -14   73.18    3.57
   1   1 -14   82.48    3.58
   1   1 -14   78.60    3.43
   1   1 -14   76.96    3.54
  -1  -1  14   74.71    3.30
  -1  -1  14   83.08    3.57
  -1  -1  14   74.80    3.65
   0   1 -14   24.62    1.96
   0   1 -14   25.70    2.11
   0   1 -14   26.17    1.89
   0   1 -14   25.61    2.14
   0  -1  14   29.30    2.20
   0  -1  14   19.94    1.67
  -1   1 -14   80.91    3.85
  -1   1 -14   76.53    3.80
  -1   1 -14   78.33    3.76
  -1   1 -14   76.70    3.40
   1  -1  14   79.16    3.80
   1  -1  14   75.41    3.58
   4   0 -14   59.00    2.70
   4   0 -14   55.46    2.83
   4   0 -14   58.70    3.35
   4   0 -14   56.94    3.11
  -4   0  14   57.78    3.51
   3   0 -14   13.84    1.61
   3   0 -14   17.10    1.81
   3   0 -14   15.79    1.58
   3   0 -14   14.91    1.65
   3   0 -14   10.47    1.28
  -3   0  14   12.84    1.24
  -3   0  14   14.07    1.71
  -3   0  14   11.80    1.50
   2   0 -14   59.23    3.28
   2   0 -14   58.55    3.11
   2   0 -14   64.00    3.00
   2   0 -14   60.81    3.00
  -2   0  14   64.42    3.36
  -2   0  14   58.14    2.68
  -2   0  14   60.93    2.91
   1   0 -14   19.10    1.82
   1   0 -14   15.70    1.82
   1   0 -14   17.99    2.25
   1   0 -14   17.25    1.69
  -1   0  14   17.19    2.12
  -1   0  14   15.41    1.40
   0   0 -14   47.11    2.63
   0   0 -14   54.74    2.97
   0   0  14   46.52    3.00
   0   0  14   52.15    2.61
   3  -1 -14   40.00    2.39
   3  -1 -14   42.84    2.60
  -3   1  14   41.68    2.05
  -3   1  14   42.98    3.11
   2  -1 -14   19.87    1.88
   2  -1 -14   14.70    1.80
   2  -1 -14   16.15    1.85
  -2   1  14   18.98    2.38
  -2   1  14   19.10    1.97
  -2   1  14   17.94    1.46
   1  -1 -14   65.92    3.36
   1  -1 -14   64.15    3.15
   1  -1 -14   64.87    3.45
  -1   1  14   70.68    3.71
  -1   1  14   64.60    3.03
   1   4 -15   66.10    3.07
   1   4 -15   64.18    3.53
   1   4 -15   67.29    3.49
  -1  -4  15   59.80    3.38
  -1  -4  15   58.44    3.09
  -1  -4  15   62.29    2.84
   0   4 -15   16.53    1.71
   0   4 -15   17.96    2.29
   0   4 -15   16.52    1.76
   0  -4  15   16.88    1.74
   0  -4  15   20.03    1.54
   0  -4  15   18.47    2.16
  -1   4 -15   25.06    2.29
  -1   4 -15   30.22    2.15
  -1   4 -15   28.90    2.73
   1  -4  15   29.60    2.00
   1  -4  15   28.92    2.19
   1  -4  15   29.06    2.99
   1  -4  15   30.37    1.77
   2   3 -15   53.51    2.69
   2   3 -15   50.84    3.01
   2   3 -15   54.96    3.12
  -2  -3  15   47.26    2.49
  -2  -3  15   51.58    2.61
   1   3 -15   42.18    2.42
   1   3 -15   40.19    2.73
   1   3 -15   42.54    2.75
  -1  -3  15   38.93    2.32
  -1  -3  15   41.21    2.75
   0   3 -15   47.07    2.85
   0   3 -15   52.42    2.78
   0   3 -15   47.65    2.99
   0  -3  15   51.15    2.25
   0  -3  15   49.96    2.71
   0  -3  15   46.64    2.97
  -1   3 -15   18.73    1.89
  -1   3 -15   20.56    2.46
  -1   3 -15   20.70    1.99
   1  -3  15   23.38    1.85
   1  -3  15   19.69    1.85
   1  -3  15   18.01    2.28
   2   2 -15   31.77    2.33
   2   2 -15   28.54    2.04
   2   2 -15   31.47    1.90
   2   2 -15   31.67    2.36
  -2  -2  15   26.83    2.52
  -2  -2  15   30.26    1.89
   1   2 -15   31.19    2.21
   1   2 -15   39.74    2.44
   1   2 -15   36.36    2.54
  -1  -2  15   32.85    2.06
  -1  -2  15   32.86    2.61
   0   2 -15   15.01    1.73
   0   2 -15   17.02    2.17
   0   2 -15   20.14    2.01
   0  -2  15   16.60    1.88
   0  -2  15   16.81    1.62
   2   1 -15   41.93    2.33
   2   1 -15   42.57    2.58
   2   1 -15   43.18    2.65
   2   1 -15   40.57    2.67
  -2  -1  15   44.74    3.54
  -2  -1  15   41.50    2.20
   1   1 -15   11.72    2.34
   1   1 -15    8.75    1.49
   1   1 -15   11.23    1.49
   1   1 -15   10.66    1.36
  -1  -1  15    5.22    1.30
  -1  -1  15    9.50    1.31
   0   0   0    0.00    0.00
;
_shelx_hkl_checksum              38553
_shelx_res_file
;
    shelx.res created by SHELXL-2014/7
TITL SIR92 run in space group P -1
CELL  0.71073   6.9970   7.1850  11.0430  106.356   93.891  115.130
ZERR     1.00   0.0020   0.0030   0.0030    0.012    0.010    0.016
LATT   1
SFAC  C    H    MN   O    U
UNIT  8 20 1 18 1
MERG   2
EQIV $3 -x+2, -y+2, -z+2
HTAB OW2 O3_$3
EQIV $4 x+1, y+1, z+1
HTAB OW2 O6_$4
EQIV $5 -x+2, -y+2, -z+1
HTAB OW2 OW3_$5
HTAB OW1 OW3_$4
EQIV $6 -x+2, -y+1, -z+1
HTAB OW1 O5_$6
EQIV $7 x, y+1, z
HTAB OW3 O5_$7
EQIV $8 x-1, y, z-1
HTAB OW3 OW2_$8
HTAB OW3 O2_$8
FMAP   2
PLAN   20
ACTA
HTAB    2.00000
BOND   $H
CONF
L.S.   5
TEMP  -173.00
WGHT    0.017500    0.037800
FVAR       0.18478
U1    5    0.500000    0.500000    0.500000    10.50000    0.00530    0.00439 =
         0.00343   -0.00020   -0.00019    0.00323
MN1   3    1.000000    1.000000    1.000000    10.50000    0.00759    0.00642 =
         0.00551   -0.00025   -0.00027    0.00411
O1    4    0.310024    0.339489    0.573900    11.00000    0.01124    0.01057 =
         0.01163    0.00434    0.00379    0.00595
OW2   4    1.322074    1.081503    1.085130    11.00000    0.00859    0.01460 =
         0.00682    0.00212   -0.00022    0.00511
O2    4    1.001125    0.713907    0.863517    11.00000    0.01130    0.00965 =
         0.00637   -0.00131   -0.00224    0.00623
OW1   4    1.132961    1.199079    0.877713    11.00000    0.01516    0.00956 =
         0.01065    0.00264    0.00455    0.00700
O3    4    0.774501    0.672753    0.694434    11.00000    0.01481    0.01136 =
         0.00975   -0.00187   -0.00311    0.00981
O4    4    0.759870    0.333280    0.548650    11.00000    0.01494    0.01038 =
         0.00559   -0.00288   -0.00306    0.00989
O5    4    0.570210   -0.087895    0.246145    11.00000    0.01424    0.01147 =
         0.00669   -0.00156   -0.00005    0.00850
O6    4    0.483852    0.173776    0.344337    11.00000    0.01336    0.01182 =
         0.00841   -0.00037   -0.00132    0.00994
C1    1    0.889515    0.613584    0.750430    11.00000    0.00679    0.00701 =
         0.00666    0.00049    0.00085    0.00345
C2    1    0.895189    0.408276    0.672767    11.00000    0.01087    0.00856 =
         0.00605   -0.00114   -0.00217    0.00646
AFIX  23
H2A   2    1.044824    0.439207    0.664620    11.00000   -1.20000
H2B   2    0.840247    0.296403    0.714728    11.00000   -1.20000
AFIX   0
C3    1    0.764676    0.149836    0.459381    11.00000    0.01114    0.00776 =
         0.00663   -0.00017    0.00065    0.00689
AFIX  23
H3A   2    0.733162    0.032603    0.496839    11.00000   -1.20000
H3B   2    0.909168    0.192633    0.438183    11.00000   -1.20000
AFIX   0
C4    1    0.594620    0.070273    0.339290    11.00000    0.00792    0.00740 =
         0.00624    0.00208    0.00200    0.00405
OW3   4    0.322108    0.646988   -0.009536    11.00000    0.01231    0.01072 =
         0.01145    0.00062   -0.00064    0.00662
HW2B  2    1.364014    1.113417    1.159117    11.00000   -1.50000
HW2A  2    1.424843    1.158468    1.065451    11.00000   -1.50000
HW1B  2    1.196393    1.335335    0.914656    11.00000   -1.50000
HW1A  2    1.208266    1.174915    0.829874    11.00000   -1.50000
HW3A  2    0.372661    0.723415    0.067539    11.00000   -1.50000
HW3B  2    0.232052    0.680421   -0.032322    11.00000   -1.50000
HKLF    4
REM  SIR92 run in space group P -1
REM R1 =  0.0114 for    2656 Fo > 4sig(Fo)  and  0.0114 for all    2656 data
REM    148 parameters refined using      0 restraints
END
WGHT      0.0176      0.0303
REM Instructions for potential hydrogen bonds
EQIV $9 x+1, y, z
HTAB C2 O1_$9
EQIV $10 -x+1, -y, -z+1
HTAB C3 O1_$10
HTAB OW2 O3_$3
HTAB OW2 O6_$4
HTAB OW2 OW3_$5
HTAB OW1 OW3_$4
HTAB OW1 O5_$6
HTAB OW3 O5_$7
HTAB OW3 OW2_$8
HTAB OW3 O2_$8
REM Highest difference peak  0.506,  deepest hole -1.162,  1-sigma level  0.122
Q1    1   0.8971  0.5207  0.7129  11.00000  0.05    0.51
Q2    1   0.3194  0.4417  0.5611  11.00000  0.05    0.38
Q3    1   0.6807  0.1212  0.3906  11.00000  0.05    0.37
Q4    1   0.7451  0.4236  0.4381  11.00000  0.05    0.33
Q5    1   0.1590  0.3209  0.4770  11.00000  0.05    0.32
Q6    1   0.6423  0.5796  0.6156  11.00000  0.05    0.32
Q7    1   0.7187 -0.1113  0.2587  11.00000  0.05    0.31
Q8    1   0.9323  0.2756  0.3796  11.00000  0.05    0.29
Q9    1   1.1550  0.6450  0.6508  11.00000  0.05    0.29
Q10   1   0.8210  0.7086  0.5944  11.00000  0.05    0.28
Q11   1   0.3272  0.5388  0.4796  11.00000  0.05    0.28
Q12   1   0.2777  0.5266  0.6166  11.00000  0.05    0.28
Q13   1   0.2646  0.3843  0.4619  11.00000  0.05    0.28
Q14   1   0.5746  0.1120  0.2248  11.00000  0.05    0.28
Q15   1   1.1951  0.6675  0.7969  11.00000  0.05    0.27
Q16   1   0.3059  0.1792  0.4730  11.00000  0.05    0.27
Q17   1   0.4296  0.5392  0.3985  11.00000  0.05    0.27
Q18   1   1.2978  0.6626  0.7915  11.00000  0.05    0.27
Q19   1   1.2080  0.7936  0.8339  11.00000  0.05    0.27
Q20   1   0.9934  0.9150  0.7251  11.00000  0.05    0.27
;
_shelx_res_checksum              97925
loop_
_space_group_symop_operation_xyz
'x, y, z'
'-x, -y, -z'
loop_
_atom_site_type_symbol
_atom_site_label
_atom_site_fract_x
_atom_site_fract_y
_atom_site_fract_z
_atom_site_U_iso_or_equiv
_atom_site_adp_type
_atom_site_calc_flag
_atom_site_occupancy
U U1 0.5000 0.5000 0.5000 0.00443(3) Uani d 1
Mn Mn1 1.0000 1.0000 1.0000 0.00682(6) Uani d 1
O O1 0.31002(19) 0.3395(2) 0.57390(12) 0.0106(2) Uani d 1
O OW2 1.32207(19) 1.0815(2) 1.08513(12) 0.0106(2) Uani d 1
O O2 1.00113(19) 0.71391(19) 0.86352(11) 0.0098(2) Uani d 1
O OW1 1.1330(2) 1.1991(2) 0.87771(12) 0.0114(2) Uani d 1
O O3 0.7745(2) 0.6728(2) 0.69443(12) 0.0122(2) Uani d 1
O O4 0.75987(19) 0.33328(19) 0.54865(11) 0.0104(2) Uani d 1
O O5 0.57021(19) -0.08790(19) 0.24614(11) 0.0111(2) Uani d 1
O O6 0.4839(2) 0.1738(2) 0.34434(12) 0.0108(2) Uani d 1
C C1 0.8895(2) 0.6136(3) 0.75043(15) 0.0072(3) Uani d 1
C C2 0.8952(3) 0.4083(3) 0.67277(15) 0.0088(3) Uani d 1
H H2A 1.0448 0.4392 0.6646 0.011 Uiso calc 1
H H2B 0.8402 0.2964 0.7147 0.011 Uiso calc 1
C C3 0.7647(3) 0.1498(3) 0.45938(15) 0.0083(3) Uani d 1
H H3A 0.7332 0.0326 0.4968 0.010 Uiso calc 1
H H3B 0.9092 0.1926 0.4382 0.010 Uiso calc 1
C C4 0.5946(2) 0.0703(3) 0.33929(15) 0.0070(3) Uani d 1
O OW3 0.3221(2) 0.6470(2) -0.00954(13) 0.0119(2) Uani d 1
H HW2B 1.364(4) 1.113(4) 1.159(3) 0.018 Uiso d 1
H HW2A 1.425(4) 1.158(4) 1.065(3) 0.018 Uiso d 1
H HW1B 1.196(4) 1.335(5) 0.915(3) 0.018 Uiso d 1
H HW1A 1.208(4) 1.175(4) 0.830(3) 0.018 Uiso d 1
H HW3A 0.373(4) 0.723(4) 0.068(3) 0.018 Uiso d 1
H HW3B 0.232(4) 0.680(4) -0.032(3) 0.018 Uiso d 1
loop_
_atom_site_aniso_label
_atom_site_aniso_U_11
_atom_site_aniso_U_22
_atom_site_aniso_U_33
_atom_site_aniso_U_12
_atom_site_aniso_U_13
_atom_site_aniso_U_23
U1 0.00530(4) 0.00439(4) 0.00343(4) 0.00323(3) -0.00019(3) -0.00020(3)
Mn1 0.00759(14) 0.00642(14) 0.00551(14) 0.00411(12) -0.00027(11) -0.00025(12)
O1 0.0112(5) 0.0106(5) 0.0116(5) 0.0060(4) 0.0038(4) 0.0043(4)
OW2 0.0086(5) 0.0146(6) 0.0068(5) 0.0051(5) -0.0002(4) 0.0021(4)
O2 0.0113(5) 0.0096(5) 0.0064(5) 0.0062(4) -0.0022(4) -0.0013(4)
OW1 0.0152(5) 0.0096(6) 0.0106(5) 0.0070(5) 0.0045(5) 0.0026(4)
O3 0.0148(5) 0.0114(5) 0.0098(5) 0.0098(5) -0.0031(4) -0.0019(4)
O4 0.0149(5) 0.0104(5) 0.0056(5) 0.0099(5) -0.0031(4) -0.0029(4)
O5 0.0142(5) 0.0115(5) 0.0067(5) 0.0085(5) 0.0000(4) -0.0016(4)
O6 0.0134(5) 0.0118(5) 0.0084(5) 0.0099(5) -0.0013(4) -0.0004(4)
C1 0.0068(6) 0.0070(6) 0.0067(6) 0.0034(5) 0.0009(5) 0.0005(5)
C2 0.0109(7) 0.0086(7) 0.0060(6) 0.0065(6) -0.0022(5) -0.0011(5)
C3 0.0111(7) 0.0078(7) 0.0066(6) 0.0069(6) 0.0006(5) -0.0002(5)
C4 0.0079(6) 0.0074(6) 0.0062(6) 0.0041(5) 0.0020(5) 0.0021(5)
OW3 0.0123(5) 0.0107(5) 0.0115(6) 0.0066(5) -0.0006(4) 0.0006(5)
loop_
_atom_type_symbol
_atom_type_description
_atom_type_scat_dispersion_real
_atom_type_scat_dispersion_imag
_atom_type_scat_source
C C 0.0033 0.0016 'International Tables Vol C Tables 4.2.6.8 and 6.1.1.4'
H H 0.0000 0.0000 'International Tables Vol C Tables 4.2.6.8 and 6.1.1.4'
Mn Mn 0.3368 0.7283 'International Tables Vol C Tables 4.2.6.8 and 6.1.1.4'
O O 0.0106 0.0060 'International Tables Vol C Tables 4.2.6.8 and 6.1.1.4'
U U -9.6767 9.6646 'International Tables Vol C Tables 4.2.6.8 and 6.1.1.4'
loop_
_geom_angle_atom_site_label_1
_geom_angle_atom_site_label_2
_geom_angle_atom_site_label_3
_geom_angle_site_symmetry_1
_geom_angle_site_symmetry_3
_geom_angle
O1 U1 O1 2_666 . 180.00(8)
O1 U1 O3 2_666 2_666 91.23(6)
O1 U1 O3 . 2_666 88.77(6)
O1 U1 O3 2_666 . 88.76(6)
O1 U1 O3 . . 91.24(6)
O3 U1 O3 2_666 . 180.0
O1 U1 O6 2_666 . 88.72(6)
O1 U1 O6 . . 91.28(6)
O3 U1 O6 2_666 . 63.74(4)
O3 U1 O6 . . 116.26(4)
O1 U1 O6 2_666 2_666 91.28(6)
O1 U1 O6 . 2_666 88.72(6)
O3 U1 O6 2_666 2_666 116.26(4)
O3 U1 O6 . 2_666 63.74(4)
O6 U1 O6 . 2_666 180.00(6)
O1 U1 O4 2_666 . 90.18(5)
O1 U1 O4 . . 89.82(5)
O3 U1 O4 2_666 . 121.89(4)
O3 U1 O4 . . 58.11(4)
O6 U1 O4 . . 58.23(4)
O6 U1 O4 2_666 . 121.77(4)
O1 U1 O4 2_666 2_666 89.82(5)
O1 U1 O4 . 2_666 90.18(5)
O3 U1 O4 2_666 2_666 58.11(4)
O3 U1 O4 . 2_666 121.89(4)
O6 U1 O4 . 2_666 121.77(4)
O6 U1 O4 2_666 2_666 58.23(4)
O4 U1 O4 . 2_666 180.0
OW2 Mn1 OW2 2_777 . 180.0
OW2 Mn1 O2 2_777 . 94.72(5)
OW2 Mn1 O2 . . 85.28(5)
OW2 Mn1 O2 2_777 2_777 85.28(5)
OW2 Mn1 O2 . 2_777 94.72(5)
O2 Mn1 O2 . 2_777 180.00(6)
OW2 Mn1 OW1 2_777 2_777 89.33(5)
OW2 Mn1 OW1 . 2_777 90.67(5)
O2 Mn1 OW1 . 2_777 87.99(6)
O2 Mn1 OW1 2_777 2_777 92.01(6)
OW2 Mn1 OW1 2_777 . 90.67(5)
OW2 Mn1 OW1 . . 89.33(5)
O2 Mn1 OW1 . . 92.01(6)
O2 Mn1 OW1 2_777 . 87.99(6)
OW1 Mn1 OW1 2_777 . 180.0
Mn1 OW2 HW2B . . 123.8(19)
Mn1 OW2 HW2A . . 122.6(19)
HW2B OW2 HW2A . . 102(3)
C1 O2 Mn1 . . 125.01(11)
Mn1 OW1 HW1B . . 116.6(17)
Mn1 OW1 HW1A . . 121.6(18)
HW1B OW1 HW1A . . 105(2)
C1 O3 U1 . . 134.41(11)
C3 O4 C2 . . 112.86(12)
C3 O4 U1 . . 124.24(9)
C2 O4 U1 . . 122.66(9)
C4 O6 U1 . . 134.50(10)
O2 C1 O3 . . 125.34(15)
O2 C1 C2 . . 118.26(14)
O3 C1 C2 . . 116.39(14)
O4 C2 C1 . . 106.18(12)
O4 C2 H2A . . 110.5
C1 C2 H2A . . 110.5
O4 C2 H2B . . 110.5
C1 C2 H2B . . 110.5
H2A C2 H2B . . 108.7
O4 C3 C4 . . 107.21(12)
O4 C3 H3A . . 110.3
C4 C3 H3A . . 110.3
O4 C3 H3B . . 110.3
C4 C3 H3B . . 110.3
H3A C3 H3B . . 108.5
O5 C4 O6 . . 125.20(15)
O5 C4 C3 . . 119.22(14)
O6 C4 C3 . . 115.57(14)
HW3A OW3 HW3B . . 105(3)
loop_
_geom_bond_atom_site_label_1
_geom_bond_atom_site_label_2
_geom_bond_site_symmetry_2
_geom_bond_distance
_geom_bond_publ_flag
U1 O1 2_666 1.7715(13) ?
U1 O1 . 1.7715(13) y
U1 O3 2_666 2.3988(14) ?
U1 O3 . 2.3988(14) y
U1 O4 . 2.6664(13) y
U1 O4 2_666 2.6664(13) ?
U1 O6 . 2.4374(15) y
U1 O6 2_666 2.4374(15) ?
Mn1 O2 . 2.1835(14) y
Mn1 O2 2_777 2.1835(14) ?
Mn1 OW1 2_777 2.2053(14) ?
Mn1 OW1 . 2.2053(14) y
Mn1 OW2 2_777 2.1417(13) ?
Mn1 OW2 . 2.1417(13) y
OW2 HW2B . 0.78(3) ?
OW2 HW2A . 0.79(3) ?
O2 C1 . 1.2536(19) ?
OW1 HW1B . 0.84(3) ?
OW1 HW1A . 0.81(3) ?
O3 C1 . 1.258(2) ?
O4 C3 . 1.4215(19) ?
O4 C2 . 1.4283(18) ?
O5 C4 . 1.238(2) ?
O6 C4 . 1.2763(19) ?
C1 C2 . 1.502(2) ?
C2 H2A . 0.9900 ?
C2 H2B . 0.9900 ?
C3 C4 . 1.511(2) ?
C3 H3A . 0.9900 ?
C3 H3B . 0.9900 ?
OW3 HW3A . 0.83(3) ?
OW3 HW3B . 0.81(3) ?
loop_
_geom_hbond_atom_site_label_D
_geom_hbond_atom_site_label_H
_geom_hbond_atom_site_label_A
_geom_hbond_site_symmetry_A
_geom_hbond_distance_DH
_geom_hbond_distance_HA
_geom_hbond_distance_DA
_geom_hbond_angle_DHA
OW1 HW1A O5 2_766 0.81(3) 2.05(3) 2.8288(19) 162(2)
OW1 HW1B OW3 1_666 0.84(3) 1.91(3) 2.750(2) 175(3)
OW2 HW2A OW3 2_776 0.79(3) 2.00(3) 2.788(2) 178(3)
OW2 HW2B O3 2_777 0.78(3) 2.45(3) 2.8837(19) 117(2)
OW2 HW2B O6 1_666 0.78(3) 2.01(3) 2.7872(19) 174(3)
OW3 HW3A O5 1_565 0.83(3) 2.04(3) 2.8480(19) 165(2)
OW3 HW3B OW2 1_454 0.81(3) 2.57(3) 3.000(2) 114(2)
OW3 HW3B O2 1_454 0.81(3) 2.06(3) 2.8478(19) 165(3)
loop_
_geom_torsion_atom_site_label_1
_geom_torsion_atom_site_label_2
_geom_torsion_atom_site_label_3
_geom_torsion_atom_site_label_4
_geom_torsion
Mn1 O2 C1 O3 6.5(2)
Mn1 O2 C1 C2 -174.91(10)
U1 O3 C1 O2 -167.43(12)
U1 O3 C1 C2 14.0(2)
C3 O4 C2 C1 174.44(13)
U1 O4 C2 C1 -10.96(16)
O2 C1 C2 O4 -178.47(14)
O3 C1 C2 O4 0.21(19)
C2 O4 C3 C4 172.81(13)
U1 O4 C3 C4 -1.70(17)
U1 O6 C4 O5 -174.84(11)
U1 O6 C4 C3 6.3(2)
O4 C3 C4 O5 178.97(14)
O4 C3 C4 O6 -2.08(19)

_cod_database_fobs_code 2020801
