#------------------------------------------------------------------------------
#$Date: 2017-08-08 08:32:00 +0300 (Tue, 08 Aug 2017) $
#$Revision: 199636 $
#$URL: file:///home/coder/svn-repositories/cod/cif/2/02/08/2020846.cif $
#------------------------------------------------------------------------------
#
# This file is available in the Crystallography Open Database (COD),
# http://www.crystallography.net/. The original data for this entry
# were provided by IUCr Journals, http://journals.iucr.org/.
#
# The file may be used within the scientific community so long as
# proper attribution is given to the journal article from which the
# data were obtained.
#
data_2020846
loop_
_publ_author_name
'Setifi, Zouaoui'
'Zambon, Daniel'
'Setifi, Fatima'
'El-Ghozzi, Malika'
'Mahiou, Rachid'
'Glidewell, Christopher'
_publ_section_title
;
 Three zinc(II) and cadmium(II) complexes containing
 4-amino-3,5-bis(pyridin-2-yl)-1,2,4-triazole and polynitrile ligands:
 synthesis, molecular and supramolecular structures, and photoluminescence
 properties
;
_journal_coeditor_code           SK3666
_journal_issue                   9
_journal_name_full               'Acta Crystallographica Section C'
_journal_page_first
;
;
_journal_paper_doi               10.1107/S2053229617011391
_journal_volume                  73
_journal_year                    2017
_chemical_formula_iupac          '[Cd (C12 H10 N6)2 (C2 N3)2]'
_chemical_formula_moiety         'C28 H20 Cd N18'
_chemical_formula_sum            'C28 H20 Cd N18'
_chemical_formula_weight         721.03
_chemical_name_systematic
Bis[4-amino-3,5-bis(pyridin-2-yl)-1,2,4-triazole-\k^2^<i>N</i>^1^,<i>N</i>^5^]bis(dicyanamido-\k<i>N</i>^1^)cadmium(II)
_space_group_crystal_system      triclinic
_space_group_IT_number           2
_space_group_name_Hall           '-P 1'
_space_group_name_H-M_alt        'P -1'
_symmetry_space_group_name_Hall  '-P 1'
_symmetry_space_group_name_H-M   'P -1'
_atom_sites_solution_hydrogens   mixed
_audit_creation_method           SHELXL-2014
_cell_angle_alpha                91.966(2)
_cell_angle_beta                 94.945(2)
_cell_angle_gamma                112.682(2)
_cell_formula_units_Z            1
_cell_length_a                   8.7209(4)
_cell_length_b                   8.7949(4)
_cell_length_c                   10.3490(4)
_cell_measurement_reflns_used    7093
_cell_measurement_temperature    296(2)
_cell_measurement_theta_max      30.48
_cell_measurement_theta_min      1.98
_cell_volume                     727.67(6)
_computing_cell_refinement
;
APEX2 and SAINT (Bruker, 2009)
;
_computing_data_collection
;
APEX2 (Bruker, 2009)
;
_computing_data_reduction
;
SAINT (Bruker, 2009)
;
_computing_molecular_graphics
;
PLATON (Spek, 2009)
;
_computing_publication_material
;
SHELXL2014 (Sheldrick, 2015) and PLATON (Spek, 2009)
;
_computing_structure_refinement
;
SHELXL2014 (Sheldrick, 2015)
;
_computing_structure_solution
;
SHELXS97 (Sheldrick, 2008)
;
_diffrn_ambient_temperature      296(2)
_diffrn_detector_area_resol_mean 9.091
_diffrn_measured_fraction_theta_full 0.994
_diffrn_measured_fraction_theta_max 0.991
_diffrn_measurement_device_type  'Bruker APEXII CCD diffractometer'
_diffrn_measurement_method       '\f & \w scans'
_diffrn_radiation_monochromator  graphite
_diffrn_radiation_source         'fine-focus sealed tube'
_diffrn_radiation_type           MoK\a
_diffrn_radiation_wavelength     0.71073
_diffrn_reflns_av_R_equivalents  0.0262
_diffrn_reflns_limit_h_max       8
_diffrn_reflns_limit_h_min       -12
_diffrn_reflns_limit_k_max       12
_diffrn_reflns_limit_k_min       -12
_diffrn_reflns_limit_l_max       14
_diffrn_reflns_limit_l_min       -14
_diffrn_reflns_number            16382
_diffrn_reflns_theta_full        25.242
_diffrn_reflns_theta_max         30.483
_diffrn_reflns_theta_min         2.517
_diffrn_standards_decay_%        0
_diffrn_standards_interval_count 0
_diffrn_standards_interval_time  0
_diffrn_standards_number         0
_exptl_absorpt_coefficient_mu    0.806
_exptl_absorpt_correction_T_max  0.908
_exptl_absorpt_correction_T_min  0.835
_exptl_absorpt_correction_type   multi-scan
_exptl_absorpt_process_details
;
(SADABS; Sheldrick, 2003)
;
_exptl_crystal_colour            colourless
_exptl_crystal_density_diffrn    1.645
_exptl_crystal_description       block
_exptl_crystal_F_000             362
_exptl_crystal_size_max          0.180
_exptl_crystal_size_mid          0.160
_exptl_crystal_size_min          0.120
_refine_diff_density_max         0.740
_refine_diff_density_min         -0.258
_refine_ls_extinction_method     none
_refine_ls_goodness_of_fit_ref   1.098
_refine_ls_hydrogen_treatment    constr
_refine_ls_matrix_type           full
_refine_ls_number_parameters     214
_refine_ls_number_reflns         4392
_refine_ls_number_restraints     0
_refine_ls_restrained_S_all      1.098
_refine_ls_R_factor_all          0.0341
_refine_ls_R_factor_gt           0.0299
_refine_ls_shift/su_max          0.000
_refine_ls_shift/su_mean         0.000
_refine_ls_structure_factor_coef Fsqd
_refine_ls_weighting_details
'w=1/[\s^2^(Fo^2^)+(0.0298P)^2^+0.1878P] where P=(Fo^2^+2Fc^2^)/3'
_refine_ls_weighting_scheme      calc
_refine_ls_wR_factor_gt          0.0664
_refine_ls_wR_factor_ref         0.0679
_reflns_number_gt                4028
_reflns_number_total             4392
_reflns_threshold_expression     'I > 2\s(I)'
_cod_data_source_file            sk3666sup1.cif
_cod_data_source_block           II
_cod_database_code               2020846
_shelx_space_group_comment
;
The symmetry employed for this shelxl refinement is uniquely defined
by the following loop, which should always be used as a source of
symmetry information in preference to the above space-group names.
They are only intended as comments.
;
_shelx_estimated_absorpt_t_min   0.868
_shelx_estimated_absorpt_t_max   0.909
_shelx_hkl_file
;
  -1   0   0  107.22    2.51
  -1   0   0  109.32    2.54
  -1   0   0  105.10    2.53
  -2   0   0   91.03    2.16
  -2   0   0   96.13    2.16
  -2   0   0   88.30    2.16
  -2   0   0   91.09    2.15
  -2   0   0   89.83    2.03
   2   0   0   88.44    2.03
   2   0   0   92.66    2.15
   2   0   0   94.53    2.15
   2   0   0   90.77    2.15
   2   0   0   91.34    2.15
  -3   0   0   19.63    0.53
  -3   0   0   21.58    0.52
  -3   0   0   20.71    0.53
  -3   0   0   20.45    0.55
  -3   0   0   21.41    0.55
   3   0   0   21.54    0.54
   3   0   0   21.35    0.54
   3   0   0   21.25    0.52
   3   0   0   19.80    0.51
  -4   0   0   12.38    0.37
  -4   0   0   12.95    0.38
  -4   0   0   13.11    0.37
  -4   0   0   13.47    0.39
  -4   0   0   12.58    0.36
   4   0   0   12.71    0.36
   4   0   0   12.93    0.38
  -5   0   0   13.41    0.40
  -5   0   0   13.35    0.42
  -5   0   0   13.28    0.40
  -5   0   0   13.73    0.45
  -5   0   0   13.48    0.40
   5   0   0   13.63    0.39
   5   0   0   13.50    0.41
  -6   0   0    5.44    0.23
  -6   0   0    5.26    0.24
  -6   0   0    5.42    0.23
  -6   0   0    5.71    0.23
   6   0   0    5.53    0.23
   6   0   0    5.31    0.23
  -7   0   0   11.46    0.38
  -7   0   0   11.94    0.40
  -7   0   0   11.65    0.40
  -7   0   0   11.12    0.41
   7   0   0   10.96    0.39
  -8   0   0    1.29    0.14
  -8   0   0    0.77    0.13
  -8   0   0    1.08    0.16
   8   0   0    0.87    0.13
  -9   0   0    0.23    0.11
  -9   0   0    0.30    0.11
 -10   0   0    1.17    0.20
 -10   0   0    0.93    0.16
 -11   0   0    0.90    0.19
 -11   0   0    0.65    0.17
 -11   1   0    1.05    0.19
 -11   1   0    1.41    0.20
 -10   1   0    1.41    0.18
 -10   1   0    1.28    0.18
  -9   1   0    0.04    0.09
  -9   1   0    0.16    0.09
   8  -1   0    1.94    0.17
  -8   1   0    1.99    0.18
  -8   1   0    1.64    0.16
  -8   1   0    1.72    0.16
   7  -1   0    3.42    0.17
   7  -1   0    3.60    0.18
  -7   1   0    3.61    0.19
  -7   1   0    3.32    0.20
  -7   1   0    3.43    0.19
   6  -1   0   21.74    0.60
   6  -1   0   21.84    0.57
  -6   1   0   21.71    0.62
  -6   1   0   22.06    0.60
  -6   1   0   22.38    0.62
  -6   1   0   21.23    0.60
   5  -1   0    7.52    0.24
   5  -1   0    8.02    0.25
  -5   1   0    7.55    0.27
  -5   1   0    8.00    0.27
  -5   1   0    7.75    0.25
  -5   1   0    7.63    0.25
   4  -1   0   12.06    0.32
   4  -1   0   11.45    0.33
  -4   1   0   11.86    0.32
  -4   1   0   11.32    0.32
  -4   1   0   11.68    0.34
  -4   1   0   12.30    0.34
   3  -1   0    7.41    0.21
   3  -1   0    7.69    0.22
   3  -1   0    7.32    0.20
  -3   1   0    7.63    0.21
  -3   1   0    7.39    0.22
  -3   1   0    7.03    0.20
  -3   1   0    7.67    0.22
   2  -1   0    0.34    0.03
   2  -1   0    0.40    0.04
   2  -1   0    0.38    0.04
  -2   1   0    0.33    0.03
  -2   1   0    0.35    0.04
  -2   1   0    0.35    0.03
  -2   1   0    0.35    0.04
  -2   1   0    0.36    0.03
  -1   1   0   87.35    2.09
  -1   1   0   89.35    2.09
  -1   1   0   89.13    2.09
  -1   1   0   90.14    2.08
   0  -1   0  132.13    3.03
   0  -1   0  129.86    3.11
   0   1   0  126.60    3.14
   0   1   0  134.62    3.14
   0   1   0  136.71    2.97
  -1  -1   0   87.18    2.07
  -1  -1   0   84.13    2.06
  -1  -1   0   86.73    2.00
  -1  -1   0   88.88    2.07
  -1  -1   0   91.03    2.07
  -1  -1   0   85.40    3.41
  -1  -1   0   86.91    1.95
   1   1   0   88.88    2.07
   1   1   0   87.39    2.00
   1   1   0   90.92    2.07
   1   1   0   88.18    2.07
   1   1   0   84.94    3.41
   1   1   0   87.26    1.95
  -2  -1   0   20.59    0.52
  -2  -1   0   20.07    0.52
  -2  -1   0   21.23    0.54
  -2  -1   0   19.83    0.51
  -2  -1   0   19.98    0.53
  -2  -1   0   19.45    0.50
   2   1   0   20.48    0.53
   2   1   0   19.77    0.50
   2   1   0   19.96    0.52
   2   1   0   20.65    0.52
   2   1   0   20.07    0.53
  -3  -1   0  107.85    2.46
  -3  -1   0  106.27    2.60
  -3  -1   0  110.89    2.60
  -3  -1   0  113.99    2.60
  -3  -1   0  105.33    2.51
  -3  -1   0  105.77    2.60
   3   1   0  111.44    2.59
   3   1   0  108.40    2.59
   3   1   0  108.39    2.45
  -4  -1   0    4.54    0.21
  -4  -1   0    5.06    0.20
  -4  -1   0    4.73    0.20
  -4  -1   0    4.99    0.18
  -4  -1   0    4.87    0.20
   4   1   0    5.02    0.18
   4   1   0    5.09    0.20
   4   1   0    5.14    0.21
  -5  -1   0    7.15    0.28
  -5  -1   0    7.02    0.27
  -5  -1   0    6.92    0.24
  -5  -1   0    6.87    0.26
  -5  -1   0    6.76    0.26
   5   1   0    6.44    0.26
   5   1   0    6.87    0.27
  -6  -1   0    0.39    0.09
  -6  -1   0    0.32    0.09
  -6  -1   0    0.45    0.10
  -6  -1   0    0.40    0.08
  -6  -1   0    0.48    0.09
   6   1   0    0.40    0.09
  -7  -1   0    4.37    0.24
  -7  -1   0    4.48    0.22
  -7  -1   0    4.16    0.26
   7   1   0    4.67    0.24
  -8  -1   0    0.96    0.16
  -8  -1   0    0.85    0.14
  -8  -1   0    0.97    0.12
   8   1   0    0.92    0.14
  -9  -1   0    0.27    0.13
  -9  -1   0    0.15    0.11
 -10  -1   0    2.08    0.24
 -10  -1   0    1.28    0.21
 -12   2   0    0.06    0.12
 -12   2   0   -0.07    0.11
 -11   2   0    1.52    0.21
 -11   2   0    1.15    0.18
 -10   2   0   -0.11    0.08
 -10   2   0   -0.18    0.08
  -9   2   0    1.66    0.16
  -9   2   0    1.51    0.17
  -9   2   0    1.98    0.19
   8  -2   0    0.12    0.06
  -8   2   0    0.00    0.07
  -8   2   0    0.03    0.06
  -8   2   0   -0.09    0.06
   7  -2   0    6.68    0.24
   7  -2   0    7.08    0.24
  -7   2   0    6.75    0.27
  -7   2   0    6.77    0.25
  -7   2   0    7.14    0.27
  -7   2   0    6.48    0.26
   6  -2   0    0.61    0.07
   6  -2   0    0.59    0.07
  -6   2   0    0.63    0.08
  -6   2   0    0.51    0.07
  -6   2   0    0.67    0.09
  -6   2   0    0.62    0.07
   5  -2   0    1.96    0.10
   5  -2   0    2.23    0.11
  -5   2   0    2.42    0.13
  -5   2   0    2.35    0.12
  -5   2   0    2.15    0.10
  -5   2   0    2.34    0.11
   4  -2   0    3.49    0.13
   4  -2   0    3.41    0.11
   4  -2   0    3.50    0.13
  -4   2   0    3.45    0.14
  -4   2   0    3.45    0.14
  -4   2   0    3.33    0.12
  -4   2   0    3.46    0.12
   3  -2   0   17.66    0.43
   3  -2   0   16.62    0.43
   3  -2   0   16.84    0.39
  -3   2   0   17.11    0.42
  -3   2   0   17.13    0.42
  -3   2   0   16.99    0.44
  -3   2   0   17.58    0.44
   2  -2   0  111.15    2.63
   2  -2   0  109.89    2.46
   2  -2   0  117.84    2.63
  -2   2   0  114.99    2.63
  -2   2   0  109.85    2.64
  -2   2   0  112.10    2.63
  -2   2   0  111.17    2.63
   1  -2   0   61.04    1.40
   1  -2   0   56.88    1.31
   1  -2   0   58.35    1.39
   1  -2   0   58.56    1.39
   1  -2   0   59.69    1.39
  -1   2   0   57.42    1.39
  -1   2   0   61.15    1.40
  -1   2   0   58.67    1.31
  -1   2   0   58.66    1.40
  -1   2   0   57.18    1.40
   0  -2   0   55.58    1.31
   0  -2   0   54.75    1.31
   0  -2   0   55.93    1.31
   0  -2   0   54.41    1.28
   0  -2   0   53.87    1.23
   0   2   0   55.41    1.28
   0   2   0   53.17    1.23
   0   2   0   52.55    2.16
   0   2   0   55.39    1.31
   0   2   0   52.48    1.31
   0   2   0   53.78    1.31
   0   2   0   54.01    1.31
  -1  -2   0   30.09    0.76
  -1  -2   0   29.33    0.73
  -1  -2   0   29.14    0.72
  -1  -2   0   31.74    0.77
  -1  -2   0   29.53    1.23
  -1  -2   0   30.20    0.77
  -1  -2   0   30.81    0.76
   1   2   0   29.60    0.77
   1   2   0   28.80    1.23
   1   2   0   29.75    0.76
   1   2   0   30.49    0.73
   1   2   0   30.09    0.73
   1   2   0   31.43    0.76
  -2  -2   0    9.94    0.30
  -2  -2   0   10.09    0.29
  -2  -2   0   10.07    0.48
  -2  -2   0    9.59    0.30
  -2  -2   0    9.95    0.30
   2   2   0    9.68    0.32
   2   2   0   10.04    0.30
   2   2   0    9.91    0.29
   2   2   0   10.44    0.32
  -3  -2   0    4.82    0.20
  -3  -2   0    4.62    0.31
  -3  -2   0    4.58    0.19
  -3  -2   0    4.95    0.21
  -3  -2   0    4.80    0.18
  -3  -2   0    4.76    0.19
   3   2   0    4.99    0.22
   3   2   0    4.93    0.19
   3   2   0    4.99    0.20
  -4  -2   0   17.77    0.52
  -4  -2   0   17.82    0.52
  -4  -2   0   17.21    0.54
  -4  -2   0   18.16    0.53
  -4  -2   0   17.45    0.48
  -4  -2   0   18.04    0.84
   4   2   0   18.29    0.50
   4   2   0   17.48    0.51
   4   2   0   17.55    0.53
  -5  -2   0    2.10    0.17
  -5  -2   0    1.96    0.18
  -5  -2   0    2.38    0.14
  -5  -2   0    2.37    0.16
  -5  -2   0    2.07    0.16
   5   2   0    2.08    0.17
  -6  -2   0   11.27    0.41
  -6  -2   0   10.88    0.35
  -6  -2   0   11.02    0.40
  -6  -2   0   10.71    0.40
  -6  -2   0   10.10    0.42
   6   2   0   10.60    0.40
  -7  -2   0    2.38    0.21
  -7  -2   0    2.51    0.17
  -7  -2   0    1.99    0.21
  -7  -2   0    2.85    0.23
   7   2   0    2.66    0.20
  -8  -2   0    2.14    0.22
  -8  -2   0    2.32    0.24
   8   2   0    2.25    0.25
  -9  -2   0    0.74    0.16
  -9  -2   0    0.55    0.16
 -10  -2   0    0.88    0.20
 -10  -2   0    0.79    0.17
 -12   3   0    0.19    0.13
 -12   3   0   -0.11    0.10
 -11   3   0    0.34    0.12
 -11   3   0    0.28    0.12
 -10   3   0    4.49    0.27
 -10   3   0    4.64    0.26
  -9   3   0    0.04    0.07
  -9   3   0    0.02    0.07
  -9   3   0   -0.05    0.07
   8  -3   0    8.77    0.27
  -8   3   0    8.70    0.33
  -8   3   0    9.06    0.31
  -8   3   0    8.66    0.32
   7  -3   0    3.04    0.13
  -7   3   0    2.74    0.17
  -7   3   0    2.95    0.17
  -7   3   0    2.81    0.15
  -7   3   0    3.04    0.15
   6  -3   0   25.35    0.61
  -6   3   0   25.52    0.69
  -6   3   0   24.72    0.67
  -6   3   0   25.51    0.67
  -6   3   0   27.53    0.69
   5  -3   0   13.24    0.32
  -5   3   0   13.25    0.36
  -5   3   0   12.72    0.36
  -5   3   0   14.46    0.39
  -5   3   0   13.52    0.39
   4  -3   0   66.44    1.54
  -4   3   0   67.10    1.56
  -4   3   0   63.14    1.55
  -4   3   0   63.95    1.56
  -4   3   0   63.74    1.54
   3  -3   0   59.05    1.39
   3  -3   0   60.13    1.39
   3  -3   0   56.93    1.29
  -3   3   0   58.17    1.40
  -3   3   0   57.41    1.39
  -3   3   0   60.20    1.40
  -3   3   0   55.16    1.38
   2  -3   0   22.60    0.56
   2  -3   0   21.81    0.55
   2  -3   0   21.10    0.51
   2  -3   0   21.90    0.53
  -2   3   0   22.46    0.56
  -2   3   0   21.35    0.55
  -2   3   0   21.31    0.55
  -2   3   0   21.80    0.56
  -2   3   0   21.50    0.51
   1  -3   0    5.81    0.18
   1  -3   0    5.93    0.18
   1  -3   0    5.76    0.20
   1  -3   0    6.26    0.20
  -1   3   0    5.92    0.19
  -1   3   0    5.65    0.20
  -1   3   0    6.09    0.21
  -1   3   0    6.02    0.19
  -1   3   0    6.32    0.21
  -1   3   0    5.98    0.19
   0  -3   0   24.92    0.62
   0  -3   0   24.11    0.65
   0  -3   0   26.12    0.64
   0   3   0   25.10    0.62
   0   3   0   24.23    0.64
   0   3   0   25.63    0.64
   0   3   0   25.11    0.65
   0   3   0   23.70    1.06
   0   3   0   25.18    0.66
   0   3   0   24.78    0.66
  -1  -3   0   57.37    1.39
  -1  -3   0   59.51    2.39
  -1  -3   0   61.32    1.46
  -1  -3   0   59.15    1.42
  -1  -3   0   59.09    1.46
  -1  -3   0   59.65    1.47
   1   3   0   60.74    1.42
   1   3   0   57.63    2.39
   1   3   0   59.14    1.46
   1   3   0   60.24    1.39
   1   3   0   59.42    1.46
   1   3   0   59.56    1.47
  -2  -3   0   11.17    0.55
  -2  -3   0   11.62    0.35
  -2  -3   0   11.13    0.35
  -2  -3   0   10.65    0.35
  -2  -3   0   10.68    0.36
  -2  -3   0   11.14    0.33
   2   3   0   10.92    0.56
   2   3   0   11.09    0.37
   2   3   0   11.69    0.36
   2   3   0   11.01    0.33
   2   3   0   11.13    0.35
  -3  -3   0   12.98    0.40
  -3  -3   0   12.25    0.42
  -3  -3   0   12.20    0.40
  -3  -3   0   12.33    0.40
  -3  -3   0   12.44    0.62
  -3  -3   0   12.57    0.37
   3   3   0   12.90    0.37
   3   3   0   12.60    0.39
   3   3   0   12.03    0.42
   3   3   0   12.21    0.40
  -4  -3   0    2.11    0.14
  -4  -3   0    2.10    0.18
  -4  -3   0    2.43    0.16
  -4  -3   0    2.20    0.17
  -4  -3   0    2.58    0.23
  -4  -3   0    2.04    0.16
   4   3   0    2.53    0.15
   4   3   0    2.30    0.18
  -5  -3   0   10.62    0.40
  -5  -3   0   10.15    0.34
  -5  -3   0    9.61    0.40
  -5  -3   0   10.39    0.39
  -5  -3   0   11.12    0.40
   5   3   0    9.89    0.40
  -6  -3   0    3.66    0.25
  -6  -3   0    3.98    0.24
  -6  -3   0    4.22    0.21
  -6  -3   0    4.14    0.27
   6   3   0    4.04    0.25
  -7  -3   0    1.07    0.17
  -7  -3   0    0.83    0.14
  -7  -3   0    0.65    0.15
   7   3   0    0.62    0.14
  -8  -3   0    2.10    0.25
  -8  -3   0    2.97    0.27
  -9  -3   0    1.67    0.23
  -9  -3   0    2.09    0.27
 -12   4   0    0.06    0.10
 -12   4   0    0.21    0.11
 -11   4   0    0.03    0.09
 -11   4   0    0.04    0.10
 -10   4   0    4.77    0.27
 -10   4   0    5.43    0.27
  -9   4   0    0.06    0.06
  -9   4   0    0.03    0.07
  -9   4   0    0.04    0.07
   8  -4   0    0.06    0.03
  -8   4   0   -0.01    0.06
  -8   4   0    0.07    0.06
  -8   4   0    0.02    0.05
   7  -4   0    7.01    0.21
  -7   4   0    6.92    0.24
  -7   4   0    6.75    0.24
  -7   4   0    6.58    0.26
  -7   4   0    6.52    0.26
   6  -4   0    2.92    0.12
  -6   4   0    3.07    0.16
  -6   4   0    3.05    0.14
  -6   4   0    3.09    0.16
  -6   4   0    3.19    0.14
  -5   4   0   42.01    1.02
  -5   4   0   39.85    1.02
  -5   4   0   42.88    1.04
  -5   4   0   41.13    1.04
   4  -4   0   17.69    0.47
  -4   4   0   18.47    0.48
  -4   4   0   17.64    0.46
  -4   4   0   17.17    0.48
  -4   4   0   17.54    0.46
   3  -4   0  104.71    2.36
   3  -4   0  106.93    2.52
  -3   4   0  104.31    2.53
  -3   4   0  107.98    2.54
  -3   4   0  105.23    2.54
  -3   4   0  107.00    2.36
  -3   4   0  111.04    2.54
  -3   4   0  104.82    2.53
   2  -4   0    2.58    0.11
   2  -4   0    2.48    0.11
   2  -4   0    2.36    0.13
  -2   4   0    2.50    0.12
  -2   4   0    2.65    0.14
  -2   4   0    2.40    0.12
  -2   4   0    2.63    0.14
  -2   4   0    2.36    0.11
   1  -4   0   16.49    0.45
   1  -4   0   16.75    0.48
   1  -4   0   16.40    0.44
  -1   4   0   16.76    0.47
  -1   4   0   16.08    0.48
  -1   4   0   16.92    0.48
  -1   4   0   17.22    0.45
  -1   4   0   18.09    0.49
  -1   4   0   16.58    0.47
   0  -4   0  103.50    2.56
   0  -4   0  103.79    2.41
   0   4   0  108.95    2.56
   0   4   0  103.67    4.22
   0   4   0  105.56    2.57
   0   4   0  109.34    2.50
   0   4   0  105.72    2.56
   0   4   0  109.31    2.42
  -1  -4   0   28.91    0.75
  -1  -4   0   29.08    0.77
  -1  -4   0   28.48    0.79
  -1  -4   0   29.26    0.75
   1   4   0   28.53    0.77
   1   4   0   29.16    0.77
   1   4   0   27.72    1.25
   1   4   0   28.64    0.75
   1   4   0   28.05    0.79
   1   4   0   29.60    0.75
  -2  -4   0   20.71    0.57
  -2  -4   0   20.45    0.59
  -2  -4   0   20.82    0.60
  -2  -4   0   20.46    0.62
  -2  -4   0   21.17    0.95
   2   4   0   20.04    0.62
   2   4   0   20.21    0.96
   2   4   0   21.95    0.60
   2   4   0   21.57    0.62
   2   4   0   21.15    0.58
  -3  -4   0   14.48    0.47
  -3  -4   0   14.49    0.47
  -3  -4   0   13.44    0.48
  -3  -4   0   14.71    0.44
  -3  -4   0   14.56    0.72
  -3  -4   0   14.53    0.47
   3   4   0   14.16    0.43
   3   4   0   14.31    0.49
  -4  -4   0    7.21    0.31
  -4  -4   0    7.42    0.32
  -4  -4   0    7.99    0.33
  -4  -4   0    7.40    0.28
  -4  -4   0    7.45    0.34
   4   4   0    7.32    0.33
   4   4   0    6.89    0.29
  -5  -4   0    6.47    0.32
  -5  -4   0    6.02    0.26
  -5  -4   0    6.43    0.31
  -5  -4   0    6.51    0.34
   5   4   0    6.44    0.33
  -6  -4   0    0.58    0.13
  -6  -4   0    0.56    0.15
  -6  -4   0    0.60    0.10
  -6  -4   0    0.64    0.14
   6   4   0    0.48    0.14
  -7  -4   0    0.08    0.13
  -7  -4   0   -0.02    0.08
  -7  -4   0    0.08    0.11
   7   4   0   -0.06    0.10
  -8  -4   0    0.76    0.20
  -9  -4   0    0.38    0.18
 -12   5   0    0.42    0.13
 -12   5   0    0.24    0.12
 -11   5   0    1.70    0.19
 -11   5   0    1.66    0.19
 -10   5   0    4.62    0.25
 -10   5   0    4.28    0.25
 -10   5   0    4.61    0.25
  -9   5   0    1.02    0.13
  -9   5   0    1.16    0.12
  -9   5   0    0.90    0.12
  -8   5   0    0.01    0.05
  -8   5   0    0.01    0.06
  -8   5   0    0.04    0.07
  -7   5   0    4.99    0.21
  -7   5   0    4.22    0.21
  -7   5   0    4.65    0.19
  -7   5   0    4.39    0.19
   6  -5   0   13.03    0.35
  -6   5   0   12.69    0.40
  -6   5   0   13.60    0.40
  -6   5   0   12.96    0.38
  -6   5   0   13.10    0.38
   5  -5   0   10.53    0.31
  -5   5   0   11.51    0.34
  -5   5   0   10.28    0.34
  -5   5   0   10.95    0.32
  -5   5   0   10.33    0.32
   4  -5   0   35.60    0.90
   4  -5   0   34.88    0.82
  -4   5   0   35.03    0.90
  -4   5   0   37.78    0.92
  -4   5   0   34.70    0.90
  -4   5   0   34.99    0.91
   3  -5   0   26.48    0.69
   3  -5   0   26.33    0.64
  -3   5   0   26.87    0.64
  -3   5   0   26.01    0.69
  -3   5   0   27.88    0.71
  -3   5   0   25.18    0.69
  -3   5   0   25.79    0.71
   2  -5   0    7.60    0.28
   2  -5   0    8.13    0.26
  -2   5   0    8.27    0.27
  -2   5   0    7.77    0.27
  -2   5   0    8.09    0.26
  -2   5   0    8.20    0.29
   1  -5   0    3.42    0.15
   1  -5   0    3.31    0.16
   1  -5   0    3.16    0.18
  -1   5   0    3.58    0.19
  -1   5   0    3.42    0.17
  -1   5   0    3.19    0.18
  -1   5   0    3.35    0.30
  -1   5   0    3.46    0.17
  -1   5   0    3.38    0.17
   0  -5   0   36.01    0.97
   0  -5   0   35.94    0.92
   0  -5   0   36.76    0.95
   0   5   0   37.72    0.93
   0   5   0   37.22    0.95
   0   5   0   34.91    1.57
   0   5   0   36.01    0.96
   0   5   0   36.97    0.96
   0   5   0   35.63    0.98
  -1  -5   0   25.40    0.70
  -1  -5   0   23.86    0.68
  -1  -5   0   24.94    0.72
   1   5   0   23.47    1.12
   1   5   0   25.60    0.71
   1   5   0   24.46    0.70
   1   5   0   25.38    0.69
   1   5   0   24.86    0.73
  -2  -5   0   17.36    0.53
  -2  -5   0   16.70    0.51
  -2  -5   0   16.12    0.55
  -2  -5   0   17.09    0.53
   2   5   0   17.98    0.52
   2   5   0   16.69    0.85
   2   5   0   17.41    0.53
   2   5   0   16.80    0.56
  -3  -5   0   22.94    0.74
  -3  -5   0   24.40    0.68
  -3  -5   0   23.99    0.72
  -3  -5   0   23.86    0.71
   3   5   0   25.00    0.68
   3   5   0   24.24    0.71
   3   5   0   23.79    0.75
  -4  -5   0   14.59    0.51
  -4  -5   0   14.44    0.46
  -4  -5   0   13.31    0.53
  -4  -5   0   14.51    0.52
   4   5   0   14.48    0.46
   4   5   0   13.53    0.53
  -5  -5   0    1.06    0.18
  -5  -5   0    1.15    0.14
  -5  -5   0    1.18    0.18
  -5  -5   0    1.18    0.16
   5   5   0    1.20    0.19
  -6  -5   0    1.62    0.23
  -6  -5   0    1.85    0.23
   6   5   0    1.32    0.21
  -7  -5   0    0.20    0.15
  -7  -5   0    0.43    0.15
   7   5   0    0.45    0.16
  -8  -5   0    0.37    0.18
 -12   6   0    0.77    0.15
 -12   6   0    0.85    0.16
 -11   6   0    0.69    0.14
 -11   6   0    0.54    0.13
 -10   6   0    2.53    0.20
 -10   6   0    2.84    0.21
 -10   6   0    2.50    0.20
  -9   6   0    3.02    0.19
  -9   6   0    3.24    0.20
  -9   6   0    3.10    0.19
  -8   6   0    0.10    0.06
  -8   6   0    0.01    0.07
  -8   6   0    0.10    0.07
  -7   6   0    0.99    0.12
  -7   6   0    0.93    0.10
  -7   6   0    0.79    0.09
  -7   6   0    0.94    0.10
   6  -6   0    0.00    0.02
  -6   6   0    0.04    0.05
  -6   6   0    0.05    0.05
  -6   6   0    0.04    0.06
  -6   6   0    0.06    0.06
   5  -6   0    1.95    0.12
   5  -6   0    2.24    0.09
  -5   6   0    2.32    0.14
  -5   6   0    1.95    0.13
  -5   6   0    2.42    0.16
  -5   6   0    2.37    0.15
   4  -6   0    6.90    0.25
   4  -6   0    6.60    0.21
  -4   6   0    6.63    0.25
  -4   6   0    6.45    0.27
  -4   6   0    7.18    0.27
  -4   6   0    6.90    0.25
   3  -6   0    6.76    0.26
   3  -6   0    7.00    0.23
  -3   6   0    6.98    0.28
  -3   6   0    6.62    0.26
  -3   6   0    6.90    0.26
  -3   6   0    7.01    0.24
   2  -6   0   15.13    0.47
   2  -6   0   14.89    0.43
  -2   6   0   14.58    0.46
  -2   6   0   15.11    0.49
  -2   6   0   15.12    0.49
  -2   6   0   15.71    0.44
  -2   6   0   15.77    0.47
   1  -6   0    3.71    0.21
   1  -6   0    3.95    0.18
   1  -6   0    3.82    0.20
  -1   6   0    4.01    0.35
  -1   6   0    3.88    0.20
  -1   6   0    3.80    0.20
  -1   6   0    4.05    0.20
  -1   6   0    4.17    0.22
   0  -6   0   12.11    0.40
   0  -6   0   11.89    0.40
   0  -6   0   11.59    0.42
   0   6   0   11.43    0.43
   0   6   0   11.79    0.67
   0   6   0   12.69    0.42
   0   6   0   12.47    0.42
   0   6   0   12.23    0.41
  -1  -6   0   11.46    0.43
  -1  -6   0   11.04    0.40
   1   6   0   10.70    0.65
   1   6   0   12.68    0.41
   1   6   0   11.73    0.41
   1   6   0   11.37    0.44
  -2  -6   0    3.54    0.25
  -2  -6   0    3.54    0.23
  -2  -6   0    3.27    0.21
   2   6   0    2.89    0.37
   2   6   0    3.30    0.25
   2   6   0    3.47    0.21
   2   6   0    3.78    0.22
  -3  -6   0    5.12    0.30
  -3  -6   0    4.76    0.30
  -3  -6   0    5.16    0.27
   3   6   0    4.49    0.30
  -4  -6   0    1.36    0.19
  -4  -6   0    1.56    0.21
   4   6   0    1.61    0.22
  -5  -6   0    0.07    0.12
  -5  -6   0    0.06    0.12
   5   6   0    0.28    0.14
  -6  -6   0    1.72    0.24
  -6  -6   0    1.34    0.22
   6   6   0    1.46    0.23
  -7  -6   0    0.45    0.19
   7   6   0    0.73    0.19
 -12   7   0    0.27    0.12
 -12   7   0   -0.07    0.09
 -11   7   0    0.72    0.14
 -11   7   0    0.59    0.13
 -10   7   0    0.93    0.14
 -10   7   0    0.90    0.13
  -9   7   0    1.11    0.14
  -9   7   0    1.27    0.14
  -9   7   0    1.19    0.14
  -8   7   0    1.11    0.13
  -8   7   0    1.26    0.13
  -8   7   0    1.36    0.15
  -7   7   0    0.30    0.09
  -7   7   0    0.52    0.09
  -7   7   0    0.39    0.08
   6  -7   0    3.03    0.15
  -6   7   0    3.06    0.20
  -6   7   0    2.85    0.17
  -6   7   0    3.12    0.18
   5  -7   0    6.39    0.24
   5  -7   0    5.75    0.20
  -5   7   0    6.29    0.26
  -5   7   0    5.92    0.27
  -5   7   0    6.66    0.26
   4  -7   0    2.72    0.16
   4  -7   0    2.63    0.14
  -4   7   0    2.61    0.17
  -4   7   0    2.49    0.18
  -4   7   0    2.83    0.17
  -4   7   0    2.64    0.14
  -4   7   0    2.67    0.19
   3  -7   0    0.28    0.08
   3  -7   0    0.29    0.07
  -3   7   0    0.19    0.07
  -3   7   0    0.24    0.09
  -3   7   0    0.07    0.07
  -3   7   0    0.25    0.07
   2  -7   0    4.28    0.21
   2  -7   0    4.60    0.24
  -2   7   0    4.03    0.24
  -2   7   0    4.54    0.22
  -2   7   0    4.37    0.22
  -2   7   0    3.86    0.22
  -2   7   0    4.66    0.42
   1  -7   0    5.11    0.25
   1  -7   0    5.79    0.25
   1  -7   0    5.43    0.28
  -1   7   0    5.14    0.25
  -1   7   0    5.35    0.26
  -1   7   0    5.37    0.28
  -1   7   0    5.56    0.45
   0  -7   0   11.52    0.45
   0  -7   0   12.25    0.43
   0   7   0   11.81    0.70
   0   7   0   11.30    0.46
   0   7   0   12.34    0.44
  -1  -7   0   12.88    0.47
  -1  -7   0   13.46    0.50
   1   7   0   12.46    0.50
   1   7   0   13.08    0.76
   1   7   0   13.08    0.47
  -2  -7   0    5.45    0.31
  -2  -7   0    5.21    0.32
   2   7   0    4.88    0.48
   2   7   0    5.37    0.33
  -3  -7   0    1.27    0.19
  -3  -7   0    1.45    0.21
   3   7   0    1.52    0.22
  -4  -7   0    0.48    0.17
  -4  -7   0    0.22    0.13
   4   7   0    0.14    0.14
  -5  -7   0    2.91    0.33
  -5  -7   0    2.38    0.28
   5   7   0    2.93    0.32
  -6  -7   0    1.92    0.29
   6   7   0    1.85    0.27
 -11   8   0    0.68    0.14
 -11   8   0    0.77    0.14
 -10   8   0    2.74    0.21
 -10   8   0    2.56    0.22
  -9   8   0    0.41    0.11
  -9   8   0    0.40    0.11
  -8   8   0    0.47    0.10
  -8   8   0    0.47    0.10
  -8   8   0    0.35    0.10
  -8   8   0    0.41    0.11
  -7   8   0    1.25    0.14
  -7   8   0    1.12    0.14
  -7   8   0    1.05    0.14
   6  -8   0    3.12    0.12
  -6   8   0    3.09    0.21
  -6   8   0    3.23    0.20
  -6   8   0    3.16    0.20
   5  -8   0   13.35    0.43
   5  -8   0   13.30    0.38
  -5   8   0   12.65    0.44
  -5   8   0   12.91    0.47
  -5   8   0   14.05    0.45
   4  -8   0   11.67    0.36
   4  -8   0   12.12    0.41
  -4   8   0   11.50    0.44
  -4   8   0   11.28    0.42
  -4   8   0   11.56    0.37
  -4   8   0   11.92    0.42
  -4   8   0   11.08    0.43
   3  -8   0   12.03    0.40
   3  -8   0   12.48    0.44
  -3   8   0   13.12    0.48
  -3   8   0   12.64    0.81
  -3   8   0   12.80    0.45
  -3   8   0   11.73    0.46
   2  -8   0   18.67    0.60
   2  -8   0   17.85    0.55
  -2   8   0   18.06    1.01
  -2   8   0   18.12    0.62
  -2   8   0   18.07    0.59
   1  -8   0   20.38    0.66
   1  -8   0   20.20    0.62
  -1   8   0   19.20    0.68
  -1   8   0   20.71    0.65
  -1   8   0   20.29    1.08
   0  -8   0   10.46    0.42
   0  -8   0   10.13    0.44
   0   8   0    9.72    0.45
   0   8   0   10.51    0.69
   0   8   0   10.82    0.42
  -1  -8   0    3.61    0.26
  -1  -8   0    3.39    0.27
   1   8   0    3.39    0.28
   1   8   0    3.42    0.39
  -2  -8   0    1.74    0.23
  -2  -8   0    2.11    0.23
   2   8   0    2.21    0.27
   2   8   0    2.15    0.39
  -3  -8   0    0.70    0.17
  -3  -8   0    0.48    0.17
   3   8   0    0.69    0.18
  -4  -8   0    0.27    0.16
  -4  -8   0    0.47    0.16
   4   8   0    0.47    0.18
  -5  -8   0    2.63    0.33
   5   8   0    2.59    0.32
 -11   9   0   -0.11    0.09
 -11   9   0    0.11    0.10
 -10   9   0    0.79    0.14
 -10   9   0    0.94    0.16
  -9   9   0    0.71    0.14
  -9   9   0    0.69    0.13
  -8   9   0    0.33    0.11
  -8   9   0    0.34    0.11
  -8   9   0    0.36    0.11
  -7   9   0    2.21    0.22
  -7   9   0    2.56    0.21
  -6   9   0    0.59    0.13
  -6   9   0    0.72    0.13
   5  -9   0   -0.01    0.05
  -5   9   0    0.00    0.09
  -5   9   0    0.02    0.08
   4  -9   0    2.82    0.18
   4  -9   0    2.66    0.20
  -4   9   0    3.00    0.22
  -4   9   0    2.54    0.44
  -4   9   0    2.56    0.24
  -4   9   0    2.78    0.25
   3  -9   0    1.51    0.18
   3  -9   0    1.14    0.14
  -3   9   0    1.50    0.35
  -3   9   0    1.35    0.17
  -3   9   0    1.11    0.18
   2  -9   0    7.55    0.33
   2  -9   0    7.21    0.36
  -2   9   0    7.97    0.63
  -2   9   0    7.66    0.36
  -2   9   0    6.87    0.38
   1  -9   0   10.64    0.46
   1  -9   0   10.73    0.43
  -1   9   0   10.96    0.74
  -1   9   0   10.20    0.48
  -1   9   0   11.36    0.46
   0  -9   0    2.38    0.25
   0  -9   0    2.38    0.24
   0   9   0    1.88    0.24
   0   9   0    2.70    0.37
  -1  -9   0    0.94    0.17
  -1  -9   0    0.98    0.19
   1   9   0    0.94    0.27
   1   9   0    0.76    0.20
  -2  -9   0   -0.19    0.11
  -2  -9   0    0.15    0.12
   2   9   0    0.11    0.16
  -3  -9   0    0.39    0.16
   3   9   0    0.36    0.18
  -4  -9   0    0.41    0.19
   4   9   0    0.12    0.18
 -10  10   0   -0.01    0.09
 -10  10   0    0.04    0.11
  -9  10   0    0.02    0.09
  -9  10   0    0.15    0.11
  -8  10   0    0.28    0.11
  -8  10   0    0.13    0.11
  -7  10   0    0.49    0.14
  -7  10   0    0.52    0.13
  -6  10   0    0.02    0.10
  -6  10   0    0.02    0.10
  -5  10   0    0.25    0.12
  -5  10   0    0.16    0.10
  -5  10   0    0.70    0.31
   4 -10   0    3.55    0.21
  -4  10   0    3.41    0.26
  -4  10   0    3.99    0.53
  -4  10   0    3.59    0.28
  -4  10   0    3.15    0.27
   3 -10   0    3.20    0.22
   3 -10   0    3.36    0.25
  -3  10   0    2.94    0.28
  -3  10   0    3.10    0.26
  -3  10   0    3.78    0.56
   2 -10   0    2.85    0.24
   2 -10   0    2.83    0.27
  -2  10   0    1.90    0.24
  -2  10   0    3.09    0.26
  -2  10   0    3.41    0.50
   1 -10   0    3.97    0.28
   1 -10   0    3.78    0.31
  -1  10   0    4.51    0.50
  -1  10   0    4.28    0.34
   0 -10   0    2.10    0.24
   0 -10   0    2.43    0.28
   0  10   0    2.25    0.41
   0  10   0    1.97    0.28
  -1 -10   0    1.13    0.21
  -1 -10   0    1.03    0.19
   1  10   0    1.39    0.25
  -2 -10   0    0.44    0.19
   2  10   0    0.45    0.19
  -3 -10   0    0.89    0.22
   3  10   0    0.78    0.23
  -9  11   0    1.21    0.18
  -9  11   0    1.46    0.20
  -9  11   0    1.40    0.19
  -8  11   0    1.13    0.18
  -8  11   0    1.20    0.19
  -7  11   0    0.05    0.12
  -7  11   0    0.24    0.13
  -6  11   0    0.47    0.31
  -6  11   0    0.17    0.12
  -6  11   0    0.09    0.12
  -5  11   0    1.73    0.22
  -5  11   0    1.59    0.43
  -5  11   0    1.40    0.22
  -4  11   0    0.84    0.17
  -4  11   0    1.10    0.37
  -4  11   0    0.76    0.19
  -4  11   0    0.89    0.19
   3 -11   0    0.79    0.15
  -3  11   0    0.59    0.18
  -3  11   0    0.68    0.16
  -3  11   0    0.88    0.33
  -3  11   0    0.97    0.20
   2 -11   0   -0.10    0.09
  -2  11   0    0.12    0.14
  -2  11   0    0.25    0.23
   1 -11   0    0.86    0.20
   1 -11   0    0.41    0.13
  -1  11   0    0.99    0.24
  -1  11   0    1.09    0.31
   0 -11   0    1.58    0.25
   0  11   0    1.07    0.23
  -1 -11   0   -0.03    0.16
   1  11   0    0.41    0.19
  -7  12   0    0.15    0.14
  -7  12   0   -0.17    0.25
  -7  12   0    0.20    0.14
  -6  12   0    0.70    0.18
  -6  12   0    0.33    0.33
  -6  12   0    0.52    0.18
  -5  12   0    2.52    0.30
  -5  12   0    2.65    0.29
  -5  12   0    2.88    0.57
  -4  12   0    2.63    0.53
  -4  12   0    1.92    0.28
  -3  12   0    0.44    0.17
  -3  12   0    0.52    0.26
  -3  12   0    0.10    0.15
  -2  12   0    0.49    0.20
  -2  12   0    1.36    0.32
  -2  12   0    0.88    0.23
  -2  12  -1    0.15    0.18
  -2  12  -1    0.21    0.18
  -3  12  -1    1.72    0.40
  -3  12  -1    1.38    0.26
  -4  12  -1    0.80    0.34
  -4  12  -1    0.86    0.21
  -5  12  -1    0.20    0.14
  -5  12  -1    0.21    0.28
  -5  12  -1    0.22    0.16
  -6  12  -1    1.05    0.40
  -6  12  -1    1.22    0.23
  -6  12  -1    1.15    0.21
  -7  12  -1    0.65    0.17
  -7  12  -1    0.55    0.18
  -7  12  -1    0.78    0.19
   1  11  -1    0.67    0.23
  -1 -11   1    0.61    0.20
   0  11  -1    0.87    0.24
   0 -11   1    1.32    0.24
  -1  11  -1    1.76    0.27
  -1  11  -1    0.89    0.22
   1 -11   1    1.19    0.20
   1 -11   1    1.67    0.25
  -2  11  -1    2.08    0.42
  -2  11  -1    1.52    0.25
  -2  11  -1    2.01    0.28
   2 -11   1    2.01    0.25
   2 -11   1    1.68    0.21
  -3  11  -1    0.50    0.18
  -3  11  -1    0.65    0.28
  -3  11  -1    0.43    0.16
   3 -11   1    0.52    0.13
  -4  11  -1    0.18    0.12
  -4  11  -1   -0.03    0.21
  -4  11  -1   -0.06    0.13
  -5  11  -1    0.17    0.13
  -5  11  -1    0.31    0.27
  -5  11  -1    0.25    0.13
  -6  11  -1    0.12    0.12
  -6  11  -1    0.15    0.14
  -7  11  -1    0.71    0.18
  -7  11  -1    0.89    0.17
  -8  11  -1    0.43    0.14
  -8  11  -1    0.01    0.11
  -8  11  -1    0.07    0.12
  -9  11  -1   -0.16    0.10
  -9  11  -1   -0.04    0.11
   3  10  -1    0.41    0.21
  -3 -10   1    0.48    0.21
   2  10  -1    0.49    0.20
  -2 -10   1    0.48    0.18
   1  10  -1    3.76    0.37
  -1 -10   1    4.29    0.33
  -1 -10   1    4.31    0.39
   0  10  -1    2.67    0.31
   0  10  -1    3.38    0.41
   0 -10   1    3.47    0.31
   0 -10   1    2.99    0.31
  -1  10  -1    1.08    0.21
  -1  10  -1    0.95    0.27
   1 -10   1    0.70    0.15
   1 -10   1    1.00    0.19
  -2  10  -1    1.40    0.22
  -2  10  -1    1.05    0.21
  -2  10  -1    1.49    0.19
  -2  10  -1    1.70    0.35
   2 -10   1    1.42    0.18
   2 -10   1    1.75    0.22
  -3  10  -1    0.09    0.22
  -3  10  -1    0.12    0.11
  -3  10  -1    0.01    0.12
  -3  10  -1    0.25    0.11
   3 -10   1    0.19    0.09
   3 -10   1    0.15    0.11
  -4  10  -1    0.26    0.13
  -4  10  -1    0.34    0.12
  -4  10  -1    0.35    0.25
   4 -10   1    0.17    0.08
  -5  10  -1    3.32    0.26
  -5  10  -1    2.52    0.26
  -6  10  -1    0.55    0.15
  -6  10  -1    0.52    0.14
  -7  10  -1    1.44    0.20
  -7  10  -1    1.34    0.18
  -8  10  -1    0.67    0.14
  -8  10  -1    0.70    0.15
  -8  10  -1    0.55    0.14
  -9  10  -1   -0.03    0.10
  -9  10  -1   -0.01    0.11
 -10  10  -1    0.10    0.11
 -10  10  -1    0.19    0.12
   4   9  -1    0.10    0.17
  -4  -9   1    0.68    0.21
   3   9  -1    0.83    0.21
  -3  -9   1    1.06    0.22
   2   9  -1    4.10    0.38
  -2  -9   1    3.89    0.34
  -2  -9   1    3.66    0.34
   1   9  -1   10.43    0.69
   1   9  -1   10.74    0.53
  -1  -9   1   10.87    0.48
  -1  -9   1   11.15    0.51
   0   9  -1   10.02    0.68
   0   9  -1   10.43    0.49
   0  -9   1    9.61    0.46
   0  -9   1   10.03    0.43
  -1   9  -1    3.08    0.29
  -1   9  -1    3.78    0.41
  -1   9  -1    3.58    0.25
   1  -9   1    3.57    0.28
   1  -9   1    3.19    0.24
  -2   9  -1    7.29    0.59
  -2   9  -1    6.81    0.34
  -2   9  -1    5.99    0.36
   2  -9   1    6.55    0.32
   2  -9   1    6.61    0.34
  -3   9  -1    4.89    0.51
  -3   9  -1    4.37    0.29
  -3   9  -1    4.49    0.28
  -3   9  -1    4.46    0.30
   3  -9   1    4.41    0.27
   3  -9   1    4.57    0.24
  -4   9  -1    2.26    0.21
  -4   9  -1    1.93    0.22
   4  -9   1    2.10    0.16
   4  -9   1    2.04    0.20
  -5   9  -1    1.51    0.18
  -5   9  -1    1.43    0.17
   5  -9   1    1.64    0.13
  -6   9  -1    1.10    0.17
  -6   9  -1    1.04    0.15
  -7   9  -1    0.92    0.16
  -7   9  -1    0.86    0.14
  -7   9  -1    0.84    0.14
  -8   9  -1    4.06    0.27
  -8   9  -1    4.20    0.26
  -9   9  -1    1.17    0.17
  -9   9  -1    1.69    0.20
 -10   9  -1    0.69    0.14
 -10   9  -1    1.11    0.17
 -11   9  -1    0.79    0.16
 -11   9  -1    1.03    0.17
   5   8  -1    0.45    0.19
  -5  -8   1    0.57    0.19
   4   8  -1    2.07    0.29
  -4  -8   1    1.99    0.25
  -4  -8   1    1.57    0.25
   3   8  -1    3.33    0.33
  -3  -8   1    3.12    0.29
  -3  -8   1    3.31    0.31
   2   8  -1    8.90    0.64
   2   8  -1    8.40    0.45
  -2  -8   1    9.63    0.44
  -2  -8   1    9.07    0.44
   1   8  -1    5.62    0.45
   1   8  -1    6.35    0.37
  -1  -8   1    5.94    0.32
  -1  -8   1    5.77    0.34
   0   8  -1    2.65    0.26
   0   8  -1    2.62    0.21
   0   8  -1    2.50    0.32
   0  -8   1    2.69    0.23
   0  -8   1    2.79    0.25
  -1   8  -1    0.43    0.20
  -1   8  -1    0.45    0.11
  -1   8  -1    0.59    0.14
   1  -8   1    0.70    0.13
   1  -8   1    0.75    0.14
  -2   8  -1    2.94    0.38
  -2   8  -1    3.30    0.22
  -2   8  -1    2.39    0.22
   2  -8   1    3.00    0.20
   2  -8   1    3.13    0.22
  -3   8  -1    7.28    0.33
  -3   8  -1    7.69    0.36
  -3   8  -1    7.35    0.35
   3  -8   1    7.94    0.30
   3  -8   1    8.33    0.34
  -4   8  -1    5.33    0.26
  -4   8  -1    5.03    0.26
  -4   8  -1    5.06    0.28
   4  -8   1    5.11    0.25
   4  -8   1    5.10    0.22
  -5   8  -1    2.47    0.18
  -5   8  -1    1.94    0.19
  -5   8  -1    2.08    0.18
   5  -8   1    2.02    0.13
   5  -8   1    2.18    0.17
  -6   8  -1    3.47    0.24
  -6   8  -1    3.67    0.22
  -6   8  -1    3.84    0.23
   6  -8   1    3.42    0.15
  -7   8  -1    2.58    0.19
  -7   8  -1    2.54    0.19
  -7   8  -1    2.52    0.19
  -7   8  -1    2.39    0.20
  -8   8  -1    1.88    0.19
  -8   8  -1    1.91    0.18
  -9   8  -1    2.45    0.21
  -9   8  -1    2.15    0.21
 -10   8  -1    0.06    0.10
 -10   8  -1   -0.05    0.09
 -11   8  -1    1.01    0.16
 -11   8  -1    0.79    0.15
   6   7  -1    0.34    0.17
  -6  -7   1    0.25    0.17
   5   7  -1    0.46    0.18
  -5  -7   1    0.83    0.21
  -5  -7   1    0.37    0.16
   4   7  -1    0.93    0.19
  -4  -7   1    0.72    0.17
  -4  -7   1    0.61    0.16
   3   7  -1    7.07    0.40
  -3  -7   1    7.17    0.39
  -3  -7   1    6.56    0.36
   2   7  -1    8.96    0.42
   2   7  -1    7.20    0.55
  -2  -7   1    8.57    0.40
  -2  -7   1    8.32    0.38
   1   7  -1    1.10    0.23
   1   7  -1    1.04    0.17
   1   7  -1    1.06    0.14
  -1  -7   1    1.06    0.15
  -1  -7   1    1.07    0.16
   0   7  -1    5.10    0.41
   0   7  -1    5.26    0.30
   0   7  -1    5.60    0.27
   0  -7   1    5.85    0.28
   0  -7   1    5.34    0.29
  -1   7  -1    3.57    0.36
  -1   7  -1    3.71    0.25
  -1   7  -1    4.02    0.22
  -1   7  -1    3.61    0.22
   1  -7   1    3.39    0.19
   1  -7   1    3.87    0.21
   1  -7   1    3.93    0.24
  -2   7  -1    1.51    0.15
  -2   7  -1    1.44    0.16
  -2   7  -1    1.50    0.16
  -2   7  -1    1.61    0.15
   2  -7   1    1.59    0.17
   2  -7   1    1.60    0.15
  -3   7  -1    0.33    0.08
  -3   7  -1    0.49    0.11
  -3   7  -1    0.33    0.08
  -3   7  -1    0.34    0.10
  -3   7  -1    0.49    0.09
   3  -7   1    0.54    0.09
   3  -7   1    0.47    0.10
  -4   7  -1    1.03    0.12
  -4   7  -1    1.19    0.13
  -4   7  -1    0.79    0.13
   4  -7   1    1.02    0.12
   4  -7   1    1.04    0.10
  -5   7  -1    0.18    0.08
  -5   7  -1    0.24    0.09
  -5   7  -1    0.34    0.08
   5  -7   1    0.36    0.06
   5  -7   1    0.13    0.07
  -6   7  -1    0.00    0.06
  -6   7  -1   -0.01    0.06
  -6   7  -1    0.16    0.09
   6  -7   1    0.00    0.03
   6  -7   1   -0.05    0.05
  -7   7  -1    5.47    0.25
  -7   7  -1    5.12    0.26
  -7   7  -1    5.51    0.25
  -8   7  -1    5.54    0.28
  -8   7  -1    5.46    0.27
  -8   7  -1    6.09    0.27
  -9   7  -1    0.97    0.14
  -9   7  -1    1.12    0.16
 -10   7  -1    1.04    0.16
 -10   7  -1    0.66    0.13
 -11   7  -1    0.13    0.11
 -11   7  -1    0.19    0.11
 -12   7  -1    0.18    0.12
 -12   7  -1    0.30    0.14
  -7  -6   1    0.47    0.19
   6   6  -1    2.51    0.28
  -6  -6   1    2.55    0.27
  -6  -6   1    2.03    0.27
   5   6  -1    4.83    0.34
  -5  -6   1    4.82    0.33
  -5  -6   1    4.35    0.32
   4   6  -1    4.31    0.30
  -4  -6   1    4.88    0.31
  -4  -6   1    4.61    0.31
   3   6  -1   13.57    0.53
   3   6  -1   13.29    0.45
  -3  -6   1   14.27    0.50
  -3  -6   1   13.54    0.52
  -3  -6   1   13.95    0.51
   2   6  -1    6.44    0.27
   2   6  -1    6.25    0.29
   2   6  -1    6.24    0.45
   2   6  -1    6.09    0.32
  -2  -6   1    6.10    0.31
  -2  -6   1    6.09    0.32
  -2  -6   1    6.64    0.29
   1   6  -1    0.60    0.11
   1   6  -1    0.48    0.16
   1   6  -1    0.50    0.12
   1   6  -1    0.71    0.11
  -1  -6   1    0.45    0.11
  -1  -6   1    0.76    0.12
  -1  -6   1    0.55    0.09
   0   6  -1    9.84    0.35
   0   6  -1    9.61    0.55
   0   6  -1    9.57    0.35
   0   6  -1    8.98    0.37
   0   6  -1    9.45    0.35
   0  -6   1    9.25    0.35
   0  -6   1    9.67    0.37
  -1   6  -1   23.58    0.66
  -1   6  -1   23.47    0.64
  -1   6  -1   22.54    0.66
  -1   6  -1   23.58    0.67
  -1   6  -1   22.26    1.09
  -1   6  -1   22.84    0.69
   1  -6   1   22.99    0.68
   1  -6   1   23.33    0.64
   1  -6   1   21.96    0.63
  -2   6  -1   25.11    0.65
  -2   6  -1   25.06    0.71
  -2   6  -1   23.78    0.71
  -2   6  -1   24.84    0.69
  -2   6  -1   23.49    0.69
   2  -6   1   24.54    0.70
   2  -6   1   24.36    0.65
   2  -6   1   24.66    0.66
  -3   6  -1    9.94    0.31
  -3   6  -1    9.98    0.33
  -3   6  -1    9.78    0.36
  -3   6  -1    9.42    0.33
  -3   6  -1    9.41    0.35
   3  -6   1    9.26    0.33
   3  -6   1    9.42    0.30
  -4   6  -1   14.43    0.46
  -4   6  -1   14.09    0.44
  -4   6  -1   14.61    0.44
   4  -6   1   14.37    0.39
   4  -6   1   14.55    0.44
  -5   6  -1    9.39    0.32
  -5   6  -1    9.27    0.34
  -5   6  -1    9.65    0.32
   5  -6   1    9.20    0.32
   5  -6   1    9.22    0.26
  -6   6  -1   -0.02    0.07
  -6   6  -1    0.12    0.06
  -6   6  -1    0.11    0.06
  -6   6  -1    0.15    0.06
   6  -6   1    0.14    0.03
   6  -6   1    0.15    0.06
  -7   6  -1    3.96    0.22
  -7   6  -1    4.14    0.21
  -7   6  -1    4.29    0.21
  -8   6  -1   10.29    0.37
  -8   6  -1   10.48    0.37
  -8   6  -1   10.20    0.39
  -9   6  -1    2.57    0.21
  -9   6  -1    2.47    0.18
  -9   6  -1    2.79    0.19
 -10   6  -1    2.35    0.20
 -10   6  -1    2.62    0.22
 -11   6  -1    0.41    0.13
 -11   6  -1    0.52    0.13
 -12   6  -1    0.10    0.12
 -12   6  -1    0.17    0.12
  -8  -5   1    0.28    0.17
   7   5  -1    1.80    0.24
  -7  -5   1    1.91    0.25
  -7  -5   1    1.47    0.23
   6   5  -1    3.13    0.27
  -6  -5   1    2.79    0.24
  -6  -5   1    3.28    0.30
  -6  -5   1    2.62    0.28
   5   5  -1    5.99    0.34
  -5  -5   1    6.13    0.35
  -5  -5   1    5.81    0.34
  -5  -5   1    6.74    0.33
   4   5  -1   14.07    0.43
   4   5  -1   13.78    0.52
  -4  -5   1   13.70    0.52
  -4  -5   1   13.93    0.51
  -4  -5   1   13.71    0.49
   3   5  -1    8.98    0.39
   3   5  -1    9.46    0.32
  -3  -5   1    8.55    0.38
  -3  -5   1    9.70    0.36
  -3  -5   1    9.05    0.37
   2   5  -1   29.70    1.32
   2   5  -1   30.32    0.84
   2   5  -1   30.29    0.80
   2   5  -1   29.26    0.86
  -2  -5   1   29.03    0.86
  -2  -5   1   31.63    0.85
  -2  -5   1   30.67    0.83
   1   5  -1   11.07    0.37
   1   5  -1   10.10    0.56
   1   5  -1   11.31    0.36
  -1  -5   1   10.96    0.39
  -1  -5   1   10.38    0.37
  -1  -5   1   11.37    0.37
   0   5  -1   13.18    0.40
   0   5  -1   11.23    0.41
   0   5  -1   12.39    0.39
   0   5  -1   12.41    0.39
   0   5  -1   11.28    0.61
   0   5  -1   12.13    0.39
   0  -5   1   11.86    0.38
   0  -5   1   11.61    0.40
  -1   5  -1   48.21    1.22
  -1   5  -1   48.43    1.15
  -1   5  -1   47.49    1.21
  -1   5  -1   47.94    1.20
  -1   5  -1   46.33    1.23
   1  -5   1   48.52    1.20
   1  -5   1   48.57    1.23
   1  -5   1   47.06    1.15
  -2   5  -1   12.41    0.37
  -2   5  -1   11.90    0.39
  -2   5  -1   11.62    0.37
  -2   5  -1   12.02    0.35
   2  -5   1   12.21    0.38
   2  -5   1   12.42    0.36
   2  -5   1   11.66    0.35
  -3   5  -1   31.89    0.84
  -3   5  -1   31.49    0.82
  -3   5  -1   30.34    0.81
   3  -5   1   31.26    0.75
   3  -5   1   31.18    0.82
  -4   5  -1   15.87    0.45
  -4   5  -1   14.03    0.44
  -4   5  -1   14.24    0.42
  -4   5  -1   14.36    0.42
   4  -5   1   13.97    0.37
   4  -5   1   13.83    0.42
  -5   5  -1    5.39    0.21
  -5   5  -1    5.60    0.21
  -5   5  -1    5.95    0.23
  -5   5  -1    5.37    0.21
  -5   5  -1    5.22    0.23
   5  -5   1    5.20    0.16
   5  -5   1    5.37    0.21
  -6   5  -1    0.15    0.06
  -6   5  -1    0.11    0.07
  -6   5  -1    0.20    0.06
  -6   5  -1    0.24    0.07
   6  -5   1    0.10    0.05
   6  -5   1    0.25    0.04
  -7   5  -1    0.56    0.09
  -7   5  -1    0.45    0.10
  -7   5  -1    0.51    0.08
   7  -5   1    0.43    0.07
   7  -5   1    0.45    0.05
  -8   5  -1   15.52    0.48
  -8   5  -1   14.52    0.50
  -8   5  -1   15.68    0.49
  -9   5  -1    0.37    0.10
  -9   5  -1    0.47    0.10
  -9   5  -1    0.39    0.11
 -10   5  -1   -0.02    0.09
 -10   5  -1   -0.06    0.08
 -11   5  -1    0.23    0.11
 -11   5  -1    0.06    0.11
 -12   5  -1    0.09    0.12
 -12   5  -1   -0.02    0.10
  -9  -4   1   -0.14    0.15
  -8  -4   1    0.84    0.19
  -8  -4   1    1.17    0.22
  -8  -4   1    0.89    0.18
   7   4  -1    2.08    0.23
  -7  -4   1    2.23    0.25
  -7  -4   1    2.18    0.24
  -7  -4   1    2.42    0.24
   6   4  -1    1.28    0.18
  -6  -4   1    1.29    0.18
  -6  -4   1    1.26    0.18
  -6  -4   1    1.22    0.17
   5   4  -1    4.88    0.28
  -5  -4   1    4.83    0.29
  -5  -4   1    4.65    0.20
  -5  -4   1    4.88    0.26
  -5  -4   1    4.40    0.27
   4   4  -1    5.01    0.27
   4   4  -1    4.88    0.22
  -4  -4   1    4.71    0.24
  -4  -4   1    4.59    0.26
  -4  -4   1    4.77    0.25
  -4  -4   1    4.95    0.27
  -4  -4   1    5.13    0.33
  -4  -4   1    4.68    0.20
   3   4  -1    6.69    0.26
   3   4  -1    6.81    0.30
   3   4  -1    6.55    0.24
  -3  -4   1    6.68    0.28
  -3  -4   1    6.77    0.28
  -3  -4   1    6.74    0.38
  -3  -4   1    6.49    0.29
  -3  -4   1    6.88    0.30
   2   4  -1   12.73    0.38
   2   4  -1   12.89    0.43
   2   4  -1   12.83    0.62
   2   4  -1   12.18    0.40
  -2  -4   1   12.48    0.42
  -2  -4   1   12.82    0.41
  -2  -4   1   12.11    0.41
  -2  -4   1   13.20    0.41
   1   4  -1   11.47    0.58
   1   4  -1   11.90    0.38
   1   4  -1   11.58    0.38
   1   4  -1   12.17    0.40
   1   4  -1   12.61    0.38
   1   4  -1   12.04    0.36
  -1  -4   1   12.33    0.38
  -1  -4   1   11.97    0.40
  -1  -4   1   12.27    0.38
  -1  -4   1   12.31    0.38
   0   4  -1    3.86    0.19
   0   4  -1    3.67    0.17
   0   4  -1    3.62    0.17
   0   4  -1    3.86    0.17
   0   4  -1    3.91    0.17
   0   4  -1    3.71    0.27
   0  -4   1    3.86    0.16
   0  -4   1    3.79    0.18
   0  -4   1    3.78    0.17
  -1   4  -1   55.89    1.40
  -1   4  -1   58.01    1.33
  -1   4  -1   57.69    1.42
  -1   4  -1   58.83    1.41
   1  -4   1   57.22    1.41
   1  -4   1   57.01    1.40
   1  -4   1   53.83    1.32
  -2   4  -1   66.02    1.63
  -2   4  -1   64.71    1.62
  -2   4  -1   68.65    1.63
  -2   4  -1   67.61    1.52
  -2   4  -1   66.81    1.62
  -2   4  -1   68.18    1.63
   2  -4   1   65.91    1.52
   2  -4   1   67.30    1.61
   2  -4   1   63.93    1.62
  -3   4  -1   74.56    1.72
  -3   4  -1   69.61    1.72
  -3   4  -1   69.59    1.71
  -3   4  -1   69.44    1.71
   3  -4   1   68.36    1.59
   3  -4   1   71.03    1.71
  -4   4  -1   23.91    0.61
  -4   4  -1   22.30    0.61
  -4   4  -1   22.02    0.59
  -4   4  -1   21.73    0.59
   4  -4   1   22.15    0.53
   4  -4   1   22.45    0.60
  -5   4  -1    6.03    0.23
  -5   4  -1    5.87    0.21
  -5   4  -1    6.22    0.23
  -5   4  -1    5.77    0.21
   5  -4   1    5.92    0.21
  -6   4  -1   10.86    0.35
  -6   4  -1   11.89    0.38
  -6   4  -1   11.52    0.36
  -6   4  -1   13.03    0.39
   6  -4   1   11.80    0.35
   6  -4   1   11.39    0.30
  -7   4  -1    3.06    0.16
  -7   4  -1    2.96    0.18
  -7   4  -1    3.03    0.19
  -7   4  -1    3.05    0.17
   7  -4   1    3.10    0.13
   7  -4   1    3.19    0.15
  -8   4  -1   11.01    0.38
  -8   4  -1   10.44    0.39
  -8   4  -1   11.51    0.38
   8  -4   1   10.96    0.32
  -9   4  -1    3.21    0.22
  -9   4  -1    3.40    0.21
  -9   4  -1    3.62    0.22
 -10   4  -1    0.43    0.12
 -10   4  -1    0.47    0.12
 -11   4  -1    1.12    0.18
 -11   4  -1    1.21    0.18
 -12   4  -1   -0.04    0.11
 -12   4  -1    0.05    0.11
  -9  -3   1    1.03    0.18
  -9  -3   1    1.11    0.21
  -8  -3   1    1.83    0.23
  -8  -3   1    1.97    0.21
  -8  -3   1    1.94    0.24
   7   3  -1    3.11    0.23
  -7  -3   1    2.35    0.22
  -7  -3   1    2.07    0.23
  -7  -3   1    2.90    0.23
   6   3  -1    5.28    0.28
  -6  -3   1    4.77    0.29
  -6  -3   1    5.53    0.30
  -6  -3   1    4.97    0.27
  -6  -3   1    5.14    0.21
   5   3  -1    9.30    0.38
  -5  -3   1    9.27    0.30
  -5  -3   1    9.05    0.36
  -5  -3   1   10.09    0.52
  -5  -3   1    9.80    0.37
  -5  -3   1    9.45    0.37
  -5  -3   1    8.94    0.38
   4   3  -1    1.70    0.12
   4   3  -1    1.19    0.14
  -4  -3   1    1.22    0.14
  -4  -3   1    1.49    0.11
  -4  -3   1    1.70    0.14
  -4  -3   1    1.43    0.15
  -4  -3   1    1.78    0.18
  -4  -3   1    1.54    0.14
   3   3  -1   30.41    0.78
   3   3  -1   29.18    0.73
   3   3  -1   28.48    0.81
   3   3  -1   29.51    0.77
  -3  -3   1   29.17    0.73
  -3  -3   1   29.39    1.23
  -3  -3   1   28.98    0.79
  -3  -3   1   28.72    0.77
  -3  -3   1   29.13    0.81
  -3  -3   1   30.38    0.80
   2   3  -1   28.16    0.70
   2   3  -1   27.37    1.16
   2   3  -1   27.77    0.76
   2   3  -1   27.75    0.72
  -2  -3   1   28.23    0.73
  -2  -3   1   29.03    0.75
  -2  -3   1   27.36    1.16
  -2  -3   1   28.91    0.75
  -2  -3   1   27.04    0.76
   1   3  -1   23.79    0.65
   1   3  -1   23.95    0.63
   1   3  -1   23.79    0.63
   1   3  -1   23.72    0.60
   1   3  -1   22.67    0.99
  -1  -3   1   25.08    0.64
  -1  -3   1   23.68    0.61
  -1  -3   1   23.94    0.63
  -1  -3   1   23.77    0.65
   0   3  -1   19.29    0.52
   0   3  -1   20.70    0.53
   0   3  -1   18.77    0.49
   0   3  -1   19.10    0.53
   0   3  -1   20.00    0.52
   0   3  -1   19.11    0.50
   0  -3   1   19.55    0.51
   0  -3   1   18.96    0.52
   0  -3   1   18.78    0.51
   0  -3   1   17.85    0.49
  -1   3  -1   34.82    0.87
  -1   3  -1   34.54    0.87
  -1   3  -1   36.59    0.88
  -1   3  -1   35.03    0.82
  -1   3  -1   34.05    0.88
   1  -3   1   34.90    0.86
   1  -3   1   33.77    0.87
   1  -3   1   36.59    0.90
   1  -3   1   34.63    0.86
   1  -3   1   33.45    0.82
  -2   3  -1   39.66    0.99
  -2   3  -1   39.83    1.00
  -2   3  -1   38.93    0.99
  -2   3  -1   41.70    1.00
   2  -3   1   40.91    0.99
   2  -3   1   40.47    0.98
   2  -3   1   39.76    0.92
  -3   3  -1    2.38    0.11
  -3   3  -1    2.73    0.13
  -3   3  -1    2.22    0.13
  -3   3  -1    2.37    0.11
   3  -3   1    2.48    0.12
   3  -3   1    2.16    0.10
  -4   3  -1    0.36    0.06
  -4   3  -1    0.25    0.06
  -4   3  -1    0.25    0.05
  -4   3  -1    0.30    0.05
   4  -3   1    0.18    0.05
  -5   3  -1    6.25    0.23
  -5   3  -1    6.11    0.21
  -5   3  -1    5.85    0.21
  -5   3  -1    6.47    0.23
   5  -3   1    5.77    0.18
   5  -3   1    5.99    0.21
  -6   3  -1    4.72    0.20
  -6   3  -1    4.66    0.21
  -6   3  -1    4.99    0.20
  -6   3  -1    5.22    0.22
   6  -3   1    4.75    0.19
   6  -3   1    4.78    0.17
  -7   3  -1    1.88    0.16
  -7   3  -1    1.78    0.13
  -7   3  -1    1.78    0.14
   7  -3   1    2.06    0.13
   7  -3   1    1.99    0.11
  -8   3  -1    3.39    0.19
  -8   3  -1    3.32    0.21
  -8   3  -1    3.11    0.19
   8  -3   1    3.23    0.16
  -9   3  -1    1.63    0.17
  -9   3  -1    1.98    0.20
 -10   3  -1    1.37    0.17
 -10   3  -1    1.37    0.18
 -11   3  -1    0.79    0.15
 -11   3  -1    0.74    0.16
 -12   3  -1    1.42    0.21
 -12   3  -1    1.32    0.20
 -10  -2   1    0.45    0.17
 -10  -2   1    0.10    0.12
  -9  -2   1    0.32    0.15
  -9  -2   1    0.62    0.15
  -8  -2   1    0.11    0.11
  -8  -2   1    0.09    0.10
  -8  -2   1    0.05    0.11
   7   2  -1    0.55    0.12
  -7  -2   1    0.54    0.08
  -7  -2   1    0.51    0.12
  -7  -2   1    0.32    0.11
  -7  -2   1    0.48    0.11
   6   2  -1    7.23    0.31
  -6  -2   1    7.91    0.32
  -6  -2   1    7.56    0.33
  -6  -2   1    7.01    0.31
  -6  -2   1    7.14    0.33
  -6  -2   1    7.60    0.25
   5   2  -1   10.84    0.39
  -5  -2   1   10.38    0.39
  -5  -2   1   11.27    0.38
  -5  -2   1   10.71    0.32
  -5  -2   1   11.03    0.38
  -5  -2   1   11.20    0.58
  -5  -2   1   11.18    0.38
   4   2  -1    0.05    0.04
   4   2  -1    0.10    0.06
   4   2  -1    0.01    0.06
  -4  -2   1    0.09    0.09
  -4  -2   1    0.00    0.05
  -4  -2   1    0.02    0.04
  -4  -2   1   -0.01    0.06
  -4  -2   1    0.09    0.06
  -4  -2   1    0.13    0.07
   3   2  -1   24.90    0.68
   3   2  -1   24.98    0.65
   3   2  -1   25.13    0.65
  -3  -2   1   25.12    1.05
  -3  -2   1   24.47    0.68
  -3  -2   1   25.42    0.67
  -3  -2   1   24.60    0.65
  -3  -2   1   24.59    0.67
  -3  -2   1   25.13    0.61
   2   2  -1   78.30    1.86
   2   2  -1   74.73    1.76
   2   2  -1   77.23    1.77
   2   2  -1   77.17    1.85
  -2  -2   1   79.88    1.86
  -2  -2   1   75.40    1.85
  -2  -2   1   76.11    1.77
  -2  -2   1   76.46    1.85
  -2  -2   1   76.08    1.86
  -2  -2   1   74.93    3.00
  -2  -2   1   76.23    1.76
   1   2  -1    0.76    0.06
   1   2  -1    0.60    0.07
   1   2  -1    0.77    0.07
   1   2  -1    0.59    0.07
   1   2  -1    0.69    0.09
   1   2  -1    0.61    0.07
  -1  -2   1    0.68    0.07
  -1  -2   1    0.58    0.07
  -1  -2   1    0.66    0.07
  -1  -2   1    0.53    0.07
   0   2  -1   33.98    0.86
   0   2  -1   33.29    0.85
   0   2  -1   34.96    0.85
   0   2  -1   35.03    0.86
   0   2  -1   34.42    0.81
   0  -2   1   33.91    0.85
   0  -2   1   34.24    0.81
   0  -2   1   35.64    0.86
   0  -2   1   34.93    0.86
   0  -2   1   34.67    0.85
  -1   2  -1    9.37    0.27
  -1   2  -1    9.60    0.27
  -1   2  -1    9.32    0.25
  -1   2  -1    9.65    0.28
  -1   2  -1    9.62    0.27
   1  -2   1    9.62    0.25
   1  -2   1    9.95    0.28
   1  -2   1    9.66    0.27
   1  -2   1    9.59    0.26
   1  -2   1    9.63    0.26
  -2   2  -1   60.96    1.50
  -2   2  -1   62.16    1.50
  -2   2  -1   61.48    1.50
  -2   2  -1   65.67    1.50
  -2   2  -1   62.93    1.50
   2  -2   1   61.97    1.49
   2  -2   1   62.70    1.49
   2  -2   1   64.30    1.50
   2  -2   1   61.93    1.50
  -3   2  -1    2.01    0.09
  -3   2  -1    2.01    0.11
  -3   2  -1    2.11    0.11
  -3   2  -1    1.98    0.10
   3  -2   1    2.10    0.08
   3  -2   1    2.05    0.11
   3  -2   1    2.17    0.11
  -4   2  -1   52.38    1.23
  -4   2  -1   49.63    1.21
  -4   2  -1   47.98    1.21
  -4   2  -1   49.83    1.23
   4  -2   1   48.07    1.13
   4  -2   1   49.75    1.21
  -5   2  -1   15.53    0.43
  -5   2  -1   13.36    0.40
  -5   2  -1   13.54    0.42
  -5   2  -1   14.12    0.40
   5  -2   1   13.78    0.40
   5  -2   1   13.54    0.37
  -6   2  -1    0.91    0.10
  -6   2  -1    0.78    0.11
  -6   2  -1    0.94    0.09
  -6   2  -1    0.86    0.11
   6  -2   1    0.88    0.09
   6  -2   1    1.00    0.10
  -7   2  -1    0.60    0.09
  -7   2  -1    0.62    0.11
  -7   2  -1    0.56    0.09
   7  -2   1    0.87    0.09
   7  -2   1    0.82    0.10
  -8   2  -1    0.91    0.12
  -8   2  -1    0.94    0.12
  -8   2  -1    0.92    0.14
   8  -2   1    0.83    0.10
   8  -2   1    1.03    0.11
  -9   2  -1    5.42    0.29
  -9   2  -1    5.70    0.29
 -10   2  -1    1.78    0.20
 -10   2  -1    1.91    0.21
 -11   2  -1    1.70    0.22
 -11   2  -1    1.70    0.22
 -11  -1   1   -0.02    0.12
 -11  -1   1   -0.05    0.12
 -10  -1   1    0.48    0.14
 -10  -1   1    0.40    0.15
  -9  -1   1    1.95    0.22
  -9  -1   1    1.73    0.21
  -8  -1   1    0.89    0.15
  -8  -1   1    0.76    0.13
  -8  -1   1    0.84    0.14
   7   1  -1    5.58    0.26
  -7  -1   1    5.48    0.27
  -7  -1   1    5.33    0.21
  -7  -1   1    5.39    0.26
  -7  -1   1    5.17    0.28
  -7  -1   1    5.54    0.27
   6   1  -1    5.05    0.23
  -6  -1   1    4.69    0.19
  -6  -1   1    4.98    0.24
  -6  -1   1    5.15    0.23
  -6  -1   1    4.46    0.22
  -6  -1   1    4.79    0.24
   5   1  -1   12.36    0.39
   5   1  -1   11.63    0.38
  -5  -1   1   11.81    0.38
  -5  -1   1   12.15    0.34
  -5  -1   1   12.48    0.38
  -5  -1   1   12.37    0.40
  -5  -1   1   11.74    0.38
   4   1  -1   22.46    0.62
   4   1  -1   23.49    0.61
  -4  -1   1   22.87    0.57
  -4  -1   1   22.59    0.63
  -4  -1   1   22.75    0.61
  -4  -1   1   22.34    0.62
  -4  -1   1   24.74    0.64
  -4  -1   1   22.96    0.62
   3   1  -1  114.27    2.58
   3   1  -1  117.50    2.71
   3   1  -1  114.27    2.72
  -3  -1   1  111.11    2.73
  -3  -1   1  120.50    2.73
  -3  -1   1  111.67    2.62
  -3  -1   1  114.78    2.73
  -3  -1   1  113.44    2.58
  -3  -1   1  114.09    2.73
   2   1  -1  961.23   21.37
   2   1  -1 1000.00   22.55
   2   1  -1  970.23   22.63
   2   1  -1  982.87   22.59
  -2  -1   1  948.51   22.69
  -2  -1   1  954.40   21.33
  -2  -1   1  945.95   21.85
  -2  -1   1  978.73   22.55
  -2  -1   1  963.87   22.59
  -2  -1   1  934.33   22.68
   1   1  -1  182.95    4.25
   1   1  -1  181.31    4.23
   1   1  -1  177.59    4.12
   1   1  -1  186.99    4.23
   1   1  -1  180.01    4.25
   1   1  -1  175.40    3.99
  -1  -1   1  189.51    4.23
  -1  -1   1  181.54    4.25
  -1  -1   1  183.73    4.26
  -1  -1   1  177.89    4.03
  -1  -1   1  176.11    4.28
   0   1  -1   31.37    0.74
   0   1  -1   32.41    0.78
   0   1  -1   32.60    0.78
   0  -1   1   32.53    0.78
   0  -1   1   31.75    0.78
   0  -1   1   33.10    0.78
   0  -1   1   32.08    0.78
   0  -1   1   32.39    0.78
   0  -1   1   32.19    0.74
  -1   1  -1  144.84    3.32
  -1   1  -1  137.28    3.35
  -1   1  -1  143.44    3.37
  -1   1  -1  141.53    3.38
   1  -1   1  141.22    3.34
   1  -1   1  140.60    3.32
   1  -1   1  145.15    3.32
  -2   1  -1   34.66    0.85
  -2   1  -1   35.31    0.86
  -2   1  -1   33.43    0.85
  -2   1  -1   35.87    0.86
   2  -1   1   34.85    0.84
   2  -1   1   36.01    0.86
   2  -1   1   34.67    0.84
   2  -1   1   34.97    0.85
  -3   1  -1   68.94    1.72
  -3   1  -1   71.15    1.72
  -3   1  -1   75.01    1.72
  -3   1  -1   70.86    1.72
   3  -1   1   73.05    1.70
   3  -1   1   70.95    1.72
   3  -1   1   74.06    1.72
   3  -1   1   69.72    1.61
  -4   1  -1   20.70    0.54
  -4   1  -1   20.37    0.56
  -4   1  -1   19.06    0.54
  -4   1  -1   21.70    0.56
   4  -1   1   20.08    0.51
   4  -1   1   20.18    0.55
  -5   1  -1   61.23    1.48
  -5   1  -1   63.09    1.50
  -5   1  -1   58.27    1.48
  -5   1  -1   59.10    1.50
   5  -1   1   59.26    1.40
   5  -1   1   59.25    1.48
  -6   1  -1    0.37    0.09
  -6   1  -1    0.41    0.07
  -6   1  -1    0.29    0.07
   6  -1   1    0.31    0.07
   6  -1   1    0.27    0.06
  -7   1  -1    2.15    0.16
  -7   1  -1    1.66    0.15
  -7   1  -1    2.11    0.17
   7  -1   1    1.91    0.15
   7  -1   1    1.91    0.15
  -8   1  -1    5.51    0.29
  -8   1  -1    5.55    0.28
   8  -1   1    5.77    0.26
  -9   1  -1    2.75    0.22
  -9   1  -1    2.80    0.23
 -10   1  -1    1.05    0.18
 -10   1  -1    1.37    0.18
 -11   1  -1    0.90    0.18
 -11   1  -1    1.10    0.20
 -11   0   1    0.43    0.14
 -11   0   1    0.22    0.14
 -10   0   1    0.07    0.10
 -10   0   1    0.08    0.11
  -9   0   1    1.98    0.20
  -9   0   1    2.22    0.21
  -8   0   1    4.21    0.24
  -8   0   1    3.54    0.23
  -8   0   1    4.72    0.24
  -8   0   1    4.41    0.20
   7   0  -1    9.82    0.34
  -7   0   1    9.99    0.32
  -7   0   1    9.40    0.35
  -7   0   1    9.10    0.36
  -7   0   1    9.80    0.35
  -7   0   1    9.60    0.35
   6   0  -1    1.24    0.12
   6   0  -1    1.19    0.11
  -6   0   1    1.12    0.11
  -6   0   1    1.16    0.12
  -6   0   1    1.03    0.10
  -6   0   1    0.98    0.11
   5   0  -1    9.36    0.30
   5   0  -1    9.20    0.30
  -5   0   1    9.42    0.30
  -5   0   1    9.74    0.31
  -5   0   1    9.27    0.29
  -5   0   1    8.82    0.29
  -5   0   1    8.95    0.31
   4   0  -1    7.03    0.23
   4   0  -1    6.76    0.23
  -4   0   1    7.30    0.24
  -4   0   1    7.36    0.24
  -4   0   1    6.82    0.22
  -4   0   1    7.02    0.22
  -4   0   1    7.09    0.23
   3   0  -1   38.80    0.94
   3   0  -1   39.16    0.94
   3   0  -1   37.93    0.90
  -3   0   1   39.08    0.90
  -3   0   1   37.90    0.94
  -3   0   1   38.14    0.93
  -3   0   1   40.28    0.95
  -3   0   1   36.50    0.93
   2   0  -1  344.13    7.87
   2   0  -1  330.06    7.46
   2   0  -1  344.83    7.86
  -2   0   1  325.54    7.47
  -2   0   1  326.47    7.90
  -2   0   1  335.00    7.89
  -2   0   1  348.76    7.89
  -2   0   1  335.80    7.91
   1   0  -1   81.57    1.77
   1   0  -1   73.42    1.87
  -1   0   1   83.95    1.87
  -1   0   1   80.28    1.82
  -1   0   1   80.56    1.77
  -1   0   1   79.74    1.88
  -1   0   1   76.81    1.88
  -1   0   1   83.54    1.88
   0   0  -1   -0.03    0.01
   0   0  -1   -0.04    0.02
   0   0  -1   -0.02    0.02
   0   0  -1   -0.03    0.00
   0   0  -1   -0.02    0.01
   0   0   1   -0.02    0.01
   0   0   1   -0.03    0.01
   0   0   1   -0.02    0.02
   0   0   1   -0.03    0.01
   0   0   1   -0.03    0.01
  -1   0  -1   84.50    1.97
  -1   0  -1   85.08    1.97
  -1   0  -1   78.94    1.97
  -1   0  -1   82.33    1.97
   1   0   1   82.87    1.97
   1   0   1   86.43    1.97
   1   0   1   84.67    1.96
  -2   0  -1   44.69    1.10
  -2   0  -1   45.48    1.10
  -2   0  -1   46.33    1.10
  -2   0  -1   44.34    1.10
   2   0   1   46.14    1.11
   2   0   1   45.63    1.10
   2   0   1   45.09    1.09
   2   0   1   44.93    1.10
   2   0   1   45.41    1.04
  -3   0  -1   11.71    0.34
  -3   0  -1   11.13    0.33
  -3   0  -1   11.56    0.33
  -3   0  -1   11.49    0.34
   3   0   1   11.45    0.32
   3   0   1   11.26    0.34
   3   0   1   11.68    0.32
  -4   0  -1   30.95    0.84
  -4   0  -1   33.95    0.85
  -4   0  -1   32.04    0.86
  -4   0  -1   34.26    0.86
   4   0   1   32.51    0.80
   4   0   1   33.26    0.82
   4   0   1   32.04    0.85
  -5   0  -1    1.02    0.12
  -5   0  -1    1.18    0.11
  -5   0  -1    1.47    0.11
   5   0   1    1.30    0.11
   5   0   1    1.38    0.13
  -6   0  -1    9.83    0.34
  -6   0  -1    9.22    0.34
  -6   0  -1    9.35    0.36
   6   0   1    9.34    0.33
   6   0   1    9.41    0.34
  -7   0  -1    0.05    0.08
  -7   0  -1    0.10    0.08
  -7   0  -1    0.04    0.08
  -7   0  -1    0.07    0.07
   7   0   1    0.15    0.08
  -8   0  -1   11.18    0.41
  -8   0  -1   11.00    0.45
  -8   0  -1   10.94    0.43
   8   0   1   11.51    0.42
  -9   0  -1    0.72    0.15
  -9   0  -1    0.88    0.14
  -9   0  -1    0.86    0.15
 -10   0  -1   -0.05    0.10
 -10   0  -1    0.26    0.12
 -11   0  -1    0.19    0.15
 -11   0  -1    0.22    0.14
 -11   1   1   -0.21    0.09
 -11   1   1    0.15    0.11
 -10   1   1    0.21    0.10
 -10   1   1    0.04    0.10
  -9   1   1    0.86    0.13
  -9   1   1    0.80    0.13
  -8   1   1    5.98    0.26
  -8   1   1    5.56    0.27
  -8   1   1    5.28    0.25
   7  -1  -1    0.61    0.08
   7  -1  -1    0.40    0.08
  -7   1   1    0.34    0.08
  -7   1   1    0.67    0.09
  -7   1   1    0.58    0.10
  -7   1   1    0.66    0.10
   6  -1  -1    6.80    0.23
   6  -1  -1    7.45    0.24
  -6   1   1    6.86    0.25
  -6   1   1    6.75    0.24
  -6   1   1    6.60    0.25
  -6   1   1    6.53    0.24
  -6   1   1    6.89    0.24
   5  -1  -1    2.14    0.10
   5  -1  -1    2.01    0.11
  -5   1   1    1.97    0.11
  -5   1   1    1.95    0.11
  -5   1   1    1.80    0.10
  -5   1   1    2.01    0.12
  -5   1   1    2.00    0.10
   4  -1  -1   91.58    2.07
   4  -1  -1   94.50    2.18
  -4   1   1   88.05    2.18
  -4   1   1   93.40    2.18
  -4   1   1   96.58    2.20
  -4   1   1   91.49    2.19
  -4   1   1   92.46    2.07
   3  -1  -1   27.42    0.65
   3  -1  -1   28.56    0.67
  -3   1   1   27.67    0.65
  -3   1   1   28.32    0.68
  -3   1   1   28.90    0.68
   2  -1  -1   88.99    1.95
  -2   1   1   88.27    1.95
   1  -1  -1   17.69    0.45
  -1   1   1   18.22    0.45
  -1   1   1   18.71    0.43
  -1   1   1   18.41    0.43
   0  -1  -1   33.76    0.82
   0  -1  -1   34.55    0.82
   0  -1  -1   35.13    0.82
   0  -1  -1   33.00    0.80
   0  -1  -1   34.71    1.37
   0   1   1   34.77    0.82
   0   1   1   33.82    0.77
   0   1   1   32.35    1.37
   0   1   1   33.11    0.80
   0   1   1   35.45    0.82
   0   1   1   33.66    0.82
   0   1   1   34.36    0.82
  -1  -1  -1   -0.02    0.04
  -1  -1  -1    0.10    0.05
  -1  -1  -1    0.03    0.04
  -1  -1  -1    0.04    0.04
  -1  -1  -1    0.05    0.03
  -1  -1  -1    0.09    0.08
  -1  -1  -1    0.03    0.03
   1   1   1    0.05    0.03
   1   1   1    0.07    0.04
   1   1   1    0.18    0.09
   1   1   1    0.05    0.03
   1   1   1    0.03    0.04
   1   1   1    0.04    0.04
   1   1   1    0.08    0.04
  -2  -1  -1   11.36    0.32
  -2  -1  -1   11.38    0.56
  -2  -1  -1   11.48    0.33
  -2  -1  -1   12.54    0.35
  -2  -1  -1   11.79    0.33
  -2  -1  -1   11.50    0.32
  -2  -1  -1   11.35    0.34
   2   1   1   11.32    0.32
   2   1   1   11.57    0.34
   2   1   1   11.82    0.33
  -3  -1  -1   30.26    0.80
  -3  -1  -1   30.39    0.79
  -3  -1  -1   31.33    0.79
  -3  -1  -1   30.16    0.77
  -3  -1  -1   30.05    0.76
   3   1   1   30.56    0.76
   3   1   1   30.60    0.80
   3   1   1   30.98    0.78
  -4  -1  -1    3.26    0.16
  -4  -1  -1    3.64    0.18
  -4  -1  -1    3.29    0.17
  -4  -1  -1    3.64    0.17
  -4  -1  -1    3.32    0.18
   4   1   1    3.62    0.15
   4   1   1    3.62    0.18
   4   1   1    2.98    0.16
  -5  -1  -1   17.96    0.56
  -5  -1  -1   18.66    0.54
  -5  -1  -1   17.94    0.54
  -5  -1  -1   18.24    0.52
   5   1   1   18.10    0.55
   5   1   1   18.33    0.53
  -6  -1  -1    2.73    0.18
  -6  -1  -1    2.74    0.18
  -6  -1  -1    2.76    0.17
  -6  -1  -1    2.76    0.20
   6   1   1    2.26    0.18
  -7  -1  -1    6.88    0.33
  -7  -1  -1    6.94    0.32
  -7  -1  -1    6.83    0.29
   7   1   1    7.13    0.32
  -8  -1  -1    1.32    0.16
  -8  -1  -1    1.39    0.19
  -8  -1  -1    1.18    0.16
   8   1   1    1.44    0.17
  -9  -1  -1    4.31    0.29
  -9  -1  -1    3.23    0.30
 -10  -1  -1    0.50    0.15
 -10  -1  -1    0.72    0.18
 -12   2   1    0.67    0.16
 -12   2   1    0.72    0.16
 -11   2   1    0.06    0.10
 -11   2   1   -0.08    0.09
 -10   2   1    1.59    0.17
 -10   2   1    1.71    0.18
  -9   2   1    4.20    0.24
  -9   2   1    4.29    0.23
  -9   2   1    4.09    0.22
   8  -2  -1    3.73    0.18
  -8   2   1    3.72    0.19
  -8   2   1    3.96    0.20
  -8   2   1    3.72    0.21
   7  -2  -1    6.14    0.19
   7  -2  -1    5.72    0.21
  -7   2   1    5.98    0.24
  -7   2   1    5.30    0.21
  -7   2   1    5.57    0.23
  -7   2   1    5.63    0.21
   6  -2  -1    8.03    0.24
   6  -2  -1    8.04    0.23
  -6   2   1    7.47    0.24
  -6   2   1    7.42    0.26
  -6   2   1    8.00    0.26
  -6   2   1    7.87    0.24
   5  -2  -1   57.26    1.33
   5  -2  -1   56.98    1.28
   5  -2  -1   58.46    1.33
  -5   2   1   54.40    1.34
  -5   2   1   54.32    1.35
  -5   2   1   58.31    1.37
  -5   2   1   55.69    1.37
   4  -2  -1    1.13    0.06
  -4   2   1    1.23    0.07
  -4   2   1    1.05    0.07
  -3   2   1   63.23    1.50
  -3   2   1   64.53    1.50
  -2   2   1    9.06    0.23
  -2   2   1    8.88    0.23
  -2   2   1    8.73    0.21
   1  -2  -1  222.55    5.35
   1  -2  -1  249.53    5.48
   1  -2  -1  237.51    5.49
   1  -2  -1  232.22    5.51
   1  -2  -1  235.63    5.22
   1  -2  -1  230.47    5.51
  -1   2   1  244.67    5.51
  -1   2   1  235.21    5.20
  -1   2   1  230.11    5.54
  -1   2   1  236.76    5.43
  -1   2   1  231.30    5.55
  -1   2   1  235.57    5.52
   0  -2  -1    0.39    0.05
   0  -2  -1    0.33    0.06
   0  -2  -1    0.39    0.05
   0  -2  -1    0.36    0.10
   0  -2  -1    0.45    0.06
   0  -2  -1    0.41    0.05
   0  -2  -1    0.35    0.05
   0   2   1    0.32    0.04
   0   2   1    0.35    0.10
   0   2   1    0.36    0.05
   0   2   1    0.39    0.06
   0   2   1    0.36    0.06
   0   2   1    0.35    0.05
   0   2   1    0.44    0.06
  -1  -2  -1   36.10    0.85
  -1  -2  -1   31.07    0.80
  -1  -2  -1   33.65    1.39
  -1  -2  -1   32.97    0.85
  -1  -2  -1   33.47    0.84
  -1  -2  -1   33.28    0.82
  -1  -2  -1   33.57    0.84
   1   2   1   32.63    1.39
   1   2   1   34.39    0.85
   1   2   1   33.31    0.85
   1   2   1   32.50    0.84
   1   2   1   33.38    0.84
   1   2   1   34.01    0.82
   1   2   1   33.96    0.80
  -2  -2  -1   15.21    0.45
  -2  -2  -1   14.81    0.42
  -2  -2  -1   15.78    0.44
  -2  -2  -1   15.79    0.44
  -2  -2  -1   15.15    0.72
   2   2   1   15.45    0.45
   2   2   1   15.45    0.43
   2   2   1   15.26    0.43
   2   2   1   16.10    0.44
   2   2   1   15.53    0.43
  -3  -2  -1   10.08    0.31
  -3  -2  -1   10.35    0.33
  -3  -2  -1   10.01    0.35
  -3  -2  -1   10.94    0.33
  -3  -2  -1   10.49    0.55
   3   2   1   10.13    0.34
   3   2   1    8.82    0.31
   3   2   1   10.17    0.33
  -4  -2  -1   19.19    0.54
  -4  -2  -1   19.43    0.56
  -4  -2  -1   18.92    0.56
  -4  -2  -1   18.22    0.55
  -4  -2  -1   19.21    0.58
   4   2   1   19.41    0.54
   4   2   1   19.06    0.55
   4   2   1   19.29    0.58
  -5  -2  -1    3.97    0.24
  -5  -2  -1    4.82    0.24
  -5  -2  -1    4.40    0.21
  -5  -2  -1    4.62    0.23
  -5  -2  -1    4.58    0.23
   5   2   1    4.49    0.20
   5   2   1    4.43    0.24
  -6  -2  -1   21.74    0.62
  -6  -2  -1   21.67    0.66
  -6  -2  -1   20.86    0.68
   6   2   1   20.82    0.66
  -7  -2  -1    3.76    0.24
  -7  -2  -1    3.46    0.26
  -7  -2  -1    3.93    0.22
   7   2   1    3.80    0.25
  -8  -2  -1    3.96    0.27
  -8  -2  -1    3.83    0.29
   8   2   1    3.89    0.27
  -9  -2  -1    1.91    0.23
  -9  -2  -1    1.82    0.25
 -10  -2  -1    0.68    0.20
 -12   3   1    0.78    0.15
 -12   3   1    0.66    0.15
 -11   3   1    0.11    0.10
 -11   3   1   -0.01    0.09
 -10   3   1    0.32    0.09
 -10   3   1    0.59    0.12
  -9   3   1    2.95    0.19
  -9   3   1    3.28    0.19
  -9   3   1    3.13    0.19
   8  -3  -1    1.51    0.10
  -8   3   1    1.55    0.13
  -8   3   1    1.64    0.14
  -8   3   1    1.58    0.12
   7  -3  -1   15.59    0.39
  -7   3   1   15.69    0.43
  -7   3   1   15.79    0.45
  -7   3   1   15.26    0.45
  -7   3   1   14.76    0.43
   6  -3  -1   32.17    0.74
  -6   3   1   32.69    0.82
  -6   3   1   32.83    0.82
  -6   3   1   31.74    0.79
  -6   3   1   31.48    0.79
  -5   3   1   42.85    1.03
  -5   3   1   41.60    1.03
  -4   3   1   16.32    0.43
  -4   3   1   16.85    0.43
   3  -3  -1    0.95    0.05
   3  -3  -1    1.04    0.05
  -3   3   1    0.95    0.07
  -3   3   1    0.98    0.07
   2  -3  -1  287.52    6.86
   2  -3  -1  305.34    6.83
   2  -3  -1  290.63    6.48
  -2   3   1  302.82    6.85
  -2   3   1  298.95    6.70
  -2   3   1  295.23    6.47
  -2   3   1  278.87    6.90
  -2   3   1  286.78    6.91
  -2   3   1  295.73    6.87
   1  -3  -1    3.94    0.14
   1  -3  -1    4.22    0.14
   1  -3  -1    4.30    0.16
   1  -3  -1    4.33    0.16
  -1   3   1    4.15    0.15
  -1   3   1    4.31    0.15
  -1   3   1    4.20    0.15
  -1   3   1    4.12    0.18
  -1   3   1    3.88    0.29
  -1   3   1    4.27    0.16
  -1   3   1    4.23    0.16
   0  -3  -1   52.62    1.24
   0  -3  -1   53.86    2.18
   0  -3  -1   55.04    1.30
   0  -3  -1   53.47    1.29
   0  -3  -1   52.01    1.31
   0   3   1   54.27    1.29
   0   3   1   50.77    2.17
   0   3   1   53.19    1.31
   0   3   1   54.35    1.31
   0   3   1   51.40    1.30
   0   3   1   55.15    1.31
   0   3   1   53.61    1.24
  -1  -3  -1   17.13    0.47
  -1  -3  -1   16.38    0.46
  -1  -3  -1   16.82    0.49
  -1  -3  -1   16.98    0.78
  -1  -3  -1   16.79    0.47
  -1  -3  -1   17.26    0.47
   1   3   1   16.97    0.46
   1   3   1   16.23    0.46
   1   3   1   16.50    0.47
   1   3   1   16.85    0.49
   1   3   1   16.18    0.78
   1   3   1   17.52    0.48
  -2  -3  -1   15.73    0.74
  -2  -3  -1   14.95    0.44
  -2  -3  -1   14.86    0.47
  -2  -3  -1   15.20    0.45
  -2  -3  -1   14.64    0.44
  -2  -3  -1   15.76    0.45
   2   3   1   15.07    0.45
   2   3   1   15.58    0.44
   2   3   1   15.50    0.45
   2   3   1   15.23    0.47
   2   3   1   14.89    0.75
  -3  -3  -1    6.57    0.25
  -3  -3  -1    6.89    0.27
  -3  -3  -1    6.66    0.27
  -3  -3  -1    6.88    0.26
   3   3   1    6.73    0.25
   3   3   1    6.61    0.28
  -4  -3  -1    2.98    0.21
  -4  -3  -1    3.50    0.21
  -4  -3  -1    3.37    0.19
  -4  -3  -1    3.43    0.19
  -4  -3  -1    3.43    0.18
   4   3   1    3.49    0.18
   4   3   1    3.04    0.21
  -5  -3  -1    0.21    0.10
  -5  -3  -1    0.13    0.08
  -5  -3  -1    0.23    0.08
  -5  -3  -1    0.17    0.09
   5   3   1    0.25    0.10
  -6  -3  -1    2.69    0.24
  -6  -3  -1    2.88    0.19
  -6  -3  -1    2.88    0.25
  -6  -3  -1    2.49    0.24
   6   3   1    2.43    0.23
  -7  -3  -1    2.21    0.19
  -7  -3  -1    2.13    0.24
  -7  -3  -1    2.16    0.22
   7   3   1    2.35    0.24
  -8  -3  -1    1.76    0.24
  -8  -3  -1    1.70    0.21
   8   3   1    1.45    0.21
  -9  -3  -1    1.35    0.24
 -12   4   1    2.04    0.21
 -12   4   1    2.16    0.22
 -11   4   1    0.26    0.10
 -11   4   1    0.00    0.09
 -10   4   1   -0.04    0.07
 -10   4   1    0.01    0.06
 -10   4   1    0.02    0.08
  -9   4   1    0.57    0.09
  -9   4   1    0.51    0.09
  -9   4   1    0.66    0.10
  -8   4   1    5.74    0.21
  -8   4   1    5.44    0.21
  -8   4   1    5.78    0.23
  -7   4   1    9.25    0.29
  -7   4   1    9.35    0.31
  -7   4   1    9.69    0.29
  -7   4   1   10.47    0.32
  -6   4   1   15.56    0.41
  -6   4   1   16.11    0.41
  -6   4   1   15.88    0.44
  -6   4   1   16.65    0.44
  -5   4   1   18.36    0.47
  -5   4   1   17.24    0.43
  -5   4   1   16.84    0.43
  -5   4   1   17.36    0.47
   4  -4  -1    0.35    0.04
   4  -4  -1    0.44    0.04
  -4   4   1    0.35    0.04
  -4   4   1    0.27    0.05
  -4   4   1    0.27    0.05
  -4   4   1    0.27    0.03
   3  -4  -1   24.54    0.58
   3  -4  -1   25.08    0.63
  -3   4   1   24.70    0.62
  -3   4   1   25.18    0.58
  -3   4   1   24.55    0.62
  -3   4   1   25.46    0.65
  -3   4   1   25.44    0.64
   2  -4  -1   51.89    1.23
   2  -4  -1   53.10    1.31
  -2   4   1   54.08    1.31
  -2   4   1   53.00    1.31
  -2   4   1   54.32    1.33
  -2   4   1   54.21    1.33
  -2   4   1   55.16    1.24
  -2   4   1   55.58    1.32
   1  -4  -1   62.04    1.47
   1  -4  -1   61.28    1.49
   1  -4  -1   59.83    1.40
  -1   4   1   61.55    1.41
  -1   4   1   60.31    1.49
  -1   4   1   62.23    1.48
  -1   4   1   57.08    1.48
  -1   4   1   58.31    2.50
  -1   4   1   60.49    1.50
  -1   4   1   63.79    1.50
   0  -4  -1   35.01    0.87
   0  -4  -1   33.02    0.87
   0  -4  -1   33.08    0.83
   0  -4  -1   33.47    0.89
   0   4   1   34.95    0.87
   0   4   1   33.81    0.87
   0   4   1   32.90    0.87
   0   4   1   32.85    1.46
   0   4   1   34.43    0.84
   0   4   1   33.94    0.89
  -1  -4  -1  111.17    2.62
  -1  -4  -1  110.13    2.68
  -1  -4  -1  109.68    2.54
  -1  -4  -1  107.39    2.68
  -1  -4  -1  113.02    4.44
   1   4   1  107.85    4.43
   1   4   1  112.43    2.69
   1   4   1  116.28    2.69
   1   4   1  108.26    2.69
   1   4   1  110.95    2.54
   1   4   1  112.11    2.62
  -2  -4  -1   20.94    0.64
  -2  -4  -1   21.64    0.62
  -2  -4  -1   21.52    0.60
  -2  -4  -1   20.63    0.60
   2   4   1   21.12    1.02
   2   4   1   22.14    0.61
   2   4   1   21.84    0.62
   2   4   1   21.98    0.65
  -3  -4  -1    9.68    0.38
  -3  -4  -1    9.79    0.35
  -3  -4  -1    9.97    0.36
  -3  -4  -1    9.70    0.36
   3   4   1   10.33    0.35
   3   4   1    9.87    0.35
   3   4   1    9.76    0.38
  -4  -4  -1    5.38    0.28
  -4  -4  -1    5.18    0.24
  -4  -4  -1    5.14    0.28
  -4  -4  -1    5.03    0.25
   4   4   1    4.88    0.28
   4   4   1    5.01    0.24
  -5  -4  -1    2.05    0.19
  -5  -4  -1    1.87    0.17
  -5  -4  -1    1.92    0.20
  -5  -4  -1    1.80    0.22
   5   4   1    2.00    0.22
  -6  -4  -1    1.06    0.17
  -6  -4  -1    1.08    0.19
  -6  -4  -1    1.03    0.15
  -6  -4  -1    1.14    0.15
   6   4   1    1.01    0.18
  -7  -4  -1    3.72    0.31
   7   4   1    2.92    0.28
  -8  -4  -1    0.83    0.21
  -9  -4  -1    0.21    0.19
 -12   5   1    0.77    0.15
 -12   5   1    0.99    0.15
 -11   5   1    2.39    0.19
 -11   5   1    2.09    0.19
 -10   5   1    0.72    0.11
 -10   5   1    0.66    0.11
 -10   5   1    0.70    0.11
  -9   5   1    1.88    0.14
  -9   5   1    2.19    0.15
  -9   5   1    1.99    0.14
  -8   5   1    0.87    0.09
  -8   5   1    0.86    0.10
  -8   5   1    0.95    0.09
  -7   5   1    5.30    0.21
  -7   5   1    5.20    0.21
  -7   5   1    5.29    0.19
  -7   5   1    5.18    0.19
  -6   5   1    5.16    0.20
  -6   5   1    4.91    0.17
  -6   5   1    4.68    0.17
  -6   5   1    5.20    0.19
  -5   5   1    7.53    0.23
  -5   5   1    7.77    0.23
  -5   5   1    7.75    0.26
  -5   5   1    8.12    0.26
   4  -5  -1   21.26    0.63
  -4   5   1   25.71    0.65
  -4   5   1   25.46    0.67
  -4   5   1   25.91    0.65
  -4   5   1   27.21    0.67
  -4   5   1   26.32    0.67
   3  -5  -1    4.79    0.18
   3  -5  -1    5.06    0.17
  -3   5   1    4.99    0.18
  -3   5   1    4.72    0.20
  -3   5   1    5.28    0.17
  -3   5   1    5.20    0.23
  -3   5   1    4.90    0.19
  -3   5   1    5.16    0.20
   2  -5  -1   15.81    0.43
   2  -5  -1   16.09    0.46
  -2   5   1   15.38    0.82
  -2   5   1   15.40    0.46
  -2   5   1   17.23    0.48
  -2   5   1   16.30    0.43
  -2   5   1   15.87    0.48
  -2   5   1   16.08    0.45
   1  -5  -1   13.38    0.42
   1  -5  -1   13.46    0.40
   1  -5  -1   14.41    0.40
  -1   5   1   14.15    0.42
  -1   5   1   14.10    0.44
  -1   5   1   13.44    0.43
  -1   5   1   12.60    0.72
  -1   5   1   14.12    0.42
  -1   5   1   14.06    0.40
   0  -5  -1   18.37    0.56
   0  -5  -1   18.42    0.53
   0  -5  -1   19.53    0.54
   0   5   1   17.45    0.91
   0   5   1   19.10    0.55
   0   5   1   18.46    0.55
   0   5   1   19.55    0.56
   0   5   1   19.84    0.54
   0   5   1   18.59    0.57
  -1  -5  -1   10.45    0.36
  -1  -5  -1    9.61    0.37
  -1  -5  -1    9.62    0.35
   1   5   1    9.42    0.57
   1   5   1   10.21    0.35
   1   5   1    9.91    0.35
   1   5   1    9.91    0.35
   1   5   1    9.38    0.37
  -2  -5  -1    9.65    0.38
  -2  -5  -1    9.15    0.35
  -2  -5  -1    8.99    0.35
  -2  -5  -1    9.96    0.35
   2   5   1    8.79    0.38
   2   5   1    9.06    0.35
   2   5   1    9.91    0.35
   2   5   1    8.90    0.58
  -3  -5  -1    0.18    0.08
  -3  -5  -1    0.24    0.08
  -3  -5  -1    0.20    0.10
  -3  -5  -1    0.06    0.08
   3   5   1    0.09    0.10
   3   5   1    0.17    0.08
   3   5   1    0.12    0.07
  -4  -5  -1    5.19    0.28
  -4  -5  -1    5.18    0.30
  -4  -5  -1    5.08    0.32
  -4  -5  -1    5.19    0.26
   4   5   1    5.12    0.31
  -5  -5  -1    0.74    0.17
  -5  -5  -1    0.63    0.13
  -5  -5  -1    0.88    0.18
   5   5   1    0.61    0.16
  -6  -5  -1   -0.04    0.12
  -6  -5  -1    0.04    0.12
   6   5   1    0.23    0.14
  -7  -5  -1    1.95    0.27
   7   5   1    1.87    0.26
  -8  -5  -1    0.60    0.21
 -12   6   1    0.33    0.12
 -11   6   1    0.22    0.09
 -11   6   1    0.14    0.09
 -10   6   1    0.24    0.09
 -10   6   1    0.30    0.08
 -10   6   1    0.24    0.08
  -9   6   1    0.07    0.06
  -9   6   1    0.06    0.06
  -9   6   1    0.18    0.07
  -8   6   1    2.76    0.15
  -8   6   1    2.77    0.15
  -8   6   1    2.82    0.17
  -7   6   1    0.92    0.09
  -7   6   1    0.87    0.09
  -7   6   1    0.83    0.10
  -6   6   1    2.11    0.12
  -6   6   1    1.93    0.12
  -6   6   1    1.90    0.14
  -6   6   1    2.10    0.13
  -5   6   1    0.16    0.06
  -5   6   1    0.14    0.05
  -5   6   1    0.09    0.05
  -5   6   1    0.17    0.06
   4  -6  -1    5.88    0.21
   4  -6  -1    5.69    0.18
  -4   6   1    5.85    0.24
  -4   6   1    5.76    0.22
  -4   6   1    6.31    0.24
  -4   6   1    5.63    0.22
  -4   6   1    5.78    0.19
   3  -6  -1    1.38    0.12
   3  -6  -1    1.14    0.10
  -3   6   1    1.03    0.10
  -3   6   1    1.08    0.10
  -3   6   1    1.06    0.12
  -3   6   1    1.22    0.11
   2  -6  -1   11.94    0.39
   2  -6  -1   11.39    0.35
  -2   6   1   11.33    0.38
  -2   6   1   11.99    0.38
  -2   6   1   11.31    0.68
  -2   6   1   12.06    0.36
  -2   6   1   11.23    0.40
   1  -6  -1   38.72    1.05
   1  -6  -1   38.92    0.99
  -1   6   1   38.26    1.76
  -1   6   1   39.60    1.04
  -1   6   1   40.82    1.07
  -1   6   1   40.56    1.00
  -1   6   1   39.16    1.05
  -1   6   1   40.29    1.07
   0  -6  -1   11.90    0.38
   0  -6  -1   11.98    0.42
   0  -6  -1   11.43    0.39
   0   6   1   10.84    0.66
   0   6   1   10.96    0.39
   0   6   1   11.75    0.40
   0   6   1   10.65    0.41
  -1  -6  -1    5.06    0.27
  -1  -6  -1    4.85    0.25
  -1  -6  -1    5.30    0.24
   1   6   1    4.98    0.25
   1   6   1    5.00    0.28
   1   6   1    4.69    0.42
  -2  -6  -1    0.24    0.10
  -2  -6  -1    0.32    0.08
  -2  -6  -1    0.24    0.10
  -2  -6  -1    0.25    0.11
   2   6   1    0.43    0.22
   2   6   1    0.17    0.08
   2   6   1    0.19    0.11
  -3  -6  -1    4.58    0.30
  -3  -6  -1    5.19    0.27
  -3  -6  -1    4.87    0.29
   3   6   1    4.53    0.30
  -4  -6  -1    4.36    0.31
  -4  -6  -1    4.29    0.30
  -4  -6  -1    4.09    0.26
   4   6   1    3.66    0.29
  -5  -6  -1    1.83    0.24
  -5  -6  -1    2.12    0.25
  -5  -6  -1    2.01    0.20
   5   6   1    1.70    0.23
  -6  -6  -1    0.91    0.22
   6   6   1    1.15    0.23
  -7  -6  -1    1.46    0.27
   7   6   1    2.13    0.29
 -12   7   1    0.92    0.15
 -11   7   1    0.21    0.09
 -11   7   1    0.05    0.09
 -10   7   1    0.07    0.08
 -10   7   1    0.20    0.09
 -10   7   1    0.14    0.08
  -9   7   1    0.81    0.11
  -9   7   1    0.71    0.10
  -9   7   1    0.64    0.10
  -8   7   1    1.47    0.13
  -8   7   1    1.66    0.14
  -8   7   1    1.46    0.14
  -7   7   1   14.64    0.45
  -7   7   1   15.21    0.45
  -7   7   1   14.79    0.47
  -6   7   1   15.59    0.46
  -6   7   1   14.50    0.45
  -6   7   1   14.96    0.47
   5  -7  -1   20.23    0.55
  -5   7   1   18.71    0.56
  -5   7   1   20.72    0.62
  -5   7   1   20.36    0.57
  -5   7   1   19.23    0.59
   4  -7  -1   16.03    0.44
   4  -7  -1   16.72    0.49
  -4   7   1   17.36    0.50
  -4   7   1   15.95    0.50
  -4   7   1   17.35    0.46
  -4   7   1   16.16    0.52
   3  -7  -1   18.99    0.55
   3  -7  -1   18.23    0.51
  -3   7   1   17.73    0.55
  -3   7   1   18.49    0.55
  -3   7   1   18.15    1.01
  -3   7   1   17.67    0.57
  -3   7   1   19.15    0.52
   2  -7  -1   22.69    0.64
   2  -7  -1   23.12    0.68
  -2   7   1   21.74    0.69
  -2   7   1   23.50    0.68
  -2   7   1   24.11    0.68
  -2   7   1   24.35    0.65
  -2   7   1   22.77    1.18
   1  -7  -1    9.88    0.38
   1  -7  -1    9.70    0.36
  -1   7   1    9.88    0.40
  -1   7   1    9.69    0.64
  -1   7   1   10.49    0.38
  -1   7   1    9.89    0.38
   0  -7  -1    5.03    0.28
   0  -7  -1    5.01    0.26
   0   7   1    4.85    0.29
   0   7   1    4.97    0.26
   0   7   1    4.84    0.44
  -1  -7  -1    1.53    0.19
  -1  -7  -1    1.75    0.18
   1   7   1    1.83    0.34
   1   7   1    1.75    0.18
   1   7   1    1.96    0.22
  -2  -7  -1    1.50    0.18
  -2  -7  -1    1.45    0.19
   2   7   1    1.84    0.36
   2   7   1    1.43    0.20
  -3  -7  -1    8.03    0.40
  -3  -7  -1    7.81    0.41
   3   7   1    8.51    0.44
  -4  -7  -1    1.55    0.21
  -4  -7  -1    1.57    0.23
   4   7   1    1.51    0.24
  -5  -7  -1    0.10    0.14
  -5  -7  -1    0.11    0.14
   5   7   1    0.18    0.16
  -6  -7  -1    0.41    0.19
   6   7   1    0.28    0.19
 -11   8   1    0.19    0.09
 -10   8   1    0.41    0.10
 -10   8   1    0.28    0.10
  -9   8   1    0.70    0.12
  -9   8   1    0.63    0.11
  -9   8   1    0.87    0.12
  -8   8   1    0.89    0.12
  -8   8   1    0.70    0.11
  -8   8   1    0.94    0.12
  -7   8   1    0.30    0.08
  -7   8   1    0.18    0.08
  -7   8   1    0.18    0.08
  -6   8   1    4.57    0.22
  -6   8   1    4.76    0.23
  -6   8   1    4.36    0.24
  -5   8   1    1.70    0.17
  -5   8   1    1.91    0.16
  -5   8   1    1.56    0.15
  -5   8   1    1.58    0.17
   4  -8  -1   10.03    0.36
   4  -8  -1    9.74    0.32
  -4   8   1    9.78    0.39
  -4   8   1   10.19    0.33
  -4   8   1   10.08    0.37
  -4   8   1    9.77    0.37
  -4   8   1    9.78    0.72
   3  -8  -1   24.76    0.69
   3  -8  -1   26.04    0.75
  -3   8   1   24.91    0.77
  -3   8   1   26.76    1.35
  -3   8   1   24.83    0.75
  -3   8   1   26.36    0.76
   2  -8  -1    9.34    0.37
   2  -8  -1    8.54    0.34
  -2   8   1    8.65    0.65
  -2   8   1    8.69    0.37
  -2   8   1    8.43    0.39
   1  -8  -1    2.23    0.22
   1  -8  -1    1.86    0.18
  -1   8   1    1.93    0.21
  -1   8   1    2.46    0.20
  -1   8   1    1.75    0.33
   0  -8  -1    0.01    0.08
   0  -8  -1    0.04    0.09
   0   8   1    0.11    0.17
   0   8   1   -0.05    0.08
   0   8   1    0.19    0.12
  -1  -8  -1    1.27    0.17
  -1  -8  -1    1.03    0.18
   1   8   1    1.19    0.29
   1   8   1    1.09    0.19
  -2  -8  -1    1.24    0.20
  -2  -8  -1    1.11    0.19
   2   8   1    1.16    0.21
   2   8   1    1.21    0.36
  -3  -8  -1    2.21    0.26
  -3  -8  -1    1.66    0.25
   3   8   1    1.63    0.25
  -4  -8  -1    2.31    0.30
   4   8   1    2.66    0.32
  -5  -8  -1    0.09    0.17
   5   8   1   -0.01    0.15
 -11   9   1   -0.01    0.09
 -10   9   1    0.05    0.09
 -10   9   1   -0.12    0.08
  -9   9   1    0.49    0.11
  -9   9   1    0.61    0.12
  -9   9   1    0.59    0.12
  -8   9   1    0.32    0.10
  -8   9   1    0.00    0.08
  -7   9   1    0.43    0.12
  -7   9   1    0.72    0.12
  -6   9   1    3.03    0.21
  -6   9   1    2.86    0.22
  -5   9   1    2.60    0.22
  -5   9   1    2.56    0.45
  -5   9   1    2.35    0.22
  -5   9   1    2.74    0.21
   4  -9  -1    5.04    0.23
  -4   9   1    5.32    0.56
  -4   9   1    4.26    0.27
  -4   9   1    4.29    0.27
   3  -9  -1    9.29    0.35
   3  -9  -1    9.45    0.39
  -3   9   1    9.07    0.42
  -3   9   1    9.66    0.40
  -3   9   1    9.11    0.72
   2  -9  -1    1.37    0.17
   2  -9  -1    2.03    0.19
  -2   9   1    2.12    0.24
  -2   9   1    1.87    0.37
  -2   9   1    2.17    0.21
   1  -9  -1    0.59    0.14
   1  -9  -1    0.68    0.13
  -1   9   1    0.44    0.15
  -1   9   1    0.67    0.25
  -1   9   1    0.69    0.14
   0  -9  -1    0.35    0.12
   0  -9  -1    0.44    0.14
   0   9   1    0.71    0.24
   0   9   1    0.59    0.17
  -1  -9  -1    2.42    0.27
  -1  -9  -1    2.28    0.25
   1   9   1    2.48    0.43
   1   9   1    2.62    0.28
  -2  -9  -1    1.01    0.20
  -2  -9  -1    1.26    0.20
   2   9   1    1.11    0.23
   2   9   1    1.52    0.45
  -3  -9  -1    0.37    0.17
   3   9   1    0.53    0.18
  -4  -9  -1    2.89    0.36
   4   9   1    2.33    0.32
 -10  10   1    0.78    0.14
 -10  10   1    0.70    0.14
  -9  10   1   -0.02    0.09
  -9  10   1    0.14    0.10
  -9  10   1    0.01    0.10
  -8  10   1    0.42    0.12
  -8  10   1    0.13    0.10
  -7  10   1    0.49    0.14
  -7  10   1    0.23    0.11
  -6  10   1    1.19    0.16
  -6  10   1    1.30    0.38
  -6  10   1    1.09    0.17
  -5  10   1    2.14    0.23
  -5  10   1    2.66    0.50
  -5  10   1    1.70    0.21
  -5  10   1    1.90    0.20
   4 -10  -1    1.64    0.16
  -4  10   1    1.70    0.21
  -4  10   1    1.79    0.20
  -4  10   1    1.93    0.43
   3 -10  -1    1.92    0.19
  -3  10   1    1.90    0.24
  -3  10   1    1.98    0.22
  -3  10   1    2.36    0.43
   2 -10  -1    1.90    0.22
   2 -10  -1    1.91    0.20
  -2  10   1    2.30    0.43
  -2  10   1    2.16    0.23
  -2  10   1    2.04    0.25
   1 -10  -1    0.65    0.16
   1 -10  -1    0.38    0.13
  -1  10   1    0.35    0.16
  -1  10   1    0.63    0.26
   0 -10  -1    1.94    0.25
   0 -10  -1    1.89    0.22
   0  10   1    1.54    0.26
   0  10   1    1.63    0.38
  -1 -10  -1    1.32    0.22
  -1 -10  -1    1.63    0.25
   1  10   1    1.32    0.43
   1  10   1    1.39    0.25
  -2 -10  -1    1.35    0.24
   2  10   1    1.49    0.28
  -9  11   1    0.24    0.12
  -9  11   1    0.13    0.11
  -8  11   1    0.37    0.14
  -8  11   1    0.33    0.13
  -7  11   1    3.65    0.64
  -7  11   1    3.04    0.28
  -7  11   1    3.67    0.28
  -6  11   1    2.03    0.23
  -6  11   1    2.70    0.56
  -6  11   1    1.95    0.23
  -5  11   1    1.18    0.38
  -5  11   1    1.17    0.18
  -5  11   1    0.96    0.19
  -5  11   1    1.04    0.19
  -4  11   1    0.37    0.16
  -4  11   1    0.62    0.17
  -4  11   1    0.53    0.32
  -4  11   1    0.57    0.15
   3 -11  -1    1.11    0.17
  -3  11   1    1.41    0.38
  -3  11   1    1.21    0.20
  -3  11   1    1.12    0.23
   2 -11  -1    1.76    0.21
  -2  11   1    1.07    0.22
  -2  11   1    1.87    0.41
   1 -11  -1    0.90    0.18
  -1  11   1    1.01    0.30
  -1  11   1    0.63    0.21
   0 -11  -1    0.24    0.17
   0  11   1    0.58    0.22
  -1 -11  -1    0.19    0.17
   1  11   1    0.06    0.19
  -7  12   1    0.61    0.17
  -7  12   1    0.79    0.19
  -7  12   1    0.78    0.37
  -6  12   1    1.77    0.24
  -6  12   1    1.23    0.21
  -6  12   1    1.42    0.44
  -5  12   1   -0.17    0.11
  -5  12   1    0.15    0.28
  -5  12   1    0.00    0.14
  -4  12   1    0.77    0.20
  -4  12   1    0.84    0.18
  -4  12   1    0.56    0.19
  -4  12   1    1.19    0.38
  -3  12   1    2.31    0.31
  -3  12   1    2.68    0.33
  -3  12   1    3.35    0.56
  -2  12   1    4.76    0.54
  -2  12  -2   -0.26    0.14
   2 -12   2    0.01    0.12
  -3  12  -2    0.26    0.23
  -3  12  -2   -0.08    0.16
  -4  12  -2    0.36    0.24
  -4  12  -2   -0.08    0.14
  -5  12  -2    1.55    0.44
  -5  12  -2    1.20    0.24
  -6  12  -2    0.65    0.19
  -6  12  -2    1.01    0.37
  -6  12  -2    0.37    0.15
  -6  12  -2    0.68    0.17
  -7  12  -2   -0.10    0.12
  -7  12  -2    0.01    0.14
  -7  12  -2    0.15    0.13
   1  11  -2    0.27    0.19
   1  11  -2    0.43    0.20
  -1 -11   2    0.21    0.16
   0  11  -2    2.26    0.32
   0  11  -2    1.84    0.29
   0 -11   2    1.64    0.26
  -1  11  -2    0.01    0.16
  -1  11  -2   -0.05    0.16
   1 -11   2    0.11    0.15
   1 -11   2    0.22    0.13
  -2  11  -2    0.36    0.23
  -2  11  -2    0.26    0.17
   2 -11   2    0.12    0.11
   2 -11   2    0.27    0.15
  -3  11  -2    1.25    0.35
  -3  11  -2    0.91    0.21
   3 -11   2    0.60    0.14
  -4  11  -2    1.09    0.22
  -4  11  -2    1.27    0.19
  -4  11  -2    1.09    0.36
  -5  11  -2    0.82    0.20
  -5  11  -2    0.85    0.17
  -6  11  -2    0.60    0.17
  -6  11  -2    0.38    0.15
  -6  11  -2    0.46    0.15
  -7  11  -2    0.38    0.14
  -7  11  -2    0.41    0.15
  -7  11  -2    0.06    0.13
  -8  11  -2   -0.01    0.12
  -8  11  -2    0.05    0.11
  -9  11  -2    0.41    0.16
  -9  11  -2    0.56    0.16
   3  10  -2    2.20    0.32
  -3 -10   2    2.63    0.35
   2  10  -2    2.96    0.34
  -2 -10   2    2.76    0.33
   1  10  -2    1.05    0.23
  -1 -10   2    0.76    0.17
  -1 -10   2    1.31    0.23
   0  10  -2    2.33    0.29
   0  10  -2    2.31    0.30
   0 -10   2    2.96    0.32
   0 -10   2    2.90    0.28
  -1  10  -2    1.30    0.29
  -1  10  -2    0.94    0.20
  -1  10  -2    1.17    0.22
   1 -10   2    1.01    0.20
   1 -10   2    1.26    0.19
  -2  10  -2    0.05    0.18
  -2  10  -2    0.25    0.15
  -2  10  -2   -0.12    0.11
   2 -10   2    0.13    0.12
   2 -10   2    0.25    0.12
  -3  10  -2    3.69    0.48
  -3  10  -2    2.83    0.26
  -3  10  -2    2.52    0.27
   3 -10   2    2.87    0.23
   3 -10   2    2.62    0.26
  -4  10  -2    1.28    0.18
  -4  10  -2    0.95    0.18
   4 -10   2    1.09    0.14
   4 -10   2    1.03    0.17
  -5  10  -2    2.15    0.23
  -5  10  -2    1.79    0.23
  -6  10  -2    2.72    0.27
  -6  10  -2    2.77    0.26
  -6  10  -2    2.96    0.25
  -7  10  -2    1.57    0.22
  -7  10  -2    1.66    0.21
  -7  10  -2    2.05    0.22
  -8  10  -2    1.20    0.19
  -8  10  -2    1.44    0.19
  -9  10  -2    2.15    0.24
  -9  10  -2    1.84    0.22
 -10  10  -2    0.53    0.16
 -10  10  -2    0.70    0.16
   4   9  -2    2.64    0.33
  -4  -9   2    2.64    0.34
   3   9  -2    3.64    0.37
  -3  -9   2    5.28    0.40
   2   9  -2    1.65    0.25
  -2  -9   2    1.65    0.23
  -2  -9   2    1.77    0.25
   1   9  -2    1.08    0.22
  -1  -9   2    1.27    0.22
  -1  -9   2    1.29    0.20
   0   9  -2    1.63    0.29
   0   9  -2    1.09    0.20
   0  -9   2    1.50    0.22
   0  -9   2    1.30    0.19
  -1   9  -2    5.03    0.30
  -1   9  -2    4.77    0.46
  -1   9  -2    4.57    0.32
  -1   9  -2    5.03    0.33
   1  -9   2    4.37    0.28
   1  -9   2    4.91    0.31
  -2   9  -2    6.73    0.34
  -2   9  -2    6.92    0.37
  -2   9  -2    6.22    0.55
  -2   9  -2    6.63    0.38
   2  -9   2    6.63    0.32
   2  -9   2    6.94    0.36
  -3   9  -2    3.79    0.28
  -3   9  -2    3.94    0.27
   3  -9   2    4.47    0.28
   3  -9   2    3.88    0.23
  -4   9  -2    5.20    0.30
  -4   9  -2    5.04    0.32
   4  -9   2    5.50    0.29
   4  -9   2    5.08    0.25
  -5   9  -2    2.04    0.21
  -5   9  -2    1.77    0.22
   5  -9   2    2.05    0.15
   5  -9   2    1.65    0.18
  -6   9  -2    3.82    0.25
  -6   9  -2    3.64    0.25
  -6   9  -2    3.36    0.26
  -7   9  -2    2.89    0.24
  -7   9  -2    2.72    0.23
  -8   9  -2    0.57    0.14
  -8   9  -2    0.30    0.11
  -9   9  -2    1.31    0.18
  -9   9  -2    1.63    0.20
 -10   9  -2    0.68    0.15
 -10   9  -2    0.83    0.17
 -11   9  -2    0.01    0.12
 -11   9  -2   -0.12    0.11
   5   8  -2    1.78    0.27
  -5  -8   2    1.81    0.28
   4   8  -2    3.92    0.37
  -4  -8   2    4.28    0.36
  -4  -8   2    4.00    0.36
   3   8  -2    0.52    0.17
  -3  -8   2    0.38    0.15
  -3  -8   2    0.54    0.16
   2   8  -2    2.37    0.27
  -2  -8   2    2.88    0.27
  -2  -8   2    2.93    0.30
   1   8  -2    0.43    0.15
   1   8  -2    0.19    0.13
  -1  -8   2    0.13    0.11
  -1  -8   2    0.36    0.13
   0   8  -2    0.05    0.12
   0   8  -2    0.07    0.11
   0   8  -2   -0.04    0.07
   0  -8   2   -0.07    0.08
   0  -8   2   -0.09    0.09
  -1   8  -2   -0.05    0.07
  -1   8  -2    0.08    0.10
  -1   8  -2   -0.24    0.08
  -1   8  -2    0.05    0.14
   1  -8   2   -0.03    0.09
   1  -8   2   -0.07    0.08
  -2   8  -2    0.12    0.10
  -2   8  -2    0.02    0.09
  -2   8  -2    0.13    0.09
   2  -8   2   -0.10    0.08
   2  -8   2    0.06    0.08
  -3   8  -2    0.08    0.09
  -3   8  -2   -0.05    0.08
   3  -8   2   -0.03    0.07
   3  -8   2   -0.21    0.06
  -4   8  -2    0.14    0.09
  -4   8  -2    0.36    0.12
   4  -8   2    0.13    0.09
   4  -8   2    0.33    0.08
  -5   8  -2    7.57    0.33
  -5   8  -2    6.80    0.34
   5  -8   2    7.20    0.31
   5  -8   2    7.03    0.26
  -6   8  -2    8.31    0.38
  -6   8  -2    8.71    0.37
  -6   8  -2    8.88    0.36
   6  -8   2    9.41    0.29
   6  -8   2    9.00    0.35
  -7   8  -2    2.27    0.21
  -7   8  -2    2.45    0.22
  -8   8  -2    0.73    0.13
  -8   8  -2    0.40    0.13
  -9   8  -2    0.49    0.13
  -9   8  -2    0.41    0.13
 -10   8  -2    0.36    0.13
 -10   8  -2    0.54    0.14
 -11   8  -2   -0.04    0.11
 -11   8  -2    0.04    0.10
   6   7  -2    1.46    0.24
  -6  -7   2    1.30    0.25
   5   7  -2    4.23    0.35
  -5  -7   2    4.54    0.36
  -5  -7   2    4.00    0.36
   4   7  -2    1.52    0.22
  -4  -7   2    1.50    0.22
  -4  -7   2    1.19    0.20
   3   7  -2    0.04    0.12
  -3  -7   2    0.17    0.12
  -3  -7   2    0.29    0.14
   2   7  -2    3.47    0.36
   2   7  -2    4.25    0.29
  -2  -7   2    4.11    0.28
  -2  -7   2    3.67    0.28
   1   7  -2    6.06    0.43
   1   7  -2    6.42    0.34
   1   7  -2    6.61    0.30
  -1  -7   2    6.27    0.32
  -1  -7   2    5.68    0.32
   0   7  -2    8.38    0.53
   0   7  -2    8.50    0.39
   0   7  -2    8.45    0.35
   0  -7   2    8.72    0.36
   0  -7   2    9.07    0.39
  -1   7  -2    9.74    0.61
  -1   7  -2   10.26    0.39
  -1   7  -2    9.78    0.41
  -1   7  -2   10.22    0.39
  -1   7  -2    9.39    0.40
   1  -7   2   10.19    0.36
   1  -7   2   10.07    0.37
   1  -7   2   10.39    0.40
  -2   7  -2    5.17    0.26
  -2   7  -2    5.04    0.28
  -2   7  -2    5.23    0.25
  -2   7  -2    5.13    0.28
   2  -7   2    5.54    0.27
   2  -7   2    5.64    0.24
   2  -7   2    4.88    0.24
  -3   7  -2    6.16    0.25
  -3   7  -2    6.20    0.28
  -3   7  -2    5.98    0.27
  -3   7  -2    5.63    0.29
   3  -7   2    5.57    0.27
   3  -7   2    6.00    0.25
  -4   7  -2    0.16    0.07
  -4   7  -2    0.11    0.07
  -4   7  -2    0.03    0.08
   4  -7   2    0.11    0.08
   4  -7   2    0.18    0.06
  -5   7  -2   11.19    0.40
  -5   7  -2   10.58    0.42
  -5   7  -2   10.82    0.39
  -5   7  -2   11.37    0.40
   5  -7   2   11.38    0.39
   5  -7   2   10.47    0.33
  -6   7  -2   13.27    0.45
  -6   7  -2   13.42    0.45
  -6   7  -2   13.09    0.47
   6  -7   2   13.69    0.44
   6  -7   2   13.07    0.37
  -7   7  -2    2.48    0.20
  -7   7  -2    3.05    0.20
  -7   7  -2    2.51    0.19
   7  -7   2    2.35    0.12
  -8   7  -2    4.30    0.27
  -8   7  -2    4.81    0.26
  -9   7  -2    1.53    0.17
  -9   7  -2    1.32    0.17
 -10   7  -2    0.23    0.12
 -10   7  -2    0.45    0.13
 -11   7  -2   -0.08    0.10
 -11   7  -2   -0.04    0.10
  -7  -6   2    2.99    0.33
   6   6  -2    4.06    0.32
  -6  -6   2    3.78    0.35
  -6  -6   2    4.37    0.35
   5   6  -2    3.46    0.30
  -5  -6   2    3.59    0.30
  -5  -6   2    4.02    0.31
   4   6  -2    7.09    0.38
  -4  -6   2    7.50    0.38
  -4  -6   2    6.68    0.37
  -4  -6   2    7.18    0.34
   3   6  -2    5.80    0.25
   3   6  -2    6.28    0.34
  -3  -6   2    5.70    0.32
  -3  -6   2    5.31    0.28
  -3  -6   2    5.32    0.31
   2   6  -2    3.64    0.32
   2   6  -2    3.84    0.26
   2   6  -2    3.91    0.22
   2   6  -2    4.24    0.21
  -2  -6   2    3.82    0.25
  -2  -6   2    3.76    0.25
  -2  -6   2    4.29    0.23
   1   6  -2   17.19    0.54
   1   6  -2   17.00    0.51
   1   6  -2   16.01    0.81
   1   6  -2   17.46    0.58
  -1  -6   2   16.93    0.54
  -1  -6   2   16.80    0.57
  -1  -6   2   17.01    0.54
   0   6  -2    9.20    0.33
   0   6  -2    8.54    0.36
   0   6  -2    8.33    0.49
   0   6  -2    8.95    0.33
   0  -6   2    7.15    0.30
   0  -6   2    8.38    0.35
   0  -6   2    7.59    0.32
  -1   6  -2   16.35    0.54
  -1   6  -2   15.80    0.51
  -1   6  -2   15.39    0.53
  -1   6  -2   17.24    0.52
  -1   6  -2   17.03    0.51
  -1   6  -2   16.83    0.51
   1  -6   2   16.08    0.53
   1  -6   2   16.39    0.49
   1  -6   2   17.05    0.50
  -2   6  -2    9.23    0.34
  -2   6  -2    9.82    0.33
  -2   6  -2    9.72    0.34
  -2   6  -2    9.04    0.36
  -2   6  -2    9.60    0.37
   2  -6   2    9.82    0.32
   2  -6   2    8.67    0.31
   2  -6   2    9.54    0.35
  -3   6  -2    9.25    0.36
  -3   6  -2   10.68    0.35
  -3   6  -2    9.74    0.35
   3  -6   2   10.27    0.32
   3  -6   2   10.29    0.36
  -4   6  -2    2.31    0.18
  -4   6  -2    2.52    0.16
  -4   6  -2    2.41    0.16
   4  -6   2    2.61    0.14
   4  -6   2    2.40    0.16
  -5   6  -2    3.46    0.19
  -5   6  -2    3.73    0.20
  -5   6  -2    3.24    0.21
  -5   6  -2    3.47    0.19
   5  -6   2    3.34    0.19
   5  -6   2    3.69    0.15
  -6   6  -2   24.77    0.70
  -6   6  -2   24.54    0.70
  -6   6  -2   23.00    0.71
   6  -6   2   24.69    0.60
   6  -6   2   24.05    0.68
  -7   6  -2    1.39    0.14
  -7   6  -2    1.60    0.15
  -7   6  -2    1.10    0.15
   7  -6   2    1.34    0.13
   7  -6   2    1.39    0.09
  -8   6  -2    0.80    0.13
  -8   6  -2    1.21    0.16
  -8   6  -2    1.34    0.15
  -9   6  -2    0.46    0.12
  -9   6  -2    0.81    0.15
 -10   6  -2    0.24    0.11
 -10   6  -2    0.24    0.11
 -11   6  -2    0.49    0.14
 -11   6  -2    0.34    0.13
 -12   6  -2    0.38    0.15
 -12   6  -2    0.50    0.14
  -8  -5   2    1.19    0.24
  -7  -5   2    1.44    0.23
  -7  -5   2    1.78    0.24
   6   5  -2    1.39    0.20
  -6  -5   2    1.21    0.20
  -6  -5   2    0.98    0.19
  -6  -5   2    1.41    0.19
   5   5  -2    0.89    0.16
  -5  -5   2    0.89    0.14
  -5  -5   2    1.06    0.17
  -5  -5   2    0.80    0.16
   4   5  -2    6.66    0.25
   4   5  -2    6.21    0.33
  -4  -5   2    6.40    0.33
  -4  -5   2    6.82    0.31
  -4  -5   2    6.89    0.34
   3   5  -2    4.11    0.19
   3   5  -2    3.86    0.25
   3   5  -2    3.94    0.21
  -3  -5   2    4.03    0.25
  -3  -5   2    3.95    0.25
  -3  -5   2    3.92    0.22
   2   5  -2    1.77    0.18
   2   5  -2    1.23    0.12
   2   5  -2    1.82    0.13
   2   5  -2    1.64    0.20
  -2  -5   2    1.67    0.17
  -2  -5   2    1.92    0.15
  -2  -5   2    1.34    0.15
   1   5  -2   31.03    0.79
   1   5  -2   29.57    0.85
   1   5  -2   30.50    0.83
   1   5  -2   28.43    1.27
  -1  -5   2   29.35    0.84
  -1  -5   2   30.38    0.82
  -1  -5   2   30.62    0.81
   0   5  -2   42.74    1.82
   0   5  -2   42.49    1.13
   0   5  -2   43.24    1.15
   0   5  -2   44.84    1.09
   0   5  -2   44.51    1.13
   0   5  -2   43.75    1.10
   0  -5   2   43.67    1.15
   0  -5   2   41.87    1.08
   0  -5   2   43.70    1.12
  -1   5  -2   30.17    0.79
  -1   5  -2   28.03    0.81
  -1   5  -2   28.84    0.79
  -1   5  -2   28.51    0.81
  -1   5  -2   29.67    0.76
   1  -5   2   29.91    0.80
   1  -5   2   29.02    0.75
   1  -5   2   29.49    0.78
  -2   5  -2   24.19    0.62
  -2   5  -2   23.19    0.65
  -2   5  -2   24.65    0.66
  -2   5  -2   23.30    0.67
   2  -5   2   22.85    0.66
   2  -5   2   23.38    0.62
   2  -5   2   23.87    0.64
  -3   5  -2    4.62    0.20
  -3   5  -2    4.75    0.22
  -3   5  -2    4.28    0.20
   3  -5   2    4.57    0.21
   3  -5   2    4.84    0.18
  -4   5  -2   16.07    0.46
  -4   5  -2   15.38    0.46
  -4   5  -2   15.42    0.46
  -4   5  -2   14.77    0.48
   4  -5   2   15.10    0.41
   4  -5   2   15.55    0.47
  -5   5  -2    2.33    0.15
  -5   5  -2    2.43    0.15
  -5   5  -2    2.21    0.16
   5  -5   2    2.39    0.12
   5  -5   2    2.28    0.15
  -6   5  -2   27.91    0.80
  -6   5  -2   28.55    0.79
  -6   5  -2   29.07    0.79
   6  -5   2   29.05    0.78
   6  -5   2   29.03    0.70
  -7   5  -2    9.80    0.38
  -7   5  -2   10.19    0.36
  -7   5  -2    9.89    0.35
   7  -5   2    9.36    0.28
   7  -5   2    9.67    0.33
  -8   5  -2    0.55    0.10
  -8   5  -2    0.32    0.11
  -8   5  -2    0.62    0.11
  -9   5  -2    1.60    0.17
  -9   5  -2    1.57    0.18
 -10   5  -2    0.15    0.10
 -10   5  -2   -0.01    0.10
 -11   5  -2   -0.03    0.11
 -11   5  -2    0.36    0.13
 -12   5  -2    0.36    0.14
 -12   5  -2    0.39    0.15
  -9  -4   2    1.73    0.26
  -8  -4   2    2.22    0.27
  -8  -4   2    2.23    0.26
  -8  -4   2    2.57    0.26
   7   4  -2    1.66    0.20
  -7  -4   2    1.56    0.19
  -7  -4   2    1.73    0.22
  -7  -4   2    1.69    0.23
   6   4  -2    0.56    0.13
  -6  -4   2    0.52    0.13
  -6  -4   2    0.56    0.12
  -6  -4   2    0.69    0.15
   5   4  -2    8.46    0.37
  -5  -4   2    9.06    0.39
  -5  -4   2    8.47    0.38
  -5  -4   2    8.39    0.36
   4   4  -2    9.90    0.40
   4   4  -2   10.50    0.37
  -4  -4   2   10.01    0.38
  -4  -4   2    9.59    0.39
  -4  -4   2   10.35    0.38
  -4  -4   2   10.13    0.39
   3   4  -2    1.56    0.13
   3   4  -2    1.55    0.16
   3   4  -2    1.59    0.11
  -3  -4   2    1.42    0.14
  -3  -4   2    1.81    0.17
  -3  -4   2    1.68    0.16
  -3  -4   2    1.63    0.14
   2   4  -2    5.11    0.30
   2   4  -2    5.15    0.25
   2   4  -2    5.35    0.20
  -2  -4   2    5.38    0.23
  -2  -4   2    5.13    0.23
  -2  -4   2    5.18    0.25
  -2  -4   2    5.45    0.24
   1   4  -2   28.37    1.23
   1   4  -2   30.25    0.77
   1   4  -2   30.03    0.79
   1   4  -2   29.44    0.81
   1   4  -2   30.38    0.76
  -1  -4   2   30.76    0.80
  -1  -4   2   28.62    0.81
  -1  -4   2   28.77    0.77
  -1  -4   2   29.76    0.79
   0   4  -2   31.37    0.80
   0   4  -2   30.81    0.80
   0   4  -2   30.70    0.77
   0   4  -2   30.34    0.82
   0  -4   2   28.88    0.76
   0  -4   2   30.40    0.80
   0  -4   2   29.38    0.81
  -1   4  -2    9.63    0.33
  -1   4  -2    9.75    0.30
  -1   4  -2    9.19    0.32
  -1   4  -2    9.60    0.31
  -1   4  -2    9.30    0.30
   1  -4   2    8.87    0.31
   1  -4   2    9.12    0.29
  -2   4  -2    0.14    0.06
  -2   4  -2    0.02    0.05
  -2   4  -2    0.11    0.05
   2  -4   2    0.07    0.05
   2  -4   2    0.07    0.06
   2  -4   2    0.06    0.04
  -3   4  -2    9.61    0.31
  -3   4  -2    9.74    0.31
  -3   4  -2    9.58    0.33
  -3   4  -2   10.23    0.31
   3  -4   2    9.50    0.32
   3  -4   2    9.89    0.29
   3  -4   2   10.43    0.29
  -4   4  -2    7.55    0.26
  -4   4  -2    7.62    0.28
  -4   4  -2    7.55    0.26
  -4   4  -2    8.42    0.31
   4  -4   2    7.50    0.23
   4  -4   2    7.28    0.27
  -5   4  -2    8.15    0.28
  -5   4  -2    7.93    0.30
  -5   4  -2    8.72    0.29
   5  -4   2    8.17    0.29
  -6   4  -2   20.16    0.61
  -6   4  -2   21.11    0.59
  -6   4  -2   20.44    0.59
   6  -4   2   20.74    0.58
  -7   4  -2    9.52    0.35
  -7   4  -2    9.16    0.36
  -7   4  -2    9.75    0.34
   7  -4   2    9.63    0.29
   7  -4   2    9.70    0.33
  -8   4  -2    0.76    0.12
  -8   4  -2    1.10    0.13
  -8   4  -2    0.81    0.13
  -9   4  -2    3.67    0.24
  -9   4  -2    3.40    0.24
 -10   4  -2    3.36    0.26
 -10   4  -2    3.16    0.25
 -11   4  -2    1.04    0.18
 -11   4  -2    1.17    0.19
 -12   4  -2   -0.01    0.11
 -12   4  -2    0.04    0.12
  -9  -3   2    0.25    0.13
  -9  -3   2    0.42    0.17
  -9  -3   2    0.62    0.18
  -8  -3   2    1.21    0.20
  -8  -3   2    1.59    0.20
  -8  -3   2    1.58    0.21
   7   3  -2    2.47    0.21
  -7  -3   2    2.11    0.22
  -7  -3   2    2.65    0.25
  -7  -3   2    2.38    0.23
   6   3  -2    0.13    0.09
  -6  -3   2   -0.08    0.07
  -6  -3   2    0.09    0.10
  -6  -3   2    0.23    0.11
   5   3  -2   16.30    0.55
  -5  -3   2   16.98    0.54
  -5  -3   2   17.11    0.76
  -5  -3   2   17.67    0.56
  -5  -3   2   17.16    0.57
  -5  -3   2   17.34    0.55
   4   3  -2    6.88    0.29
  -4  -3   2    6.57    0.34
  -4  -3   2    6.67    0.29
  -4  -3   2    6.57    0.29
  -4  -3   2    6.67    0.27
  -4  -3   2    6.73    0.27
   3   3  -2    0.28    0.05
   3   3  -2    0.15    0.07
   3   3  -2    0.17    0.06
   3   3  -2    0.19    0.06
  -3  -3   2    0.30    0.07
  -3  -3   2    0.08    0.05
  -3  -3   2    0.15    0.07
  -3  -3   2    0.14    0.07
   2   3  -2   20.91    0.53
   2   3  -2   21.09    0.60
   2   3  -2   21.25    0.58
   2   3  -2   20.43    0.57
  -2  -3   2   20.93    0.58
  -2  -3   2   20.19    0.59
  -2  -3   2   21.51    0.59
   1   3  -2   30.49    0.73
   1   3  -2   29.49    1.20
   1   3  -2   26.99    0.76
   1   3  -2   30.38    0.79
   1   3  -2   31.01    0.75
  -1  -3   2   29.71    0.79
  -1  -3   2   30.12    0.78
  -1  -3   2   28.69    0.75
  -1  -3   2   30.43    0.78
   0   3  -2   33.06    0.85
   0   3  -2   33.63    0.85
   0   3  -2   33.37    0.86
   0   3  -2   34.50    0.82
   0   3  -2   32.68    0.86
   0  -3   2   32.51    0.86
   0  -3   2   32.16    0.81
   0  -3   2   33.80    0.85
   0  -3   2   33.90    0.85
  -1   3  -2    0.25    0.05
  -1   3  -2    0.24    0.07
  -1   3  -2    0.20    0.05
  -1   3  -2    0.25    0.06
  -1   3  -2    0.33    0.07
   1  -3   2    0.26    0.06
   1  -3   2    0.18    0.05
   1  -3   2    0.24    0.05
  -2   3  -2   27.14    0.68
  -2   3  -2   25.04    0.67
  -2   3  -2   26.41    0.67
  -2   3  -2   25.58    0.67
  -2   3  -2   26.46    0.69
   2  -3   2   25.39    0.66
   2  -3   2   25.09    0.68
   2  -3   2   25.42    0.63
  -3   3  -2   13.40    0.41
  -3   3  -2   13.81    0.39
  -3   3  -2   13.42    0.39
  -3   3  -2   14.08    0.41
   3  -3   2   14.15    0.38
   3  -3   2   13.48    0.40
  -4   3  -2    0.72    0.09
  -4   3  -2    0.74    0.08
  -4   3  -2    0.71    0.09
  -4   3  -2    0.66    0.08
   4  -3   2    0.78    0.09
  -5   3  -2    3.72    0.20
  -5   3  -2    3.73    0.19
  -5   3  -2    3.08    0.16
  -5   3  -2    3.59    0.16
   5  -3   2    3.80    0.18
  -6   3  -2    3.00    0.16
  -6   3  -2    2.81    0.18
  -6   3  -2    2.65    0.15
   6  -3   2    2.65    0.16
   6  -3   2    2.85    0.14
  -7   3  -2    7.81    0.33
  -7   3  -2    8.40    0.32
  -7   3  -2    8.57    0.32
   7  -3   2    8.49    0.28
   7  -3   2    8.56    0.31
  -8   3  -2    3.57    0.22
  -8   3  -2    3.47    0.21
  -8   3  -2    3.76    0.23
   8  -3   2    3.59    0.20
   8  -3   2    3.52    0.18
  -9   3  -2    3.58    0.26
  -9   3  -2    3.65    0.24
 -10   3  -2    3.36    0.27
 -10   3  -2    3.38    0.26
 -11   3  -2    0.73    0.17
 -11   3  -2    0.57    0.15
 -10  -2   2   -0.07    0.12
 -10  -2   2    0.17    0.14
  -9  -2   2    1.07    0.18
  -9  -2   2    1.14    0.19
  -9  -2   2    0.92    0.17
  -8  -2   2    0.97    0.16
  -8  -2   2    0.85    0.16
  -8  -2   2    0.82    0.15
   7   2  -2    3.81    0.23
  -7  -2   2    4.06    0.26
  -7  -2   2    3.62    0.25
  -7  -2   2    4.21    0.24
   6   2  -2    8.66    0.34
  -6  -2   2    8.82    0.34
  -6  -2   2    8.50    0.34
  -6  -2   2    9.38    0.36
  -6  -2   2    9.09    0.53
  -6  -2   2    8.23    0.36
   5   2  -2   18.15    0.56
  -5  -2   2   19.94    0.57
  -5  -2   2   18.10    0.58
  -5  -2   2   18.77    0.56
  -5  -2   2   17.87    0.56
  -5  -2   2   19.35    0.47
  -5  -2   2   19.22    0.84
   4   2  -2  147.19    3.30
   4   2  -2  145.66    3.47
  -4  -2   2  143.35    3.48
  -4  -2   2  148.91    3.49
  -4  -2   2  146.47    3.30
  -4  -2   2  143.34    5.65
  -4  -2   2  141.54    3.48
   3   2  -2   28.01    0.75
   3   2  -2   28.22    0.72
   3   2  -2   27.56    0.72
  -3  -2   2   28.02    0.74
  -3  -2   2   28.28    0.74
  -3  -2   2   28.12    0.72
  -3  -2   2   27.49    1.11
  -3  -2   2   27.51    0.75
   2   2  -2   45.97    1.12
   2   2  -2   45.35    1.14
   2   2  -2   45.22    1.09
   2   2  -2   45.01    1.06
  -2  -2   2   46.36    1.14
  -2  -2   2   48.53    1.15
  -2  -2   2   44.33    1.13
  -2  -2   2   45.65    1.14
  -2  -2   2   43.89    1.09
   1   2  -2   24.44    0.62
   1   2  -2   23.59    0.60
   1   2  -2   23.87    0.63
  -1  -2   2   23.25    0.60
  -1  -2   2   23.70    0.63
  -1  -2   2   25.28    0.64
  -1  -2   2   23.86    0.62
  -1  -2   2   23.64    0.62
   0   2  -2   12.00    0.34
   0   2  -2   12.36    0.34
   0   2  -2   12.34    0.35
   0   2  -2   12.48    0.34
   0   2  -2   12.35    0.35
   0   2  -2   12.05    0.34
   0  -2   2   12.34    0.35
   0  -2   2   12.48    0.34
   0  -2   2   12.40    0.35
   0  -2   2   11.72    0.33
  -1   2  -2   30.07    0.74
  -1   2  -2   30.38    0.75
  -1   2  -2   29.28    0.74
   1  -2   2   26.46    0.73
   1  -2   2   29.00    0.75
   1  -2   2   31.58    0.75
   1  -2   2   29.71    0.74
   1  -2   2   29.24    0.70
  -2   2  -2  108.54    2.70
  -2   2  -2  110.79    2.70
  -2   2  -2  119.72    2.70
  -2   2  -2  112.69    2.70
   2  -2   2  112.18    2.70
   2  -2   2  119.50    2.70
   2  -2   2  114.84    2.70
   2  -2   2  113.01    2.70
   2  -2   2  112.11    2.70
  -3   2  -2   71.12    1.80
  -3   2  -2   78.63    1.82
  -3   2  -2   73.60    1.81
  -3   2  -2   76.70    1.80
   3  -2   2   74.33    1.79
   3  -2   2   73.82    1.80
  -4   2  -2    6.79    0.25
  -4   2  -2    6.58    0.23
  -4   2  -2    7.18    0.25
  -4   2  -2    6.96    0.23
   4  -2   2    6.58    0.24
   4  -2   2    6.96    0.21
  -5   2  -2    4.09    0.17
  -5   2  -2    3.64    0.17
  -5   2  -2    3.79    0.19
   5  -2   2    3.84    0.18
   5  -2   2    3.65    0.16
  -6   2  -2   19.37    0.59
  -6   2  -2   20.03    0.58
  -6   2  -2   19.66    0.58
   6  -2   2   20.43    0.58
   6  -2   2   20.40    0.54
  -7   2  -2    5.45    0.24
  -7   2  -2    4.76    0.26
  -7   2  -2    4.86    0.24
   7  -2   2    5.29    0.24
   7  -2   2    5.42    0.22
  -8   2  -2    8.68    0.35
  -8   2  -2    8.45    0.37
   8  -2   2    8.60    0.33
  -9   2  -2    4.67    0.29
  -9   2  -2    4.12    0.26
 -10   2  -2    2.79    0.26
 -10   2  -2    3.17    0.27
 -11   2  -2    0.74    0.16
 -11   2  -2    0.63    0.17
 -11  -1   2    0.45    0.16
 -11  -1   2    0.42    0.15
 -10  -1   2    1.34    0.20
 -10  -1   2    1.22    0.19
  -9  -1   2    1.65    0.20
  -9  -1   2    1.32    0.18
  -9  -1   2    1.57    0.19
  -8  -1   2    2.02    0.19
  -8  -1   2    1.78    0.19
  -8  -1   2    1.82    0.19
   7   1  -2    4.05    0.21
  -7  -1   2    3.85    0.22
  -7  -1   2    4.52    0.25
  -7  -1   2    3.95    0.15
  -7  -1   2    3.97    0.22
  -7  -1   2    4.09    0.24
   6   1  -2    6.97    0.27
  -6  -1   2    6.67    0.20
  -6  -1   2    6.19    0.26
  -6  -1   2    6.82    0.28
  -6  -1   2    6.44    0.28
  -6  -1   2    7.13    0.27
   5   1  -2    5.91    0.25
   5   1  -2    6.46    0.25
  -5  -1   2    6.66    0.18
  -5  -1   2    6.43    0.24
  -5  -1   2    6.74    0.25
  -5  -1   2    6.26    0.25
  -5  -1   2    6.20    0.26
   4   1  -2  164.57    3.87
   4   1  -2  161.22    3.68
  -4  -1   2  165.34    3.68
  -4  -1   2  170.84    3.89
  -4  -1   2  159.88    3.88
  -4  -1   2  158.51    3.89
  -4  -1   2  167.05    3.89
   3   1  -2   90.54    2.16
   3   1  -2   89.92    2.06
  -3  -1   2   88.23    2.16
  -3  -1   2   90.11    2.16
  -3  -1   2   89.21    2.06
  -3  -1   2   89.92    2.16
  -3  -1   2   94.02    2.17
   2   1  -2   12.20    0.33
   2   1  -2   11.75    0.33
   2   1  -2   11.38    0.31
   2   1  -2   11.89    0.33
  -2  -1   2   11.61    0.33
  -2  -1   2   11.69    0.32
  -2  -1   2   11.36    0.32
  -2  -1   2   12.31    0.34
  -2  -1   2   11.45    0.33
   1   1  -2  104.16    2.48
   1   1  -2  108.63    2.48
   1   1  -2  104.07    2.35
   1   1  -2  104.15    2.48
   1   1  -2  108.46    2.48
  -1  -1   2  104.21    2.48
  -1  -1   2  101.15    2.35
  -1  -1   2  103.89    2.48
  -1  -1   2  110.70    2.48
  -1  -1   2  104.71    2.48
  -1  -1   2  100.98    2.48
   0   1  -2   23.96    0.63
   0   1  -2   25.01    0.62
   0   1  -2   25.57    0.63
   0  -1   2   24.38    0.62
   0  -1   2   25.31    0.63
   0  -1   2   25.60    0.63
   0  -1   2   24.93    0.62
  -1   1  -2  136.75    3.19
  -1   1  -2  129.45    3.20
  -1   1  -2  137.61    3.20
  -1   1  -2  141.96    3.19
   1  -1   2  133.29    3.20
   1  -1   2  139.70    3.19
   1  -1   2  132.33    3.19
   1  -1   2  134.29    3.20
  -2   1  -2   39.20    0.94
  -2   1  -2   37.29    0.93
  -2   1  -2   36.17    0.93
  -2   1  -2   36.32    0.93
   2  -1   2   37.72    0.92
   2  -1   2   36.85    0.93
   2  -1   2   38.89    0.94
  -3   1  -2   16.95    0.48
  -3   1  -2   18.78    0.50
  -3   1  -2   16.97    0.49
  -3   1  -2   17.92    0.48
   3  -1   2   18.15    0.49
   3  -1   2   17.94    0.47
  -4   1  -2    8.51    0.30
  -4   1  -2    8.65    0.29
  -4   1  -2    9.00    0.29
   4  -1   2    8.95    0.27
   4  -1   2    8.53    0.29
   4  -1   2    9.25    0.27
  -5   1  -2    5.01    0.21
  -5   1  -2    4.88    0.22
  -5   1  -2    5.39    0.21
   5  -1   2    4.91    0.22
   5  -1   2    5.02    0.20
  -6   1  -2   16.45    0.51
  -6   1  -2   16.00    0.52
  -6   1  -2   17.56    0.51
   6  -1   2   16.49    0.48
   6  -1   2   16.08    0.51
  -7   1  -2    8.79    0.35
  -7   1  -2    8.83    0.34
  -7   1  -2    8.67    0.36
   7  -1   2    9.04    0.34
  -8   1  -2    0.01    0.08
  -8   1  -2    0.15    0.10
   8  -1   2    0.05    0.07
  -9   1  -2    2.13    0.22
  -9   1  -2    1.97    0.21
  -9   1  -2    1.66    0.20
 -10   1  -2    0.18    0.12
 -10   1  -2    0.11    0.12
 -11   1  -2    0.20    0.15
 -11   1  -2    0.04    0.13
 -11   0   2    0.60    0.15
 -11   0   2    0.29    0.15
 -10   0   2    0.96    0.16
 -10   0   2    0.88    0.16
  -9   0   2    0.08    0.09
  -9   0   2    0.17    0.09
  -9   0   2    0.20    0.10
  -8   0   2    1.06    0.13
  -8   0   2    1.38    0.15
  -8   0   2    1.24    0.11
  -8   0   2    1.63    0.17
  -8   0   2    1.44    0.15
   7   0  -2    4.32    0.20
  -7   0   2    4.44    0.21
  -7   0   2    4.37    0.22
  -7   0   2    4.43    0.17
  -7   0   2    4.40    0.21
  -7   0   2    4.14    0.22
   6   0  -2    8.19    0.28
   6   0  -2    8.21    0.27
  -6   0   2    8.27    0.29
  -6   0   2    7.44    0.28
  -6   0   2    7.74    0.29
  -6   0   2    7.83    0.27
  -6   0   2    7.88    0.28
   5   0  -2   25.68    0.66
   5   0  -2   25.59    0.65
  -5   0   2   26.02    0.66
  -5   0   2   26.12    0.68
  -5   0   2   24.51    0.67
  -5   0   2   24.75    0.65
  -5   0   2   23.83    0.65
   4   0  -2   42.84    1.02
   4   0  -2   43.55    1.05
  -4   0   2   42.49    1.05
  -4   0   2   42.01    1.05
  -4   0   2   44.32    1.07
  -4   0   2   42.88    1.02
  -4   0   2   42.49    1.06
   3   0  -2   12.60    0.33
   3   0  -2   11.93    0.33
   3   0  -2   12.31    0.33
  -3   0   2   11.78    0.32
  -3   0   2   13.28    0.34
  -3   0   2   12.09    0.33
  -3   0   2   11.90    0.32
  -3   0   2   12.12    0.33
   2   0  -2  204.23    4.75
   2   0  -2  203.53    4.49
   2   0  -2  212.42    4.73
  -2   0   2  208.19    4.76
  -2   0   2  203.41    4.49
  -2   0   2  200.61    4.79
  -2   0   2  202.75    4.77
  -2   0   2  199.16    4.78
  -2   0   2  199.28    4.62
   1   0  -2    0.91    0.10
   1   0  -2    0.93    0.06
   1   0  -2    0.93    0.06
   1   0  -2    0.96    0.06
  -1   0   2    0.88    0.05
  -1   0   2    1.12    0.06
  -1   0   2    0.79    0.09
  -1   0   2    0.90    0.05
  -1   0   2    0.97    0.06
  -1   0   2    1.02    0.06
   0   0  -2   16.87    0.45
   0   0  -2   18.54    0.78
   0   0  -2   17.61    0.46
   0   0  -2   18.42    0.45
   0   0  -2   18.90    0.46
   0   0   2   18.21    0.46
   0   0   2   18.23    0.77
   0   0   2   17.60    0.46
   0   0   2   18.34    0.46
   0   0   2   18.44    0.46
  -1   0  -2   61.09    1.44
  -1   0  -2   61.49    1.44
  -1   0  -2   58.50    1.44
  -1   0  -2   60.03    1.44
   1   0   2   59.65    1.44
   1   0   2   62.23    1.45
   1   0   2   58.98    1.44
   1   0   2   59.01    1.44
  -2   0  -2    2.19    0.11
  -2   0  -2    2.34    0.12
  -2   0  -2    2.19    0.12
  -2   0  -2    2.12    0.11
   2   0   2    2.34    0.12
   2   0   2    2.31    0.11
   2   0   2    2.27    0.12
  -3   0  -2   33.02    0.87
  -3   0  -2   36.23    0.91
  -3   0  -2   32.95    0.88
  -3   0  -2   34.38    0.87
   3   0   2   34.54    0.88
   3   0   2   33.76    0.83
   3   0   2   33.85    0.86
  -4   0  -2   21.77    0.62
  -4   0  -2   21.50    0.60
  -4   0  -2   22.36    0.60
   4   0   2   21.02    0.61
   4   0   2   21.72    0.57
   4   0   2   22.14    0.58
  -5   0  -2    3.05    0.17
  -5   0  -2    3.36    0.17
  -5   0  -2    3.26    0.19
   5   0   2    3.24    0.19
   5   0   2    3.09    0.17
  -6   0  -2   14.57    0.51
  -6   0  -2   14.95    0.49
  -6   0  -2   16.29    0.50
   6   0   2   15.72    0.50
  -7   0  -2    5.15    0.26
  -7   0  -2    5.19    0.28
  -7   0  -2    5.13    0.27
   7   0   2    5.23    0.27
  -8   0  -2    5.62    0.30
  -8   0  -2    5.58    0.30
  -8   0  -2    5.83    0.32
   8   0   2    5.73    0.29
  -9   0  -2    0.52    0.14
  -9   0  -2    0.56    0.14
  -9   0  -2    0.65    0.16
 -10   0  -2    1.71    0.23
 -10   0  -2    1.54    0.23
 -11   0  -2   -0.05    0.15
 -11   0  -2    0.08    0.13
 -11   1   2    0.94    0.16
 -11   1   2    0.99    0.17
 -10   1   2    1.25    0.17
 -10   1   2    1.27    0.17
  -9   1   2    0.35    0.10
  -9   1   2    0.68    0.11
  -9   1   2    0.57    0.11
  -8   1   2    3.46    0.19
  -8   1   2    3.18    0.20
  -8   1   2    3.38    0.19
  -8   1   2    3.69    0.20
   7  -1  -2    4.69    0.21
  -7   1   2    4.94    0.22
  -7   1   2    4.47    0.20
  -7   1   2    4.93    0.22
  -7   1   2    4.90    0.20
  -7   1   2    4.90    0.21
   6  -1  -2    5.77    0.21
  -6   1   2    6.11    0.22
  -6   1   2    5.84    0.20
  -6   1   2    5.75    0.22
  -6   1   2    5.35    0.21
  -6   1   2    5.30    0.20
   5  -1  -2   33.93    0.81
   5  -1  -2   34.58    0.82
  -5   1   2   34.55    0.85
  -5   1   2   33.85    0.83
  -5   1   2   33.51    0.85
  -5   1   2   32.55    0.83
  -5   1   2   34.90    0.82
   4  -1  -2   43.75    1.03
  -4   1   2   45.89    1.08
  -4   1   2   44.94    1.03
  -4   1   2   44.55    1.08
   3  -1  -2   26.63    0.63
  -3   1   2   27.02    0.65
  -3   1   2   26.95    0.63
  -3   1   2   26.80    0.65
  -3   1   2   27.83    0.65
  -2   1   2   12.35    0.32
  -2   1   2   12.03    0.30
   1  -1  -2    9.85    0.47
   1  -1  -2   10.28    0.26
   1  -1  -2    9.57    0.27
  -1   1   2    9.83    0.24
  -1   1   2    9.75    0.27
  -1   1   2   10.24    0.26
  -1   1   2    9.53    0.24
  -1   1   2    9.44    0.46
  -1   1   2   10.07    0.26
   0  -1  -2  117.37    4.53
   0  -1  -2  115.75    2.72
   0  -1  -2  117.86    2.71
   0  -1  -2  116.75    2.72
   0  -1  -2  113.51    2.66
   0  -1  -2  115.74    2.71
   0   1   2  116.20    2.72
   0   1   2  114.65    2.66
   0   1   2  116.32    2.72
   0   1   2  111.74    2.72
   0   1   2  119.49    2.72
   0   1   2  111.79    4.53
  -1  -1  -2    6.64    0.38
  -1  -1  -2    6.25    0.21
  -1  -1  -2    6.71    0.21
  -1  -1  -2    6.66    0.22
   1   1   2    6.88    0.22
   1   1   2    6.65    0.22
   1   1   2    6.32    0.21
   1   1   2    6.56    0.21
   1   1   2    6.55    0.22
   1   1   2    6.54    0.38
  -2  -1  -2   80.75    1.95
  -2  -1  -2   82.79    3.25
  -2  -1  -2   82.15    1.95
  -2  -1  -2   79.57    1.95
  -2  -1  -2   76.45    1.90
   2   1   2   79.02    1.94
   2   1   2   81.10    1.84
   2   1   2   84.16    1.95
   2   1   2   79.73    1.95
  -3  -1  -2   29.80    0.79
  -3  -1  -2   33.08    1.38
  -3  -1  -2   30.12    0.80
  -3  -1  -2   31.13    0.80
   3   1   2   30.51    0.77
   3   1   2   29.74    0.81
  -4  -1  -2   57.20    1.43
  -4  -1  -2   60.29    1.47
  -4  -1  -2   57.07    1.48
  -4  -1  -2   58.97    1.47
   4   1   2   57.88    1.40
   4   1   2   59.07    1.45
   4   1   2   58.78    1.48
  -5  -1  -2   15.59    0.49
  -5  -1  -2   14.83    0.50
  -5  -1  -2   14.86    0.47
  -5  -1  -2   15.62    0.49
   5   1   2   15.47    0.50
   5   1   2   15.68    0.46
  -6  -1  -2    8.28    0.33
  -6  -1  -2    8.43    0.33
  -6  -1  -2    7.72    0.35
  -6  -1  -2    8.45    0.33
   6   1   2    7.80    0.34
  -7  -1  -2    9.90    0.43
  -7  -1  -2   10.38    0.41
  -7  -1  -2   10.14    0.39
   7   1   2   10.33    0.41
  -8  -1  -2    0.89    0.15
  -8  -1  -2    0.73    0.15
  -8  -1  -2    0.63    0.14
   8   1   2    0.71    0.14
  -9  -1  -2    0.55    0.15
  -9  -1  -2    0.63    0.17
 -10  -1  -2    0.54    0.18
 -10  -1  -2    0.56    0.16
 -12   2   2    0.39    0.13
 -12   2   2    0.51    0.15
 -11   2   2    0.85    0.15
 -11   2   2    0.70    0.14
 -10   2   2    1.11    0.14
 -10   2   2    1.05    0.14
  -9   2   2    4.60    0.24
  -9   2   2    4.67    0.23
  -9   2   2    5.39    0.24
   8  -2  -2   11.01    0.34
  -8   2   2   10.99    0.35
  -8   2   2   10.71    0.36
  -8   2   2   10.88    0.35
   7  -2  -2   15.78    0.41
  -7   2   2   15.37    0.44
  -7   2   2   15.02    0.41
  -7   2   2   14.62    0.42
  -7   2   2   14.80    0.44
  -7   2   2   14.97    0.42
   6  -2  -2   12.70    0.35
  -6   2   2   13.53    0.37
  -6   2   2   13.00    0.34
  -6   2   2   12.97    0.37
  -6   2   2   13.32    0.35
  -6   2   2   12.56    0.34
   5  -2  -2   13.18    0.34
  -5   2   2   13.32    0.35
  -5   2   2   13.22    0.34
  -5   2   2   13.71    0.36
  -4   2   2   59.90    1.39
  -4   2   2   59.22    1.39
  -4   2   2   59.00    1.32
  -3   2   2   18.61    0.48
  -3   2   2   18.17    0.42
   2  -2  -2   16.86    0.45
  -2   2   2   17.44    0.42
  -2   2   2   17.53    0.42
  -2   2   2   17.01    0.45
   1  -2  -2  103.42    2.40
   1  -2  -2   99.61    2.38
   1  -2  -2  105.58    2.40
   1  -2  -2  104.85    4.06
  -1   2   2  103.88    2.41
  -1   2   2  102.82    2.38
  -1   2   2   99.10    4.05
  -1   2   2  100.81    2.41
  -1   2   2  100.80    2.41
  -1   2   2  103.57    2.41
   0  -2  -2   15.84    0.41
   0  -2  -2   14.88    0.42
   0  -2  -2   16.58    0.43
   0  -2  -2   15.66    0.41
   0  -2  -2   15.48    0.72
   0  -2  -2   15.54    0.42
   0   2   2   15.83    0.42
   0   2   2   15.52    0.43
   0   2   2   15.69    0.40
   0   2   2   15.32    0.42
   0   2   2   15.55    0.41
   0   2   2   14.77    0.72
   0   2   2   15.21    0.41
  -1  -2  -2   42.16    1.02
  -1  -2  -2   41.35    1.72
  -1  -2  -2   40.98    1.03
  -1  -2  -2   40.09    1.01
   1   2   2   41.33    0.98
   1   2   2   43.01    1.04
   1   2   2   40.90    1.02
   1   2   2   40.60    1.03
   1   2   2   40.93    1.01
   1   2   2   39.23    1.02
   1   2   2   40.46    1.72
  -2  -2  -2    6.79    0.42
  -2  -2  -2    6.19    0.25
  -2  -2  -2    6.62    0.23
  -2  -2  -2    6.21    0.23
  -2  -2  -2    6.14    0.23
   2   2   2    6.35    0.24
   2   2   2    6.84    0.24
   2   2   2    6.49    0.25
   2   2   2    6.52    0.24
   2   2   2    6.16    0.23
  -3  -2  -2    9.65    0.32
  -3  -2  -2    9.25    0.32
  -3  -2  -2    9.36    0.32
   3   2   2    9.08    0.34
   3   2   2    9.74    0.32
  -4  -2  -2    3.12    0.18
  -4  -2  -2    2.68    0.17
  -4  -2  -2    3.04    0.18
  -4  -2  -2    3.01    0.19
   4   2   2    3.13    0.19
   4   2   2    3.17    0.17
  -5  -2  -2   11.86    0.41
  -5  -2  -2   12.57    0.43
  -5  -2  -2   11.57    0.44
  -5  -2  -2   11.69    0.42
   5   2   2   12.02    0.44
   5   2   2   11.89    0.40
  -6  -2  -2    6.61    0.31
  -6  -2  -2    6.10    0.29
  -6  -2  -2    5.90    0.31
   6   2   2    6.02    0.31
  -7  -2  -2    6.51    0.35
  -7  -2  -2    6.06    0.32
  -7  -2  -2    6.18    0.30
   7   2   2    6.25    0.33
  -8  -2  -2    0.59    0.14
  -8  -2  -2    0.41    0.15
  -8  -2  -2    0.59    0.13
   8   2   2    0.58    0.14
  -9  -2  -2    0.28    0.13
  -9  -2  -2    0.15    0.14
 -10  -2  -2    0.21    0.16
 -12   3   2    0.21    0.11
 -12   3   2    0.11    0.10
 -11   3   2    0.64    0.12
 -11   3   2    0.69    0.13
 -10   3   2    0.48    0.10
 -10   3   2    0.32    0.09
 -10   3   2    0.49    0.10
  -9   3   2    6.37    0.25
  -9   3   2    6.24    0.26
  -9   3   2    6.60    0.25
   8  -3  -2    1.78    0.10
  -8   3   2    1.96    0.13
  -8   3   2    1.80    0.12
  -8   3   2    1.96    0.12
  -7   3   2   13.23    0.36
  -7   3   2   13.58    0.39
  -7   3   2   12.89    0.36
  -7   3   2   14.07    0.39
  -6   3   2    0.38    0.05
  -6   3   2    0.35    0.05
  -5   3   2    9.55    0.25
  -5   3   2    9.20    0.25
  -3   3   2   56.98    1.34
  -3   3   2   56.47    1.37
  -3   3   2   56.50    1.34
  -3   3   2   56.22    1.25
   2  -3  -2   99.86    2.35
   2  -3  -2  103.01    2.35
  -2   3   2  102.71    2.23
  -2   3   2   98.61    2.35
  -2   3   2   95.63    4.00
  -2   3   2  102.99    2.36
  -2   3   2  101.13    2.35
  -2   3   2   98.89    2.35
  -2   3   2   97.94    2.36
   1  -3  -2   78.27    1.84
   1  -3  -2   76.67    1.85
   1  -3  -2   77.47    1.86
  -1   3   2   79.59    1.76
  -1   3   2   75.74    1.86
  -1   3   2   79.75    1.86
  -1   3   2   76.89    1.86
  -1   3   2   78.85    1.86
  -1   3   2   74.44    3.13
  -1   3   2   79.20    1.85
   0  -3  -2   54.28    1.36
   0  -3  -2   54.04    1.34
   0  -3  -2   55.99    1.35
   0  -3  -2   56.34    2.29
   0   3   2   56.30    1.36
   0   3   2   53.68    1.36
   0   3   2   55.84    1.35
   0   3   2   56.38    1.29
   0   3   2   53.85    1.37
   0   3   2   53.45    2.28
   0   3   2   58.74    1.37
  -1  -3  -2   14.16    0.44
  -1  -3  -2   15.05    0.74
  -1  -3  -2   14.87    0.45
  -1  -3  -2   15.43    0.43
   1   3   2   15.58    0.43
   1   3   2   14.24    0.75
   1   3   2   15.43    0.44
   1   3   2   14.81    0.45
   1   3   2   14.50    0.43
   1   3   2   16.00    0.44
  -2  -3  -2   52.30    1.30
  -2  -3  -2   50.05    1.25
  -2  -3  -2   50.91    1.32
  -2  -3  -2   50.72    1.28
   2   3   2   52.16    1.28
   2   3   2   52.95    1.25
   2   3   2   49.65    1.32
   2   3   2   50.92    1.30
   2   3   2   53.08    1.31
   2   3   2   51.96    2.18
  -3  -3  -2    0.59    0.11
  -3  -3  -2    0.47    0.09
  -3  -3  -2    0.46    0.09
  -3  -3  -2    0.47    0.10
   3   3   2    0.39    0.09
   3   3   2    0.51    0.09
  -4  -3  -2   11.75    0.42
  -4  -3  -2   11.10    0.39
  -4  -3  -2   12.03    0.41
  -4  -3  -2   11.06    0.43
   4   3   2   11.99    0.43
  -5  -3  -2    7.03    0.31
  -5  -3  -2    6.51    0.33
  -5  -3  -2    6.58    0.29
   5   3   2    6.55    0.33
  -6  -3  -2    6.73    0.32
  -6  -3  -2    6.24    0.30
  -6  -3  -2    6.62    0.36
   6   3   2    5.97    0.33
  -7  -3  -2    0.00    0.11
  -7  -3  -2    0.02    0.09
  -7  -3  -2    0.17    0.10
   7   3   2    0.20    0.11
  -8  -3  -2    0.07    0.13
   8   3   2   -0.10    0.10
  -9  -3  -2    0.50    0.19
 -12   4   2    0.06    0.10
 -12   4   2   -0.01    0.09
 -11   4   2    0.51    0.11
 -11   4   2    0.54    0.11
 -10   4   2    2.64    0.18
 -10   4   2    2.73    0.17
 -10   4   2    2.90    0.18
  -9   4   2    1.01    0.10
  -9   4   2    0.94    0.10
  -9   4   2    1.04    0.11
  -8   4   2    7.10    0.25
  -8   4   2    7.16    0.23
  -8   4   2    7.20    0.23
  -7   4   2    1.96    0.11
  -7   4   2    2.00    0.11
  -6   4   2   18.16    0.47
  -6   4   2   17.82    0.47
  -5   4   2    0.48    0.05
  -5   4   2    0.38    0.05
  -4   4   2   36.45    0.94
  -4   4   2   36.79    0.89
  -4   4   2   36.31    0.89
   3  -4  -2   17.36    0.43
  -3   4   2   17.25    0.45
  -3   4   2   16.91    0.50
  -3   4   2   16.59    0.45
  -3   4   2   16.77    0.43
  -3   4   2   16.82    0.41
  -3   4   2   16.81    0.43
   2  -4  -2   19.02    0.50
  -2   4   2   17.98    0.49
  -2   4   2   19.01    0.51
  -2   4   2   18.80    0.47
  -2   4   2   19.04    0.51
  -2   4   2   18.65    0.49
  -2   4   2   18.40    0.91
  -2   4   2   18.82    0.54
   1  -4  -2   19.95    0.55
   1  -4  -2   20.08    0.52
   1  -4  -2   19.74    0.57
   1  -4  -2   20.21    0.52
  -1   4   2   21.42    0.56
  -1   4   2   19.74    0.96
  -1   4   2   19.71    0.54
  -1   4   2   20.10    0.54
  -1   4   2   19.65    0.56
  -1   4   2   20.90    0.53
   0  -4  -2   26.02    0.71
   0  -4  -2   25.35    0.67
   0  -4  -2   26.83    0.68
   0  -4  -2   24.96    0.70
   0   4   2   26.60    0.67
   0   4   2   26.76    0.71
   0   4   2   25.62    0.69
   0   4   2   25.37    0.69
   0   4   2   26.15    0.71
   0   4   2   24.86    1.18
  -1  -4  -2    9.79    0.34
  -1  -4  -2    9.73    0.35
  -1  -4  -2    9.80    0.33
   1   4   2   10.41    0.35
   1   4   2   10.07    0.34
   1   4   2    9.92    0.33
   1   4   2   10.07    0.36
   1   4   2    9.42    0.57
   1   4   2    9.59    0.33
  -2  -4  -2    2.54    0.17
  -2  -4  -2    2.59    0.18
  -2  -4  -2    2.79    0.16
  -2  -4  -2    2.55    0.18
   2   4   2    2.63    0.17
   2   4   2    2.33    0.19
   2   4   2    2.75    0.33
   2   4   2    2.69    0.17
  -3  -4  -2    6.72    0.31
  -3  -4  -2    6.86    0.29
  -3  -4  -2    7.15    0.29
  -3  -4  -2    7.18    0.31
   3   4   2    7.13    0.32
   3   4   2    7.36    0.30
   3   4   2    7.32    0.30
  -4  -4  -2    0.81    0.13
  -4  -4  -2    0.98    0.14
  -4  -4  -2    0.69    0.14
   4   4   2    0.83    0.15
  -5  -4  -2   19.73    0.64
  -5  -4  -2   19.32    0.68
  -5  -4  -2   19.94    0.62
   5   4   2   18.96    0.67
  -6  -4  -2    0.86    0.14
  -6  -4  -2    0.75    0.16
   6   4   2    0.75    0.16
  -7  -4  -2    1.13    0.21
   7   4   2    0.85    0.19
  -8  -4  -2    0.61    0.20
   8   4   2    0.55    0.17
 -12   5   2    0.18    0.10
 -11   5   2    0.18    0.09
 -11   5   2    0.34    0.10
 -11   5   2    0.23    0.08
 -10   5   2    0.84    0.10
 -10   5   2    0.98    0.11
 -10   5   2    0.80    0.10
  -9   5   2    0.79    0.09
  -9   5   2    0.70    0.09
  -9   5   2    0.73    0.09
  -8   5   2    0.16    0.06
  -8   5   2    0.19    0.05
  -8   5   2    0.15    0.05
  -7   5   2    1.01    0.07
  -7   5   2    1.16    0.07
  -7   5   2    1.05    0.09
  -7   5   2    1.18    0.09
  -6   5   2    0.42    0.06
  -6   5   2    0.44    0.06
  -5   5   2    4.84    0.18
  -5   5   2    4.67    0.14
  -5   5   2    4.81    0.23
  -5   5   2    4.74    0.17
  -5   5   2    4.65    0.14
   4  -5  -2    4.15    0.13
  -4   5   2    4.24    0.22
  -4   5   2    4.51    0.17
  -4   5   2    3.95    0.14
  -4   5   2    4.22    0.13
  -4   5   2    4.02    0.17
  -4   5   2    4.07    0.15
   3  -5  -2   66.47    1.62
  -3   5   2   66.73    1.53
  -3   5   2   69.55    1.64
  -3   5   2   68.42    1.66
  -3   5   2   67.35    1.63
  -3   5   2   66.62    1.64
  -3   5   2   64.75    1.63
   2  -5  -2    6.08    0.22
  -2   5   2    6.23    0.23
  -2   5   2    5.75    0.23
  -2   5   2    6.16    0.26
  -2   5   2    5.63    0.43
  -2   5   2    5.95    0.21
  -2   5   2    5.65    0.21
  -2   5   2    5.85    0.21
   1  -5  -2   16.25    0.45
   1  -5  -2   16.04    0.48
   1  -5  -2   15.87    0.49
  -1   5   2   15.58    0.47
  -1   5   2   15.39    0.82
  -1   5   2   15.73    0.49
  -1   5   2   16.09    0.45
  -1   5   2   15.47    0.48
  -1   5   2   15.98    0.47
   0  -5  -2    1.90    0.15
   0  -5  -2    1.53    0.13
   0  -5  -2    1.98    0.17
   0  -5  -2    2.02    0.13
   0   5   2    1.85    0.15
   0   5   2    1.88    0.14
   0   5   2    1.67    0.15
   0   5   2    1.99    0.16
   0   5   2    1.80    0.14
   0   5   2    1.87    0.26
  -1  -5  -2    0.85    0.12
  -1  -5  -2    0.70    0.11
  -1  -5  -2    0.89    0.10
  -1  -5  -2    0.68    0.11
   1   5   2    0.64    0.10
   1   5   2    0.75    0.21
   1   5   2    0.77    0.11
   1   5   2    0.88    0.12
   1   5   2    0.77    0.12
  -2  -5  -2    4.78    0.23
  -2  -5  -2    4.97    0.26
  -2  -5  -2    4.97    0.25
  -2  -5  -2    4.63    0.25
   2   5   2    4.43    0.46
   2   5   2    4.89    0.28
   2   5   2    4.96    0.24
  -3  -5  -2    4.60    0.26
  -3  -5  -2    4.17    0.24
  -3  -5  -2    4.08    0.23
  -3  -5  -2    4.10    0.26
   3   5   2    4.00    0.22
   3   5   2    3.50    0.26
  -4  -5  -2    6.63    0.31
  -4  -5  -2    6.37    0.35
   4   5   2    6.49    0.35
  -5  -5  -2    4.34    0.32
  -5  -5  -2    4.34    0.27
   5   5   2    4.52    0.32
  -6  -5  -2    2.55    0.29
  -6  -5  -2    2.44    0.23
   6   5   2    2.85    0.30
  -7  -5  -2    1.18    0.24
   7   5   2    1.50    0.24
  -8  -5  -2    2.00    0.30
 -12   6   2    0.05    0.09
 -11   6   2    0.20    0.09
 -11   6   2    0.24    0.08
 -10   6   2    0.52    0.09
 -10   6   2    0.72    0.10
 -10   6   2    0.62    0.10
  -9   6   2    7.18    0.25
  -9   6   2    6.97    0.25
  -9   6   2    7.61    0.26
  -8   6   2   10.97    0.34
  -8   6   2   11.29    0.33
  -8   6   2   10.37    0.32
  -7   6   2    7.10    0.25
  -7   6   2    7.19    0.23
  -7   6   2    6.99    0.22
  -6   6   2   15.39    0.42
  -6   6   2   14.35    0.40
  -6   6   2   14.46    0.42
  -6   6   2   14.30    0.40
  -5   6   2    4.81    0.19
  -5   6   2    4.59    0.20
  -5   6   2    4.54    0.17
  -5   6   2    4.95    0.18
  -5   6   2    4.49    0.20
   4  -6  -2   29.69    0.75
  -4   6   2   29.87    0.71
  -4   6   2   29.71    0.79
  -4   6   2   30.82    0.79
  -4   6   2   28.29    0.77
  -4   6   2   29.59    0.77
   3  -6  -2    8.78    0.29
  -3   6   2    8.19    0.29
  -3   6   2    8.84    0.28
  -3   6   2    8.33    0.29
  -3   6   2    8.52    0.31
  -3   6   2    9.00    0.31
  -3   6   2    8.42    0.59
   2  -6  -2   17.39    0.51
   2  -6  -2   16.63    0.47
  -2   6   2   16.52    0.91
  -2   6   2   16.89    0.50
  -2   6   2   17.03    0.50
  -2   6   2   17.75    0.48
  -2   6   2   15.50    0.51
   1  -6  -2    6.04    0.27
   1  -6  -2    6.30    0.25
  -1   6   2    6.14    0.26
  -1   6   2    6.06    0.26
  -1   6   2    6.01    0.47
  -1   6   2    6.01    0.28
  -1   6   2    6.41    0.26
   0  -6  -2    3.26    0.20
   0  -6  -2    3.43    0.18
   0  -6  -2    2.80    0.19
   0  -6  -2    2.93    0.21
   0   6   2    3.41    0.20
   0   6   2    3.19    0.19
   0   6   2    2.95    0.34
   0   6   2    3.08    0.22
  -1  -6  -2   11.01    0.43
  -1  -6  -2   11.17    0.39
  -1  -6  -2   11.13    0.42
  -1  -6  -2   10.34    0.40
   1   6   2   11.03    0.43
   1   6   2   10.86    0.69
   1   6   2   11.04    0.40
   1   6   2   10.82    0.43
  -2  -6  -2    6.80    0.33
  -2  -6  -2    6.51    0.33
  -2  -6  -2    6.90    0.32
   2   6   2    6.30    0.35
   2   6   2    7.32    0.32
   2   6   2    6.99    0.58
  -3  -6  -2    1.64    0.19
  -3  -6  -2    2.26    0.24
  -3  -6  -2    1.83    0.20
   3   6   2    2.10    0.24
  -4  -6  -2    2.28    0.26
  -4  -6  -2    2.16    0.23
   4   6   2    2.30    0.27
  -5  -6  -2    2.23    0.28
  -5  -6  -2    2.38    0.24
   5   6   2    2.24    0.27
  -6  -6  -2    6.44    0.43
   6   6   2    5.26    0.40
  -7  -6  -2    3.68    0.38
   7   6   2    3.97    0.38
 -12   7   2    0.14    0.09
 -11   7   2    0.15    0.08
 -11   7   2    0.00    0.07
 -10   7   2    0.61    0.10
 -10   7   2    0.61    0.09
 -10   7   2    0.63    0.09
  -9   7   2    1.19    0.11
  -9   7   2    1.05    0.11
  -9   7   2    1.24    0.11
  -9   7   2    1.40    0.13
  -8   7   2    4.57    0.19
  -8   7   2    4.25    0.19
  -8   7   2    4.40    0.20
  -7   7   2    3.08    0.15
  -7   7   2    2.50    0.16
  -7   7   2    2.79    0.15
  -6   7   2    8.94    0.30
  -6   7   2    8.59    0.29
  -6   7   2    8.92    0.32
   5  -7  -2   35.71    0.91
  -5   7   2   36.92    0.85
  -5   7   2   36.76    0.97
  -5   7   2   36.20    0.95
  -5   7   2   38.05    0.96
   4  -7  -2   13.56    0.41
  -4   7   2   13.79    0.39
  -4   7   2   14.49    0.86
  -4   7   2   13.61    0.45
  -4   7   2   13.78    0.43
  -4   7   2   13.04    0.43
   3  -7  -2    7.58    0.29
  -3   7   2    7.85    0.60
  -3   7   2    6.85    0.31
  -3   7   2    7.73    0.29
  -3   7   2    7.05    0.29
  -3   7   2    8.02    0.28
   2  -7  -2    0.53    0.09
   2  -7  -2    0.41    0.10
  -2   7   2    0.57    0.10
  -2   7   2    0.58    0.22
  -2   7   2    0.39    0.11
  -2   7   2    0.42    0.10
  -2   7   2    0.41    0.09
   1  -7  -2    3.37    0.22
   1  -7  -2    3.42    0.21
  -1   7   2    3.40    0.24
  -1   7   2    3.77    0.40
  -1   7   2    3.93    0.22
  -1   7   2    3.60    0.22
   0  -7  -2    0.61    0.13
   0  -7  -2    0.71    0.12
   0   7   2    0.65    0.12
   0   7   2    0.74    0.23
   0   7   2    0.75    0.15
  -1  -7  -2    8.51    0.37
  -1  -7  -2    8.31    0.38
   1   7   2    7.85    0.39
   1   7   2    7.59    0.61
   1   7   2    8.42    0.36
  -2  -7  -2    8.16    0.38
  -2  -7  -2    8.14    0.38
  -2  -7  -2    7.92    0.40
   2   7   2    8.00    0.66
   2   7   2    7.93    0.40
  -3  -7  -2    0.12    0.11
  -3  -7  -2    0.07    0.13
  -3  -7  -2    0.14    0.11
   3   7   2   -0.13    0.11
  -4  -7  -2    0.19    0.11
  -4  -7  -2   -0.21    0.11
   4   7   2   -0.05    0.13
  -5  -7  -2    0.98    0.22
   5   7   2    0.44    0.18
  -6  -7  -2    1.34    0.27
   6   7   2    0.86    0.24
 -11   8   2    0.53    0.11
 -10   8   2    0.25    0.09
 -10   8   2    0.27    0.08
  -9   8   2    0.55    0.10
  -9   8   2    0.59    0.10
  -9   8   2    0.77    0.11
  -8   8   2    1.96    0.15
  -8   8   2    1.63    0.14
  -8   8   2    1.94    0.16
  -7   8   2    0.75    0.10
  -7   8   2    0.85    0.11
  -7   8   2    0.75    0.11
  -6   8   2    3.63    0.20
  -6   8   2    3.85    0.22
  -6   8   2    4.22    0.20
  -5   8   2   10.23    0.76
  -5   8   2    9.30    0.37
  -5   8   2    9.36    0.35
  -5   8   2   10.61    0.36
   4  -8  -2    1.59    0.14
  -4   8   2    1.51    0.33
  -4   8   2    1.48    0.13
  -4   8   2    1.63    0.15
  -4   8   2    1.37    0.14
  -4   8   2    1.55    0.17
   3  -8  -2    0.14    0.07
  -3   8   2    0.09    0.08
  -3   8   2    0.08    0.09
  -3   8   2    0.09    0.08
  -3   8   2    0.20    0.19
   2  -8  -2    0.75    0.12
   2  -8  -2    0.84    0.13
  -2   8   2    0.81    0.15
  -2   8   2    0.96    0.14
  -2   8   2    0.96    0.28
   1  -8  -2    2.28    0.21
   1  -8  -2    1.97    0.19
  -1   8   2    2.21    0.38
  -1   8   2    1.89    0.21
  -1   8   2    1.70    0.18
   0  -8  -2    4.26    0.26
   0  -8  -2    3.99    0.28
   0   8   2    4.30    0.27
   0   8   2    3.96    0.45
   0   8   2    3.83    0.29
  -1  -8  -2    0.94    0.17
  -1  -8  -2    0.89    0.15
   1   8   2    0.99    0.17
   1   8   2    0.87    0.18
   1   8   2    1.23    0.33
  -2  -8  -2    7.55    0.41
  -2  -8  -2    7.83    0.40
   2   8   2    7.69    0.72
   2   8   2    8.15    0.45
  -3  -8  -2    0.36    0.16
   3   8   2    0.14    0.15
  -4  -8  -2    0.05    0.15
   4   8   2    0.30    0.18
  -5  -8  -2    3.46    0.37
   5   8   2    3.24    0.37
 -11   9   2    0.24    0.10
 -10   9   2    0.26    0.09
  -9   9   2    0.12    0.09
  -9   9   2    0.11    0.08
  -9   9   2    0.20    0.09
  -8   9   2    1.30    0.15
  -8   9   2    1.34    0.14
  -8   9   2    1.27    0.15
  -7   9   2    2.71    0.20
  -7   9   2    3.19    0.20
  -7   9   2    3.11    0.20
  -6   9   2    4.14    0.56
  -6   9   2    4.09    0.25
  -6   9   2    4.03    0.23
  -6   9   2    3.73    0.23
  -5   9   2    4.18    0.54
  -5   9   2    4.21    0.24
  -5   9   2    4.00    0.26
  -4   9   2    1.48    0.37
  -4   9   2    1.65    0.18
  -4   9   2    1.25    0.18
   3  -9  -2    1.17    0.15
  -3   9   2    1.09    0.16
  -3   9   2    1.04    0.18
  -3   9   2    1.29    0.34
   2  -9  -2    1.83    0.20
  -2   9   2    2.00    0.21
  -2   9   2    1.82    0.22
  -2   9   2    1.76    0.36
   1  -9  -2    4.40    0.27
   1  -9  -2    4.75    0.30
  -1   9   2    4.85    0.33
  -1   9   2    4.95    0.54
  -1   9   2    4.84    0.30
   0  -9  -2    4.01    0.29
   0  -9  -2    4.12    0.29
   0   9   2    3.95    0.50
   0   9   2    4.42    0.30
   0   9   2    3.82    0.32
  -1  -9  -2    3.14    0.30
   1   9   2    3.08    0.32
   1   9   2    3.28    0.53
  -2  -9  -2    5.25    0.38
   2   9   2    5.28    0.42
   2   9   2    5.88    0.74
  -3  -9  -2    1.53    0.25
   3   9   2    1.15    0.25
  -4  -9  -2    0.01    0.16
   4   9   2    0.10    0.18
 -10  10   2    0.07    0.10
 -10  10   2    0.14    0.10
  -9  10   2    2.41    0.22
  -9  10   2    2.54    0.21
  -8  10   2    1.78    0.19
  -8  10   2    1.49    0.18
  -7  10   2    1.89    0.19
  -7  10   2    1.79    0.47
  -7  10   2    1.63    0.19
  -6  10   2    0.85    0.14
  -6  10   2    0.53    0.32
  -6  10   2    0.79    0.14
  -5  10   2    0.44    0.12
  -5  10   2    0.39    0.13
  -5  10   2    0.52    0.14
  -5  10   2    0.82    0.34
  -4  10   2    1.96    0.21
  -4  10   2    1.91    0.22
  -4  10   2    2.04    0.45
  -3  10   2    0.42    0.26
  -3  10   2    0.03    0.12
  -3  10   2    0.23    0.12
  -2  10   2    1.28    0.36
  -2  10   2    0.85    0.19
  -2  10   2    0.79    0.16
   1 -10  -2    0.15    0.11
  -1  10   2    0.23    0.14
  -1  10   2    0.40    0.25
   0 -10  -2    0.65    0.17
   0  10   2    0.54    0.19
   0  10   2    0.68    0.34
  -1 -10  -2    1.49    0.23
   1  10   2    1.14    0.25
   1  10   2    1.71    0.50
  -2 -10  -2    0.92    0.21
   2  10   2    1.41    0.27
  -9  11   2    0.98    0.42
  -9  11   2    0.59    0.14
  -9  11   2    0.69    0.15
  -8  11   2    2.68    0.58
  -8  11   2    1.96    0.22
  -8  11   2    2.63    0.25
  -7  11   2    0.07    0.29
  -7  11   2   -0.07    0.10
  -7  11   2   -0.08    0.10
  -6  11   2    1.08    0.40
  -6  11   2    0.95    0.17
  -6  11   2    1.51    0.21
  -5  11   2    4.05    0.32
  -5  11   2    4.39    0.31
  -5  11   2    5.13    0.65
  -5  11   2    4.16    0.31
  -4  11   2    3.21    0.32
  -4  11   2    4.15    0.64
  -4  11   2    3.68    0.30
  -3  11   2    2.60    0.30
  -3  11   2    3.31    0.57
  -3  11   2    2.76    0.28
  -2  11   2    0.93    0.20
  -2  11   2    1.19    0.36
  -1  11   2    1.39    0.25
  -1  11   2    1.60    0.37
   0  11   2    0.53    0.36
   0  11   2    0.63    0.21
  -7  12   2    0.41    0.33
  -7  12   2    0.04    0.11
  -7  12   2   -0.03    0.11
  -6  12   2    0.15    0.29
  -6  12   2    0.14    0.12
  -6  12   2   -0.10    0.12
  -5  12   2    1.95    0.26
  -5  12   2    2.76    0.56
  -5  12   2    2.12    0.25
  -5  12   2    1.92    0.26
  -4  12   2    1.11    0.38
  -4  12   2    1.11    0.22
  -4  12   2    0.85    0.19
  -3  12   2    1.20    0.26
  -3  12   2    1.65    0.38
  -2  12  -3    0.33    0.19
  -3  12  -3    0.94    0.23
  -4  12  -3    0.26    0.27
  -4  12  -3    0.22    0.18
  -5  12  -3    0.13    0.27
  -5  12  -3    0.02    0.16
  -6  12  -3   -0.12    0.14
  -7  12  -3    0.81    0.21
  -7  12  -3    0.52    0.16
   1  11  -3    0.52    0.22
   1  11  -3    0.65    0.22
  -1 -11   3    0.37    0.18
   0  11  -3   -0.05    0.17
   0 -11   3   -0.06    0.14
  -1  11  -3    1.76    0.28
   1 -11   3    1.87    0.23
   1 -11   3    2.06    0.28
  -2  11  -3    1.02    0.23
   2 -11   3    0.98    0.20
   2 -11   3    0.73    0.17
  -3  11  -3    1.31    0.24
  -3  11  -3    1.50    0.39
   3 -11   3    1.24    0.18
   3 -11   3    1.18    0.21
  -4  11  -3    2.92    0.33
  -4  11  -3    3.30    0.54
  -5  11  -3    0.24    0.13
  -5  11  -3    0.13    0.12
  -5  11  -3    0.36    0.16
  -6  11  -3    1.87    0.26
  -6  11  -3    1.95    0.24
  -7  11  -3    1.74    0.24
  -7  11  -3    1.56    0.25
  -8  11  -3    1.49    0.23
  -8  11  -3    1.23    0.21
  -9  11  -3    0.41    0.15
  -9  11  -3    0.68    0.18
   3  10  -3    0.54    0.19
   2  10  -3    1.24    0.25
   2  10  -3    0.65    0.22
  -2 -10   3    1.10    0.24
   1  10  -3    1.01    0.24
   1  10  -3    1.42    0.26
  -1 -10   3    0.85    0.19
  -1 -10   3    1.09    0.22
   0  10  -3    5.29    0.39
   0  10  -3    5.32    0.39
   0 -10   3    4.76    0.34
   0 -10   3    5.70    0.38
  -1  10  -3    3.15    0.38
  -1  10  -3    2.74    0.30
   1 -10   3    3.39    0.29
   1 -10   3    2.56    0.29
  -2  10  -3    4.23    0.47
  -2  10  -3    4.14    0.33
   2 -10   3    3.99    0.31
   2 -10   3    3.57    0.27
  -3  10  -3    1.64    0.20
  -3  10  -3    1.57    0.23
  -3  10  -3    1.72    0.37
   3 -10   3    1.64    0.22
   3 -10   3    1.71    0.19
  -4  10  -3    2.42    0.24
  -4  10  -3    2.81    0.30
  -4  10  -3    2.68    0.26
   4 -10   3    2.62    0.26
   4 -10   3    2.30    0.21
  -5  10  -3    3.08    0.26
  -5  10  -3    2.77    0.26
  -5  10  -3    2.16    0.26
   5 -10   3    3.04    0.23
  -6  10  -3    0.80    0.15
  -6  10  -3    0.50    0.16
  -7  10  -3    4.29    0.32
  -7  10  -3    3.98    0.30
  -8  10  -3    1.13    0.19
  -8  10  -3    1.16    0.20
  -9  10  -3    0.55    0.16
  -9  10  -3    0.51    0.16
 -10  10  -3   -0.08    0.12
 -10  10  -3    0.01    0.13
   4   9  -3    0.79    0.23
   4   9  -3    0.33    0.20
  -4  -9   3    0.64    0.21
   3   9  -3    0.00    0.14
   3   9  -3   -0.10    0.14
  -3  -9   3   -0.10    0.13
   2   9  -3    0.63    0.19
   2   9  -3    0.74    0.20
  -2  -9   3    0.75    0.19
  -2  -9   3    0.51    0.18
   1   9  -3    0.47    0.17
   1   9  -3    0.62    0.18
  -1  -9   3    0.42    0.17
  -1  -9   3    0.34    0.14
   0   9  -3   -0.07    0.12
   0   9  -3    0.12    0.13
   0   9  -3    0.05    0.11
   0  -9   3    0.02    0.12
   0  -9   3   -0.02    0.10
  -1   9  -3    0.28    0.17
  -1   9  -3    0.04    0.13
  -1   9  -3    0.21    0.14
   1  -9   3    0.30    0.14
   1  -9   3    0.08    0.10
  -2   9  -3    0.44    0.12
  -2   9  -3    0.32    0.14
  -2   9  -3    0.50    0.23
   2  -9   3    0.52    0.15
   2  -9   3    0.55    0.13
  -3   9  -3    7.83    0.41
  -3   9  -3    8.22    0.38
   3  -9   3    8.31    0.35
   3  -9   3    8.09    0.39
  -4   9  -3    5.47    0.32
  -4   9  -3    6.30    0.33
  -4   9  -3    6.16    0.35
   4  -9   3    6.23    0.32
   4  -9   3    5.76    0.28
  -5   9  -3    3.46    0.26
  -5   9  -3    3.18    0.27
  -5   9  -3    3.11    0.24
   5  -9   3    3.10    0.19
   5  -9   3    3.08    0.23
  -6   9  -3    0.43    0.14
  -6   9  -3    0.46    0.13
  -7   9  -3    0.72    0.16
  -7   9  -3    0.80    0.15
  -8   9  -3    0.82    0.16
  -8   9  -3    0.77    0.17
  -9   9  -3    0.17    0.13
  -9   9  -3    0.25    0.13
 -10   9  -3    0.79    0.17
 -10   9  -3    0.86    0.18
   5   8  -3    0.09    0.16
  -5  -8   3    0.29    0.17
   4   8  -3    0.92    0.21
  -4  -8   3    0.45    0.16
  -4  -8   3    0.70    0.20
   3   8  -3    0.98    0.20
  -3  -8   3    0.63    0.17
  -3  -8   3    0.63    0.17
   2   8  -3    2.43    0.28
  -2  -8   3    2.91    0.27
  -2  -8   3    2.83    0.29
   1   8  -3    3.72    0.31
   1   8  -3    4.09    0.30
   1   8  -3    3.23    0.30
  -1  -8   3    3.45    0.29
  -1  -8   3    3.22    0.30
   0   8  -3    1.60    0.21
   0   8  -3    1.83    0.25
   0   8  -3    1.67    0.22
   0  -8   3    1.55    0.19
   0  -8   3    1.56    0.20
  -1   8  -3    0.67    0.15
  -1   8  -3    0.39    0.13
  -1   8  -3    0.53    0.11
  -1   8  -3    0.70    0.21
   1  -8   3    0.53    0.12
   1  -8   3    0.49    0.14
  -2   8  -3    0.23    0.09
  -2   8  -3    0.07    0.11
   2  -8   3    0.44    0.12
   2  -8   3    0.41    0.11
  -3   8  -3    5.83    0.30
  -3   8  -3    5.74    0.32
   3  -8   3    5.88    0.27
   3  -8   3    5.65    0.30
  -4   8  -3   14.64    0.53
  -4   8  -3   13.43    0.49
  -4   8  -3   13.93    0.50
   4  -8   3   13.22    0.44
   4  -8   3   13.55    0.49
  -5   8  -3    1.13    0.17
  -5   8  -3    1.25    0.16
  -5   8  -3    1.11    0.15
   5  -8   3    1.32    0.16
   5  -8   3    1.03    0.12
  -6   8  -3    6.12    0.31
  -6   8  -3    5.87    0.33
   6  -8   3    6.25    0.24
   6  -8   3    5.98    0.29
  -7   8  -3    1.80    0.19
  -7   8  -3    1.55    0.19
  -8   8  -3    0.74    0.15
  -8   8  -3    0.57    0.13
  -9   8  -3    0.13    0.12
  -9   8  -3    0.24    0.11
 -10   8  -3    0.66    0.15
 -10   8  -3    0.28    0.13
 -11   8  -3    0.76    0.17
 -11   8  -3    0.59    0.17
   6   7  -3    2.76    0.31
  -6  -7   3    2.95    0.33
   5   7  -3    0.22    0.16
  -5  -7   3    0.28    0.16
  -5  -7   3    0.23    0.16
   4   7  -3    1.19    0.21
  -4  -7   3    1.46    0.22
  -4  -7   3    1.23    0.20
   3   7  -3    4.69    0.33
  -3  -7   3    3.84    0.30
  -3  -7   3    5.49    0.33
   2   7  -3    5.76    0.34
   2   7  -3    4.72    0.37
  -2  -7   3    4.88    0.31
  -2  -7   3    5.10    0.31
   1   7  -3    5.21    0.31
   1   7  -3    4.64    0.35
   1   7  -3    5.29    0.32
  -1  -7   3    4.91    0.28
  -1  -7   3    4.52    0.30
   0   7  -3    4.89    0.37
   0   7  -3    4.94    0.26
   0   7  -3    4.80    0.30
   0   7  -3    4.78    0.29
   0  -7   3    4.56    0.28
   0  -7   3    5.29    0.28
  -1   7  -3   14.72    0.55
  -1   7  -3   15.39    0.52
  -1   7  -3   14.86    0.55
   1  -7   3   16.19    0.53
   1  -7   3   16.54    0.55
   1  -7   3   15.74    0.51
  -2   7  -3    4.40    0.27
  -2   7  -3    4.50    0.25
  -2   7  -3    4.44    0.24
   2  -7   3    4.76    0.27
   2  -7   3    4.74    0.24
  -3   7  -3   10.38    0.39
  -3   7  -3   10.31    0.42
  -3   7  -3   10.63    0.39
   3  -7   3   10.63    0.40
   3  -7   3   10.11    0.36
  -4   7  -3   22.89    0.73
  -4   7  -3   22.93    0.71
  -4   7  -3   24.51    0.71
  -4   7  -3   24.45    0.71
   4  -7   3   23.60    0.65
   4  -7   3   24.08    0.72
  -5   7  -3    2.13    0.20
  -5   7  -3    1.80    0.17
  -5   7  -3    2.15    0.18
   5  -7   3    2.37    0.15
   5  -7   3    2.26    0.18
  -6   7  -3    2.49    0.21
  -6   7  -3    2.68    0.20
   6  -7   3    2.51    0.15
   6  -7   3    2.57    0.19
  -7   7  -3    2.48    0.22
  -7   7  -3    2.31    0.20
   7  -7   3    2.60    0.20
   7  -7   3    2.38    0.14
  -8   7  -3    0.43    0.13
  -8   7  -3    0.33    0.11
  -9   7  -3    1.38    0.19
  -9   7  -3    1.11    0.16
 -10   7  -3    0.56    0.14
 -10   7  -3    0.54    0.15
 -11   7  -3    1.30    0.20
 -11   7  -3    1.31    0.20
  -7  -6   3    0.79    0.20
   6   6  -3    1.04    0.19
  -6  -6   3    0.46    0.17
  -6  -6   3    0.78    0.19
   5   6  -3    1.78    0.22
  -5  -6   3    1.31    0.21
  -5  -6   3    1.13    0.20
   4   6  -3    0.51    0.15
  -4  -6   3    0.45    0.14
  -4  -6   3    0.56    0.14
  -4  -6   3    0.39    0.11
   3   6  -3   18.01    0.64
  -3  -6   3   17.26    0.63
  -3  -6   3   18.64    0.63
  -3  -6   3   18.82    0.61
   2   6  -3    8.86    0.48
   2   6  -3    8.69    0.39
   2   6  -3    9.38    0.32
  -2  -6   3    9.02    0.39
  -2  -6   3    9.19    0.40
  -2  -6   3    9.14    0.36
   1   6  -3    8.00    0.37
   1   6  -3    8.35    0.33
   1   6  -3    8.47    0.31
   1   6  -3    8.31    0.46
   1   6  -3    8.47    0.37
  -1  -6   3    8.55    0.35
  -1  -6   3    8.31    0.36
  -1  -6   3    8.88    0.34
   0   6  -3   11.91    0.41
   0   6  -3   12.34    0.40
   0   6  -3   10.73    0.43
   0   6  -3   11.92    0.62
   0   6  -3   10.85    0.43
   0  -6   3   10.94    0.40
   0  -6   3   12.12    0.41
   0  -6   3   11.17    0.43
  -1   6  -3    7.21    0.32
  -1   6  -3    7.56    0.30
  -1   6  -3    7.22    0.30
   1  -6   3    6.98    0.31
   1  -6   3    6.83    0.29
  -2   6  -3    7.12    0.31
  -2   6  -3    7.48    0.29
  -2   6  -3    6.82    0.29
   2  -6   3    7.49    0.28
   2  -6   3    6.93    0.28
   2  -6   3    6.99    0.30
  -3   6  -3    2.98    0.20
  -3   6  -3    2.99    0.19
  -3   6  -3    3.39    0.19
  -3   6  -3    2.98    0.19
   3  -6   3    3.14    0.16
   3  -6   3    2.95    0.17
   3  -6   3    3.14    0.20
  -4   6  -3   36.96    1.04
  -4   6  -3   36.85    1.02
  -4   6  -3   38.40    1.02
   4  -6   3   39.33    1.03
   4  -6   3   37.56    0.94
  -5   6  -3   15.38    0.50
  -5   6  -3   15.14    0.49
  -5   6  -3   15.11    0.52
   5  -6   3   15.80    0.50
   5  -6   3   15.00    0.44
  -6   6  -3    0.37    0.11
  -6   6  -3    0.35    0.09
  -6   6  -3    0.39    0.10
   6  -6   3    0.30    0.07
   6  -6   3    0.45    0.10
  -7   6  -3    1.91    0.19
  -7   6  -3    1.80    0.18
  -7   6  -3    1.62    0.17
   7  -6   3    1.70    0.12
   7  -6   3    1.68    0.16
  -8   6  -3    0.07    0.09
  -8   6  -3    0.16    0.10
  -9   6  -3    0.48    0.13
  -9   6  -3    0.34    0.11
 -10   6  -3    1.58    0.21
 -10   6  -3    1.48    0.19
 -11   6  -3    0.47    0.16
 -11   6  -3    0.39    0.14
  -8  -5   3    0.45    0.18
  -7  -5   3    1.62    0.24
  -7  -5   3    1.23    0.19
  -7  -5   3    1.58    0.24
   6   5  -3    1.64    0.21
  -6  -5   3    1.64    0.20
  -6  -5   3    1.69    0.22
  -6  -5   3    1.63    0.22
   5   5  -3    0.21    0.11
  -5  -5   3    0.01    0.11
  -5  -5   3    0.17    0.10
  -5  -5   3    0.12    0.11
   4   5  -3    2.47    0.23
  -4  -5   3    2.28    0.24
  -4  -5   3    2.80    0.21
  -4  -5   3    2.60    0.24
   3   5  -3    8.37    0.37
   3   5  -3    8.36    0.27
  -3  -5   3    8.73    0.35
  -3  -5   3    8.65    0.37
  -3  -5   3    7.50    0.35
   2   5  -3    9.42    0.31
   2   5  -3    9.10    0.45
   2   5  -3    8.82    0.37
  -2  -5   3    9.44    0.35
  -2  -5   3    9.22    0.38
  -2  -5   3    9.71    0.37
   1   5  -3    8.32    0.34
   1   5  -3    7.88    0.34
   1   5  -3    8.24    0.31
   1   5  -3    8.30    0.29
   1   5  -3    8.13    0.43
  -1  -5   3    8.63    0.34
  -1  -5   3    8.14    0.32
  -1  -5   3    8.55    0.32
   0   5  -3    9.71    0.38
   0   5  -3   10.14    0.38
   0   5  -3   10.38    0.36
   0   5  -3   10.66    0.36
   0  -5   3   10.00    0.37
   0  -5   3   10.55    0.35
   0  -5   3   10.34    0.36
  -1   5  -3    3.46    0.18
  -1   5  -3    3.41    0.18
  -1   5  -3    2.80    0.19
  -1   5  -3    3.24    0.17
   1  -5   3    3.03    0.17
   1  -5   3    3.23    0.19
  -2   5  -3   11.10    0.40
  -2   5  -3   12.25    0.38
  -2   5  -3   11.37    0.38
  -2   5  -3   11.51    0.38
   2  -5   3   11.29    0.36
   2  -5   3   11.72    0.37
   2  -5   3   11.96    0.40
  -3   5  -3   11.05    0.40
  -3   5  -3   11.84    0.38
  -3   5  -3   11.69    0.38
   3  -5   3   11.51    0.35
   3  -5   3   11.61    0.36
   3  -5   3   11.70    0.39
  -4   5  -3   62.74    1.62
  -4   5  -3   65.05    1.61
  -4   5  -3   63.44    1.60
   4  -5   3   63.57    1.61
   4  -5   3   63.60    1.49
  -5   5  -3   18.58    0.60
  -5   5  -3   19.37    0.58
  -5   5  -3   20.23    0.59
   5  -5   3   19.77    0.59
   5  -5   3   19.83    0.53
  -6   5  -3    0.55    0.11
  -6   5  -3    0.67    0.11
  -6   5  -3    0.56    0.10
   6  -5   3    0.50    0.10
  -7   5  -3    6.84    0.30
  -7   5  -3    6.55    0.32
  -7   5  -3    7.02    0.30
   7  -5   3    7.28    0.30
  -8   5  -3    5.84    0.29
  -8   5  -3    5.30    0.30
  -9   5  -3    2.13    0.22
  -9   5  -3    2.08    0.21
 -10   5  -3    0.61    0.15
 -10   5  -3    0.40    0.13
 -11   5  -3    0.24    0.13
 -11   5  -3    0.11    0.12
  -9  -4   3    0.67    0.20
  -8  -4   3    0.17    0.12
  -8  -4   3    0.15    0.14
  -8  -4   3   -0.15    0.12
  -7  -4   3    3.09    0.28
  -7  -4   3    3.11    0.29
  -7  -4   3    3.85    0.27
   6   4  -3    1.81    0.20
  -6  -4   3    1.82    0.20
  -6  -4   3    1.51    0.19
  -6  -4   3    2.04    0.22
   5   4  -3    0.23    0.10
  -5  -4   3    0.20    0.11
  -5  -4   3    0.21    0.09
  -5  -4   3    0.17    0.11
   4   4  -3   10.79    0.42
  -4  -4   3   10.83    0.43
  -4  -4   3   11.48    0.43
  -4  -4   3   10.77    0.40
  -4  -4   3   11.93    0.42
   3   4  -3    6.59    0.26
   3   4  -3    6.55    0.29
   3   4  -3    6.60    0.21
  -3  -4   3    6.53    0.27
  -3  -4   3    6.66    0.30
  -3  -4   3    6.55    0.28
  -3  -4   3    6.68    0.30
   2   4  -3   22.17    0.61
   2   4  -3   22.17    0.56
   2   4  -3   22.28    0.65
  -2  -4   3   21.00    0.62
  -2  -4   3   20.64    0.64
  -2  -4   3   21.17    0.63
  -2  -4   3   21.75    0.63
   1   4  -3    3.17    0.19
   1   4  -3    3.26    0.19
   1   4  -3    3.13    0.16
   1   4  -3    3.44    0.21
  -1  -4   3    3.77    0.18
  -1  -4   3    3.20    0.19
  -1  -4   3    3.58    0.18
  -1  -4   3    3.41    0.18
   0   4  -3    6.12    0.24
   0   4  -3    5.88    0.23
   0   4  -3    5.84    0.24
   0   4  -3    5.66    0.25
   0   4  -3    5.63    0.23
   0  -4   3    5.60    0.23
   0  -4   3    6.12    0.23
   0  -4   3    6.24    0.23
   0  -4   3    5.42    0.24
  -1   4  -3    0.55    0.08
  -1   4  -3    0.49    0.09
  -1   4  -3    0.53    0.08
  -1   4  -3    0.34    0.06
   1  -4   3    0.46    0.08
   1  -4   3    0.48    0.09
   1  -4   3    0.55    0.07
  -2   4  -3    1.07    0.10
  -2   4  -3    1.34    0.13
  -2   4  -3    1.02    0.10
   2  -4   3    1.08    0.10
   2  -4   3    1.15    0.11
   2  -4   3    1.06    0.10
  -3   4  -3   16.70    0.49
  -3   4  -3   16.82    0.51
  -3   4  -3   17.18    0.49
   3  -4   3   17.20    0.47
   3  -4   3   16.45    0.46
   3  -4   3   16.63    0.50
  -4   4  -3    6.78    0.26
  -4   4  -3    7.22    0.26
  -4   4  -3    6.79    0.28
   4  -4   3    6.91    0.27
  -5   4  -3    9.94    0.34
  -5   4  -3    9.44    0.36
  -5   4  -3    9.98    0.34
   5  -4   3    9.89    0.35
  -6   4  -3    4.43    0.22
  -6   4  -3    4.40    0.21
  -6   4  -3    3.89    0.23
   6  -4   3    4.09    0.21
  -7   4  -3    8.83    0.38
  -7   4  -3    9.78    0.36
  -7   4  -3    8.95    0.35
   7  -4   3    9.30    0.30
   7  -4   3    9.27    0.35
  -8   4  -3    6.81    0.31
  -8   4  -3    6.66    0.33
   8  -4   3    6.72    0.29
  -9   4  -3    1.80    0.19
  -9   4  -3    1.75    0.21
 -10   4  -3    0.23    0.12
 -10   4  -3    0.32    0.12
 -11   4  -3    0.13    0.13
 -11   4  -3    0.33    0.13
  -9  -3   3    0.93    0.18
  -9  -3   3    1.12    0.19
  -9  -3   3    0.82    0.19
  -8  -3   3    1.09    0.18
  -8  -3   3    0.80    0.18
  -8  -3   3    0.94    0.18
   7   3  -3    4.14    0.27
  -7  -3   3    4.12    0.28
  -7  -3   3    4.07    0.26
  -7  -3   3    4.17    0.29
   6   3  -3   19.73    0.63
  -6  -3   3   20.97    0.66
  -6  -3   3   19.32    0.65
  -6  -3   3   20.40    0.64
   5   3  -3    5.94    0.28
  -5  -3   3    6.13    0.30
  -5  -3   3    5.72    0.27
  -5  -3   3    6.01    0.28
  -5  -3   3    5.79    0.29
   4   3  -3    6.02    0.27
  -4  -3   3    5.80    0.27
  -4  -3   3    5.76    0.27
  -4  -3   3    5.59    0.25
  -4  -3   3    6.21    0.26
   3   3  -3   12.49    0.42
   3   3  -3   12.11    0.32
   3   3  -3   12.99    0.38
   3   3  -3   12.47    0.38
  -3  -3   3   12.34    0.42
  -3  -3   3   12.65    0.40
  -3  -3   3   12.37    0.41
  -3  -3   3   12.40    0.40
   2   3  -3    0.19    0.07
   2   3  -3    0.28    0.07
   2   3  -3    0.31    0.06
   2   3  -3    0.32    0.08
   2   3  -3    0.30    0.06
   2   3  -3    0.27    0.04
  -2  -3   3    0.28    0.07
  -2  -3   3    0.19    0.07
  -2  -3   3    0.18    0.06
  -2  -3   3    0.25    0.06
   1   3  -3   21.56    0.60
   1   3  -3   21.97    0.58
   1   3  -3   21.63    0.61
  -1  -3   3   20.31    0.60
  -1  -3   3   20.91    0.58
  -1  -3   3   21.80    0.59
  -1  -3   3   21.10    0.58
   0   3  -3   24.06    0.67
   0   3  -3   25.15    0.65
   0   3  -3   23.98    0.65
   0   3  -3   25.40    0.64
   0  -3   3   23.75    0.63
   0  -3   3   24.49    0.67
   0  -3   3   24.90    0.66
   0  -3   3   24.37    0.65
  -1   3  -3   83.22    2.05
  -1   3  -3   85.40    2.05
  -1   3  -3   83.49    2.05
   1  -3   3   85.05    2.04
   1  -3   3   83.58    1.93
   1  -3   3   87.54    2.05
   1  -3   3   82.89    2.05
  -2   3  -3   16.67    0.47
  -2   3  -3   16.80    0.47
  -2   3  -3   16.66    0.49
   2  -3   3   16.52    0.48
  -3   3  -3   21.13    0.57
  -3   3  -3   19.93    0.57
  -3   3  -3   20.75    0.59
   3  -3   3   21.08    0.56
   3  -3   3   20.94    0.59
  -4   3  -3   18.46    0.55
  -4   3  -3   18.57    0.53
  -4   3  -3   17.93    0.53
   4  -3   3   18.96    0.51
   4  -3   3   18.63    0.54
  -5   3  -3   11.71    0.38
  -5   3  -3   11.88    0.38
  -5   3  -3   11.22    0.40
   5  -3   3   12.32    0.39
  -6   3  -3   22.48    0.69
  -6   3  -3   24.69    0.68
  -6   3  -3   23.55    0.68
   6  -3   3   23.52    0.68
  -7   3  -3   12.11    0.41
  -7   3  -3   11.20    0.41
  -7   3  -3   11.47    0.43
   7  -3   3   11.53    0.41
   7  -3   3   11.39    0.37
  -8   3  -3    6.69    0.33
  -8   3  -3    6.82    0.32
   8  -3   3    6.80    0.30
  -9   3  -3    1.64    0.20
  -9   3  -3    1.30    0.17
 -10   3  -3    1.17    0.19
 -10   3  -3    0.85    0.16
 -11   3  -3    0.20    0.12
 -11   3  -3   -0.01    0.12
 -10  -2   3    0.77    0.17
 -10  -2   3    0.77    0.18
 -10  -2   3    0.75    0.17
  -9  -2   3    1.38    0.21
  -9  -2   3    1.47    0.20
  -9  -2   3    1.77    0.21
  -8  -2   3    1.16    0.16
  -8  -2   3    1.40    0.19
  -8  -2   3    1.22    0.18
   7   2  -3    2.75    0.19
  -7  -2   3    2.74    0.20
  -7  -2   3    3.16    0.23
  -7  -2   3    2.04    0.21
   6   2  -3   47.80    1.27
  -6  -2   3   48.80    1.30
  -6  -2   3   51.10    1.30
  -6  -2   3   50.15    1.26
  -6  -2   3   46.85    1.28
   5   2  -3   24.37    0.69
  -5  -2   3   24.61    0.69
  -5  -2   3   23.48    0.70
  -5  -2   3   23.56    0.68
  -5  -2   3   25.02    0.69
   4   2  -3    8.64    0.31
   4   2  -3    8.32    0.30
  -4  -2   3    8.11    0.31
  -4  -2   3    8.67    0.30
  -4  -2   3    8.07    0.29
  -4  -2   3    7.93    0.30
   3   2  -3   63.38    1.55
   3   2  -3   64.12    1.49
  -3  -2   3   62.97    1.55
  -3  -2   3   62.19    1.55
  -3  -2   3   62.28    1.49
  -3  -2   3   60.76    1.55
   2   2  -3   27.52    0.70
   2   2  -3   27.58    0.70
   2   2  -3   27.10    0.73
   2   2  -3   27.46    0.73
  -2  -2   3   25.94    0.71
  -2  -2   3   27.33    0.73
  -2  -2   3   27.07    0.70
  -2  -2   3   27.00    0.72
  -2  -2   3   29.73    0.74
   1   2  -3   36.38    0.93
   1   2  -3   37.59    0.89
   1   2  -3   35.96    0.91
  -1  -2   3   35.35    0.92
  -1  -2   3   36.20    0.93
  -1  -2   3   36.97    0.92
  -1  -2   3   34.93    0.88
  -1  -2   3   38.29    0.94
   0   2  -3   66.47    1.64
   0   2  -3   68.34    1.63
   0  -2   3   66.54    1.55
   0  -2   3   66.35    1.64
   0  -2   3   67.18    1.64
   0  -2   3   71.25    1.65
   0  -2   3   66.25    1.63
   0  -2   3   67.51    1.64
  -1   2  -3   41.20    1.03
  -1   2  -3   44.04    1.05
  -1   2  -3   40.28    1.01
  -1   2  -3   39.62    1.02
   1  -2   3   40.31    1.02
   1  -2   3   39.95    1.01
   1  -2   3   40.31    1.02
  -2   2  -3   32.18    0.84
  -2   2  -3   32.98    0.84
   2  -2   3   32.47    0.85
   2  -2   3   33.65    0.84
  -3   2  -3    0.01    0.04
  -3   2  -3    0.12    0.06
  -3   2  -3    0.03    0.05
   3  -2   3    0.06    0.06
   3  -2   3    0.04    0.04
  -4   2  -3   50.26    1.27
  -4   2  -3   52.42    1.28
  -4   2  -3   49.35    1.29
   4  -2   3   50.75    1.25
   4  -2   3   49.54    1.28
  -5   2  -3   26.18    0.76
  -5   2  -3   26.69    0.74
  -5   2  -3   28.09    0.74
   5  -2   3   26.95    0.75
  -6   2  -3    3.92    0.21
  -6   2  -3    3.78    0.20
  -6   2  -3    4.03    0.23
   6  -2   3    4.20    0.19
   6  -2   3    4.29    0.22
  -7   2  -3    3.72    0.23
  -7   2  -3    3.97    0.22
  -7   2  -3    3.96    0.25
   7  -2   3    4.25    0.23
  -8   2  -3    0.18    0.11
  -8   2  -3    0.06    0.08
   8  -2   3    0.07    0.08
  -9   2  -3    0.05    0.10
  -9   2  -3    0.00    0.09
 -10   2  -3    0.44    0.14
 -10   2  -3    0.50    0.16
 -11   2  -3    0.14    0.13
 -11   2  -3    0.13    0.14
 -11  -1   3    0.16    0.13
 -10  -1   3    0.84    0.17
 -10  -1   3    0.67    0.16
 -10  -1   3    0.80    0.18
  -9  -1   3    0.52    0.14
  -9  -1   3    0.76    0.15
  -9  -1   3    0.63    0.13
  -8  -1   3    2.56    0.22
  -8  -1   3    1.99    0.19
  -8  -1   3    2.13    0.21
   7   1  -3    5.14    0.23
  -7  -1   3    5.33    0.27
  -7  -1   3    5.33    0.27
  -7  -1   3    5.21    0.25
  -7  -1   3    5.45    0.25
   6   1  -3   20.63    0.58
  -6  -1   3   19.30    0.60
  -6  -1   3   19.85    0.58
  -6  -1   3   20.38    0.59
  -6  -1   3   20.73    0.60
   5   1  -3    0.43    0.09
   5   1  -3    0.38    0.07
  -5  -1   3    0.35    0.09
  -5  -1   3    0.42    0.07
  -5  -1   3    0.51    0.09
  -5  -1   3    0.27    0.06
  -5  -1   3    0.30    0.08
   4   1  -3   33.52    0.85
   4   1  -3   32.81    0.83
   4   1  -3   33.15    0.84
  -4  -1   3   33.35    0.85
  -4  -1   3   31.07    0.85
  -4  -1   3   32.34    0.83
  -4  -1   3   31.33    0.84
  -4  -1   3   35.15    0.87
   3   1  -3    0.42    0.06
   3   1  -3    0.50    0.07
  -3  -1   3    0.33    0.06
  -3  -1   3    0.50    0.06
  -3  -1   3    0.36    0.05
  -3  -1   3    0.48    0.07
  -3  -1   3    0.46    0.07
   2   1  -3    6.52    0.22
   2   1  -3    6.18    0.18
   2   1  -3    6.18    0.21
  -2  -1   3    6.24    0.20
  -2  -1   3    6.35    0.22
  -2  -1   3    6.28    0.22
  -2  -1   3    6.45    0.20
  -2  -1   3    6.14    0.21
  -2  -1   3    6.19    0.20
   1   1  -3   51.36    1.21
   1   1  -3   49.19    1.21
   1   1  -3   48.48    1.95
   1   1  -3   50.55    1.20
  -1  -1   3   49.17    1.20
  -1  -1   3   51.79    1.21
  -1  -1   3   48.27    1.15
  -1  -1   3   48.45    1.21
  -1  -1   3   48.28    1.20
   0   1  -3   41.31    1.01
   0   1  -3   41.74    1.02
   0   1  -3   40.65    1.02
   0  -1   3   40.03    1.01
   0  -1   3   43.04    1.02
   0  -1   3   40.90    1.02
   0  -1   3   40.16    1.01
  -1   1  -3   66.40    1.56
  -1   1  -3   63.25    1.55
  -1   1  -3   62.90    1.56
  -1   1  -3   64.89    1.55
   1  -1   3   63.61    1.56
   1  -1   3   67.09    1.56
   1  -1   3   63.83    1.55
   1  -1   3   61.11    1.55
  -2   1  -3   14.75    0.44
  -2   1  -3   13.98    0.40
  -2   1  -3   14.52    0.42
  -2   1  -3   14.00    0.40
   2  -1   3   13.80    0.41
   2  -1   3   14.53    0.40
   2  -1   3   13.73    0.39
  -3   1  -3    0.89    0.08
  -3   1  -3    0.65    0.09
  -3   1  -3    0.98    0.10
   3  -1   3    0.93    0.09
   3  -1   3    1.03    0.11
  -4   1  -3   54.90    1.41
  -4   1  -3   58.19    1.40
  -4   1  -3   55.10    1.40
   4  -1   3   55.54    1.38
   4  -1   3   54.93    1.40
  -5   1  -3   23.60    0.67
  -5   1  -3   22.31    0.69
  -5   1  -3   24.86    0.68
   5  -1   3   24.27    0.65
   5  -1   3   24.33    0.64
   5  -1   3   24.13    0.69
  -6   1  -3    5.86    0.26
  -6   1  -3    5.92    0.28
  -6   1  -3    5.88    0.27
   6  -1   3    5.67    0.27
  -7   1  -3    4.66    0.28
  -7   1  -3    5.06    0.26
   7  -1   3    4.81    0.26
  -8   1  -3    1.74    0.19
  -8   1  -3    1.67    0.20
   8  -1   3    1.58    0.18
  -9   1  -3    0.31    0.12
  -9   1  -3    0.11    0.12
  -9   1  -3    0.22    0.13
 -10   1  -3   -0.03    0.11
 -10   1  -3   -0.01    0.12
 -10   1  -3    0.20    0.13
 -11   1  -3   -0.05    0.13
 -11   1  -3   -0.06    0.12
 -11   0   3    0.20    0.13
 -11   0   3    0.03    0.11
 -10   0   3    0.39    0.12
 -10   0   3    0.40    0.13
  -9   0   3    0.72    0.12
  -9   0   3    0.62    0.12
  -9   0   3    0.50    0.12
  -8   0   3    1.57    0.16
  -8   0   3    1.58    0.15
  -8   0   3    1.81    0.16
  -8   0   3    1.83    0.18
   7   0  -3   19.24    0.52
   7   0  -3   18.77    0.52
  -7   0   3   19.38    0.56
  -7   0   3   19.43    0.56
  -7   0   3   18.62    0.57
  -7   0   3   18.24    0.55
   6   0  -3    8.55    0.27
   6   0  -3    8.57    0.27
   6   0  -3    8.34    0.30
  -6   0   3    8.06    0.28
  -6   0   3    8.39    0.30
  -6   0   3    8.52    0.28
  -6   0   3    8.53    0.30
  -6   0   3    8.17    0.30
   5   0  -3   12.01    0.36
   5   0  -3   12.07    0.34
  -5   0   3   11.31    0.34
  -5   0   3   11.37    0.36
  -5   0   3   11.78    0.34
  -5   0   3   11.67    0.36
  -5   0   3   12.13    0.36
   4   0  -3    0.03    0.04
   4   0  -3    0.07    0.03
  -4   0   3    0.05    0.04
  -4   0   3   -0.01    0.04
  -4   0   3    0.04    0.03
  -4   0   3    0.05    0.03
  -4   0   3    0.06    0.05
   3   0  -3    5.59    0.17
   3   0  -3    5.55    0.19
   3   0  -3    5.52    0.17
  -3   0   3    5.19    0.16
  -3   0   3    5.70    0.19
  -3   0   3    5.20    0.16
  -3   0   3    5.29    0.18
  -3   0   3    5.17    0.19
   2   0  -3   24.26    0.60
   2   0  -3   23.73    0.57
   2   0  -3   25.40    0.60
  -2   0   3   24.17    0.60
  -2   0   3   23.30    0.99
  -2   0   3   23.94    0.59
  -2   0   3   24.27    0.57
  -2   0   3   25.14    0.61
  -2   0   3   22.98    0.59
  -2   0   3   23.33    0.59
   1   0  -3    3.07    0.20
   1   0  -3    3.08    0.12
   1   0  -3    3.11    0.12
   1   0  -3    3.30    0.12
   1   0  -3    3.39    0.10
  -1   0   3    3.26    0.13
  -1   0   3    3.26    0.13
  -1   0   3    3.10    0.11
  -1   0   3    2.98    0.20
  -1   0   3    3.22    0.11
   0   0  -3   66.22    1.61
   0   0  -3   71.33    1.65
   0   0  -3   68.32    1.64
   0   0  -3   69.24    2.74
   0   0  -3   66.46    1.64
   0   0  -3   68.85    1.64
   0   0   3   69.15    1.65
   0   0   3   67.87    1.64
   0   0   3   66.93    1.64
   0   0   3   72.08    1.65
  -1   0  -3   83.92    2.02
  -1   0  -3   83.31    2.02
  -1   0  -3   85.62    3.38
  -1   0  -3   84.08    2.02
  -1   0  -3   87.14    2.03
   1   0   3   84.40    2.03
   1   0   3   82.21    2.02
   1   0   3   88.34    2.03
   1   0   3   81.49    2.02
  -2   0  -3   59.41    1.47
  -2   0  -3   59.72    1.47
  -2   0  -3   60.14    1.46
   2   0   3   58.94    1.46
   2   0   3   60.97    1.47
   2   0   3   59.59    1.47
  -3   0  -3   61.78    1.55
  -3   0  -3   61.64    1.54
  -3   0  -3   63.82    1.54
   3   0   3   61.62    1.55
  -4   0  -3   21.98    0.65
  -4   0  -3   22.66    0.63
  -4   0  -3   22.82    0.64
   4   0   3   22.80    0.61
   4   0   3   22.96    0.62
   4   0   3   22.33    0.65
  -5   0  -3   22.33    0.63
  -5   0  -3   21.22    0.65
  -5   0  -3   21.67    0.63
   5   0   3   21.80    0.65
   5   0   3   21.37    0.61
  -6   0  -3    2.46    0.20
  -6   0  -3    2.38    0.17
  -6   0  -3    2.11    0.18
  -6   0  -3    2.42    0.20
   6   0   3    2.54    0.20
  -7   0  -3    3.50    0.24
  -7   0  -3    3.72    0.26
  -7   0  -3    4.11    0.24
   7   0   3    3.96    0.25
  -8   0  -3    4.65    0.29
  -8   0  -3    4.93    0.29
  -8   0  -3    4.61    0.31
   8   0   3    5.10    0.29
  -9   0  -3    2.78    0.26
  -9   0  -3    2.34    0.26
  -9   0  -3    2.65    0.25
 -10   0  -3    1.19    0.20
 -10   0  -3    1.04    0.21
 -11   1   3    1.52    0.19
 -11   1   3    1.22    0.18
 -10   1   3    1.19    0.16
 -10   1   3    1.79    0.18
  -9   1   3    6.05    0.27
  -9   1   3    5.29    0.26
  -9   1   3    5.07    0.26
  -9   1   3    5.77    0.27
  -8   1   3    6.28    0.26
  -8   1   3    5.70    0.24
  -8   1   3    5.61    0.26
  -8   1   3    6.12    0.25
   7  -1  -3    6.83    0.26
  -7   1   3    7.11    0.26
  -7   1   3    6.83    0.24
  -7   1   3    6.70    0.24
  -7   1   3    6.25    0.25
  -7   1   3    7.29    0.28
   6  -1  -3   10.80    0.33
  -6   1   3   11.51    0.34
  -6   1   3   11.33    0.31
  -6   1   3   10.59    0.33
  -6   1   3   11.17    0.34
  -6   1   3   10.98    0.32
  -6   1   3   10.68    0.32
   5  -1  -3    7.03    0.23
  -5   1   3    6.91    0.20
  -5   1   3    6.97    0.22
  -5   1   3    7.03    0.23
  -5   1   3    7.00    0.22
  -5   1   3    6.85    0.20
  -5   1   3    7.14    0.21
  -4   1   3   14.94    0.40
  -4   1   3   15.08    0.40
  -4   1   3   16.06    0.40
  -4   1   3   15.43    0.40
  -3   1   3   26.81    0.64
  -3   1   3   25.67    0.63
  -3   1   3   26.22    0.64
  -3   1   3   26.53    0.64
   2  -1  -3    1.89    0.10
   2  -1  -3    2.07    0.07
   2  -1  -3    1.87    0.07
  -2   1   3    2.09    0.08
  -2   1   3    2.13    0.09
  -2   1   3    2.10    0.10
  -2   1   3    2.22    0.18
   1  -1  -3   24.05    0.59
   1  -1  -3   23.48    1.01
   1  -1  -3   23.67    0.58
   1  -1  -3   22.88    0.59
  -1   1   3   25.45    0.59
  -1   1   3   22.56    0.58
  -1   1   3   23.89    0.59
  -1   1   3   23.00    0.59
  -1   1   3   22.18    1.01
  -1   1   3   23.31    0.58
   0  -1  -3   72.84    2.87
   0  -1  -3   72.85    1.71
   0  -1  -3   69.47    1.68
   0  -1  -3   71.06    1.71
   0  -1  -3   69.61    1.71
   0  -1  -3   72.15    1.70
   0   1   3   70.62    1.71
   0   1   3   71.03    1.68
   0   1   3   73.82    1.71
   0   1   3   70.50    2.86
   0   1   3   68.70    1.71
   0   1   3   72.78    1.71
  -1  -1  -3    1.37    0.11
  -1  -1  -3    1.35    0.09
  -1  -1  -3    1.63    0.21
  -1  -1  -3    1.41    0.11
   1   1   3    1.42    0.10
   1   1   3    1.27    0.11
   1   1   3    1.45    0.11
   1   1   3    1.33    0.09
  -2  -1  -3   50.38    1.26
  -2  -1  -3   51.10    1.26
  -2  -1  -3   48.60    1.23
  -2  -1  -3   51.31    1.25
   2   1   3   52.15    1.26
   2   1   3   49.46    1.26
   2   1   3   48.99    1.25
  -3  -1  -3   24.21    0.68
  -3  -1  -3   26.04    0.68
  -3  -1  -3   24.89    0.70
  -3  -1  -3   25.85    0.69
   3   1   3   24.26    0.70
   3   1   3   25.60    0.66
   3   1   3   24.21    0.67
  -4  -1  -3   30.45    0.81
  -4  -1  -3   30.05    0.81
  -4  -1  -3   28.93    0.83
  -4  -1  -3   28.53    0.80
   4   1   3   29.99    0.78
   4   1   3   29.53    0.79
   4   1   3   28.80    0.82
  -5  -1  -3    9.29    0.38
  -5  -1  -3    9.98    0.36
  -5  -1  -3    9.74    0.36
  -5  -1  -3    9.29    0.35
   5   1   3    9.60    0.33
   5   1   3    9.33    0.37
  -6  -1  -3    7.22    0.32
  -6  -1  -3    7.21    0.32
  -6  -1  -3    7.44    0.34
   6   1   3    6.68    0.33
  -7  -1  -3    0.88    0.16
  -7  -1  -3    0.92    0.15
  -7  -1  -3    0.87    0.15
   7   1   3    1.19    0.17
  -8  -1  -3    1.18    0.17
  -8  -1  -3    1.02    0.17
  -8  -1  -3    0.97    0.18
   8   1   3    0.76    0.15
  -9  -1  -3    0.90    0.20
  -9  -1  -3    0.93    0.18
 -10  -1  -3    1.13    0.23
 -12   2   3    0.33    0.13
 -12   2   3    0.32    0.12
 -11   2   3    0.85    0.14
 -11   2   3    0.88    0.14
 -10   2   3    1.18    0.14
 -10   2   3    1.30    0.14
 -10   2   3    1.64    0.16
  -9   2   3    4.23    0.20
  -9   2   3    3.69    0.20
  -9   2   3    3.75    0.20
   8  -2  -3    2.03    0.13
  -8   2   3    2.12    0.14
  -8   2   3    1.94    0.13
  -8   2   3    2.26    0.13
  -8   2   3    2.15    0.13
   7  -2  -3    0.55    0.07
  -7   2   3    0.80    0.08
  -7   2   3    0.57    0.08
  -7   2   3    0.56    0.06
  -7   2   3    0.71    0.07
  -7   2   3    0.75    0.08
  -6   2   3   34.96    0.87
  -6   2   3   35.17    0.88
  -6   2   3   35.27    0.87
  -6   2   3   35.50    0.84
  -5   2   3   22.99    0.56
  -5   2   3   22.97    0.59
  -5   2   3   23.00    0.56
  -5   2   3   22.38    0.55
  -4   2   3   45.95    1.06
  -4   2   3   47.05    1.12
  -3   2   3   38.02    0.91
  -3   2   3   35.90    1.57
   2  -2  -3   26.23    0.63
   2  -2  -3   25.76    0.67
   2  -2  -3   26.47    0.63
  -2   2   3   26.71    0.64
  -2   2   3   26.66    0.64
  -2   2   3   26.27    0.67
  -2   2   3   25.30    1.15
   1  -2  -3   50.04    2.03
   1  -2  -3   48.55    1.19
   1  -2  -3   48.29    1.18
   1  -2  -3   50.98    1.19
  -1   2   3   48.00    1.18
  -1   2   3   48.87    1.19
  -1   2   3   51.26    1.19
  -1   2   3   48.30    1.19
  -1   2   3   48.37    2.02
  -1   2   3   47.39    1.18
   0  -2  -3   61.17    1.47
   0  -2  -3   59.83    1.49
   0  -2  -3   62.91    1.48
   0  -2  -3   63.01    2.51
   0   2   3   61.72    1.49
   0   2   3   60.53    2.51
   0   2   3   58.10    1.48
   0   2   3   61.31    1.49
   0   2   3   61.28    1.47
   0   2   3   62.95    1.49
  -1  -2  -3    0.29    0.07
  -1  -2  -3    0.20    0.06
  -1  -2  -3    0.17    0.11
   1   2   3    0.19    0.06
   1   2   3    0.31    0.15
   1   2   3    0.23    0.05
   1   2   3    0.33    0.07
   1   2   3    0.24    0.07
   1   2   3    0.30    0.07
  -2  -2  -3   17.77    0.50
  -2  -2  -3   17.31    0.52
  -2  -2  -3   16.43    0.50
   2   2   3   17.65    0.50
   2   2   3   16.99    0.49
   2   2   3   17.07    0.52
   2   2   3   17.69    0.49
  -3  -2  -3   30.22    0.83
  -3  -2  -3   29.89    0.85
  -3  -2  -3   31.68    0.83
  -3  -2  -3   29.98    0.82
   3   2   3   31.41    0.83
   3   2   3   31.36    0.81
   3   2   3   29.88    0.85
  -4  -2  -3    2.11    0.17
  -4  -2  -3    2.27    0.16
  -4  -2  -3    2.21    0.16
  -4  -2  -3    2.26    0.18
   4   2   3    2.34    0.18
  -5  -2  -3    6.18    0.28
  -5  -2  -3    5.84    0.28
  -5  -2  -3    5.45    0.30
   5   2   3    5.66    0.30
   5   2   3    5.68    0.26
  -6  -2  -3   -0.03    0.09
  -6  -2  -3   -0.03    0.07
  -6  -2  -3    0.09    0.09
   6   2   3   -0.05    0.09
  -7  -2  -3    3.08    0.26
  -7  -2  -3    3.32    0.24
  -7  -2  -3    3.68    0.25
   7   2   3    3.24    0.26
  -8  -2  -3   -0.03    0.09
  -8  -2  -3   -0.03    0.12
  -8  -2  -3   -0.09    0.09
   8   2   3   -0.04    0.10
  -9  -2  -3    2.72    0.31
 -12   3   3    0.73    0.14
 -11   3   3    0.72    0.12
 -11   3   3    0.78    0.13
 -10   3   3    1.74    0.15
 -10   3   3    1.82    0.15
 -10   3   3    1.95    0.16
  -9   3   3    2.29    0.15
  -9   3   3    2.06    0.14
  -9   3   3    2.34    0.14
  -8   3   3    0.73    0.07
  -8   3   3    0.65    0.07
  -8   3   3    0.83    0.09
  -8   3   3    0.76    0.11
  -7   3   3    1.66    0.10
  -7   3   3    1.68    0.10
  -7   3   3    1.84    0.14
  -6   3   3   16.42    0.41
  -6   3   3   16.37    0.40
  -6   3   3   16.63    0.48
  -5   3   3   25.47    0.67
  -5   3   3   24.47    0.57
  -4   3   3    1.58    0.11
  -4   3   3    1.40    0.06
  -3   3   3   43.43    1.03
  -3   3   3   42.76    1.03
  -3   3   3   42.29    1.83
  -3   3   3   43.00    1.07
   2  -3  -3   36.01    0.88
   2  -3  -3   35.44    0.91
   2  -3  -3   37.14    0.88
  -2   3   3   35.04    1.56
  -2   3   3   36.02    0.87
  -2   3   3   36.17    0.89
  -2   3   3   34.91    0.87
  -2   3   3   37.06    0.89
  -2   3   3   37.02    0.92
   1  -3  -3   41.68    1.04
   1  -3  -3   40.43    1.05
  -1   3   3   42.94    0.99
  -1   3   3   41.35    1.03
  -1   3   3   43.05    1.04
  -1   3   3   42.26    1.05
  -1   3   3   40.30    1.03
  -1   3   3   42.56    1.05
   0  -3  -3    4.57    0.19
   0  -3  -3    5.01    0.18
   0  -3  -3    4.91    0.21
   0   3   3    5.06    0.20
   0   3   3    5.29    0.22
   0   3   3    4.93    0.20
   0   3   3    4.98    0.19
   0   3   3    4.64    0.19
   0   3   3    4.36    0.36
  -1  -3  -3   20.66    0.60
  -1  -3  -3   22.50    0.60
  -1  -3  -3   20.92    0.61
   1   3   3   22.46    0.59
   1   3   3   21.61    1.04
   1   3   3   22.60    0.60
   1   3   3   21.33    0.61
   1   3   3   21.37    0.60
   1   3   3   21.15    0.62
  -2  -3  -3   13.75    0.46
  -2  -3  -3   13.39    0.44
  -2  -3  -3   14.60    0.44
   2   3   3   14.85    0.45
   2   3   3   13.97    0.43
   2   3   3   13.71    0.46
   2   3   3   13.93    0.44
   2   3   3   13.89    0.44
  -3  -3  -3   43.74    1.13
  -3  -3  -3   42.22    1.17
  -3  -3  -3   45.02    1.15
   3   3   3   43.49    1.14
   3   3   3   42.36    1.17
  -4  -3  -3   13.28    0.48
  -4  -3  -3   13.32    0.45
  -4  -3  -3   12.78    0.45
   4   3   3   13.06    0.48
  -5  -3  -3    1.22    0.15
  -5  -3  -3    1.01    0.16
  -5  -3  -3    1.07    0.15
   5   3   3    1.09    0.16
  -6  -3  -3    3.31    0.28
  -6  -3  -3    3.75    0.25
  -6  -3  -3    3.72    0.25
   6   3   3    4.01    0.29
  -7  -3  -3    0.33    0.14
  -7  -3  -3    0.24    0.11
   7   3   3    0.21    0.13
  -8  -3  -3    2.17    0.28
   8   3   3    2.06    0.26
  -9  -3  -3    0.25    0.17
 -12   4   3    0.28    0.10
 -11   4   3    0.48    0.10
 -11   4   3    0.37    0.09
 -11   4   3    0.38    0.09
 -10   4   3    0.22    0.07
 -10   4   3    0.34    0.08
 -10   4   3    0.43    0.08
  -9   4   3    0.02    0.04
  -9   4   3    0.01    0.04
  -9   4   3   -0.04    0.05
  -8   4   3    0.67    0.11
  -8   4   3    0.64    0.07
  -7   4   3    2.17    0.09
  -7   4   3    2.28    0.16
  -6   4   3   10.82    0.37
  -5   4   3   18.23    0.54
  -4   4   3   12.20    0.33
  -4   4   3   12.26    0.30
  -4   4   3   12.38    0.40
  -4   4   3   12.44    0.33
   3  -4  -3    7.02    0.19
   3  -4  -3    6.98    0.19
  -3   4   3    6.41    0.19
  -3   4   3    7.06    0.21
  -3   4   3    7.19    0.27
  -3   4   3    6.67    0.19
  -3   4   3    6.64    0.22
  -3   4   3    6.31    0.45
  -3   4   3    7.04    0.22
   2  -4  -3   17.14    0.46
   2  -4  -3   16.50    0.50
  -2   4   3   17.39    0.45
  -2   4   3   17.04    0.47
  -2   4   3   16.03    0.85
  -2   4   3   17.66    0.47
  -2   4   3   16.86    0.45
  -2   4   3   17.59    0.51
  -2   4   3   16.01    0.45
   1  -4  -3   12.78    0.39
   1  -4  -3   12.87    0.42
  -1   4   3   12.85    0.38
  -1   4   3   12.60    0.70
  -1   4   3   12.64    0.38
  -1   4   3   13.60    0.42
  -1   4   3   13.25    0.38
  -1   4   3   13.73    0.40
  -1   4   3   12.81    0.40
   0  -4  -3   11.42    0.37
   0  -4  -3   10.71    0.38
   0  -4  -3   11.71    0.34
   0   4   3   11.50    0.36
   0   4   3   11.68    0.36
   0   4   3   11.00    0.36
   0   4   3   11.23    0.38
   0   4   3   11.71    0.39
   0   4   3   10.64    0.64
  -1  -4  -3    8.21    0.32
  -1  -4  -3    8.48    0.29
  -1  -4  -3    8.05    0.32
   1   4   3    8.22    0.30
   1   4   3    7.73    0.32
   1   4   3    8.28    0.30
   1   4   3    8.22    0.31
   1   4   3    8.14    0.54
   1   4   3    8.30    0.32
  -2  -4  -3   15.95    0.50
  -2  -4  -3   15.77    0.52
  -2  -4  -3   14.53    0.48
   2   4   3   14.94    0.48
   2   4   3   16.59    0.51
   2   4   3   15.29    0.52
   2   4   3   15.54    0.86
  -3  -4  -3   18.31    0.60
  -3  -4  -3   17.81    0.57
  -3  -4  -3   18.58    0.57
   3   4   3   18.75    0.57
   3   4   3   17.74    0.60
  -4  -4  -3    6.43    0.31
  -4  -4  -3    6.41    0.30
  -4  -4  -3    6.64    0.34
   4   4   3    6.08    0.33
  -5  -4  -3    3.18    0.24
  -5  -4  -3    3.20    0.27
   5   4   3    4.01    0.29
  -6  -4  -3    2.36    0.26
  -6  -4  -3    2.27    0.23
   6   4   3    2.31    0.26
  -7  -4  -3    2.31    0.24
  -7  -4  -3    2.08    0.27
   7   4   3    1.74    0.25
  -8  -4  -3    1.23    0.25
   8   4   3    1.49    0.25
 -12   5   3    0.50    0.12
 -11   5   3    1.71    0.15
 -11   5   3    1.78    0.15
 -10   5   3    3.32    0.17
 -10   5   3    3.53    0.18
 -10   5   3    3.96    0.17
  -9   5   3    1.12    0.09
  -9   5   3    1.05    0.09
  -9   5   3    1.16    0.09
  -6   5   3    5.71    0.18
  -6   5   3    5.76    0.18
  -5   5   3   13.07    0.35
  -5   5   3   12.47    0.43
  -5   5   3   12.17    0.35
  -4   5   3   15.04    0.47
  -4   5   3   14.81    0.81
  -4   5   3   13.71    0.38
  -4   5   3   14.09    0.40
  -4   5   3   14.07    0.40
  -4   5   3   14.52    0.36
  -4   5   3   13.94    0.38
   3  -5  -3   31.35    0.78
  -3   5   3   31.75    0.85
  -3   5   3   29.98    0.80
  -3   5   3   31.90    0.80
  -3   5   3   30.75    0.78
  -3   5   3   31.30    0.75
  -3   5   3   29.16    0.78
  -3   5   3   30.00    1.44
   2  -5  -3    0.23    0.08
   2  -5  -3    0.29    0.07
  -2   5   3    0.25    0.06
  -2   5   3    0.20    0.13
  -2   5   3    0.24    0.07
  -2   5   3    0.28    0.06
  -2   5   3    0.30    0.06
  -2   5   3    0.14    0.07
  -2   5   3    0.20    0.07
   1  -5  -3   21.36    0.65
   1  -5  -3   22.24    0.63
  -1   5   3   20.73    1.08
  -1   5   3   22.38    0.60
  -1   5   3   21.92    0.62
  -1   5   3   22.97    0.66
  -1   5   3   21.85    0.64
  -1   5   3   22.69    0.62
   0  -5  -3    8.76    0.29
   0  -5  -3    8.55    0.34
   0  -5  -3    8.02    0.32
   0   5   3    8.85    0.32
   0   5   3    8.48    0.31
   0   5   3    8.03    0.56
   0   5   3    7.93    0.33
   0   5   3    9.51    0.37
  -1  -5  -3   15.97    0.47
  -1  -5  -3   14.47    0.50
  -1  -5  -3   14.51    0.50
   1   5   3   14.31    0.84
   1   5   3   15.58    0.49
   1   5   3   15.08    0.51
   1   5   3   14.88    0.49
  -2  -5  -3    4.80    0.27
  -2  -5  -3    5.12    0.27
   2   5   3    4.82    0.49
   2   5   3    4.82    0.28
   2   5   3    4.87    0.25
  -3  -5  -3   13.94    0.53
  -3  -5  -3   14.31    0.50
   3   5   3   13.44    0.48
   3   5   3   13.79    0.53
  -4  -5  -3   13.54    0.55
  -4  -5  -3   14.25    0.51
   4   5   3   13.72    0.55
  -5  -5  -3   10.24    0.43
  -5  -5  -3    9.60    0.48
   5   5   3   10.74    0.49
  -6  -5  -3    4.87    0.38
  -6  -5  -3    4.48    0.30
   6   5   3    4.74    0.36
  -7  -5  -3    2.01    0.29
   7   5   3    2.00    0.28
 -12   6   3    0.15    0.09
 -11   6   3    1.73    0.15
 -11   6   3    1.95    0.16
 -10   6   3    1.45    0.12
 -10   6   3    1.67    0.12
  -9   6   3    4.23    0.16
  -9   6   3    4.13    0.16
  -9   6   3    4.21    0.16
  -8   6   3    6.25    0.21
  -7   6   3   22.39    0.58
  -6   6   3   12.57    0.35
  -6   6   3   12.14    0.33
  -6   6   3   12.07    0.36
  -6   6   3   11.74    0.33
  -5   6   3   13.28    0.37
  -5   6   3   14.09    0.40
  -5   6   3   13.06    0.37
  -5   6   3   13.45    0.40
  -4   6   3    7.18    0.25
  -4   6   3    6.51    0.23
  -4   6   3    6.69    0.54
  -4   6   3    6.91    0.26
  -4   6   3    6.99    0.22
  -4   6   3    6.44    0.23
   3  -6  -3    1.05    0.10
  -3   6   3    1.16    0.11
  -3   6   3    1.28    0.11
  -3   6   3    1.29    0.11
  -3   6   3    1.12    0.12
  -3   6   3    1.32    0.13
  -3   6   3    1.15    0.25
   2  -6  -3    1.10    0.12
  -2   6   3    1.13    0.27
  -2   6   3    1.01    0.13
  -2   6   3    1.16    0.11
  -2   6   3    1.16    0.12
  -2   6   3    0.95    0.11
   1  -6  -3   13.68    0.48
   1  -6  -3   13.66    0.45
  -1   6   3   13.71    0.45
  -1   6   3   13.19    0.80
  -1   6   3   13.67    0.47
  -1   6   3   14.54    0.45
   0  -6  -3   29.13    0.86
   0  -6  -3   30.69    0.87
   0   6   3   30.49    0.86
   0   6   3   29.23    1.46
   0   6   3   31.47    0.86
   0   6   3   30.29    0.88
  -1  -6  -3    0.27    0.10
  -1  -6  -3    0.28    0.10
   1   6   3    0.01    0.19
   1   6   3    0.06    0.07
   1   6   3    0.16    0.10
  -2  -6  -3    2.03    0.21
  -2  -6  -3    2.33    0.24
   2   6   3    2.44    0.43
   2   6   3    2.20    0.19
   2   6   3    2.17    0.24
  -3  -6  -3    1.21    0.17
  -3  -6  -3    1.11    0.18
   3   6   3    1.00    0.18
  -4  -6  -3    5.39    0.31
  -4  -6  -3    5.22    0.35
   4   6   3    5.18    0.35
  -5  -6  -3    0.83    0.17
  -5  -6  -3    0.72    0.19
   5   6   3    0.94    0.21
  -6  -6  -3    1.42    0.25
   6   6   3    1.00    0.23
  -7  -6  -3    0.21    0.18
   7   6   3    0.54    0.20
 -12   7   3    0.35    0.10
 -11   7   3    0.07    0.07
 -11   7   3    0.06    0.07
 -10   7   3    1.77    0.13
 -10   7   3    1.55    0.13
  -9   7   3    0.02    0.05
  -9   7   3    0.03    0.05
  -9   7   3    0.03    0.05
  -8   7   3    1.66    0.11
  -8   7   3    1.76    0.11
  -8   7   3    1.70    0.12
  -7   7   3    3.84    0.16
  -7   7   3    3.77    0.16
  -7   7   3    3.64    0.17
  -6   7   3    2.83    0.15
  -6   7   3    2.90    0.16
  -6   7   3    2.88    0.17
  -6   7   3    3.06    0.15
  -5   7   3    0.23    0.08
  -5   7   3    0.28    0.05
  -5   7   3    0.27    0.07
  -5   7   3    0.30    0.07
  -5   7   3    0.28    0.21
   4  -7  -3    0.71    0.09
  -4   7   3    0.59    0.11
  -4   7   3    0.55    0.09
  -4   7   3    0.61    0.09
  -4   7   3    0.52    0.08
  -4   7   3    0.52    0.24
   3  -7  -3    1.33    0.13
  -3   7   3    1.36    0.13
  -3   7   3    1.14    0.13
  -3   7   3    1.53    0.16
  -3   7   3    1.03    0.12
  -3   7   3    1.12    0.27
   2  -7  -3    5.79    0.27
  -2   7   3    6.36    0.28
  -2   7   3    6.05    0.53
  -2   7   3    6.49    0.27
  -2   7   3    5.91    0.29
   1  -7  -3    7.05    0.31
  -1   7   3    6.84    0.33
  -1   7   3    7.08    0.31
  -1   7   3    6.57    0.56
   0  -7  -3   10.09    0.41
   0  -7  -3    9.92    0.42
   0   7   3   10.03    0.43
   0   7   3    9.95    0.40
   0   7   3   10.02    0.71
  -1  -7  -3    0.73    0.15
  -1  -7  -3    0.83    0.15
   1   7   3    0.82    0.30
   1   7   3    0.73    0.13
   1   7   3    0.64    0.15
  -2  -7  -3    0.44    0.14
  -2  -7  -3    0.21    0.13
   2   7   3   -0.03    0.12
   2   7   3   -0.09    0.26
  -3  -7  -3   12.41    0.55
  -3  -7  -3   12.99    0.53
   3   7   3   12.75    0.57
  -4  -7  -3    2.04    0.26
  -4  -7  -3    2.52    0.26
   4   7   3    2.09    0.28
  -5  -7  -3    1.32    0.25
   5   7   3    1.71    0.27
  -6  -7  -3    0.19    0.19
   6   7   3    0.16    0.18
 -11   8   3    0.02    0.07
 -11   8   3    0.13    0.08
 -10   8   3    0.52    0.09
 -10   8   3    0.57    0.10
 -10   8   3    0.59    0.09
  -9   8   3    2.58    0.16
  -9   8   3    2.49    0.16
  -9   8   3    2.33    0.15
  -8   8   3    2.05    0.14
  -8   8   3    1.88    0.15
  -8   8   3    1.83    0.14
  -7   8   3    7.22    0.27
  -7   8   3    6.96    0.27
  -7   8   3    7.26    0.28
  -6   8   3    0.43    0.08
  -6   8   3    0.52    0.10
  -6   8   3    0.64    0.28
  -6   8   3    0.47    0.10
  -6   8   3    0.48    0.09
  -5   8   3    0.60    0.10
  -5   8   3    0.72    0.28
  -5   8   3    0.69    0.11
  -5   8   3    0.71    0.12
  -4   8   3    0.38    0.24
  -4   8   3    0.38    0.10
  -4   8   3    0.24    0.08
  -4   8   3    0.45    0.11
   3  -8  -3    8.52    0.32
  -3   8   3    8.15    0.67
  -3   8   3    7.45    0.35
  -3   8   3    8.24    0.34
  -3   8   3    7.43    0.33
   2  -8  -3   13.04    0.46
  -2   8   3   12.16    0.83
  -2   8   3   12.47    0.46
  -2   8   3   11.91    0.48
   1  -8  -3    4.87    0.28
  -1   8   3    4.52    0.50
  -1   8   3    4.61    0.29
  -1   8   3    4.50    0.27
   0  -8  -3   10.50    0.45
   0   8   3   10.47    0.47
   0   8   3   10.74    0.44
   0   8   3   11.07    0.79
  -1  -8  -3    2.12    0.24
   1   8   3    2.14    0.45
   1   8   3    2.13    0.26
  -2  -8  -3    0.78    0.18
   2   8   3    0.87    0.41
   2   8   3    0.71    0.19
  -3  -8  -3    4.01    0.32
  -3  -8  -3    3.88    0.36
   3   8   3    4.62    0.39
  -4  -8  -3    2.24    0.31
   4   8   3    2.63    0.33
  -5  -8  -3    1.37    0.28
   5   8   3    1.11    0.26
 -11   9   3    1.01    0.13
 -10   9   3    0.80    0.11
 -10   9   3    0.80    0.12
  -9   9   3    0.78    0.11
  -9   9   3    1.14    0.13
  -9   9   3    0.88    0.12
  -8   9   3    1.51    0.15
  -8   9   3    1.65    0.15
  -8   9   3    1.36    0.14
  -7   9   3    0.23    0.09
  -7   9   3    0.46    0.10
  -7   9   3   -0.02    0.26
  -7   9   3    0.29    0.09
  -6   9   3    1.61    0.17
  -6   9   3    1.89    0.43
  -6   9   3    1.54    0.16
  -6   9   3    1.53    0.17
  -6   9   3    1.65    0.16
  -5   9   3    0.10    0.22
  -5   9   3   -0.02    0.09
  -5   9   3    0.05    0.08
  -4   9   3    1.70    0.20
  -4   9   3    1.91    0.19
  -4   9   3    1.84    0.40
  -3   9   3    1.85    0.40
  -3   9   3    1.76    0.19
  -3   9   3    1.47    0.19
   2  -9  -3    2.02    0.20
  -2   9   3    1.84    0.20
  -2   9   3    1.99    0.43
  -2   9   3    2.11    0.24
   1  -9  -3    3.33    0.25
  -1   9   3    3.23    0.30
  -1   9   3    2.87    0.25
  -1   9   3    3.18    0.50
   0  -9  -3    3.81    0.28
   0   9   3    3.81    0.34
   0   9   3    3.89    0.29
   0   9   3    4.16    0.53
  -1  -9  -3    3.61    0.33
   1   9   3    3.93    0.62
   1   9   3    3.54    0.35
  -2  -9  -3    0.38    0.16
   2   9   3    0.15    0.17
   2   9   3   -0.09    0.39
  -3  -9  -3    0.77    0.21
   3   9   3    0.74    0.23
 -10  10   3    1.40    0.16
  -9  10   3    0.58    0.40
  -9  10   3    0.29    0.10
  -8  10   3    1.16    0.15
  -8  10   3    1.09    0.15
  -8  10   3    1.04    0.43
  -7  10   3    3.28    0.58
  -7  10   3    3.18    0.24
  -7  10   3    3.53    0.24
  -6  10   3    2.72    0.53
  -6  10   3    2.47    0.22
  -6  10   3    2.19    0.23
  -6  10   3    2.26    0.22
  -5  10   3    2.45    0.51
  -5  10   3    2.46    0.22
  -5  10   3    2.40    0.24
  -4  10   3    1.19    0.17
  -4  10   3    2.02    0.45
  -4  10   3    1.24    0.20
  -3  10   3    2.03    0.44
  -3  10   3    1.61    0.20
  -3  10   3    1.37    0.21
  -2  10   3    0.55    0.26
  -2  10   3    0.41    0.15
  -2  10   3    0.68    0.15
  -1  10   3    2.01    0.25
  -1  10   3    2.74    0.49
  -1  10   3    1.74    0.25
   0 -10  -3    1.28    0.21
   0  10   3    1.39    0.41
   0  10   3    1.39    0.25
  -1 -10  -3    0.76    0.18
   1  10   3    0.77    0.22
   1  10   3    0.88    0.46
  -2 -10  -3    0.17    0.15
   2  10   3    0.13    0.18
  -9  11   3    0.19    0.11
  -9  11   3    0.35    0.33
  -8  11   3    0.09    0.10
  -8  11   3   -0.15    0.26
  -8  11   3    0.05    0.11
  -7  11   3    2.60    0.56
  -7  11   3    2.60    0.25
  -7  11   3    2.70    0.24
  -6  11   3    1.54    0.20
  -6  11   3    2.23    0.52
  -6  11   3    1.36    0.21
  -6  11   3    1.29    0.20
  -5  11   3    1.82    0.48
  -5  11   3    1.50    0.20
  -5  11   3    1.40    0.21
  -4  11   3    1.56    0.44
  -4  11   3    0.94    0.18
  -4  11   3    0.83    0.20
  -3  11   3    0.45    0.15
  -3  11   3    0.58    0.30
  -3  11   3    0.62    0.18
  -2  11   3    0.60    0.29
  -2  11   3    0.43    0.18
  -1  11   3    0.79    0.32
  -1  11   3    0.06    0.17
   0  11   3    1.01    0.23
   0  11   3    1.40    0.48
  -6  12   3    0.94    0.19
  -6  12   3    0.94    0.40
  -6  12   3    0.83    0.19
  -6  12   3    0.83    0.18
  -5  12   3    0.25    0.15
  -5  12   3    0.76    0.37
  -5  12   3    0.34    0.16
  -5  12   3    0.16    0.15
  -4  12   3    0.69    0.31
  -4  12   3    0.52    0.16
  -4  12   3    0.09    0.16
  -3  12   3    0.39    0.19
  -3  12  -4    0.03    0.17
  -4  12  -4    0.81    0.23
  -5  12  -4    1.47    0.26
  -6  12  -4    1.23    0.23
   0  11  -4    1.43    0.28
   0 -11   4    1.03    0.22
  -1  11  -4    1.72    0.28
   1 -11   4    2.08    0.28
   1 -11   4    1.87    0.25
  -2  11  -4    0.92    0.23
   2 -11   4    0.42    0.14
   2 -11   4    0.74    0.19
  -3  11  -4    2.09    0.42
  -3  11  -4    1.84    0.28
   3 -11   4    1.92    0.22
   3 -11   4    1.75    0.25
  -4  11  -4    0.70    0.21
  -5  11  -4    5.47    0.41
  -6  11  -4    2.11    0.26
  -6  11  -4    1.85    0.26
  -7  11  -4    0.95    0.22
  -7  11  -4    0.66    0.18
  -8  11  -4    0.29    0.14
  -8  11  -4    0.45    0.18
   2  10  -4    0.09    0.18
  -2 -10   4    0.41    0.19
   1  10  -4    0.20    0.17
  -1 -10   4    0.09    0.15
   0  10  -4    1.36    0.25
   0 -10   4    2.08    0.25
   0 -10   4    2.29    0.28
  -1  10  -4    2.99    0.32
   1 -10   4    3.21    0.30
   1 -10   4    3.13    0.32
  -2  10  -4    4.11    0.36
  -2  10  -4    3.86    0.45
   2 -10   4    3.91    0.32
   2 -10   4    4.02    0.29
  -3  10  -4    1.37    0.23
   3 -10   4    1.78    0.23
   3 -10   4    1.99    0.21
  -4  10  -4    1.28    0.19
  -4  10  -4    1.08    0.21
   4 -10   4    1.12    0.19
   4 -10   4    1.20    0.16
  -5  10  -4    0.46    0.14
  -5  10  -4    0.34    0.15
   5 -10   4    0.64    0.13
  -6  10  -4    1.12    0.18
  -6  10  -4    1.24    0.22
  -7  10  -4    0.02    0.13
  -7  10  -4    0.03    0.11
  -8  10  -4    0.72    0.18
  -8  10  -4    0.86    0.18
  -9  10  -4    0.18    0.14
  -9  10  -4    0.01    0.12
   4   9  -4    0.26    0.18
   4   9  -4    0.35    0.19
  -4  -9   4    0.43    0.20
   3   9  -4    0.35    0.19
   3   9  -4    0.30    0.18
  -3  -9   4    0.53    0.20
   2   9  -4    0.49    0.18
   2   9  -4    0.22    0.16
  -2  -9   4    0.24    0.16
  -2  -9   4    0.60    0.18
   1   9  -4    0.31    0.17
  -1  -9   4    0.27    0.15
  -1  -9   4    0.22    0.13
   0   9  -4   -0.01    0.14
   0  -9   4    0.12    0.13
   0  -9   4    0.00    0.10
  -1   9  -4    3.24    0.36
  -1   9  -4    2.96    0.30
   1  -9   4    3.42    0.29
   1  -9   4    3.14    0.25
  -2   9  -4    4.25    0.33
   2  -9   4    4.48    0.28
   2  -9   4    4.60    0.31
  -3   9  -4    2.32    0.23
  -3   9  -4    2.94    0.24
  -3   9  -4    2.51    0.27
   3  -9   4    2.43    0.22
   3  -9   4    2.59    0.25
  -4   9  -4    1.38    0.20
  -4   9  -4    1.89    0.20
   4  -9   4    1.56    0.20
   4  -9   4    1.81    0.18
  -5   9  -4    2.28    0.22
  -5   9  -4    2.56    0.26
   5  -9   4    2.95    0.24
   5  -9   4    2.56    0.19
  -6   9  -4    0.38    0.14
  -6   9  -4    0.41    0.13
   6  -9   4    0.39    0.11
  -7   9  -4    1.05    0.18
  -7   9  -4    0.94    0.18
  -8   9  -4    0.62    0.15
  -8   9  -4    0.50    0.16
  -9   9  -4    1.35    0.22
  -9   9  -4    0.76    0.17
 -10   9  -4    0.71    0.18
 -10   9  -4    0.40    0.15
   5   8  -4    1.87    0.28
   5   8  -4    1.83    0.27
  -5  -8   4    1.57    0.27
   4   8  -4    0.76    0.20
   4   8  -4    0.28    0.16
  -4  -8   4    0.33    0.17
   3   8  -4    3.26    0.32
   3   8  -4    2.67    0.29
  -3  -8   4    3.19    0.30
  -3  -8   4    3.37    0.32
   2   8  -4    1.51    0.23
   2   8  -4    2.30    0.27
  -2  -8   4    2.17    0.24
  -2  -8   4    1.85    0.25
   1   8  -4   10.86    0.51
   1   8  -4   11.39    0.51
  -1  -8   4   11.05    0.50
  -1  -8   4   11.39    0.48
   0   8  -4    2.85    0.29
   0   8  -4    2.22    0.25
   0  -8   4    2.65    0.26
   0  -8   4    3.00    0.25
  -1   8  -4    8.98    0.43
  -1   8  -4    9.94    0.41
  -1   8  -4    9.77    0.41
   1  -8   4    9.56    0.43
   1  -8   4    9.79    0.40
  -2   8  -4   21.38    0.75
  -2   8  -4   22.64    0.72
  -2   8  -4   23.30    0.72
   2  -8   4   22.02    0.73
   2  -8   4   23.63    0.69
  -3   8  -4    0.34    0.13
  -3   8  -4    0.22    0.10
  -3   8  -4    0.32    0.11
   3  -8   4    0.35    0.10
   3  -8   4    0.43    0.13
  -4   8  -4    3.53    0.24
  -4   8  -4    3.79    0.27
   4  -8   4    3.34    0.24
   4  -8   4    3.35    0.21
  -5   8  -4    1.68    0.19
  -5   8  -4    1.76    0.21
   5  -8   4    2.16    0.18
   5  -8   4    2.20    0.21
  -6   8  -4    2.60    0.24
  -6   8  -4    2.40    0.24
   6  -8   4    2.57    0.17
   6  -8   4    2.51    0.21
  -7   8  -4    0.98    0.17
  -7   8  -4    0.95    0.16
  -8   8  -4    1.11    0.18
  -8   8  -4    1.10    0.19
  -9   8  -4    1.31    0.19
  -9   8  -4    1.36    0.21
 -10   8  -4    0.20    0.14
 -10   8  -4    0.12    0.11
 -11   8  -4    0.10    0.13
 -11   8  -4    0.03    0.12
  -6  -7   4    0.80    0.21
   5   7  -4    3.52    0.33
   5   7  -4    3.70    0.34
  -5  -7   4    3.79    0.34
  -5  -7   4    2.87    0.32
   4   7  -4    4.02    0.33
   4   7  -4    3.99    0.32
  -4  -7   4    4.08    0.33
  -4  -7   4    4.22    0.32
   3   7  -4    0.82    0.18
   3   7  -4    0.76    0.16
  -3  -7   4    0.94    0.18
  -3  -7   4    0.72    0.17
   2   7  -4    7.89    0.41
   2   7  -4    7.86    0.40
  -2  -7   4    9.17    0.41
  -2  -7   4    8.10    0.41
   1   7  -4    1.53    0.15
   1   7  -4    1.41    0.19
   1   7  -4    1.33    0.20
   1   7  -4    1.52    0.18
  -1  -7   4    1.43    0.19
  -1  -7   4    1.13    0.17
   0   7  -4    5.05    0.31
   0   7  -4    5.77    0.28
   0   7  -4    5.74    0.39
   0   7  -4    5.44    0.28
   0  -7   4    5.53    0.31
   0  -7   4    5.31    0.29
  -1   7  -4    4.07    0.24
  -1   7  -4    4.36    0.24
  -1   7  -4    4.07    0.27
   1  -7   4    4.18    0.25
   1  -7   4    4.18    0.26
  -2   7  -4   31.03    0.94
  -2   7  -4   31.39    0.90
  -2   7  -4   32.26    0.91
   2  -7   4   30.92    0.86
   2  -7   4   31.12    0.92
  -3   7  -4    7.14    0.32
  -3   7  -4    7.04    0.35
   3  -7   4    7.20    0.33
   3  -7   4    7.35    0.31
  -4   7  -4    0.19    0.10
  -4   7  -4    0.07    0.08
   4  -7   4    0.17    0.09
   4  -7   4    0.17    0.08
  -5   7  -4    3.38    0.23
  -5   7  -4    3.20    0.25
   5  -7   4    3.57    0.20
   5  -7   4    3.65    0.24
  -6   7  -4    0.11    0.09
  -6   7  -4    0.06    0.08
   6  -7   4   -0.01    0.07
   6  -7   4    0.00    0.05
  -7   7  -4    0.52    0.13
  -7   7  -4    0.65    0.14
   7  -7   4    0.73    0.10
   7  -7   4    0.69    0.13
  -8   7  -4    1.74    0.21
  -8   7  -4    2.08    0.21
  -9   7  -4    3.03    0.28
  -9   7  -4    2.60    0.25
 -10   7  -4    0.24    0.13
 -10   7  -4    0.12    0.13
 -11   7  -4    0.11    0.14
 -11   7  -4   -0.07    0.12
  -7  -6   4   -0.03    0.14
   6   6  -4    0.61    0.15
   6   6  -4    0.57    0.16
  -6  -6   4    0.69    0.19
  -6  -6   4    0.51    0.17
   5   6  -4    2.62    0.27
   5   6  -4    2.72    0.27
  -5  -6   4    2.94    0.29
  -5  -6   4    3.60    0.32
   4   6  -4    1.95    0.23
   4   6  -4    1.53    0.21
  -4  -6   4    1.49    0.18
  -4  -6   4    1.46    0.20
  -4  -6   4    1.47    0.20
   3   6  -4    6.73    0.36
   3   6  -4    6.29    0.35
  -3  -6   4    7.07    0.33
  -3  -6   4    7.32    0.36
  -3  -6   4    6.80    0.35
   2   6  -4    4.09    0.28
   2   6  -4    4.36    0.20
   2   6  -4    4.55    0.28
  -2  -6   4    4.60    0.25
  -2  -6   4    4.17    0.27
  -2  -6   4    4.05    0.27
   1   6  -4    3.73    0.26
   1   6  -4    3.06    0.24
   1   6  -4    3.50    0.19
   1   6  -4    3.47    0.20
   1   6  -4    3.31    0.24
   1   6  -4    3.54    0.21
  -1  -6   4    3.30    0.21
  -1  -6   4    3.11    0.23
  -1  -6   4    3.08    0.22
   0   6  -4    6.36    0.28
   0   6  -4    5.94    0.27
   0   6  -4    5.79    0.31
   0  -6   4    6.14    0.30
   0  -6   4    6.32    0.29
   0  -6   4    6.31    0.28
  -1   6  -4   16.20    0.55
  -1   6  -4   15.67    0.51
  -1   6  -4   15.90    0.52
   1  -6   4   15.61    0.54
   1  -6   4   16.84    0.51
   1  -6   4   16.08    0.51
  -2   6  -4   36.09    1.05
  -2   6  -4   39.09    1.03
  -2   6  -4   37.37    1.03
   2  -6   4   38.07    0.98
   2  -6   4   38.73    1.02
   2  -6   4   37.72    1.05
  -3   6  -4   29.04    0.82
  -3   6  -4   28.69    0.85
  -3   6  -4   30.19    0.83
   3  -6   4   28.08    0.83
   3  -6   4   28.25    0.77
   3  -6   4   29.15    0.80
  -4   6  -4    0.04    0.09
  -4   6  -4    0.15    0.08
  -4   6  -4    0.14    0.07
   4  -6   4    0.08    0.07
   4  -6   4    0.22    0.09
  -5   6  -4   10.51    0.39
  -5   6  -4   10.32    0.39
  -5   6  -4   10.75    0.42
   5  -6   4    9.91    0.35
   5  -6   4   10.78    0.40
  -6   6  -4    3.55    0.23
  -6   6  -4    2.81    0.23
   6  -6   4    3.59    0.19
   6  -6   4    3.30    0.21
  -7   6  -4    2.63    0.23
  -7   6  -4    2.04    0.19
   7  -6   4    2.41    0.16
   7  -6   4    2.21    0.18
  -8   6  -4    3.09    0.25
  -8   6  -4    2.82    0.23
  -9   6  -4    0.33    0.12
  -9   6  -4    0.08    0.12
 -10   6  -4    0.19    0.13
 -10   6  -4    0.04    0.10
 -11   6  -4   -0.09    0.12
 -11   6  -4   -0.01    0.11
  -8  -5   4    0.24    0.16
  -7  -5   4    0.26    0.15
  -7  -5   4    0.36    0.13
  -7  -5   4    0.25    0.14
   6   5  -4    1.69    0.21
   6   5  -4    1.72    0.20
  -6  -5   4    1.70    0.20
  -6  -5   4    1.94    0.25
  -6  -5   4    1.84    0.23
   5   5  -4    1.83    0.21
   5   5  -4    2.57    0.24
  -5  -5   4    1.92    0.22
  -5  -5   4    2.37    0.21
  -5  -5   4    2.00    0.22
   4   5  -4    8.71    0.39
   4   5  -4    8.82    0.39
  -4  -5   4    7.55    0.38
  -4  -5   4    8.23    0.39
  -4  -5   4    9.47    0.38
   3   5  -4    3.03    0.23
   3   5  -4    2.95    0.14
   3   5  -4    3.03    0.23
  -3  -5   4    3.16    0.21
  -3  -5   4    2.87    0.23
  -3  -5   4    2.82    0.23
   2   5  -4    1.01    0.10
   2   5  -4    1.07    0.15
   2   5  -4    0.98    0.14
   2   5  -4    1.09    0.12
   2   5  -4    0.85    0.11
  -2  -5   4    1.08    0.13
  -2  -5   4    0.89    0.12
  -2  -5   4    0.84    0.13
  -2  -5   4    0.69    0.12
   1   5  -4    0.05    0.08
   1   5  -4    0.01    0.03
   1   5  -4    0.02    0.03
   1   5  -4    0.14    0.07
  -1  -5   4   -0.03    0.05
  -1  -5   4    0.11    0.07
  -1  -5   4   -0.02    0.07
   0   5  -4    1.57    0.14
   0   5  -4    1.10    0.12
   0   5  -4    1.15    0.14
   0  -5   4    1.39    0.15
   0  -5   4    1.16    0.14
   0  -5   4    1.18    0.13
  -1   5  -4   10.01    0.35
  -1   5  -4    9.76    0.38
   1  -5   4    9.83    0.35
   1  -5   4    9.58    0.37
   1  -5   4   10.41    0.35
  -2   5  -4   19.41    0.58
  -2   5  -4   18.86    0.60
  -2   5  -4   20.10    0.58
   2  -5   4   18.51    0.55
   2  -5   4   19.88    0.60
  -3   5  -4   12.64    0.42
  -3   5  -4   12.40    0.44
  -3   5  -4   12.65    0.41
   3  -5   4   11.89    0.43
   3  -5   4   12.42    0.39
   3  -5   4   12.84    0.40
  -4   5  -4    5.73    0.28
  -4   5  -4    5.86    0.26
  -4   5  -4    5.77    0.25
   4  -5   4    5.67    0.24
   4  -5   4    5.68    0.23
   4  -5   4    5.84    0.27
  -5   5  -4    7.99    0.32
  -5   5  -4    7.10    0.33
  -5   5  -4    7.82    0.31
   5  -5   4    7.48    0.31
  -6   5  -4   12.08    0.43
  -6   5  -4   13.05    0.44
  -6   5  -4   12.04    0.46
   6  -5   4   11.81    0.43
  -7   5  -4    4.10    0.27
  -7   5  -4    4.64    0.26
   7  -5   4    4.48    0.24
  -8   5  -4    2.23    0.21
  -8   5  -4    2.30    0.24
   8  -5   4    2.55    0.20
  -9   5  -4    0.23    0.11
  -9   5  -4    0.14    0.12
 -10   5  -4    0.85    0.18
 -10   5  -4    0.66    0.16
 -11   5  -4    0.06    0.14
 -11   5  -4    0.10    0.13
  -9  -4   4    0.84    0.21
  -9  -4   4    0.57    0.17
  -8  -4   4    4.99    0.36
  -8  -4   4    5.19    0.37
  -8  -4   4    4.70    0.33
  -7  -4   4    0.00    0.11
  -7  -4   4    0.09    0.12
  -7  -4   4    0.19    0.11
   6   4  -4    2.48    0.21
   6   4  -4    1.74    0.19
  -6  -4   4    2.25    0.24
  -6  -4   4    2.21    0.21
  -6  -4   4    2.33    0.24
   5   4  -4    3.66    0.24
   5   4  -4    3.61    0.24
  -5  -4   4    3.32    0.23
  -5  -4   4    3.70    0.26
  -5  -4   4    3.31    0.24
   4   4  -4    5.43    0.28
   4   4  -4    5.13    0.28
  -4  -4   4    5.20    0.26
  -4  -4   4    4.74    0.27
  -4  -4   4    4.95    0.27
   3   4  -4    2.91    0.16
   3   4  -4    2.76    0.11
   3   4  -4    2.99    0.20
   3   4  -4    2.29    0.19
  -3  -4   4    1.86    0.18
  -3  -4   4    2.73    0.18
  -3  -4   4    2.66    0.20
  -3  -4   4    3.10    0.19
   2   4  -4    6.91    0.26
   2   4  -4    6.59    0.29
   2   4  -4    6.99    0.23
   2   4  -4    6.47    0.29
  -2  -4   4    6.72    0.29
  -2  -4   4    7.20    0.28
  -2  -4   4    6.62    0.27
  -2  -4   4    7.26    0.30
   1   4  -4   31.33    0.88
  -1  -4   4   31.36    0.85
  -1  -4   4   31.97    0.88
  -1  -4   4   32.28    0.86
  -1  -4   4   31.25    0.84
   0   4  -4   12.24    0.39
   0   4  -4   12.83    0.42
   0  -4   4   12.40    0.40
   0  -4   4   12.81    0.40
   0  -4   4   12.23    0.40
   0  -4   4   12.29    0.42
  -1   4  -4   20.27    0.57
  -1   4  -4   20.35    0.57
  -1   4  -4   19.65    0.59
   1  -4   4   20.29    0.57
   1  -4   4   19.67    0.55
   1  -4   4   18.81    0.58
  -2   4  -4   22.91    0.67
  -2   4  -4   23.29    0.65
  -2   4  -4   23.36    0.64
   2  -4   4   23.30    0.66
   2  -4   4   22.25    0.62
  -3   4  -4   11.44    0.37
  -3   4  -4   10.72    0.36
  -3   4  -4   10.61    0.38
   3  -4   4   10.91    0.35
   3  -4   4   10.60    0.38
  -4   4  -4   23.64    0.68
  -4   4  -4   24.57    0.68
  -4   4  -4   23.34    0.70
   4  -4   4   23.74    0.69
   4  -4   4   24.67    0.66
  -5   4  -4   13.59    0.45
  -5   4  -4   13.57    0.48
  -5   4  -4   14.76    0.46
   5  -4   4   14.03    0.47
  -6   4  -4   13.31    0.44
  -6   4  -4   12.52    0.46
  -6   4  -4   12.25    0.43
   6  -4   4   12.48    0.44
  -7   4  -4    3.68    0.25
  -7   4  -4    4.05    0.24
   7  -4   4    4.28    0.24
  -8   4  -4    0.47    0.13
  -8   4  -4    0.46    0.12
   8  -4   4    0.58    0.11
  -9   4  -4    0.74    0.16
  -9   4  -4    0.67    0.15
 -10   4  -4    0.54    0.16
 -10   4  -4    0.37    0.14
 -11   4  -4    1.09    0.20
 -11   4  -4    0.95    0.18
  -9  -3   4    1.83    0.23
  -9  -3   4    1.42    0.22
  -9  -3   4    1.55    0.23
  -8  -3   4    8.98    0.43
  -8  -3   4   10.31    0.46
  -8  -3   4    9.31    0.44
  -7  -3   4    4.97    0.29
  -7  -3   4    5.37    0.32
  -7  -3   4    5.35    0.31
   6   3  -4    3.12    0.21
   6   3  -4    3.11    0.21
  -6  -3   4    3.02    0.24
  -6  -3   4    3.22    0.22
  -6  -3   4    3.10    0.24
   5   3  -4   30.10    0.86
   5   3  -4   30.53    0.86
  -5  -3   4   30.88    0.87
  -5  -3   4   30.81    0.86
  -5  -3   4   29.53    0.88
  -5  -3   4   29.59    0.85
   4   3  -4    4.82    0.24
   4   3  -4    4.59    0.24
  -4  -3   4    4.63    0.22
  -4  -3   4    4.74    0.25
  -4  -3   4    4.57    0.24
  -4  -3   4    4.32    0.22
   3   3  -4    9.75    0.35
   3   3  -4    9.81    0.35
  -3  -3   4    9.53    0.33
  -3  -3   4    9.62    0.34
  -3  -3   4    9.31    0.35
  -3  -3   4    9.67    0.35
   2   3  -4   26.65    0.71
   2   3  -4   26.28    0.74
   2   3  -4   27.13    0.72
  -2  -3   4   26.47    0.72
  -2  -3   4   26.53    0.74
  -2  -3   4   26.24    0.73
  -2  -3   4   27.28    0.73
   1   3  -4   50.11    1.20
   1   3  -4   48.76    1.25
   1   3  -4   49.79    1.23
  -1  -3   4   48.02    1.24
  -1  -3   4   48.45    1.25
  -1  -3   4   48.11    1.19
  -1  -3   4   49.94    1.25
   0   3  -4   13.90    0.43
   0  -3   4   13.38    0.41
   0  -3   4   13.43    0.42
   0  -3   4   14.04    0.41
   0  -3   4   13.79    0.41
  -1   3  -4    8.88    0.30
  -1   3  -4    9.06    0.30
  -1   3  -4    8.95    0.32
   1  -3   4    8.72    0.31
   1  -3   4    9.25    0.30
   1  -3   4    9.46    0.30
  -2   3  -4   61.01    1.50
  -2   3  -4   59.96    1.52
  -2   3  -4   59.83    1.50
   2  -3   4   60.76    1.52
   2  -3   4   59.83    1.50
  -3   3  -4   62.81    1.53
  -3   3  -4   60.42    1.53
  -3   3  -4   59.88    1.54
   3  -3   4   61.22    1.54
   3  -3   4   61.44    1.52
  -4   3  -4    8.96    0.35
  -4   3  -4    9.32    0.32
  -4   3  -4    9.22    0.33
   4  -3   4    9.55    0.31
   4  -3   4    9.28    0.34
  -5   3  -4   16.73    0.51
  -5   3  -4   17.13    0.52
  -5   3  -4   16.13    0.54
   5  -3   4   16.69    0.53
  -6   3  -4    1.92    0.16
  -6   3  -4    1.64    0.18
  -6   3  -4    1.72    0.16
   6  -3   4    1.57    0.16
  -7   3  -4    0.39    0.11
  -7   3  -4    0.37    0.10
   7  -3   4    0.24    0.09
  -8   3  -4    1.80    0.20
  -8   3  -4    1.55    0.20
   8  -3   4    1.80    0.18
  -9   3  -4    0.11    0.10
  -9   3  -4   -0.02    0.10
 -10   3  -4    0.78    0.17
 -10   3  -4    0.79    0.18
 -11   3  -4    0.60    0.17
 -11   3  -4    0.71    0.19
 -10  -2   4    0.66    0.17
 -10  -2   4    0.66    0.17
  -9  -2   4    1.00    0.19
  -9  -2   4    1.10    0.19
  -9  -2   4    1.13    0.18
  -8  -2   4    4.70    0.30
  -8  -2   4    4.47    0.29
  -8  -2   4    4.88    0.28
  -7  -2   4    0.62    0.14
  -7  -2   4    0.41    0.12
  -7  -2   4    0.65    0.12
   6   2  -4    2.65    0.18
   6   2  -4    2.49    0.17
  -6  -2   4    2.34    0.19
  -6  -2   4    2.55    0.18
  -6  -2   4    2.60    0.22
  -6  -2   4    2.40    0.18
   5   2  -4    2.48    0.16
   5   2  -4    2.36    0.17
  -5  -2   4    2.64    0.18
  -5  -2   4    2.15    0.15
  -5  -2   4    2.04    0.18
  -5  -2   4    2.34    0.16
   4   2  -4    1.36    0.13
  -4  -2   4    1.44    0.13
  -4  -2   4    1.21    0.11
  -4  -2   4    1.19    0.12
  -4  -2   4    0.97    0.12
   3   2  -4   31.92    0.81
   3   2  -4   31.13    0.82
  -3  -2   4   31.16    0.82
  -3  -2   4   30.06    0.83
  -3  -2   4   29.98    0.81
  -3  -2   4   30.84    0.81
   2   2  -4   66.34    1.60
   2   2  -4   66.67    1.63
   2   2  -4   67.56    1.56
  -2  -2   4   64.96    1.56
  -2  -2   4   65.30    1.63
  -2  -2   4   65.97    1.62
  -2  -2   4   65.51    1.62
   1   2  -4   33.04    0.87
   1   2  -4   33.44    0.85
   1   2  -4   35.40    1.36
  -1  -2   4   32.66    0.86
  -1  -2   4   32.88    0.87
  -1  -2   4   33.64    0.86
  -1  -2   4   33.23    0.84
  -1  -2   4   34.35    0.87
   0   2  -4   10.97    0.35
   0  -2   4   10.84    0.33
   0  -2   4   10.75    0.33
   0  -2   4   10.67    0.34
   0  -2   4   10.64    0.33
  -1   2  -4    0.47    0.08
  -1   2  -4    0.60    0.07
  -1   2  -4    0.50    0.07
   1  -2   4    0.45    0.07
   1  -2   4    0.34    0.07
   1  -2   4    0.44    0.06
  -2   2  -4  125.00    3.02
  -2   2  -4  127.60    3.01
  -2   2  -4  125.88    3.01
   2  -2   4  121.30    3.01
   2  -2   4  130.57    3.02
   2  -2   4  123.60    3.01
  -3   2  -4   37.94    0.95
  -3   2  -4   35.99    0.97
  -3   2  -4   35.70    0.95
   3  -2   4   35.91    0.96
  -4   2  -4   10.94    0.40
  -4   2  -4   11.92    0.38
  -4   2  -4   12.34    0.39
   4  -2   4   11.82    0.37
   4  -2   4   11.61    0.40
  -5   2  -4   12.40    0.45
  -5   2  -4   12.31    0.42
  -5   2  -4   14.04    0.43
   5  -2   4   13.14    0.40
   5  -2   4   12.30    0.43
  -6   2  -4    1.84    0.18
  -6   2  -4    2.20    0.17
  -6   2  -4    2.13    0.18
   6  -2   4    2.16    0.18
  -7   2  -4    0.13    0.09
  -7   2  -4    0.03    0.09
   7  -2   4   -0.03    0.07
  -8   2  -4   -0.02    0.09
  -8   2  -4    0.06    0.09
   8  -2   4    0.06    0.08
  -9   2  -4    0.20    0.12
  -9   2  -4    0.14    0.10
 -10   2  -4   -0.05    0.12
 -10   2  -4    0.07    0.12
 -11   2  -4    0.43    0.15
 -11   2  -4    0.75    0.20
 -10  -1   4    0.39    0.13
 -10  -1   4    0.36    0.13
  -9  -1   4    4.04    0.27
  -9  -1   4    3.44    0.25
  -9  -1   4    4.04    0.28
  -8  -1   4    2.76    0.22
  -8  -1   4    3.09    0.21
  -8  -1   4    3.02    0.22
  -7  -1   4    2.95    0.20
  -7  -1   4    2.60    0.21
  -7  -1   4    2.71    0.18
  -7  -1   4    2.57    0.18
   6   1  -4    0.24    0.06
  -6  -1   4    0.20    0.07
  -6  -1   4    0.11    0.06
  -6  -1   4    0.15    0.08
  -6  -1   4    0.04    0.08
   5   1  -4    0.93    0.12
   5   1  -4    1.25    0.10
  -5  -1   4    1.15    0.12
  -5  -1   4    1.17    0.12
  -5  -1   4    1.20    0.13
  -5  -1   4    1.02    0.10
  -5  -1   4    1.12    0.10
  -5  -1   4    1.06    0.12
   4   1  -4    9.78    0.33
   4   1  -4    9.69    0.31
  -4  -1   4    9.20    0.30
  -4  -1   4    9.55    0.32
  -4  -1   4    9.58    0.33
  -4  -1   4    9.44    0.30
  -4  -1   4   10.14    0.33
   3   1  -4    6.65    0.23
   3   1  -4    7.24    0.26
  -3  -1   4    7.75    0.26
  -3  -1   4    6.80    0.23
  -3  -1   4    7.09    0.25
  -3  -1   4    7.09    0.25
  -3  -1   4    6.88    0.31
  -3  -1   4    6.37    0.22
  -3  -1   4    7.01    0.23
   2   1  -4   43.27    1.08
   2   1  -4   42.09    1.01
   2   1  -4   42.46    1.72
  -2  -1   4   42.42    1.07
  -2  -1   4   42.21    1.04
  -2  -1   4   45.56    1.09
  -2  -1   4   42.84    1.07
  -2  -1   4   47.13    1.09
  -2  -1   4   42.48    1.08
   1   1  -4   19.69    0.54
   1   1  -4   19.47    0.85
   1   1  -4   20.06    0.51
  -1  -1   4   19.75    0.53
  -1  -1   4   20.10    0.54
  -1  -1   4   19.83    0.53
  -1  -1   4   20.69    0.55
  -1  -1   4   19.38    0.53
   0   1  -4   49.44    1.24
   0   1  -4   51.47    2.06
   0   1  -4   49.04    1.25
   0  -1   4   50.93    1.26
   0  -1   4   49.20    1.24
   0  -1   4   51.93    1.25
   0  -1   4   52.26    1.26
  -1   1  -4   77.43    1.93
  -1   1  -4   80.61    1.94
  -1   1  -4   80.19    1.93
   1  -1   4   81.14    1.93
   1  -1   4   78.91    1.93
   1  -1   4   80.42    1.94
  -2   1  -4   46.99    1.21
  -2   1  -4   47.43    1.19
  -2   1  -4   47.58    1.19
   2  -1   4   46.99    1.20
   2  -1   4   49.34    1.19
   2  -1   4   46.93    1.19
  -3   1  -4   29.78    0.79
  -3   1  -4   29.35    0.81
  -3   1  -4   30.69    0.79
   3  -1   4   28.87    0.80
  -4   1  -4    8.30    0.30
  -4   1  -4    8.00    0.32
  -4   1  -4    8.74    0.30
   4  -1   4    8.13    0.29
   4  -1   4    7.89    0.31
  -5   1  -4   15.06    0.48
  -5   1  -4   15.06    0.47
  -5   1  -4   14.41    0.50
   5  -1   4   14.73    0.45
   5  -1   4   15.27    0.49
  -6   1  -4   10.63    0.42
  -6   1  -4   10.41    0.40
  -6   1  -4   11.39    0.40
   6  -1   4   10.29    0.40
  -7   1  -4    7.16    0.33
  -7   1  -4    6.49    0.34
   7  -1   4    6.75    0.33
  -8   1  -4    3.22    0.25
  -8   1  -4    3.42    0.28
   8  -1   4    3.55    0.25
  -9   1  -4    2.58    0.27
  -9   1  -4    2.20    0.25
  -9   1  -4    2.36    0.23
 -10   1  -4    1.01    0.19
 -10   1  -4    0.27    0.13
 -10   1  -4    0.53    0.18
 -11   0   4    1.35    0.19
 -11   0   4    1.12    0.19
 -10   0   4    1.22    0.16
 -10   0   4    1.20    0.17
  -9   0   4    2.52    0.22
  -9   0   4    2.60    0.21
  -9   0   4    2.20    0.20
  -8   0   4    3.08    0.20
  -8   0   4    3.52    0.20
  -8   0   4    3.34    0.21
  -8   0   4    3.47    0.22
  -7   0   4    2.20    0.15
  -7   0   4    2.39    0.17
  -7   0   4    2.61    0.16
  -7   0   4    2.70    0.19
   6   0  -4    1.37    0.13
  -6   0   4    1.21    0.10
  -6   0   4    1.07    0.12
  -6   0   4    1.28    0.12
  -6   0   4    1.40    0.13
  -6   0   4    1.07    0.10
   5   0  -4    9.34    0.31
  -5   0   4    9.36    0.32
  -5   0   4    9.59    0.29
  -5   0   4    9.48    0.31
  -5   0   4    9.27    0.29
  -5   0   4   10.10    0.32
  -4   0   4   20.84    0.56
  -4   0   4   22.13    0.57
  -4   0   4   21.13    0.91
  -4   0   4   19.94    0.54
  -4   0   4   21.79    0.56
  -4   0   4   20.96    0.54
   3   0  -4   44.66    1.08
   3   0  -4   43.35    1.03
  -3   0   4   45.65    1.09
  -3   0   4   44.24    1.06
  -3   0   4   43.26    1.79
  -3   0   4   45.25    1.09
  -3   0   4   44.38    1.08
  -3   0   4   44.59    1.09
  -3   0   4   43.35    1.07
   2   0  -4   21.29    0.91
   2   0  -4   22.39    0.56
   2   0  -4   20.77    0.54
   2   0  -4   20.47    0.52
  -2   0   4   21.93    0.56
  -2   0   4   20.78    0.54
  -2   0   4   20.06    0.53
  -2   0   4   21.48    0.54
  -2   0   4   21.55    0.55
  -2   0   4   20.13    0.90
   1   0  -4   19.63    0.87
   1   0  -4   19.68    0.52
   1   0  -4   19.09    0.51
   1   0  -4   19.99    0.49
  -1   0   4   19.33    0.87
  -1   0   4   20.02    0.53
  -1   0   4   20.11    0.53
  -1   0   4   19.06    0.51
  -1   0   4   19.89    0.51
   0   0  -4   88.70    2.12
   0   0  -4   87.77    2.12
   0   0  -4   90.45    3.54
   0   0  -4   85.76    2.08
   0   0   4   88.81    2.13
   0   0   4   86.95    2.12
   0   0   4   86.64    2.12
   0   0   4   93.84    2.13
  -1   0  -4   92.62    2.22
  -1   0  -4   93.22    3.69
   1   0   4   94.06    2.22
   1   0   4   90.02    2.22
   1   0   4   89.23    2.21
  -2   0  -4   26.25    0.71
  -2   0  -4   25.86    0.68
  -2   0  -4   25.62    0.68
   2   0   4   25.26    0.68
   2   0   4   25.11    0.70
   2   0   4   25.69    0.69
  -3   0  -4   38.31    0.98
  -3   0  -4   37.86    0.98
  -3   0  -4   36.92    1.00
   3   0   4   38.14    0.97
   3   0   4   35.98    0.99
  -4   0  -4   21.36    0.59
  -4   0  -4   19.80    0.61
  -4   0  -4   19.60    0.59
   4   0   4   19.76    0.57
   4   0   4   20.31    0.61
  -5   0  -4    5.26    0.24
  -5   0  -4    4.68    0.24
  -5   0  -4    4.54    0.25
   5   0   4    4.87    0.26
   5   0   4    5.00    0.22
  -6   0  -4    2.02    0.19
  -6   0  -4    2.43    0.22
  -6   0  -4    2.22    0.22
   6   0   4    1.80    0.19
  -7   0  -4    3.61    0.27
  -7   0  -4    3.23    0.25
  -7   0  -4    3.84    0.25
   7   0   4    3.39    0.25
  -8   0  -4    2.21    0.23
  -8   0  -4    2.51    0.25
  -8   0  -4    2.45    0.26
   8   0   4    2.33    0.23
  -9   0  -4    1.82    0.25
  -9   0  -4    1.28    0.19
  -9   0  -4    1.53    0.22
 -10   0  -4    0.12    0.16
 -11   1   4    1.71    0.19
 -11   1   4    1.54    0.19
 -10   1   4    0.79    0.13
 -10   1   4    0.75    0.13
  -9   1   4    0.86    0.12
  -9   1   4    1.21    0.14
  -9   1   4    0.99    0.12
  -9   1   4    1.10    0.14
  -8   1   4    8.99    0.32
  -8   1   4    8.99    0.33
  -8   1   4    9.28    0.33
  -8   1   4    8.97    0.31
   7  -1  -4    5.28    0.22
  -7   1   4    5.59    0.17
  -7   1   4    4.92    0.20
  -7   1   4    4.90    0.22
  -7   1   4    5.15    0.20
  -7   1   4    5.14    0.22
  -6   1   4    6.02    0.20
  -6   1   4    5.92    0.20
  -6   1   4    6.34    0.24
  -6   1   4    6.24    0.22
  -6   1   4    6.45    0.19
  -6   1   4    6.27    0.22
  -5   1   4   23.66    0.59
  -5   1   4   21.88    0.55
  -5   1   4   22.05    0.58
  -5   1   4   21.66    0.55
  -5   1   4   22.79    0.56
  -5   1   4   22.79    0.58
  -4   1   4   14.79    0.40
  -4   1   4   14.81    0.71
  -4   1   4   14.71    0.39
  -4   1   4   14.97    0.41
  -4   1   4   14.96    0.39
   3  -1  -4   13.94    0.38
  -3   1   4   14.77    0.38
  -3   1   4   13.96    0.67
  -3   1   4   13.48    0.38
  -3   1   4   13.79    0.37
  -3   1   4   14.33    0.38
   2  -1  -4   57.31    2.31
   2  -1  -4   54.74    1.35
   2  -1  -4   59.52    1.35
  -2   1   4   56.04    1.35
  -2   1   4   54.87    2.31
  -2   1   4   58.56    1.37
  -2   1   4   56.57    1.35
  -2   1   4   58.23    1.37
  -2   1   4   54.77    1.35
   1  -1  -4    6.59    0.39
   1  -1  -4    6.39    0.21
   1  -1  -4    6.77    0.22
   1  -1  -4    6.08    0.22
  -1   1   4    6.44    0.22
  -1   1   4    6.73    0.22
  -1   1   4    6.36    0.20
  -1   1   4    5.91    0.38
  -1   1   4    6.82    0.23
  -1   1   4    6.24    0.20
   0  -1  -4   55.98    1.31
   0  -1  -4   52.56    1.31
   0  -1  -4   52.69    1.32
   0  -1  -4   54.04    2.23
   0   1   4   56.32    1.33
   0   1   4   53.48    1.33
   0   1   4   54.16    1.31
   0   1   4   53.22    2.23
   0   1   4   51.84    1.32
   0   1   4   53.57    1.32
  -1  -1  -4   11.37    0.35
  -1  -1  -4   11.23    0.35
  -1  -1  -4    9.42    0.32
   1   1   4   11.68    0.34
   1   1   4   11.99    0.34
  -2  -1  -4    2.91    0.15
  -2  -1  -4    2.91    0.17
  -2  -1  -4    2.69    0.16
   2   1   4    3.19    0.16
   2   1   4    2.92    0.17
   2   1   4    2.83    0.15
  -3  -1  -4   14.17    0.46
  -3  -1  -4   13.44    0.45
  -3  -1  -4   15.02    0.46
  -3  -1  -4   14.36    0.45
   3   1   4   14.23    0.47
   3   1   4   14.87    0.44
   3   1   4   14.28    0.44
  -4  -1  -4    1.31    0.15
  -4  -1  -4    1.12    0.14
  -4  -1  -4    1.47    0.14
  -4  -1  -4    1.39    0.14
   4   1   4    1.17    0.14
  -5  -1  -4    3.62    0.21
  -5  -1  -4    3.23    0.20
  -5  -1  -4    2.99    0.22
  -5  -1  -4    3.05    0.22
   5   1   4    3.36    0.19
   5   1   4    3.07    0.22
  -6  -1  -4    1.42    0.18
  -6  -1  -4    1.71    0.18
  -6  -1  -4    1.16    0.17
   6   1   4    1.64    0.19
  -7  -1  -4    5.48    0.30
  -7  -1  -4    4.46    0.31
  -7  -1  -4    5.14    0.30
   7   1   4    4.88    0.31
  -8  -1  -4    6.59    0.39
  -8  -1  -4    6.53    0.36
  -8  -1  -4    7.19    0.37
   8   1   4    7.02    0.38
  -9  -1  -4   -0.11    0.13
  -9  -1  -4    0.16    0.13
 -10  -1  -4    0.21    0.16
 -11   2   4    0.45    0.12
 -11   2   4    0.32    0.10
 -10   2   4    0.19    0.08
 -10   2   4    0.10    0.08
 -10   2   4    0.23    0.09
  -9   2   4    0.08    0.07
  -9   2   4    0.08    0.06
  -9   2   4    0.21    0.08
  -8   2   4    7.83    0.27
  -8   2   4    7.76    0.27
  -8   2   4    7.32    0.25
  -8   2   4    8.09    0.26
  -7   2   4    4.07    0.17
  -7   2   4    3.74    0.14
  -7   2   4    4.06    0.16
  -7   2   4    3.76    0.14
  -7   2   4    3.64    0.16
  -7   2   4    4.06    0.17
  -6   2   4    5.36    0.18
  -6   2   4    5.20    0.19
  -6   2   4    5.67    0.18
  -6   2   4    5.89    0.21
  -5   2   4   23.64    0.60
  -5   2   4   22.56    0.56
  -5   2   4   22.75    0.57
  -5   2   4   22.68    0.57
  -4   2   4   21.29    0.52
  -4   2   4   21.57    0.56
  -4   2   4   20.72    0.99
  -4   2   4   21.34    0.53
  -4   2   4   21.73    0.52
   3  -2  -4   26.13    0.70
  -3   2   4   27.31    1.22
  -3   2   4   27.43    0.70
  -3   2   4   27.67    0.67
  -3   2   4   27.69    0.67
   2  -2  -4   57.15    1.34
   2  -2  -4   54.12    1.36
   2  -2  -4   57.38    2.34
  -2   2   4   57.65    1.36
  -2   2   4   54.37    2.32
  -2   2   4   58.20    1.37
  -2   2   4   59.01    1.36
  -2   2   4   54.53    1.34
  -2   2   4   55.08    1.34
   1  -2  -4   38.10    1.68
   1  -2  -4   38.24    0.95
   1  -2  -4   36.85    0.93
  -1   2   4   37.38    0.93
  -1   2   4   39.55    0.95
  -1   2   4   37.49    0.95
  -1   2   4   38.50    0.95
  -1   2   4   36.85    0.93
  -1   2   4   36.41    1.62
   0  -2  -4   25.93    0.65
   0  -2  -4   25.27    0.67
   0  -2  -4   24.36    0.67
   0   2   4   24.36    1.16
   0   2   4   24.96    0.68
   0   2   4   25.39    0.66
   0   2   4   25.42    0.68
   0   2   4   24.74    0.66
   0   2   4   26.39    0.68
  -1  -2  -4   71.48    1.79
  -1  -2  -4   74.86    1.81
  -1  -2  -4   74.78    1.83
   1   2   4   72.11    1.82
   1   2   4   74.92    1.82
   1   2   4   77.15    1.80
   1   2   4   74.65    1.83
   1   2   4   73.45    3.06
  -2  -2  -4   46.26    1.21
  -2  -2  -4   44.89    1.18
  -2  -2  -4   48.46    1.19
   2   2   4   46.75    1.19
   2   2   4   47.11    1.20
   2   2   4   45.89    1.21
   2   2   4   46.35    1.15
  -3  -2  -4    5.94    0.27
  -3  -2  -4    6.29    0.26
  -3  -2  -4    5.57    0.26
   3   2   4    6.17    0.28
   3   2   4    6.16    0.25
  -4  -2  -4    1.89    0.18
  -4  -2  -4    2.13    0.16
  -4  -2  -4    1.68    0.17
   4   2   4    2.02    0.15
   4   2   4    1.89    0.19
  -5  -2  -4    1.40    0.18
  -5  -2  -4    1.63    0.18
   5   2   4    1.54    0.18
  -6  -2  -4    3.12    0.24
  -6  -2  -4    2.99    0.26
  -6  -2  -4    2.85    0.22
   6   2   4    2.92    0.26
  -7  -2  -4    3.63    0.27
  -7  -2  -4    3.67    0.26
  -7  -2  -4    3.53    0.30
   7   2   4    3.52    0.28
  -8  -2  -4    2.11    0.24
  -8  -2  -4    2.09    0.27
   8   2   4    2.01    0.25
  -9  -2  -4   -0.02    0.14
 -12   3   4    0.20    0.11
 -11   3   4   -0.07    0.07
 -10   3   4    0.26    0.08
 -10   3   4    0.21    0.07
 -10   3   4    0.31    0.08
  -9   3   4    1.15    0.10
  -9   3   4    1.27    0.11
  -9   3   4    1.22    0.11
  -8   3   4    3.25    0.12
  -8   3   4    3.74    0.14
  -8   3   4    3.44    0.19
  -8   3   4    3.46    0.13
  -8   3   4    3.46    0.15
  -7   3   4   10.19    0.34
  -7   3   4   10.01    0.28
  -7   3   4    9.70    0.27
  -6   3   4    4.22    0.15
  -6   3   4    4.54    0.20
  -5   3   4    4.79    0.20
  -5   3   4    4.68    0.15
  -4   3   4    3.43    0.17
  -4   3   4    2.98    0.29
   3  -3  -4    0.17    0.06
  -3   3   4    0.16    0.04
  -3   3   4    0.24    0.06
  -3   3   4    0.14    0.11
  -3   3   4    0.17    0.04
   2  -3  -4    5.12    0.17
   2  -3  -4    4.64    0.21
  -2   3   4    5.12    0.18
  -2   3   4    5.01    0.22
  -2   3   4    4.87    0.18
  -2   3   4    4.67    0.37
  -2   3   4    4.90    0.16
  -2   3   4    4.65    0.16
   1  -3  -4   21.58    0.57
   1  -3  -4   20.61    0.60
  -1   3   4   22.89    0.59
  -1   3   4   21.83    0.57
  -1   3   4   20.98    0.57
  -1   3   4   21.29    0.59
  -1   3   4   20.49    1.02
  -1   3   4   21.69    0.60
   0  -3  -4    6.50    0.21
   0  -3  -4    5.88    0.25
   0  -3  -4    6.24    0.24
   0   3   4    6.59    0.24
   0   3   4    5.41    0.43
   0   3   4    6.04    0.23
   0   3   4    6.09    0.25
   0   3   4    6.56    0.26
   0   3   4    6.38    0.23
  -1  -3  -4   97.02    2.39
  -1  -3  -4  100.52    2.37
  -1  -3  -4   93.23    2.34
   1   3   4  102.13    2.35
   1   3   4   96.20    2.38
   1   3   4   96.15    2.39
   1   3   4   96.77    3.99
   1   3   4   98.60    2.26
   1   3   4   98.04    2.38
  -2  -3  -4   16.32    0.52
  -2  -3  -4   15.33    0.51
   2   3   4   15.97    0.51
   2   3   4   17.19    0.50
   2   3   4   15.80    0.52
   2   3   4   16.04    0.50
  -3  -3  -4    4.60    0.26
  -3  -3  -4    5.01    0.26
  -3  -3  -4    5.01    0.24
   3   3   4    4.52    0.26
   3   3   4    4.97    0.24
  -4  -3  -4    3.36    0.23
  -4  -3  -4    3.22    0.21
  -4  -3  -4    3.29    0.24
   4   3   4    3.58    0.21
   4   3   4    3.23    0.24
  -5  -3  -4    5.89    0.34
  -5  -3  -4    5.76    0.31
  -5  -3  -4    6.22    0.30
   5   3   4    6.23    0.34
  -6  -3  -4    7.08    0.35
  -6  -3  -4    6.59    0.38
   6   3   4    6.88    0.38
  -7  -3  -4    1.48    0.21
  -7  -3  -4    1.55    0.24
   7   3   4    1.52    0.22
  -8  -3  -4    1.02    0.22
   8   3   4    1.42    0.23
  -9  -3  -4    0.24    0.19
 -12   4   4    0.24    0.10
 -11   4   4    0.29    0.08
 -11   4   4    0.37    0.08
 -10   4   4    0.81    0.09
 -10   4   4    1.35    0.11
  -9   4   4    0.60    0.06
  -9   4   4    0.65    0.06
  -8   4   4    0.56    0.10
  -7   4   4    9.66    0.35
  -6   4   4    7.81    0.30
  -5   4   4   15.26    0.83
  -5   4   4   14.80    0.37
  -5   4   4   15.26    0.47
  -4   4   4    1.38    0.08
  -4   4   4    1.59    0.08
  -4   4   4    1.28    0.23
  -4   4   4    1.94    0.16
   3  -4  -4    8.66    0.33
   3  -4  -4    9.39    0.25
  -3   4   4    9.38    0.27
  -3   4   4    8.57    0.57
  -3   4   4    9.93    0.34
  -3   4   4    8.93    0.28
  -3   4   4    9.25    0.28
  -3   4   4    8.62    0.25
  -3   4   4    8.97    0.25
   2  -4  -4   13.95    0.39
   2  -4  -4   13.65    0.45
  -2   4   4   13.68    0.39
  -2   4   4   14.07    0.45
  -2   4   4   13.21    0.39
  -2   4   4   14.22    0.40
  -2   4   4   14.12    0.41
  -2   4   4   14.05    0.77
  -2   4   4   14.84    0.42
   1  -4  -4    7.11    0.29
   1  -4  -4    7.88    0.27
  -1   4   4    7.39    0.30
  -1   4   4    7.90    0.28
  -1   4   4    7.83    0.26
  -1   4   4    7.33    0.26
  -1   4   4    7.77    0.27
  -1   4   4    7.10    0.51
   0  -4  -4   34.37    0.94
   0  -4  -4   35.14    0.94
   0  -4  -4   36.85    0.91
   0   4   4   35.11    0.93
   0   4   4   36.05    0.91
   0   4   4   34.40    0.93
   0   4   4   34.21    1.61
   0   4   4   34.75    0.95
   0   4   4   36.57    0.95
  -1  -4  -4   34.33    0.88
  -1  -4  -4   32.54    0.91
  -1  -4  -4   32.72    0.91
   1   4   4   33.84    0.90
   1   4   4   32.50    0.90
   1   4   4   32.44    0.92
   1   4   4   32.33    1.54
  -2  -4  -4   35.99    1.00
  -2  -4  -4   35.69    0.98
   2   4   4   35.52    1.67
   2   4   4   34.92    0.97
   2   4   4   36.44    1.00
   2   4   4   35.39    1.01
  -3  -4  -4    7.40    0.30
  -3  -4  -4    6.54    0.33
  -3  -4  -4    6.76    0.32
   3   4   4    6.46    0.29
   3   4   4    7.00    0.34
  -4  -4  -4   17.40    0.59
  -4  -4  -4   17.42    0.62
   4   4   4   17.93    0.63
  -5  -4  -4    5.12    0.30
  -5  -4  -4    4.92    0.33
   5   4   4    4.89    0.33
  -6  -4  -4    3.67    0.34
  -6  -4  -4    3.29    0.27
   6   4   4    3.29    0.31
  -7  -4  -4    0.21    0.14
  -7  -4  -4    0.15    0.16
   7   4   4    0.02    0.14
  -8  -4  -4    0.98    0.24
   8   4   4    1.24    0.23
 -12   5   4    0.98    0.13
 -11   5   4    1.24    0.12
 -11   5   4    1.29    0.12
 -10   5   4    4.83    0.19
 -10   5   4    5.03    0.19
  -5   5   4    1.29    0.07
  -5   5   4    1.24    0.08
  -5   5   4    1.17    0.09
  -5   5   4    1.44    0.29
  -4   5   4    1.22    0.09
  -4   5   4    1.32    0.10
  -4   5   4    1.21    0.10
  -4   5   4    1.15    0.07
  -4   5   4    1.18    0.08
  -4   5   4    1.22    0.26
   3  -5  -4   16.64    0.44
  -3   5   4   17.25    0.47
  -3   5   4   16.67    0.45
  -3   5   4   15.99    0.45
  -3   5   4   16.09    0.47
  -3   5   4   15.64    0.89
  -3   5   4   16.33    0.45
   2  -5  -4   34.80    0.88
   2  -5  -4   32.98    0.93
  -2   5   4   32.60    0.88
  -2   5   4   32.71    0.90
  -2   5   4   36.21    0.91
  -2   5   4   34.89    0.86
  -2   5   4   33.67    1.59
  -2   5   4   34.24    0.89
   1  -5  -4    2.23    0.18
   1  -5  -4    2.38    0.16
  -1   5   4    1.86    0.16
  -1   5   4    2.15    0.14
  -1   5   4    1.88    0.14
  -1   5   4    2.20    0.31
  -1   5   4    2.41    0.16
   0  -5  -4   10.27    0.37
   0  -5  -4    9.51    0.38
   0   5   4    9.70    0.35
   0   5   4    9.77    0.37
   0   5   4    9.51    0.65
   0   5   4   10.30    0.36
  -1  -5  -4    8.62    0.37
  -1  -5  -4    9.46    0.33
  -1  -5  -4    9.25    0.36
   1   5   4    8.06    0.64
   1   5   4    9.42    0.35
   1   5   4    8.89    0.35
   1   5   4    8.55    0.37
  -2  -5  -4    4.96    0.28
  -2  -5  -4    5.03    0.28
   2   5   4    5.56    0.27
   2   5   4    5.37    0.30
   2   5   4    5.41    0.55
  -3  -5  -4   10.02    0.44
  -3  -5  -4   10.53    0.43
   3   5   4    9.84    0.40
   3   5   4   10.48    0.45
  -4  -5  -4    2.88    0.26
  -4  -5  -4    3.56    0.28
   4   5   4    3.18    0.29
  -5  -5  -4    4.68    0.34
  -5  -5  -4    4.68    0.32
   5   5   4    4.23    0.34
  -6  -5  -4    0.14    0.14
  -6  -5  -4    0.08    0.12
   6   5   4   -0.04    0.14
  -7  -5  -4    0.82    0.24
   7   5   4    0.55    0.20
 -12   6   4    0.61    0.10
 -12   6   4    0.47    0.10
 -11   6   4   -0.03    0.06
 -11   6   4    0.03    0.06
 -10   6   4    0.01    0.04
 -10   6   4    0.07    0.05
  -6   6   4    0.23    0.21
  -6   6   4    0.16    0.05
  -6   6   4    0.22    0.05
  -6   6   4    0.09    0.03
  -5   6   4    2.87    0.39
  -5   6   4    3.07    0.15
  -5   6   4    2.95    0.12
  -5   6   4    2.97    0.15
  -5   6   4    2.95    0.13
  -5   6   4    3.08    0.13
   4  -6  -4    2.59    0.10
  -4   6   4    2.44    0.38
  -4   6   4    2.43    0.15
  -4   6   4    2.29    0.13
  -4   6   4    2.42    0.15
  -4   6   4    2.32    0.13
  -4   6   4    2.42    0.13
   3  -6  -4   15.15    0.43
  -3   6   4   14.51    0.44
  -3   6   4   13.77    0.86
  -3   6   4   14.37    0.44
  -3   6   4   15.37    0.43
  -3   6   4   14.47    0.46
  -3   6   4   15.65    0.47
   2  -6  -4   12.91    0.48
   2  -6  -4   14.14    0.44
  -2   6   4   13.83    0.43
  -2   6   4   13.37    0.82
  -2   6   4   12.91    0.45
  -2   6   4   13.43    0.43
  -2   6   4   14.77    0.43
   1  -6  -4    2.35    0.18
   1  -6  -4    2.30    0.21
  -1   6   4    2.34    0.19
  -1   6   4    2.35    0.17
  -1   6   4    2.82    0.18
  -1   6   4    2.61    0.37
   0  -6  -4    1.83    0.20
   0  -6  -4    1.46    0.16
   0   6   4    1.32    0.17
   0   6   4    1.53    0.15
   0   6   4    1.44    0.16
   0   6   4    1.40    0.31
  -1  -6  -4   16.61    0.57
  -1  -6  -4   16.66    0.57
   1   6   4   16.68    0.59
   1   6   4   15.43    0.54
   1   6   4   16.36    0.99
  -2  -6  -4    8.04    0.38
  -2  -6  -4    8.25    0.40
   2   6   4    8.58    0.71
   2   6   4    8.43    0.37
   2   6   4    8.36    0.41
  -3  -6  -4    1.80    0.23
  -3  -6  -4    2.07    0.23
   3   6   4    2.22    0.26
  -4  -6  -4    1.42    0.23
  -4  -6  -4    1.13    0.18
   4   6   4    1.21    0.22
  -5  -6  -4    0.12    0.14
  -5  -6  -4    0.46    0.15
   5   6   4    0.00    0.14
  -6  -6  -4    0.06    0.16
   6   6   4   -0.02    0.16
 -11   7   4    0.54    0.09
 -11   7   4    0.52    0.08
 -10   7   4    0.53    0.07
 -10   7   4    0.55    0.07
 -10   7   4    0.56    0.07
  -9   7   4    3.63    0.14
  -8   7   4    0.44    0.06
  -8   7   4    0.49    0.06
  -7   7   4    0.04    0.24
  -7   7   4    0.09    0.05
  -7   7   4    0.03    0.05
  -7   7   4    0.11    0.05
  -6   7   4    0.73    0.08
  -6   7   4    0.41    0.08
  -6   7   4    0.53    0.07
  -6   7   4    0.38    0.24
  -5   7   4    2.69    0.15
  -5   7   4    3.32    0.48
  -5   7   4    2.79    0.17
  -5   7   4    3.12    0.16
  -4   7   4   21.04    0.61
  -4   7   4   22.58    1.21
  -4   7   4   21.52    0.57
  -4   7   4   20.71    0.61
  -4   7   4   20.97    0.63
   3  -7  -4    2.76    0.17
  -3   7   4    3.17    0.18
  -3   7   4    2.57    0.18
  -3   7   4    2.73    0.20
  -3   7   4    2.90    0.17
  -3   7   4    2.83    0.40
   2  -7  -4   22.66    0.66
  -2   7   4   22.29    1.22
  -2   7   4   22.34    0.67
  -2   7   4   22.16    0.66
  -2   7   4   21.40    0.68
   1  -7  -4    1.61    0.20
   1  -7  -4    1.91    0.18
  -1   7   4    2.37    0.41
  -1   7   4    1.80    0.20
  -1   7   4    1.93    0.19
   0  -7  -4    0.74    0.14
   0  -7  -4    0.64    0.15
   0   7   4    1.15    0.33
   0   7   4    0.78    0.16
   0   7   4    0.85    0.14
  -1  -7  -4   14.71    0.55
  -1  -7  -4   14.16    0.54
   1   7   4   13.46    0.51
   1   7   4   13.75    0.55
   1   7   4   13.44    0.93
  -2  -7  -4    8.58    0.42
  -2  -7  -4    9.25    0.44
   2   7   4    8.19    0.77
   2   7   4    8.05    0.44
  -3  -7  -4    4.61    0.35
  -3  -7  -4    4.93    0.34
   3   7   4    4.85    0.37
  -4  -7  -4    2.26    0.29
  -4  -7  -4    2.31    0.26
   4   7   4    2.22    0.29
  -5  -7  -4    0.74    0.22
  -5  -7  -4    1.03    0.20
   5   7   4    0.93    0.24
 -11   8   4    0.22    0.08
 -11   8   4    0.27    0.08
 -10   8   4    1.54    0.13
 -10   8   4    1.54    0.13
  -9   8   4    0.49    0.08
  -9   8   4    0.39    0.08
  -8   8   4    0.47    0.08
  -8   8   4    0.44    0.08
  -8   8   4    0.44    0.08
  -8   8   4    0.61    0.34
  -7   8   4    0.02    0.06
  -7   8   4    0.09    0.07
  -7   8   4    0.22    0.26
  -7   8   4   -0.03    0.05
  -6   8   4    0.95    0.11
  -6   8   4    1.28    0.14
  -6   8   4    1.04    0.11
  -6   8   4    1.11    0.34
  -5   8   4    6.22    0.28
  -5   8   4    6.39    0.27
  -5   8   4    6.12    0.27
  -5   8   4    6.89    0.64
  -4   8   4    2.89    0.19
  -4   8   4    2.89    0.22
  -4   8   4    3.03    0.50
  -4   8   4    2.92    0.19
  -3   8   4    7.60    0.67
  -3   8   4    7.34    0.35
  -3   8   4    7.90    0.33
   2  -8  -4    6.76    0.31
  -2   8   4    5.75    0.30
  -2   8   4    7.48    0.65
  -2   8   4    6.71    0.34
   1  -8  -4    9.63    0.40
  -1   8   4    8.80    0.43
  -1   8   4    9.76    0.41
  -1   8   4    9.54    0.74
   0  -8  -4    0.46    0.13
   0  -8  -4    0.52    0.15
   0   8   4    0.59    0.16
   0   8   4    0.52    0.13
   0   8   4    0.51    0.28
  -1  -8  -4    5.65    0.36
  -1  -8  -4    6.18    0.36
   1   8   4    5.57    0.69
   1   8   4    5.43    0.38
  -2  -8  -4    5.06    0.35
  -2  -8  -4    4.43    0.34
   2   8   4    4.42    0.65
   2   8   4    3.97    0.37
  -3  -8  -4    1.50    0.25
  -3  -8  -4    1.66    0.23
   3   8   4    1.29    0.25
  -4  -8  -4    0.39    0.17
  -4  -8  -4    0.23    0.17
   4   8   4    0.74    0.21
 -11   9   4    0.53    0.10
 -10   9   4    0.99    0.44
 -10   9   4    0.83    0.12
 -10   9   4    0.89    0.11
  -9   9   4    1.41    0.13
  -9   9   4    1.65    0.51
  -9   9   4    1.28    0.13
  -8   9   4    0.69    0.11
  -8   9   4    0.38    0.33
  -8   9   4    0.64    0.10
  -8   9   4    0.39    0.09
  -7   9   4    0.96    0.13
  -7   9   4    1.05    0.37
  -7   9   4    0.99    0.12
  -7   9   4    0.91    0.12
  -6   9   4    1.92    0.19
  -6   9   4    1.70    0.17
  -6   9   4    2.07    0.17
  -6   9   4    1.72    0.43
  -5   9   4    1.63    0.42
  -5   9   4    1.34    0.17
  -5   9   4    1.21    0.15
  -4   9   4    0.73    0.13
  -4   9   4    0.91    0.34
  -4   9   4    0.72    0.14
  -3   9   4    2.46    0.25
  -3   9   4    2.93    0.50
  -3   9   4    3.04    0.24
  -2   9   4    3.97    0.58
  -2   9   4    3.21    0.27
  -2   9   4    3.37    0.25
   1  -9  -4    0.86    0.16
  -1   9   4    0.65    0.17
  -1   9   4    0.99    0.32
  -1   9   4    0.72    0.15
   0  -9  -4    0.56    0.15
   0   9   4    0.34    0.13
   0   9   4    0.48    0.33
   0   9   4    0.34    0.16
  -1  -9  -4    0.50    0.16
   1   9   4    0.09    0.16
   1   9   4    0.20    0.40
  -2  -9  -4    4.18    0.35
   2   9   4    3.96    0.39
  -3  -9  -4    0.47    0.19
   3   9   4    0.42    0.21
 -10  10   4   -0.06    0.09
 -10  10   4    0.43    0.29
  -9  10   4    1.68    0.50
  -9  10   4    1.46    0.16
  -8  10   4    1.56    0.17
  -8  10   4    1.46    0.16
  -8  10   4    1.74    0.50
  -7  10   4    2.32    0.52
  -7  10   4    1.81    0.19
  -7  10   4    1.90    0.19
  -6  10   4    1.46    0.17
  -6  10   4    1.89    0.47
  -6  10   4    1.64    0.19
  -5  10   4    1.10    0.18
  -5  10   4    0.97    0.35
  -5  10   4    1.00    0.15
  -4  10   4    1.51    0.41
  -4  10   4    1.14    0.19
  -4  10   4    1.24    0.18
  -3  10   4    2.39    0.27
  -3  10   4    2.92    0.54
  -3  10   4    2.60    0.25
  -2  10   4    2.87    0.28
  -2  10   4    2.42    0.28
  -2  10   4    2.73    0.50
  -1  10   4    1.48    0.24
  -1  10   4    0.79    0.35
   0  10   4    0.19    0.34
   0  10   4    0.24    0.17
   1  10   4    1.86    0.58
   1  10   4    1.47    0.28
  -8  11   4    0.27    0.32
  -8  11   4    0.35    0.12
  -8  11   4    0.34    0.12
  -7  11   4    0.20    0.12
  -7  11   4    0.45    0.13
  -7  11   4    0.19    0.33
  -6  11   4    0.01    0.28
  -6  11   4    0.15    0.11
  -6  11   4    0.13    0.12
  -5  11   4    0.66    0.37
  -5  11   4    0.25    0.14
  -5  11   4    0.23    0.13
  -4  11   4    0.54    0.32
  -4  11   4    0.03    0.12
  -4  11   4    0.36    0.15
  -3  11   4    0.09    0.15
  -3  11   4    0.51    0.28
  -3  11   4   -0.13    0.12
  -2  11   4    1.23    0.23
  -2  11   4    2.04    0.43
  -1  11   4    0.60    0.36
  -1  11   4    0.32    0.19
   0  11  -5    1.15    0.26
   0 -11   5    1.12    0.24
  -1  11  -5    0.94    0.24
   1 -11   5    1.22    0.23
  -2  11  -5    0.76    0.23
   2 -11   5    0.41    0.15
   2 -11   5    0.60    0.19
  -3  11  -5    1.34    0.26
   3 -11   5    1.12    0.22
   3 -11   5    1.08    0.19
  -4  11  -5    0.78    0.21
  -5  11  -5    0.14    0.15
  -6  11  -5    0.36    0.18
  -7  11  -5    0.21    0.16
  -8  11  -5    0.14    0.16
   2  10  -5    0.25    0.18
  -2 -10   5    0.11    0.16
   1  10  -5    0.72    0.22
  -1 -10   5    0.33    0.18
   0  10  -5    1.48    0.26
   0 -10   5    1.66    0.25
   0 -10   5    1.26    0.21
  -1  10  -5    1.64    0.27
   1 -10   5    1.52    0.22
   1 -10   5    1.80    0.25
  -2  10  -5    0.80    0.21
   2 -10   5    1.15    0.19
   2 -10   5    1.23    0.22
  -3  10  -5    1.26    0.22
   3 -10   5    1.19    0.18
   3 -10   5    1.33    0.22
  -4  10  -5    0.82    0.20
   4 -10   5    1.00    0.16
   4 -10   5    0.85    0.18
  -5  10  -5    0.26    0.15
   5 -10   5    0.17    0.10
   5 -10   5    0.37    0.14
  -6  10  -5    0.83    0.19
  -6  10  -5    0.98    0.18
  -7  10  -5    0.19    0.14
  -7  10  -5    0.06    0.12
  -8  10  -5    0.97    0.21
  -8  10  -5    0.80    0.18
  -9  10  -5    0.98    0.21
  -9  10  -5    0.71    0.18
   4   9  -5    1.89    0.30
  -4  -9   5    1.63    0.28
   3   9  -5    2.22    0.30
  -3  -9   5    2.74    0.33
   2   9  -5    1.61    0.26
  -2  -9   5    1.86    0.27
  -2  -9   5    2.19    0.27
   1   9  -5    3.16    0.33
  -1  -9   5    4.32    0.33
  -1  -9   5    3.28    0.32
   0   9  -5   12.69    0.58
   0  -9   5   12.69    0.57
   0  -9   5   13.33    0.54
  -1   9  -5    0.30    0.16
  -1   9  -5   -0.04    0.12
   1  -9   5    0.05    0.13
   1  -9   5   -0.10    0.09
  -2   9  -5    1.85    0.25
   2  -9   5    2.43    0.24
   2  -9   5    2.02    0.24
  -3   9  -5    1.86    0.24
   3  -9   5    2.07    0.21
   3  -9   5    1.96    0.23
  -4   9  -5    1.68    0.24
  -4   9  -5    2.15    0.23
   4  -9   5    1.73    0.22
   4  -9   5    1.87    0.20
  -5   9  -5    2.21    0.26
  -5   9  -5    2.46    0.25
   5  -9   5    2.58    0.26
   5  -9   5    2.73    0.21
  -6   9  -5    0.58    0.14
  -6   9  -5    0.59    0.17
   6  -9   5    0.44    0.14
   6  -9   5    0.62    0.12
  -7   9  -5    2.06    0.23
  -7   9  -5    1.99    0.25
  -8   9  -5    0.06    0.13
  -8   9  -5   -0.08    0.10
  -9   9  -5    0.85    0.21
  -9   9  -5    0.81    0.17
 -10   9  -5    0.60    0.17
 -10   9  -5    0.48    0.19
  -5  -8   5    1.25    0.25
   4   8  -5    1.04    0.23
  -4  -8   5    1.43    0.25
   3   8  -5    2.08    0.28
  -3  -8   5    1.75    0.26
  -3  -8   5    1.39    0.23
   2   8  -5    1.94    0.26
  -2  -8   5    1.98    0.24
  -2  -8   5    1.57    0.23
   1   8  -5    7.62    0.42
  -1  -8   5    8.45    0.44
  -1  -8   5    8.26    0.42
   0   8  -5   11.48    0.51
   0   8  -5   11.35    0.64
   0  -8   5   11.31    0.47
   0  -8   5   11.46    0.50
  -1   8  -5    3.34    0.29
   1  -8   5    3.81    0.29
   1  -8   5    4.04    0.27
  -2   8  -5    0.22    0.10
  -2   8  -5    0.07    0.11
   2  -8   5    0.09    0.10
   2  -8   5   -0.05    0.10
  -3   8  -5    5.31    0.29
  -3   8  -5    4.48    0.31
   3  -8   5    4.89    0.28
   3  -8   5    5.10    0.31
  -4   8  -5   -0.05    0.08
  -4   8  -5    0.17    0.12
   4  -8   5    0.01    0.09
   4  -8   5   -0.03    0.08
  -5   8  -5    0.86    0.17
  -5   8  -5    0.98    0.16
   5  -8   5    1.10    0.17
   5  -8   5    0.99    0.13
  -6   8  -5    2.77    0.27
  -6   8  -5    3.36    0.25
   6  -8   5    2.92    0.19
   6  -8   5    2.65    0.24
  -7   8  -5    3.22    0.30
  -7   8  -5    3.84    0.28
  -8   8  -5    0.77    0.18
  -8   8  -5    0.82    0.17
  -9   8  -5    0.02    0.12
  -9   8  -5   -0.01    0.12
 -10   8  -5    0.06    0.15
 -10   8  -5    0.27    0.15
  -6  -7   5    0.72    0.21
   5   7  -5    1.72    0.24
  -5  -7   5    1.49    0.25
   4   7  -5    1.97    0.26
  -4  -7   5    2.00    0.25
  -4  -7   5    2.03    0.25
   3   7  -5    0.85    0.19
  -3  -7   5    1.03    0.20
  -3  -7   5    1.31    0.20
   2   7  -5    6.51    0.37
  -2  -7   5    6.50    0.36
  -2  -7   5    6.41    0.37
   1   7  -5    2.85    0.25
   1   7  -5    2.97    0.25
  -1  -7   5    3.17    0.26
  -1  -7   5    3.02    0.26
   0   7  -5   20.31    0.69
   0  -7   5   20.18    0.65
   0  -7   5   19.67    0.68
  -1   7  -5    9.61    0.39
  -1   7  -5    9.91    0.44
   1  -7   5    9.99    0.43
   1  -7   5   10.37    0.41
  -2   7  -5    1.18    0.18
  -2   7  -5    1.00    0.14
   2  -7   5    1.23    0.17
   2  -7   5    1.31    0.17
  -3   7  -5    3.54    0.23
  -3   7  -5    3.34    0.26
   3  -7   5    3.79    0.23
   3  -7   5    3.53    0.25
  -4   7  -5    4.07    0.28
  -4   7  -5    3.64    0.24
   4  -7   5    3.57    0.25
   4  -7   5    3.43    0.22
  -5   7  -5    0.58    0.14
  -5   7  -5    0.55    0.12
   5  -7   5    0.66    0.14
   5  -7   5    0.62    0.11
  -6   7  -5    6.14    0.32
  -6   7  -5    6.29    0.35
   6  -7   5    5.79    0.27
   6  -7   5    6.73    0.33
  -7   7  -5    0.54    0.15
  -7   7  -5    0.69    0.14
   7  -7   5    0.90    0.12
   7  -7   5    0.60    0.13
  -8   7  -5    0.28    0.12
  -8   7  -5    0.08    0.12
  -9   7  -5   -0.06    0.11
  -9   7  -5    0.06    0.10
 -10   7  -5    0.73    0.17
 -10   7  -5    0.72    0.18
 -11   7  -5    0.77    0.19
 -11   7  -5    0.82    0.20
  -7  -6   5    0.43    0.18
  -6  -6   5    3.04    0.32
  -6  -6   5    3.28    0.33
   5   6  -5    0.06    0.11
  -5  -6   5    0.06    0.10
  -5  -6   5    0.37    0.16
  -5  -6   5    0.22    0.14
   4   6  -5    0.89    0.17
  -4  -6   5    0.80    0.18
  -4  -6   5    0.83    0.15
  -4  -6   5    0.82    0.17
   3   6  -5    0.33    0.13
  -3  -6   5    0.48    0.14
  -3  -6   5    0.43    0.14
  -3  -6   5    0.20    0.10
   2   6  -5    0.98    0.17
   2   6  -5    1.03    0.11
  -2  -6   5    0.90    0.13
  -2  -6   5    1.18    0.18
  -2  -6   5    1.02    0.17
   1   6  -5    6.08    0.26
   1   6  -5    5.71    0.33
   1   6  -5    5.77    0.31
  -1  -6   5    5.38    0.31
  -1  -6   5    5.93    0.28
  -1  -6   5    5.87    0.31
   0   6  -5   12.51    0.44
   0   6  -5   12.27    0.48
   0  -6   5   12.81    0.46
   0  -6   5   12.76    0.45
   0  -6   5   12.21    0.47
  -1   6  -5   21.76    0.71
  -1   6  -5   22.39    0.68
   1  -6   5   21.42    0.70
   1  -6   5   22.92    0.67
   1  -6   5   22.70    0.67
  -2   6  -5    0.20    0.10
  -2   6  -5   -0.01    0.06
   2  -6   5    0.20    0.09
   2  -6   5    0.09    0.09
  -3   6  -5   10.40    0.39
  -3   6  -5    9.49    0.38
  -3   6  -5    9.57    0.41
   3  -6   5   10.10    0.37
   3  -6   5    9.71    0.39
   3  -6   5   10.25    0.36
  -4   6  -5    8.12    0.34
  -4   6  -5    8.02    0.36
   4  -6   5    8.15    0.32
   4  -6   5    7.90    0.35
  -5   6  -5   12.64    0.46
  -5   6  -5   12.53    0.49
   5  -6   5   12.15    0.47
   5  -6   5   13.48    0.43
  -6   6  -5    5.11    0.30
  -6   6  -5    5.05    0.28
   6  -6   5    5.14    0.28
   6  -6   5    4.55    0.24
  -7   6  -5    1.39    0.18
  -7   6  -5    1.59    0.20
   7  -6   5    1.68    0.18
   7  -6   5    1.51    0.15
  -8   6  -5    0.84    0.15
  -8   6  -5    0.72    0.17
  -9   6  -5    0.31    0.15
  -9   6  -5    0.28    0.13
 -10   6  -5    0.43    0.16
 -10   6  -5    0.42    0.15
 -11   6  -5    0.45    0.15
 -11   6  -5    0.63    0.19
  -8  -5   5    0.23    0.16
  -7  -5   5    2.75    0.30
  -7  -5   5    2.54    0.25
  -7  -5   5    2.27    0.28
  -6  -5   5    0.73    0.17
  -6  -5   5    0.69    0.17
  -6  -5   5    0.67    0.14
   5   5  -5    2.91    0.25
  -5  -5   5    2.63    0.26
  -5  -5   5    3.07    0.28
  -5  -5   5    3.15    0.24
   4   5  -5    0.50    0.13
  -4  -5   5    0.71    0.15
  -4  -5   5    0.48    0.12
  -4  -5   5    0.56    0.14
   3   5  -5   11.83    0.34
   3   5  -5   11.76    0.46
  -3  -5   5   11.36    0.46
  -3  -5   5   12.15    0.46
  -3  -5   5   12.04    0.44
   2   5  -5    0.83    0.09
   2   5  -5    0.79    0.14
  -2  -5   5    0.53    0.13
  -2  -5   5    0.54    0.10
  -2  -5   5    0.86    0.14
   1   5  -5   14.47    0.51
   1   5  -5   14.08    0.46
  -1  -5   5   13.70    0.47
  -1  -5   5   13.77    0.49
  -1  -5   5   15.01    0.50
   0   5  -5   19.62    0.58
   0   5  -5   18.42    0.61
   0  -5   5   19.76    0.59
   0  -5   5   18.82    0.60
   0  -5   5   18.49    0.58
  -1   5  -5    3.91    0.21
  -1   5  -5    3.58    0.23
   1  -5   5    4.14    0.22
   1  -5   5    3.73    0.20
   1  -5   5    4.03    0.23
  -2   5  -5    8.35    0.32
  -2   5  -5    8.34    0.35
   2  -5   5    8.18    0.31
   2  -5   5    8.27    0.32
   2  -5   5    7.91    0.34
  -3   5  -5    6.21    0.27
  -3   5  -5    5.43    0.29
  -3   5  -5    5.87    0.27
   3  -5   5    6.07    0.25
   3  -5   5    5.80    0.29
   3  -5   5    6.25    0.26
  -4   5  -5   20.12    0.66
  -4   5  -5   21.54    0.64
  -4   5  -5   20.63    0.63
   4  -5   5   20.31    0.60
   4  -5   5   21.72    0.61
   4  -5   5   21.19    0.65
  -5   5  -5    4.55    0.24
  -5   5  -5    4.38    0.24
  -5   5  -5    3.61    0.25
   5  -5   5    4.43    0.25
  -6   5  -5    1.46    0.17
  -6   5  -5    1.42    0.18
   6  -5   5    1.46    0.17
  -7   5  -5    0.48    0.14
  -7   5  -5    0.58    0.12
   7  -5   5    0.41    0.11
  -8   5  -5    2.43    0.25
  -8   5  -5    2.33    0.22
   8  -5   5    2.29    0.22
  -9   5  -5    1.54    0.20
  -9   5  -5    1.11    0.20
 -10   5  -5    1.57    0.23
 -10   5  -5    1.38    0.21
 -11   5  -5    0.47    0.18
 -11   5  -5    0.51    0.16
  -9  -4   5    0.50    0.17
  -9  -4   5    0.48    0.17
  -8  -4   5    1.64    0.24
  -8  -4   5    1.86    0.23
  -8  -4   5    2.14    0.26
  -7  -4   5    5.54    0.35
  -7  -4   5    5.71    0.37
  -7  -4   5    5.86    0.34
   6   4  -5    2.41    0.22
  -6  -4   5    2.48    0.25
  -6  -4   5    2.48    0.22
  -6  -4   5    2.53    0.25
   5   4  -5    0.95    0.15
  -5  -4   5    0.84    0.16
  -5  -4   5    0.88    0.14
  -5  -4   5    0.85    0.15
   4   4  -5   12.55    0.47
  -4  -4   5   13.63    0.48
  -4  -4   5   12.70    0.46
  -4  -4   5   12.40    0.48
   3   4  -5    6.99    0.20
   3   4  -5    6.85    0.31
  -3  -4   5    6.47    0.31
  -3  -4   5    6.61    0.29
  -3  -4   5    6.54    0.31
  -3  -4   5    6.97    0.30
   2   4  -5   13.94    0.43
   2   4  -5   13.72    0.46
  -2  -4   5   13.25    0.45
  -2  -4   5   13.34    0.46
  -2  -4   5   12.86    0.44
  -2  -4   5   12.81    0.45
   1   4  -5   16.25    0.53
   1   4  -5   16.69    0.49
  -1  -4   5   16.44    0.50
  -1  -4   5   15.61    0.50
  -1  -4   5   15.30    0.52
  -1  -4   5   16.56    0.51
   0   4  -5   59.09    1.52
   0  -4   5   56.17    1.51
   0  -4   5   60.26    1.51
   0  -4   5   59.79    1.45
   0  -4   5   60.43    1.51
  -1   4  -5   23.14    0.65
  -1   4  -5   23.00    0.68
   1  -4   5   22.32    0.63
   1  -4   5   22.20    0.67
   1  -4   5   22.52    0.65
  -2   4  -5   20.37    0.60
  -2   4  -5   19.23    0.58
  -2   4  -5   19.72    0.61
   2  -4   5   19.69    0.56
   2  -4   5   20.06    0.58
   2  -4   5   18.66    0.59
  -3   4  -5   26.28    0.76
  -3   4  -5   26.74    0.74
  -3   4  -5   26.74    0.74
   3  -4   5   23.47    0.71
   3  -4   5   26.73    0.76
  -4   4  -5    6.92    0.29
  -4   4  -5    6.79    0.32
  -4   4  -5    7.21    0.29
   4  -4   5    7.41    0.27
   4  -4   5    7.09    0.31
  -5   4  -5    0.25    0.08
  -5   4  -5    0.25    0.08
  -5   4  -5    0.17    0.09
   5  -4   5    0.23    0.09
  -6   4  -5    2.89    0.23
  -6   4  -5    3.38    0.22
   6  -4   5    2.86    0.21
  -7   4  -5    1.38    0.17
  -7   4  -5    1.40    0.18
   7  -4   5    1.49    0.17
  -8   4  -5    1.72    0.22
  -8   4  -5    1.65    0.20
   8  -4   5    1.75    0.19
  -9   4  -5    3.15    0.26
  -9   4  -5    2.67    0.28
 -10   4  -5   -0.05    0.12
 -10   4  -5    0.51    0.14
 -11   4  -5    0.87    0.21
 -11   4  -5    0.76    0.17
  -9  -3   5    0.51    0.18
  -9  -3   5    0.17    0.12
  -9  -3   5    0.25    0.14
  -8  -3   5    0.03    0.11
  -8  -3   5   -0.02    0.10
  -8  -3   5    0.11    0.13
  -7  -3   5    2.23    0.23
  -7  -3   5    2.16    0.23
  -7  -3   5    2.00    0.20
   6   3  -5    0.61    0.11
  -6  -3   5    0.86    0.16
  -6  -3   5    0.86    0.15
  -6  -3   5    0.79    0.13
   5   3  -5   13.95    0.48
  -5  -3   5   13.81    0.50
  -5  -3   5   14.18    0.50
  -5  -3   5   13.81    0.48
  -5  -3   5   14.49    0.50
   4   3  -5   19.01    0.59
  -4  -3   5   19.77    0.60
  -4  -3   5   20.07    0.60
  -4  -3   5   19.38    0.61
  -4  -3   5   18.71    0.58
   3   3  -5   15.26    0.49
  -3  -3   5   15.75    0.50
  -3  -3   5   15.18    0.48
  -3  -3   5   15.90    0.49
  -3  -3   5   14.88    0.50
   2   3  -5    8.92    0.33
   2   3  -5    9.18    0.30
  -2  -3   5    9.00    0.33
  -2  -3   5    9.22    0.32
  -2  -3   5    8.71    0.31
  -2  -3   5    8.40    0.33
   1   3  -5    3.02    0.18
   1   3  -5    3.03    0.15
  -1  -3   5    2.87    0.18
  -1  -3   5    2.81    0.16
  -1  -3   5    2.64    0.17
  -1  -3   5    2.73    0.16
   0   3  -5   41.06    1.10
   0  -3   5   41.33    1.05
   0  -3   5   43.54    1.09
   0  -3   5   42.03    1.08
   0  -3   5   42.79    1.09
   0  -3   5   40.84    1.10
  -1   3  -5   47.14    1.24
  -1   3  -5   48.13    1.22
   1  -3   5   48.52    1.22
   1  -3   5   49.52    1.23
   1  -3   5   48.22    1.22
   1  -3   5   46.60    1.17
   1  -3   5   46.70    1.24
  -2   3  -5   13.92    0.43
  -2   3  -5   13.90    0.46
  -2   3  -5   14.64    0.44
   2  -3   5   13.58    0.45
   2  -3   5   14.12    0.43
  -3   3  -5   33.80    0.90
  -3   3  -5   33.09    0.92
  -3   3  -5   32.77    0.89
   3  -3   5   32.90    0.91
  -4   3  -5    0.11    0.07
  -4   3  -5   -0.07    0.05
  -4   3  -5    0.12    0.08
   4  -3   5    0.04    0.04
   4  -3   5    0.05    0.07
  -5   3  -5    0.71    0.13
  -5   3  -5    0.68    0.11
  -5   3  -5    0.48    0.10
   5  -3   5    0.53    0.08
   5  -3   5    0.59    0.11
  -6   3  -5    0.01    0.09
  -6   3  -5    0.01    0.08
   6  -3   5    0.06    0.08
  -7   3  -5    0.11    0.11
  -7   3  -5    0.19    0.10
   7  -3   5   -0.02    0.08
  -8   3  -5   -0.03    0.10
  -8   3  -5   -0.05    0.08
   8  -3   5   -0.07    0.08
  -9   3  -5    2.10    0.25
  -9   3  -5    2.05    0.22
 -10   3  -5    0.69    0.17
 -10   3  -5    0.80    0.19
 -11   3  -5    0.30    0.18
 -10  -2   5    0.49    0.15
 -10  -2   5    0.44    0.15
  -9  -2   5    0.66    0.17
  -9  -2   5    0.93    0.16
  -9  -2   5    0.76    0.16
  -8  -2   5    0.96    0.15
  -8  -2   5    0.97    0.17
  -8  -2   5    1.18    0.17
  -7  -2   5    0.50    0.11
  -7  -2   5    0.45    0.13
  -7  -2   5    0.49    0.12
   6   2  -5    1.72    0.15
  -6  -2   5    1.43    0.15
  -6  -2   5    1.52    0.15
  -6  -2   5    1.59    0.17
  -6  -2   5    1.75    0.18
   5   2  -5    3.31    0.19
  -5  -2   5    3.15    0.20
  -5  -2   5    3.15    0.19
  -5  -2   5    3.48    0.19
  -5  -2   5    3.21    0.21
   4   2  -5    8.53    0.30
  -4  -2   5    7.92    0.29
  -4  -2   5    8.00    0.31
  -4  -2   5    7.71    0.32
  -4  -2   5    8.17    0.30
   3   2  -5   11.57    0.37
  -3  -2   5   11.47    0.38
  -3  -2   5   11.56    0.38
  -3  -2   5   11.13    0.36
  -3  -2   5   11.51    0.37
   2   2  -5   24.73    0.67
   2   2  -5   23.82    0.99
  -2  -2   5   24.66    0.67
  -2  -2   5   24.74    0.67
  -2  -2   5   24.04    0.66
  -2  -2   5   24.03    0.68
  -2  -2   5   24.39    0.66
   1   2  -5   19.53    0.86
   1   2  -5   20.17    0.57
   1   2  -5   20.31    0.54
  -1  -2   5   19.64    0.55
  -1  -2   5   19.23    0.55
  -1  -2   5   19.00    0.56
  -1  -2   5   19.47    0.55
   0   2  -5   40.87    1.05
   0   2  -5   41.63    1.07
   0  -2   5   40.97    1.06
   0  -2   5   41.80    1.06
   0  -2   5   41.51    1.07
  -1   2  -5   49.95    1.31
  -1   2  -5   50.42    1.29
   1  -2   5   53.36    1.30
   1  -2   5   51.09    1.31
   1  -2   5   51.64    1.29
  -2   2  -5   18.43    0.55
  -2   2  -5   18.63    0.54
  -2   2  -5   17.17    0.52
   2  -2   5   18.73    0.55
   2  -2   5   17.96    0.52
   2  -2   5   18.32    0.55
  -3   2  -5   15.95    0.51
  -3   2  -5   17.13    0.49
  -3   2  -5   15.58    0.49
   3  -2   5   15.95    0.51
   3  -2   5   15.99    0.48
  -4   2  -5   14.53    0.47
  -4   2  -5   15.76    0.47
  -4   2  -5   14.82    0.50
   4  -2   5   14.20    0.48
   4  -2   5   14.18    0.45
  -5   2  -5    9.82    0.40
  -5   2  -5   11.47    0.39
  -5   2  -5   10.99    0.40
   5  -2   5   10.47    0.41
   5  -2   5   11.81    0.38
  -6   2  -5    8.68    0.35
  -6   2  -5    8.50    0.38
   6  -2   5    8.32    0.36
  -7   2  -5    2.04    0.22
  -7   2  -5    2.14    0.21
   7  -2   5    2.13    0.21
  -8   2  -5    1.14    0.19
  -8   2  -5    1.01    0.16
   8  -2   5    1.17    0.18
  -9   2  -5    1.89    0.22
  -9   2  -5    2.04    0.26
 -10   2  -5    1.78    0.25
 -10   2  -5    1.34    0.24
 -10   2  -5    1.46    0.22
 -10  -1   5    1.35    0.19
 -10  -1   5    1.38    0.19
  -9  -1   5    0.31    0.10
  -9  -1   5    0.07    0.10
  -9  -1   5   -0.01    0.10
  -8  -1   5    0.11    0.08
  -8  -1   5    0.08    0.10
  -8  -1   5    0.26    0.11
  -7  -1   5    1.80    0.16
  -7  -1   5    1.98    0.16
  -7  -1   5    2.11    0.18
  -7  -1   5    1.89    0.19
   6   1  -5   18.25    0.52
  -6  -1   5   18.29    0.56
  -6  -1   5   18.12    0.54
  -6  -1   5   17.58    0.55
  -6  -1   5   17.88    0.54
   5   1  -5   13.15    0.39
  -5  -1   5   12.06    0.41
  -5  -1   5   12.82    0.40
  -5  -1   5   12.39    0.39
  -5  -1   5   13.18    0.44
  -5  -1   5   12.70    0.42
   4   1  -5   16.36    0.47
  -4  -1   5   16.47    0.47
  -4  -1   5   16.75    0.50
  -4  -1   5   16.94    0.50
  -4  -1   5   16.66    0.70
  -4  -1   5   16.19    0.49
  -4  -1   5   16.77    0.48
   3   1  -5   14.22    0.42
   3   1  -5   13.92    0.35
  -3  -1   5   14.30    0.41
  -3  -1   5   14.06    0.43
  -3  -1   5   13.85    0.41
  -3  -1   5   14.58    0.43
  -3  -1   5   14.40    0.43
   2   1  -5   48.27    1.21
   2   1  -5   47.61    1.15
   2   1  -5   48.22    1.95
  -2  -1   5   48.60    1.22
  -2  -1   5   48.73    1.21
  -2  -1   5   50.79    1.23
  -2  -1   5   47.08    1.20
  -2  -1   5   48.23    1.17
   1   1  -5   45.55    1.11
   1   1  -5   45.24    1.85
   1   1  -5   45.11    1.14
  -1  -1   5   44.91    1.13
  -1  -1   5   43.93    1.14
  -1  -1   5   43.84    1.12
  -1  -1   5   46.58    1.15
   0   1  -5   62.14    2.47
   0   1  -5   59.17    1.49
   0   1  -5   60.06    1.47
   0  -1   5   60.39    1.50
   0  -1   5   58.74    1.48
   0  -1   5   60.10    1.49
  -1   1  -5   50.43    1.28
   1  -1   5   50.27    1.26
   1  -1   5   49.18    1.27
   1  -1   5   50.74    1.26
  -2   1  -5   33.89    0.89
  -2   1  -5   33.19    0.91
   2  -1   5   33.13    0.90
   2  -1   5   34.52    0.89
  -3   1  -5    4.67    0.21
  -3   1  -5    4.29    0.21
  -3   1  -5    4.42    0.23
   3  -1   5    4.55    0.23
   3  -1   5    4.77    0.20
  -4   1  -5   10.31    0.35
  -4   1  -5    9.85    0.36
  -4   1  -5    9.44    0.37
   4  -1   5   10.12    0.38
  -5   1  -5    8.61    0.37
  -5   1  -5    9.66    0.36
  -5   1  -5    8.99    0.35
   5  -1   5    9.25    0.37
   5  -1   5    9.09    0.33
  -6   1  -5    3.57    0.25
  -6   1  -5    3.41    0.22
   6  -1   5    3.16    0.23
  -7   1  -5    4.95    0.28
  -7   1  -5    4.92    0.31
   7  -1   5    5.37    0.30
  -8   1  -5    2.73    0.27
  -8   1  -5    3.38    0.28
  -8   1  -5    2.90    0.26
   8  -1   5    3.25    0.26
  -9   1  -5    3.53    0.33
  -9   1  -5    2.84    0.29
  -9   1  -5    3.87    0.30
 -10   1  -5    0.82    0.21
 -10   1  -5    1.30    0.23
 -11   0   5    0.67    0.15
 -11   0   5    0.71    0.15
 -10   0   5    1.87    0.20
 -10   0   5    1.45    0.18
  -9   0   5    0.42    0.11
  -9   0   5    0.51    0.11
  -9   0   5    0.50    0.12
  -8   0   5    1.01    0.12
  -8   0   5    1.01    0.13
  -8   0   5    1.02    0.12
  -8   0   5    1.20    0.15
  -7   0   5    8.01    0.31
  -7   0   5    8.45    0.30
  -7   0   5    7.95    0.32
  -7   0   5    7.58    0.29
  -7   0   5    8.68    0.47
   6   0  -5    5.81    0.19
  -6   0   5    5.59    0.22
  -6   0   5    5.92    0.25
  -6   0   5    5.47    0.22
  -6   0   5    5.52    0.24
  -6   0   5    5.79    0.35
  -6   0   5    5.35    0.23
  -5   0   5    7.98    0.28
  -5   0   5    8.18    0.26
  -5   0   5    8.03    0.30
  -5   0   5    8.41    0.29
  -5   0   5    7.89    0.26
  -5   0   5    8.44    0.44
  -5   0   5    8.30    0.27
  -4   0   5   29.14    0.75
  -4   0   5   30.47    0.77
  -4   0   5   29.67    0.75
  -4   0   5   29.28    0.76
  -4   0   5   28.96    1.24
  -4   0   5   28.89    0.76
   3   0  -5   12.25    0.33
   3   0  -5   12.54    0.35
  -3   0   5   12.85    0.38
  -3   0   5   12.58    0.36
  -3   0   5   12.31    0.35
  -3   0   5   12.87    0.37
  -3   0   5   12.12    0.59
  -3   0   5   11.87    0.34
   2   0  -5   22.42    0.58
   2   0  -5   22.40    0.60
   2   0  -5   22.94    1.00
  -2   0   5   22.38    1.00
  -2   0   5   23.48    0.61
  -2   0   5   23.07    0.59
  -2   0   5   21.84    0.59
  -2   0   5   23.12    0.61
   1   0  -5   23.21    0.61
   1   0  -5   22.66    0.60
   1   0  -5   23.00    1.02
  -1   0   5   22.65    0.60
  -1   0   5   23.01    0.62
  -1   0   5   21.98    0.60
  -1   0   5   22.50    1.02
  -1   0   5   22.96    0.62
   0   0  -5    0.55    0.07
   0   0  -5    0.48    0.08
   0   0  -5    0.36    0.08
   0   0   5    0.43    0.07
   0   0   5    0.47    0.07
   0   0   5    0.51    0.08
  -1   0  -5   30.49    0.82
  -1   0  -5   31.70    0.81
  -1   0  -5   30.14    0.83
   1   0   5   31.16    0.82
   1   0   5   31.34    0.84
   1   0   5   31.98    0.82
  -2   0  -5    0.63    0.10
  -2   0  -5    0.81    0.11
  -2   0  -5    0.66    0.08
   2   0   5    0.71    0.09
   2   0   5    0.48    0.09
   2   0   5    0.77    0.10
  -3   0  -5   15.45    0.50
  -3   0  -5   15.59    0.50
  -3   0  -5   15.65    0.48
   3   0   5   15.39    0.50
   3   0   5   15.91    0.48
  -4   0  -5    4.92    0.24
  -4   0  -5    4.96    0.26
  -4   0  -5    5.05    0.26
   4   0   5    5.23    0.26
  -5   0  -5    7.37    0.34
  -5   0  -5    7.52    0.34
  -5   0  -5    8.17    0.35
  -5   0  -5    8.21    0.33
   5   0   5    7.66    0.35
   5   0   5    8.00    0.31
  -6   0  -5    8.36    0.40
  -6   0  -5    9.72    0.38
  -6   0  -5    8.12    0.38
   6   0   5    8.47    0.39
  -7   0  -5    0.19    0.12
  -7   0  -5    0.18    0.11
  -7   0  -5    0.06    0.08
   7   0   5    0.06    0.11
  -8   0  -5    0.90    0.19
  -8   0  -5    0.84    0.16
  -8   0  -5    0.84    0.18
   8   0   5    0.81    0.17
  -9   0  -5    0.62    0.19
  -9   0  -5    0.40    0.15
 -10   0  -5    0.25    0.18
 -11   1   5    0.00    0.09
 -11   1   5    0.03    0.10
 -10   1   5    1.20    0.15
 -10   1   5    1.43    0.16
  -9   1   5    1.07    0.12
  -9   1   5    1.07    0.13
  -9   1   5    0.99    0.14
  -9   1   5    1.04    0.13
  -8   1   5    2.35    0.17
  -8   1   5    2.26    0.16
  -8   1   5    2.27    0.15
  -8   1   5    2.23    0.15
  -7   1   5   10.05    0.31
  -7   1   5    9.75    0.31
  -7   1   5    9.78    0.32
  -7   1   5    9.70    0.34
  -6   1   5    4.11    0.33
  -6   1   5    4.12    0.16
  -6   1   5    4.35    0.18
  -6   1   5    3.96    0.15
  -6   1   5    4.11    0.18
  -6   1   5    4.32    0.14
  -6   1   5    4.05    0.15
  -6   1   5    3.99    0.19
  -5   1   5   19.24    0.50
  -5   1   5   20.08    0.53
  -5   1   5   19.54    0.54
  -5   1   5   20.29    0.93
  -5   1   5   20.08    0.51
  -5   1   5   20.43    0.53
  -5   1   5   19.94    0.51
  -4   1   5   45.28    1.10
  -4   1   5   47.31    1.10
  -4   1   5   45.24    1.10
  -4   1   5   45.42    1.12
  -4   1   5   45.83    1.92
  -4   1   5   47.73    1.13
  -4   1   5   44.44    1.10
   3  -1  -5   26.15    0.67
   3  -1  -5   28.17    0.66
  -3   1   5   26.90    0.68
  -3   1   5   25.66    0.65
  -3   1   5   25.58    1.17
  -3   1   5   26.38    0.66
  -3   1   5   26.14    0.67
  -3   1   5   26.03    0.67
  -3   1   5   27.24    0.68
   2  -1  -5   24.47    0.65
   2  -1  -5   24.92    1.12
   2  -1  -5   24.73    0.63
  -2   1   5   24.47    0.63
  -2   1   5   25.82    0.65
  -2   1   5   25.83    0.66
  -2   1   5   24.49    1.12
  -2   1   5   25.46    0.65
  -2   1   5   24.31    0.63
   1  -1  -5   70.55    2.97
   1  -1  -5   68.66    1.71
   1  -1  -5   71.55    1.72
  -1   1   5   71.21    2.92
  -1   1   5   73.54    1.71
  -1   1   5   71.23    1.73
  -1   1   5   69.23    1.72
  -1   1   5   74.18    1.74
  -1   1   5   71.44    1.73
   0  -1  -5   50.53    1.29
   0  -1  -5   49.96    1.28
   0  -1  -5   53.06    1.27
   0   1   5   55.32    2.20
   0   1   5   50.58    1.29
   0   1   5   50.78    1.30
   0   1   5   52.19    1.29
  -1  -1  -5    5.37    0.24
  -1  -1  -5    5.89    0.22
  -1  -1  -5    6.01    0.24
   1   1   5    5.38    0.24
   1   1   5    5.87    0.23
   1   1   5    5.47    0.22
  -2  -1  -5    1.70    0.12
  -2  -1  -5    1.93    0.17
  -2  -1  -5    1.84    0.16
   2   1   5    1.85    0.14
   2   1   5    1.90    0.13
   2   1   5    1.62    0.15
  -3  -1  -5    3.59    0.22
  -3  -1  -5    3.68    0.21
  -3  -1  -5    3.96    0.20
   3   1   5    3.44    0.21
   3   1   5    3.97    0.20
  -4  -1  -5    4.88    0.24
  -4  -1  -5    4.74    0.27
  -4  -1  -5    4.75    0.26
   4   1   5    5.09    0.27
   4   1   5    4.58    0.22
  -5  -1  -5    5.77    0.32
  -5  -1  -5    5.90    0.28
  -5  -1  -5    6.00    0.31
   5   1   5    5.22    0.30
  -6  -1  -5   11.94    0.45
  -6  -1  -5   11.38    0.48
  -6  -1  -5   11.49    0.47
   6   1   5   11.35    0.47
  -7  -1  -5   -0.07    0.11
  -7  -1  -5   -0.09    0.07
  -7  -1  -5    0.04    0.10
   7   1   5    0.01    0.11
  -8  -1  -5   -0.08    0.12
  -8  -1  -5    0.06    0.12
   8   1   5    0.12    0.13
  -9  -1  -5    0.59    0.17
  -9  -1  -5    0.55    0.19
 -11   2   5    0.11    0.09
 -11   2   5    0.10    0.10
 -10   2   5    1.13    0.13
 -10   2   5    1.12    0.13
 -10   2   5    1.06    0.13
  -9   2   5    3.26    0.18
  -9   2   5    3.51    0.18
  -9   2   5    3.82    0.19
  -8   2   5    1.45    0.11
  -8   2   5    1.85    0.14
  -8   2   5    1.70    0.11
  -8   2   5    1.55    0.12
  -7   2   5    0.54    0.07
  -7   2   5    0.44    0.08
  -7   2   5    0.33    0.05
  -7   2   5    0.44    0.07
  -7   2   5    0.44    0.05
  -6   2   5    3.04    0.15
  -6   2   5    2.87    0.12
  -6   2   5    2.93    0.12
  -6   2   5    2.93    0.15
  -6   2   5    2.91    0.31
  -5   2   5    2.06    0.09
  -5   2   5    1.77    0.09
  -5   2   5    1.64    0.23
  -5   2   5    1.71    0.11
  -5   2   5    1.85    0.12
  -4   2   5   10.97    0.31
  -4   2   5   11.27    0.61
  -4   2   5   10.92    0.33
  -4   2   5   11.24    0.31
  -4   2   5   11.40    0.34
   3  -2  -5    9.52    0.31
  -3   2   5    9.33    0.28
  -3   2   5    9.35    0.54
  -3   2   5   10.03    0.28
  -3   2   5    9.85    0.31
  -3   2   5    9.47    0.25
  -3   2   5    9.37    0.25
   2  -2  -5   13.10    0.35
   2  -2  -5   12.88    0.39
  -2   2   5   13.28    0.39
  -2   2   5   11.89    0.67
  -2   2   5   12.74    0.37
  -2   2   5   13.66    0.38
  -2   2   5   12.42    0.35
  -2   2   5   12.18    0.35
   1  -2  -5  133.03    3.12
   1  -2  -5  126.44    3.08
  -1   2   5  132.06    3.13
  -1   2   5  127.53    5.26
  -1   2   5  131.51    3.13
  -1   2   5  126.20    3.13
  -1   2   5  134.82    3.09
  -1   2   5  141.38    3.14
   0  -2  -5   39.02    1.03
   0  -2  -5   40.87    1.00
   0  -2  -5   40.23    1.03
   0   2   5   41.42    1.04
   0   2   5   39.63    1.77
   0   2   5   39.85    1.02
   0   2   5   39.52    1.04
   0   2   5   39.89    1.02
  -1  -2  -5    2.10    0.15
  -1  -2  -5    2.02    0.16
  -1  -2  -5    2.29    0.13
   1   2   5    2.21    0.31
   1   2   5    2.34    0.14
   1   2   5    2.17    0.14
   1   2   5    2.23    0.16
  -2  -2  -5   12.37    0.44
  -2  -2  -5   13.16    0.45
   2   2   5   13.31    0.43
   2   2   5   13.47    0.46
   2   2   5   13.65    0.43
  -3  -2  -5   10.57    0.40
  -3  -2  -5   11.47    0.39
  -3  -2  -5   10.82    0.41
   3   2   5   10.68    0.38
   3   2   5   10.93    0.41
  -4  -2  -5   14.44    0.53
  -4  -2  -5   14.70    0.50
  -4  -2  -5   14.51    0.51
   4   2   5   14.93    0.53
   4   2   5   14.97    0.49
  -5  -2  -5    5.21    0.28
  -5  -2  -5    5.63    0.32
  -5  -2  -5    5.01    0.30
   5   2   5    5.16    0.31
  -6  -2  -5    5.69    0.33
  -6  -2  -5    5.18    0.33
   6   2   5    5.50    0.34
  -7  -2  -5    0.11    0.14
  -7  -2  -5    0.15    0.12
   7   2   5    0.13    0.14
  -8  -2  -5    0.65    0.19
  -8  -2  -5    0.49    0.16
   8   2   5    0.67    0.18
  -9  -2  -5    0.76    0.22
 -11   3   5    0.11    0.08
 -11   3   5    0.16    0.08
 -10   3   5    0.44    0.08
 -10   3   5    0.62    0.09
  -9   3   5    2.95    0.14
  -9   3   5    3.07    0.14
  -9   3   5    3.12    0.14
  -8   3   5    1.94    0.12
  -7   3   5    3.62    0.18
  -7   3   5    3.37    0.15
  -6   3   5    4.52    0.20
  -6   3   5    4.65    0.40
  -6   3   5    4.28    0.17
  -5   3   5    5.13    0.41
  -5   3   5    5.40    0.22
  -5   3   5    5.45    0.19
  -4   3   5    2.02    0.10
  -4   3   5    1.98    0.26
  -4   3   5    2.26    0.14
  -4   3   5    2.06    0.10
   3  -3  -5    7.22    0.28
  -3   3   5    6.94    0.20
  -3   3   5    7.30    0.49
  -3   3   5    7.76    0.24
  -3   3   5    6.94    0.21
  -3   3   5    7.66    0.28
  -3   3   5    7.16    0.23
   2  -3  -5   37.72    1.01
   2  -3  -5   39.46    0.97
  -2   3   5   38.61    0.97
  -2   3   5   38.15    1.73
  -2   3   5   39.01    0.99
  -2   3   5   40.99    1.00
  -2   3   5   38.02    0.98
  -2   3   5   41.37    1.02
   1  -3  -5   77.74    1.88
   1  -3  -5   75.03    1.88
  -1   3   5   75.22    1.89
  -1   3   5   75.25    1.88
  -1   3   5   77.68    3.22
  -1   3   5   81.43    1.90
  -1   3   5   76.88    1.88
  -1   3   5   79.49    1.89
   0  -3  -5   28.95    0.77
   0  -3  -5   28.36    0.78
   0   3   5   28.30    0.78
   0   3   5   27.42    0.76
   0   3   5   29.67    0.79
   0   3   5   28.15    0.76
   0   3   5   26.64    1.33
  -1  -3  -5    8.48    0.29
  -1  -3  -5    7.85    0.33
  -1  -3  -5    8.09    0.32
   1   3   5    8.59    0.31
   1   3   5    8.26    0.59
   1   3   5    8.39    0.33
   1   3   5    8.39    0.31
   1   3   5    9.64    0.35
  -2  -3  -5   23.66    0.66
  -2  -3  -5   22.84    0.68
  -2  -3  -5   21.64    0.68
   2   3   5   22.75    0.67
   2   3   5   22.12    0.69
   2   3   5   23.57    0.67
  -3  -3  -5   12.01    0.42
  -3  -3  -5   11.62    0.44
  -3  -3  -5   11.50    0.45
   3   3   5   12.35    0.43
   3   3   5   11.54    0.45
  -4  -3  -5    7.23    0.32
  -4  -3  -5    7.10    0.36
  -4  -3  -5    7.69    0.36
   4   3   5    7.48    0.33
   4   3   5    7.64    0.37
  -5  -3  -5    3.73    0.27
  -5  -3  -5    3.57    0.28
   5   3   5    3.43    0.28
  -6  -3  -5    2.02    0.24
  -6  -3  -5    1.87    0.24
   6   3   5    1.94    0.24
  -7  -3  -5    2.74    0.28
  -7  -3  -5    2.40    0.29
   7   3   5    2.58    0.29
  -8  -3  -5    0.14    0.13
  -8  -3  -5    0.05    0.15
   8   3   5   -0.03    0.12
 -12   4   5    1.19    0.14
 -11   4   5    2.56    0.16
 -11   4   5    2.19    0.16
 -10   4   5    2.63    0.14
 -10   4   5    2.76    0.14
  -7   4   5    4.35    0.44
  -7   4   5    3.86    0.21
  -6   4   5    0.91    0.07
  -6   4   5    0.79    0.23
  -6   4   5    0.86    0.12
  -5   4   5    9.04    0.62
  -5   4   5    8.73    0.26
  -5   4   5    9.52    0.34
  -5   4   5    9.29    0.25
  -5   4   5    9.37    0.25
  -4   4   5   21.17    0.57
  -4   4   5   21.75    1.11
  -4   4   5   22.79    0.65
  -4   4   5   22.68    0.57
   3  -4  -5   13.55    0.44
   3  -4  -5   13.83    0.35
  -3   4   5   12.82    0.37
  -3   4   5   14.05    0.45
  -3   4   5   13.07    0.76
  -3   4   5   13.23    0.39
  -3   4   5   13.95    0.39
  -3   4   5   12.84    0.37
   2  -4  -5   35.05    0.88
   2  -4  -5   33.01    0.92
  -2   4   5   34.97    0.90
  -2   4   5   34.18    0.88
  -2   4   5   33.77    0.88
  -2   4   5   36.20    0.94
  -2   4   5   33.85    1.58
  -2   4   5   33.78    0.90
   1  -4  -5   15.38    0.47
   1  -4  -5   15.26    0.50
  -1   4   5   16.16    0.47
  -1   4   5   17.36    0.54
  -1   4   5   15.06    0.46
  -1   4   5   15.14    0.86
  -1   4   5   14.96    0.46
  -1   4   5   15.04    0.48
   0  -4  -5   11.13    0.41
   0  -4  -5   10.91    0.38
   0   4   5   11.39    0.38
   0   4   5   11.67    0.38
   0   4   5   10.76    0.70
   0   4   5   11.04    0.40
  -1  -4  -5   21.30    0.65
  -1  -4  -5   22.19    0.61
  -1  -4  -5   21.09    0.66
   1   4   5   21.24    0.66
   1   4   5   20.49    1.13
   1   4   5   20.60    0.63
   1   4   5   21.55    0.63
  -2  -4  -5   13.34    0.48
  -2  -4  -5   12.86    0.48
  -2  -4  -5   13.38    0.44
   2   4   5   13.15    0.46
   2   4   5   13.18    0.49
  -3  -4  -5    9.00    0.41
  -3  -4  -5    9.46    0.40
   3   4   5   10.17    0.43
   3   4   5    8.91    0.37
  -4  -4  -5    2.06    0.22
  -4  -4  -5    1.77    0.21
   4   4   5    1.29    0.19
  -5  -4  -5    1.40    0.21
  -5  -4  -5    1.35    0.19
   5   4   5    1.32    0.21
  -6  -4  -5    2.07    0.27
  -6  -4  -5    1.97    0.23
   6   4   5    2.16    0.27
  -7  -4  -5    0.25    0.18
  -7  -4  -5    0.51    0.17
   7   4   5    0.32    0.16
  -8  -4  -5    0.40    0.20
   8   4   5    0.33    0.19
 -12   5   5    0.13    0.08
 -12   5   5    0.08    0.07
 -11   5   5    1.16    0.11
 -11   5   5    1.21    0.11
  -7   5   5    2.16    0.40
  -6   5   5    1.04    0.27
  -5   5   5    5.18    0.18
  -5   5   5    5.00    0.48
  -5   5   5    5.36    0.18
  -5   5   5    5.21    0.18
  -4   5   5   27.50    1.35
  -4   5   5   26.69    0.71
  -4   5   5   27.85    0.71
  -4   5   5   25.71    0.68
  -4   5   5   27.73    0.68
  -4   5   5   26.40    0.68
   3  -5  -5    2.85    0.20
   3  -5  -5    2.17    0.11
  -3   5   5    3.24    0.37
  -3   5   5    3.06    0.16
  -3   5   5    3.21    0.17
  -3   5   5    2.71    0.14
  -3   5   5    3.15    0.16
  -3   5   5    2.95    0.14
   2  -5  -5    6.15    0.23
   2  -5  -5    5.40    0.28
  -2   5   5    5.81    0.24
  -2   5   5    5.74    0.25
  -2   5   5    5.63    0.23
  -2   5   5    5.51    0.23
  -2   5   5    5.22    0.48
   1  -5  -5   13.49    0.44
   1  -5  -5   13.08    0.47
  -1   5   5   13.45    0.82
  -1   5   5   13.39    0.46
  -1   5   5   13.97    0.44
  -1   5   5   13.56    0.43
   0  -5  -5   18.89    0.59
   0  -5  -5   18.89    0.62
   0   5   5   19.00    0.58
   0   5   5   19.01    0.61
   0   5   5   19.14    0.58
   0   5   5   18.80    1.05
  -1  -5  -5    3.78    0.25
  -1  -5  -5    3.93    0.25
   1   5   5    3.57    0.25
   1   5   5    3.79    0.48
   1   5   5    4.27    0.23
  -2  -5  -5    0.95    0.16
  -2  -5  -5    0.59    0.13
   2   5   5    0.60    0.14
   2   5   5    1.03    0.15
  -3  -5  -5    0.15    0.12
  -3  -5  -5    0.18    0.12
   3   5   5    0.09    0.11
  -4  -5  -5    0.53    0.16
  -4  -5  -5    0.46    0.14
   4   5   5    0.53    0.15
  -5  -5  -5    0.28    0.15
  -5  -5  -5    0.51    0.16
   5   5   5    0.46    0.18
  -6  -5  -5    0.75    0.18
  -6  -5  -5    0.83    0.20
   6   5   5    0.74    0.21
  -7  -5  -5    0.55    0.21
   7   5   5    1.06    0.24
 -11   6   5    0.86    0.08
  -8   6   5   -0.11    0.20
  -7   6   5    0.78    0.31
  -6   6   5    8.23    0.24
  -6   6   5    8.88    0.26
  -6   6   5    8.33    0.24
  -6   6   5    8.37    0.67
  -5   6   5    7.01    0.25
  -5   6   5    6.88    0.23
  -5   6   5    6.92    0.22
  -5   6   5    6.69    0.22
  -5   6   5    7.58    0.62
  -4   6   5   20.57    0.58
  -4   6   5   22.33    0.57
  -4   6   5   20.38    0.58
  -4   6   5   22.07    1.17
  -4   6   5   20.90    0.60
   3  -6  -5    3.39    0.24
   3  -6  -5    3.50    0.16
  -3   6   5    3.13    0.19
  -3   6   5    3.26    0.18
  -3   6   5    3.42    0.17
  -3   6   5    3.19    0.42
  -3   6   5    3.09    0.18
   2  -6  -5    0.14    0.09
   2  -6  -5    0.10    0.07
  -2   6   5    0.20    0.07
  -2   6   5    0.06    0.06
  -2   6   5    0.04    0.08
  -2   6   5    0.02    0.18
   1  -6  -5   42.75    1.18
   1  -6  -5   42.82    1.14
  -1   6   5   41.12    1.16
  -1   6   5   43.14    1.15
  -1   6   5   42.85    1.15
  -1   6   5   43.22    2.01
   0  -6  -5   16.02    0.54
   0  -6  -5   15.97    0.57
   0   6   5   15.90    0.57
   0   6   5   16.43    0.54
   0   6   5   15.75    0.97
  -1  -6  -5   11.49    0.47
  -1  -6  -5   11.74    0.47
   1   6   5   10.81    0.46
   1   6   5   11.48    0.44
   1   6   5   11.67    0.85
  -2  -6  -5    3.99    0.29
  -2  -6  -5    4.05    0.28
   2   6   5    3.24    0.52
   2   6   5    3.98    0.26
   2   6   5    3.85    0.30
  -3  -6  -5    2.24    0.24
  -3  -6  -5    2.17    0.25
   3   6   5    1.90    0.25
  -4  -6  -5    0.52    0.15
  -4  -6  -5    0.75    0.19
   4   6   5    0.39    0.17
  -5  -6  -5    0.05    0.14
  -5  -6  -5    0.41    0.15
   5   6   5    0.35    0.18
  -6  -6  -5    1.26    0.27
   6   6   5    1.34    0.25
 -11   7   5    1.54    0.44
 -10   7   5    0.07    0.30
  -9   7   5   -0.24    0.24
  -8   7   5    0.65    0.33
  -7   7   5    4.45    0.18
  -7   7   5    4.96    0.58
  -7   7   5    4.71    0.17
  -7   7   5    4.47    0.17
  -6   7   5    6.60    0.23
  -6   7   5    6.21    0.22
  -6   7   5    6.44    0.24
  -6   7   5    6.15    0.62
  -5   7   5    9.85    0.34
  -5   7   5    9.56    0.32
  -5   7   5    9.18    0.32
  -5   7   5    9.99    0.76
  -4   7   5   10.50    0.36
  -4   7   5   11.13    0.35
  -4   7   5   10.36    0.36
  -4   7   5   10.83    0.78
  -4   7   5   10.36    0.38
   3  -7  -5    6.56    0.26
  -3   7   5    6.26    0.30
  -3   7   5    6.00    0.27
  -3   7   5    6.25    0.58
  -3   7   5    6.33    0.27
   2  -7  -5    2.22    0.18
   2  -7  -5    2.87    0.26
  -2   7   5    2.91    0.21
  -2   7   5    3.03    0.48
  -2   7   5    2.81    0.20
  -2   7   5    2.98    0.22
   1  -7  -5   14.82    0.51
   1  -7  -5   14.27    0.55
  -1   7   5   13.94    0.53
  -1   7   5   14.54    0.51
  -1   7   5   15.66    0.97
   0  -7  -5   11.62    0.49
   0  -7  -5   11.83    0.46
   0   7   5   10.87    0.45
   0   7   5   11.19    0.48
   0   7   5   11.39    0.84
  -1  -7  -5    1.06    0.18
  -1  -7  -5    0.87    0.16
   1   7   5    1.07    0.39
   1   7   5    0.86    0.18
   1   7   5    0.80    0.15
  -2  -7  -5    3.65    0.30
  -2  -7  -5    3.04    0.29
   2   7   5    3.77    0.34
  -3  -7  -5    1.27    0.23
  -3  -7  -5    1.20    0.21
   3   7   5    1.32    0.24
  -4  -7  -5    1.71    0.27
  -4  -7  -5    1.53    0.25
   4   7   5    1.97    0.29
  -5  -7  -5    0.26    0.18
   5   7   5    0.04    0.18
 -11   8   5    0.20    0.06
 -11   8   5    0.05    0.06
 -10   8   5    0.31    0.06
 -10   8   5    0.82    0.43
 -10   8   5    0.25    0.06
  -9   8   5    0.01    0.05
  -9   8   5    0.08    0.05
  -9   8   5    0.16    0.31
  -8   8   5    1.64    0.45
  -8   8   5    1.38    0.11
  -8   8   5    1.66    0.12
  -7   8   5    1.56    0.13
  -7   8   5    1.24    0.11
  -7   8   5    1.40    0.12
  -7   8   5    1.42    0.13
  -7   8   5    1.34    0.42
  -6   8   5    2.18    0.45
  -6   8   5    1.84    0.14
  -6   8   5    1.72    0.15
  -6   8   5    1.98    0.16
  -5   8   5    2.21    0.17
  -5   8   5    2.88    0.49
  -5   8   5    2.80    0.20
  -5   8   5    2.36    0.17
  -4   8   5    2.68    0.18
  -4   8   5    2.62    0.19
  -4   8   5    2.44    0.45
  -4   8   5    2.48    0.20
  -3   8   5    2.00    0.19
  -3   8   5    2.13    0.44
  -3   8   5    1.77    0.20
  -2   8   5    1.57    0.38
  -2   8   5    1.26    0.17
  -2   8   5    1.56    0.19
   1  -8  -5    2.33    0.26
   1  -8  -5    2.31    0.22
  -1   8   5    1.84    0.21
  -1   8   5    2.29    0.46
  -1   8   5    2.32    0.24
   0  -8  -5    4.75    0.30
   0  -8  -5    5.28    0.35
   0   8   5    4.95    0.30
   0   8   5    5.36    0.35
   0   8   5    4.51    0.61
  -1  -8  -5    3.07    0.31
  -1  -8  -5    3.06    0.29
   1   8   5    3.12    0.59
   1   8   5    2.56    0.29
  -2  -8  -5    1.53    0.24
  -2  -8  -5    0.85    0.20
   2   8   5    0.90    0.22
  -3  -8  -5    2.01    0.28
   3   8   5    1.93    0.29
  -4  -8  -5    0.11    0.17
   4   8   5    0.22    0.19
 -10   9   5    0.42    0.08
 -10   9   5    0.36    0.09
 -10   9   5    0.88    0.40
  -9   9   5    1.54    0.47
  -9   9   5    1.48    0.14
  -9   9   5    1.55    0.14
  -8   9   5    1.79    0.49
  -8   9   5    1.39    0.14
  -8   9   5    1.28    0.13
  -7   9   5    2.84    0.55
  -7   9   5    2.60    0.19
  -7   9   5    2.29    0.17
  -7   9   5    2.51    0.19
  -7   9   5    2.56    0.19
  -6   9   5    1.08    0.15
  -6   9   5    0.97    0.14
  -6   9   5    1.53    0.43
  -5   9   5    4.25    0.25
  -5   9   5    4.46    0.27
  -5   9   5    4.97    0.62
  -4   9   5    3.34    0.54
  -4   9   5    3.48    0.26
  -4   9   5    2.82    0.23
  -3   9   5    3.12    0.54
  -3   9   5    2.66    0.26
  -3   9   5    2.40    0.23
  -2   9   5    0.34    0.13
  -2   9   5    0.45    0.14
  -2   9   5    0.92    0.34
  -1   9   5    1.85    0.44
  -1   9   5    1.36    0.19
  -1   9   5    1.28    0.22
   0   9   5    2.25    0.52
   0   9   5    2.53    0.31
  -1  -9  -5    0.56    0.16
   1   9   5    1.00    0.22
   1   9   5    0.31    0.43
  -2  -9  -5    0.71    0.20
   2   9   5    1.01    0.24
  -9  10   5    0.04    0.08
  -9  10   5    0.15    0.32
  -8  10   5    0.16    0.10
  -8  10   5    0.20    0.34
  -7  10   5    0.15    0.10
  -7  10   5    0.10    0.10
  -7  10   5    0.19    0.10
  -7  10   5   -0.12    0.27
  -6  10   5    1.09    0.17
  -6  10   5    1.31    0.42
  -6  10   5    0.65    0.14
  -5  10   5    0.19    0.29
  -5  10   5    0.01    0.11
  -5  10   5    0.18    0.11
  -4  10   5    3.35    0.27
  -4  10   5    4.15    0.65
  -4  10   5    3.13    0.28
  -3  10   5    0.48    0.16
  -3  10   5    0.64    0.33
  -3  10   5    0.34    0.14
  -2  10   5    0.27    0.14
  -2  10   5    0.22    0.15
  -2  10   5    0.89    0.34
  -1  10   5    1.71    0.26
  -1  10   5    1.99    0.49
   0  10   5    1.06    0.25
   0  10   5    1.07    0.50
   1  10   5    0.20    0.50
   1  10   5    0.63    0.23
  -8  11   5    0.07    0.29
  -8  11   5    0.06    0.11
  -7  11   5    0.85    0.39
  -7  11   5    0.36    0.12
  -7  11   5    0.29    0.12
  -7  11   5    0.26    0.12
  -6  11   5    0.33    0.30
  -6  11   5    0.08    0.11
  -6  11   5    0.19    0.13
  -5  11   5    1.13    0.20
  -5  11   5    1.00    0.39
  -5  11   5    1.07    0.18
  -4  11   5    2.93    0.30
  -4  11   5    2.88    0.28
  -4  11   5    3.53    0.65
  -3  11   5    3.70    0.35
  -3  11   5    6.12    0.71
  -3  11   5    4.16    0.34
  -2  11   5    1.47    0.26
  -2  11   5    2.29    0.53
  -1  11  -6    0.90    0.24
   1 -11   6    0.64    0.21
  -2  11  -6    0.74    0.22
   2 -11   6    0.37    0.17
  -3  11  -6   -0.15    0.16
   3 -11   6   -0.01    0.13
   3 -11   6    0.18    0.12
  -4  11  -6    0.80    0.22
   4 -11   6    0.36    0.17
  -5  11  -6    0.25    0.18
  -6  11  -6    0.25    0.18
  -7  11  -6    0.95    0.23
   2  10  -6    3.02    0.36
   1  10  -6   -0.07    0.16
  -1 -10   6   -0.09    0.13
   0  10  -6    0.54    0.21
   0 -10   6    0.77    0.20
  -1  10  -6    1.52    0.26
   1 -10   6    1.95    0.24
   1 -10   6    1.68    0.25
  -2  10  -6    0.44    0.18
   2 -10   6    0.38    0.15
   2 -10   6    0.54    0.16
  -3  10  -6    2.52    0.31
   3 -10   6    1.55    0.23
   3 -10   6    2.77    0.26
  -4  10  -6    0.89    0.21
   4 -10   6    0.51    0.17
   4 -10   6    0.76    0.16
  -5  10  -6    1.11    0.22
   5 -10   6    1.03    0.20
   5 -10   6    1.21    0.17
  -6  10  -6    0.27    0.16
  -7  10  -6    1.35    0.25
  -8  10  -6    2.39    0.31
   3   9  -6    3.19    0.34
  -3  -9   6    3.14    0.35
   2   9  -6    6.85    0.45
  -2  -9   6    6.77    0.46
   1   9  -6    0.67    0.21
  -1  -9   6    0.29    0.16
  -1  -9   6    0.57    0.17
   0   9  -6    0.51    0.18
   0  -9   6    0.27    0.14
   0  -9   6    0.24    0.15
  -1   9  -6    1.10    0.22
   1  -9   6    1.42    0.22
   1  -9   6    1.29    0.20
  -2   9  -6    0.16    0.15
   2  -9   6    0.40    0.13
   2  -9   6    0.50    0.15
  -3   9  -6    0.96    0.20
   3  -9   6    0.65    0.17
   3  -9   6    0.62    0.15
  -4   9  -6    3.58    0.34
   4  -9   6    3.00    0.29
   4  -9   6    3.14    0.25
  -5   9  -6    1.97    0.26
   5  -9   6    2.15    0.25
   5  -9   6    1.92    0.20
  -6   9  -6    1.03    0.21
  -6   9  -6    1.09    0.18
   6  -9   6    0.99    0.18
   6  -9   6    1.08    0.16
  -7   9  -6    0.13    0.15
  -7   9  -6   -0.05    0.10
  -8   9  -6    0.33    0.14
  -8   9  -6    0.59    0.19
  -9   9  -6   -0.02    0.11
  -9   9  -6    0.13    0.15
  -5  -8   6    0.41    0.19
   4   8  -6    1.99    0.27
  -4  -8   6    1.83    0.28
   3   8  -6    1.23    0.23
  -3  -8   6    0.79    0.21
  -3  -8   6    0.71    0.20
   2   8  -6    5.89    0.40
  -2  -8   6    5.89    0.38
  -2  -8   6    6.23    0.40
   1   8  -6    4.13    0.33
  -1  -8   6    4.35    0.32
  -1  -8   6    3.43    0.32
   0   8  -6    0.19    0.13
   0  -8   6    0.07    0.11
   0  -8   6   -0.08    0.09
  -1   8  -6    3.47    0.29
   1  -8   6    3.50    0.29
   1  -8   6    3.49    0.27
  -2   8  -6    0.81    0.18
   2  -8   6    0.94    0.16
   2  -8   6    0.76    0.16
  -3   8  -6    1.29    0.20
   3  -8   6    0.89    0.17
   3  -8   6    0.91    0.16
  -4   8  -6    2.60    0.22
  -4   8  -6    2.52    0.27
   4  -8   6    1.94    0.24
   4  -8   6    2.12    0.21
  -5   8  -6    2.82    0.29
  -5   8  -6    2.95    0.25
   5  -8   6    2.98    0.25
   5  -8   6    3.07    0.23
  -6   8  -6    0.33    0.14
  -6   8  -6    0.43    0.13
   6  -8   6    0.36    0.13
   6  -8   6    0.22    0.09
  -7   8  -6    0.30    0.15
  -7   8  -6    0.23    0.12
  -8   8  -6    0.65    0.15
  -8   8  -6    0.38    0.17
  -9   8  -6    1.30    0.23
  -9   8  -6    1.14    0.20
 -10   8  -6   -0.04    0.15
 -10   8  -6    0.09    0.13
  -6  -7   6    0.20    0.17
  -5  -7   6    0.99    0.22
   4   7  -6    0.07    0.13
  -4  -7   6    0.16    0.13
  -4  -7   6   -0.13    0.12
   3   7  -6    3.72    0.31
  -3  -7   6    4.02    0.34
  -3  -7   6    3.90    0.32
   2   7  -6    4.91    0.34
  -2  -7   6    5.73    0.34
  -2  -7   6    4.77    0.33
   1   7  -6   10.63    0.49
  -1  -7   6   11.07    0.46
  -1  -7   6   10.78    0.48
   0   7  -6    0.03    0.11
   0  -7   6   -0.02    0.10
   0  -7   6   -0.06    0.09
  -1   7  -6    4.76    0.32
   1  -7   6    5.04    0.32
   1  -7   6    5.26    0.30
  -2   7  -6    9.67    0.44
  -2   7  -6   10.26    0.41
   2  -7   6    9.98    0.41
   2  -7   6    9.97    0.44
  -3   7  -6    4.82    0.31
  -3   7  -6    5.66    0.29
   3  -7   6    4.93    0.30
   3  -7   6    5.27    0.29
  -4   7  -6   14.02    0.51
  -4   7  -6   13.26    0.54
   4  -7   6   13.66    0.48
   4  -7   6   13.66    0.53
  -5   7  -6    1.49    0.18
  -5   7  -6    1.36    0.20
   5  -7   6    1.11    0.17
   5  -7   6    1.43    0.16
  -6   7  -6    2.48    0.26
  -6   7  -6    3.06    0.24
   6  -7   6    3.15    0.22
   6  -7   6    3.02    0.24
  -7   7  -6    0.13    0.10
  -7   7  -6    0.08    0.13
   7  -7   6    0.02    0.10
   7  -7   6    0.10    0.08
  -8   7  -6    1.11    0.21
  -8   7  -6    1.37    0.20
  -9   7  -6    1.16    0.19
  -9   7  -6    0.82    0.20
 -10   7  -6    0.10    0.14
 -10   7  -6    0.14    0.13
  -7  -6   6    0.51    0.20
  -6  -6   6    0.70    0.19
   5   6  -6    0.57    0.15
  -5  -6   6    0.81    0.19
  -5  -6   6    0.62    0.17
   4   6  -6    1.14    0.19
  -4  -6   6    0.90    0.16
  -4  -6   6    0.71    0.16
  -4  -6   6    0.78    0.18
   3   6  -6    3.03    0.27
  -3  -6   6    3.15    0.27
  -3  -6   6    2.61    0.22
  -3  -6   6    2.90    0.27
   2   6  -6   12.29    0.51
  -2  -6   6   14.33    0.50
  -2  -6   6   13.61    0.51
  -2  -6   6   12.03    0.51
   1   6  -6    0.12    0.11
   1   6  -6    0.09    0.07
  -1  -6   6    0.12    0.08
  -1  -6   6    0.13    0.10
  -1  -6   6    0.16    0.10
   0   6  -6    3.25    0.25
   0  -6   6    3.13    0.24
   0  -6   6    3.04    0.21
   0  -6   6    3.38    0.25
  -1   6  -6    1.80    0.20
  -1   6  -6    1.49    0.16
   1  -6   6    1.68    0.19
   1  -6   6    1.76    0.16
   1  -6   6    1.54    0.17
  -2   6  -6   11.16    0.46
  -2   6  -6   12.51    0.44
   2  -6   6   11.94    0.43
   2  -6   6   11.40    0.46
   2  -6   6   11.88    0.44
  -3   6  -6    6.67    0.34
  -3   6  -6    7.33    0.32
   3  -6   6    6.65    0.34
   3  -6   6    6.96    0.31
  -4   6  -6    1.96    0.21
  -4   6  -6    2.89    0.21
   4  -6   6    2.54    0.20
   4  -6   6    2.33    0.22
  -5   6  -6    2.95    0.22
  -5   6  -6    2.99    0.25
   5  -6   6    2.50    0.23
   5  -6   6    2.70    0.20
  -6   6  -6    1.54    0.18
  -6   6  -6    1.31    0.20
   6  -6   6    1.42    0.18
   6  -6   6    1.56    0.17
  -7   6  -6    3.92    0.31
  -7   6  -6    4.00    0.27
   7  -6   6    4.12    0.27
  -8   6  -6    1.99    0.23
  -8   6  -6    2.18    0.26
  -9   6  -6    2.81    0.31
  -9   6  -6    2.54    0.26
 -10   6  -6    0.25    0.14
 -10   6  -6    0.50    0.18
  -8  -5   6    0.87    0.20
  -7  -5   6    0.43    0.17
  -7  -5   6    0.67    0.16
  -6  -5   6    1.22    0.20
  -6  -5   6    1.13    0.19
  -6  -5   6    0.86    0.16
   5   5  -6    3.05    0.25
  -5  -5   6    3.29    0.27
  -5  -5   6    3.15    0.29
  -5  -5   6    3.22    0.25
   4   5  -6    2.61    0.24
  -4  -5   6    2.49    0.25
  -4  -5   6    2.81    0.27
  -4  -5   6    2.70    0.22
   3   5  -6   19.50    0.67
  -3  -5   6   19.69    0.64
  -3  -5   6   21.12    0.67
  -3  -5   6   19.59    0.67
   2   5  -6   13.31    0.50
  -2  -5   6   13.20    0.47
  -2  -5   6   13.39    0.50
  -2  -5   6   13.57    0.50
   1   5  -6   14.42    0.52
  -1  -5   6   13.38    0.51
  -1  -5   6   15.17    0.51
  -1  -5   6   15.01    0.50
   0   5  -6    5.94    0.31
   0  -5   6    6.26    0.28
   0  -5   6    6.02    0.30
   0  -5   6    6.37    0.30
  -1   5  -6   22.15    0.70
  -1   5  -6   23.70    0.68
   1  -5   6   22.28    0.67
   1  -5   6   21.84    0.70
   1  -5   6   22.12    0.66
  -2   5  -6    4.38    0.23
  -2   5  -6    4.15    0.26
   2  -5   6    3.99    0.24
   2  -5   6    4.33    0.25
   2  -5   6    4.18    0.22
  -3   5  -6    3.66    0.22
  -3   5  -6    3.58    0.24
   3  -5   6    3.50    0.22
   3  -5   6    3.44    0.24
  -4   5  -6    3.00    0.23
  -4   5  -6    3.37    0.21
   4  -5   6    3.04    0.22
   4  -5   6    3.06    0.21
  -5   5  -6    2.27    0.22
  -5   5  -6    2.30    0.20
   5  -5   6    2.21    0.21
  -6   5  -6    3.80    0.24
  -6   5  -6    3.26    0.27
   6  -5   6    3.60    0.25
  -7   5  -6    4.54    0.32
  -7   5  -6    4.88    0.29
   7  -5   6    4.57    0.29
  -8   5  -6    1.76    0.23
  -8   5  -6    1.69    0.21
   8  -5   6    1.76    0.21
  -9   5  -6    0.45    0.17
  -9   5  -6    0.59    0.15
 -10   5  -6    0.74    0.17
 -10   5  -6    0.76    0.19
  -8  -4   6    0.66    0.18
  -8  -4   6    0.54    0.15
  -8  -4   6    0.60    0.19
  -7  -4   6    2.58    0.26
  -7  -4   6    3.34    0.31
  -7  -4   6    3.08    0.26
  -6  -4   6    4.76    0.29
  -6  -4   6    4.19    0.29
  -6  -4   6    4.91    0.32
   5   4  -6    5.00    0.28
  -5  -4   6    4.96    0.28
  -5  -4   6    4.39    0.29
  -5  -4   6    4.69    0.30
   4   4  -6    9.17    0.38
  -4  -4   6    9.41    0.38
  -4  -4   6    8.88    0.39
  -4  -4   6    9.30    0.40
   3   4  -6    0.75    0.06
   3   4  -6    0.65    0.13
  -3  -4   6    0.71    0.12
  -3  -4   6    0.48    0.12
  -3  -4   6    0.64    0.13
   2   4  -6   21.38    0.66
  -2  -4   6   21.07    0.66
  -2  -4   6   21.21    0.64
  -2  -4   6   20.38    0.64
  -2  -4   6   20.64    0.63
   1   4  -6   15.73    0.53
   1   4  -6   15.63    0.48
  -1  -4   6   15.56    0.52
  -1  -4   6   15.35    0.50
  -1  -4   6   16.28    0.51
  -1  -4   6   15.32    0.51
   0   4  -6   22.38    0.67
   0   4  -6   17.62    0.60
   0  -4   6   21.63    0.64
   0  -4   6   22.52    0.64
   0  -4   6   21.53    0.66
   0  -4   6   23.23    0.64
  -1   4  -6   12.58    0.46
  -1   4  -6   13.44    0.43
   1  -4   6   13.07    0.44
   1  -4   6   12.90    0.46
   1  -4   6   12.89    0.43
  -2   4  -6    2.36    0.16
  -2   4  -6    2.39    0.19
   2  -4   6    2.11    0.19
   2  -4   6    2.55    0.16
   2  -4   6    2.13    0.17
  -3   4  -6    3.00    0.19
  -3   4  -6    2.92    0.21
   3  -4   6    2.57    0.20
  -4   4  -6    1.67    0.17
  -4   4  -6    1.82    0.19
  -4   4  -6    1.70    0.16
   4  -4   6    1.44    0.16
   4  -4   6    1.55    0.13
  -5   4  -6    0.07    0.07
  -5   4  -6    0.19    0.11
   5  -4   6    0.11    0.09
  -6   4  -6    0.98    0.16
  -6   4  -6    1.05    0.14
   6  -4   6    1.03    0.16
  -7   4  -6    5.76    0.34
  -7   4  -6    5.58    0.31
   7  -4   6    5.81    0.32
  -8   4  -6    1.02    0.17
  -8   4  -6    1.25    0.21
   8  -4   6    1.28    0.19
  -9   4  -6    1.01    0.21
  -9   4  -6    1.10    0.19
 -10   4  -6    0.12    0.13
 -10   4  -6    0.33    0.17
  -9  -3   6    0.17    0.13
  -9  -3   6    0.34    0.16
  -9  -3   6    0.07    0.12
  -8  -3   6    0.34    0.15
  -8  -3   6    0.62    0.14
  -8  -3   6    0.73    0.17
  -7  -3   6    0.05    0.11
  -7  -3   6    0.04    0.10
  -7  -3   6    0.01    0.09
  -6  -3   6    4.35    0.28
  -6  -3   6    4.51    0.26
  -6  -3   6    4.65    0.29
   5   3  -6    4.13    0.23
  -5  -3   6    3.97    0.25
  -5  -3   6    3.97    0.23
  -5  -3   6    3.88    0.26
   4   3  -6    9.11    0.35
  -4  -3   6    8.45    0.36
  -4  -3   6    8.90    0.37
  -4  -3   6    8.45    0.34
  -4  -3   6    8.66    0.34
   3   3  -6    2.21    0.17
  -3  -3   6    2.23    0.19
  -3  -3   6    2.11    0.16
  -3  -3   6    2.49    0.17
  -3  -3   6    2.29    0.18
   2   3  -6   19.59    0.59
  -2  -3   6   19.72    0.58
  -2  -3   6   19.29    0.58
  -2  -3   6   19.44    0.60
  -2  -3   6   18.79    0.58
   1   3  -6   45.24    1.15
   1   3  -6   44.50    1.84
   1   3  -6   44.72    1.18
  -1  -3   6   43.15    1.18
  -1  -3   6   46.27    1.18
  -1  -3   6   44.31    1.14
  -1  -3   6   44.97    1.17
  -1  -3   6   44.34    1.16
   0   3  -6    4.96    0.22
   0   3  -6    5.18    0.25
   0  -3   6    5.21    0.23
   0  -3   6    5.07    0.25
   0  -3   6    5.09    0.23
   0  -3   6    5.08    0.23
   0  -3   6    5.34    0.25
  -1   3  -6   20.13    0.61
  -1   3  -6   18.06    0.57
   1  -3   6   20.49    0.61
   1  -3   6   21.05    0.60
   1  -3   6   20.72    0.59
  -2   3  -6    5.33    0.26
  -2   3  -6    5.08    0.23
   2  -3   6    5.22    0.23
  -3   3  -6   13.84    0.49
  -3   3  -6   14.30    0.46
   3  -3   6   14.20    0.45
   3  -3   6   13.05    0.47
  -4   3  -6    6.49    0.28
  -4   3  -6    6.38    0.29
  -4   3  -6    6.03    0.31
   4  -3   6    6.73    0.31
   4  -3   6    6.03    0.26
  -5   3  -6    3.86    0.23
  -5   3  -6    3.77    0.26
   5  -3   6    3.69    0.25
  -6   3  -6    1.06    0.16
  -6   3  -6    1.09    0.14
   6  -3   6    1.08    0.16
  -7   3  -6    4.59    0.28
  -7   3  -6    4.91    0.33
   7  -3   6    5.32    0.31
  -8   3  -6    1.95    0.24
  -8   3  -6    1.97    0.21
   8  -3   6    1.86    0.21
  -9   3  -6    0.96    0.20
  -9   3  -6    0.73    0.16
 -10   3  -6    0.47    0.19
 -10  -2   6   -0.04    0.12
 -10  -2   6   -0.08    0.12
  -9  -2   6    0.56    0.16
  -9  -2   6    0.79    0.16
  -9  -2   6    1.00    0.18
  -8  -2   6    2.96    0.25
  -8  -2   6    2.52    0.23
  -8  -2   6    2.37    0.24
  -7  -2   6    7.01    0.32
  -7  -2   6    6.95    0.33
  -7  -2   6    6.91    0.35
  -6  -2   6    3.33    0.21
  -6  -2   6    3.95    0.23
  -6  -2   6    3.33    0.21
  -6  -2   6    3.57    0.25
   5   2  -6    8.76    0.33
  -5  -2   6    9.15    0.34
  -5  -2   6    8.62    0.36
  -5  -2   6    8.25    0.33
  -5  -2   6    8.53    0.35
   4   2  -6    4.10    0.20
  -4  -2   6    3.74    0.20
  -4  -2   6    3.75    0.21
  -4  -2   6    3.79    0.23
  -4  -2   6    3.85    0.20
   3   2  -6   20.66    0.51
   3   2  -6   20.90    0.60
  -3  -2   6   20.58    0.61
  -3  -2   6   20.34    0.61
  -3  -2   6   20.65    0.60
  -3  -2   6   19.95    0.59
   2   2  -6   37.51    0.99
   2   2  -6   37.73    1.53
  -2  -2   6   38.04    0.97
  -2  -2   6   37.71    0.99
  -2  -2   6   36.52    1.00
  -2  -2   6   37.70    0.98
   1   2  -6   42.67    1.75
   1   2  -6   43.35    1.07
   1   2  -6   41.96    1.10
  -1  -2   6   41.18    1.11
  -1  -2   6   43.24    1.10
  -1  -2   6   41.30    1.09
  -1  -2   6   41.46    1.06
   0   2  -6   14.80    0.44
   0   2  -6   15.05    0.75
   0   2  -6   14.76    0.47
   0  -2   6   15.23    0.46
   0  -2   6   14.39    0.45
   0  -2   6   14.19    0.47
  -1   2  -6    5.89    0.26
   1  -2   6    5.66    0.23
   1  -2   6    5.49    0.24
   1  -2   6    5.59    0.25
  -2   2  -6   15.25    0.50
  -2   2  -6   15.67    0.48
   2  -2   6   15.56    0.51
   2  -2   6   15.44    0.48
  -3   2  -6   12.76    0.42
  -3   2  -6   12.56    0.45
   3  -2   6   12.71    0.44
   3  -2   6   12.52    0.41
  -4   2  -6    6.33    0.31
  -4   2  -6    6.74    0.29
   4  -2   6    6.49    0.31
  -5   2  -6   13.15    0.50
  -5   2  -6   13.56    0.47
   5  -2   6   12.67    0.48
  -6   2  -6   12.53    0.47
  -6   2  -6   12.47    0.50
   6  -2   6   13.20    0.49
  -7   2  -6    9.30    0.44
  -7   2  -6   10.29    0.43
   7  -2   6    9.34    0.43
  -8   2  -6    7.17    0.39
  -8   2  -6    6.68    0.36
   8  -2   6    6.13    0.35
  -9   2  -6    0.21    0.16
 -10   2  -6    0.61    0.20
 -10  -1   6    0.31    0.13
 -10  -1   6    0.18    0.12
  -9  -1   6    0.75    0.15
  -9  -1   6    0.87    0.15
  -9  -1   6    1.11    0.17
  -8  -1   6    3.97    0.24
  -8  -1   6    3.74    0.25
  -8  -1   6    4.37    0.27
  -7  -1   6    4.65    0.24
  -7  -1   6    4.31    0.25
  -7  -1   6    4.91    0.27
  -7  -1   6    4.45    0.24
  -6  -1   6   16.44    0.52
  -6  -1   6   14.94    0.49
  -6  -1   6   15.40    0.51
  -6  -1   6   16.39    0.50
   5   1  -6    1.77    0.12
  -5  -1   6    1.64    0.13
  -5  -1   6    1.61    0.13
  -5  -1   6    1.72    0.17
  -5  -1   6    1.67    0.15
   4   1  -6   13.46    0.40
  -4  -1   6   13.21    0.43
  -4  -1   6   13.07    0.41
  -4  -1   6   13.07    0.41
  -4  -1   6   12.78    0.40
  -4  -1   6   13.12    0.42
   3   1  -6   17.34    0.44
   3   1  -6   17.14    0.49
  -3  -1   6   16.59    0.50
  -3  -1   6   16.60    0.48
  -3  -1   6   16.80    0.50
  -3  -1   6   16.88    0.49
   2   1  -6    7.02    0.25
   2   1  -6    6.37    0.37
   2   1  -6    6.26    0.22
  -2  -1   6    6.49    0.26
  -2  -1   6    6.85    0.24
  -2  -1   6    6.28    0.25
  -2  -1   6    6.32    0.24
   1   1  -6    9.22    0.31
   1   1  -6    9.98    0.52
   1   1  -6    8.77    0.32
  -1  -1   6    9.58    0.33
  -1  -1   6    9.54    0.31
  -1  -1   6    9.93    0.32
   0   1  -6    8.79    0.32
   0   1  -6    8.99    0.29
   0  -1   6    8.48    0.30
   0  -1   6    8.96    0.30
   0  -1   6    8.83    0.32
  -1   1  -6   21.76    0.59
  -1   1  -6   20.57    0.62
   1  -1   6   20.51    0.62
   1  -1   6   20.51    0.59
   1  -1   6   21.52    0.60
  -2   1  -6   17.21    0.55
  -2   1  -6   17.71    0.52
   2  -1   6   17.10    0.55
   2  -1   6   18.54    0.53
   2  -1   6   17.11    0.52
  -3   1  -6    4.67    0.22
  -3   1  -6    4.89    0.25
   3  -1   6    4.57    0.25
   3  -1   6    4.54    0.22
  -4   1  -6   12.11    0.46
  -4   1  -6   11.94    0.42
   4  -1   6   12.18    0.41
   4  -1   6   12.38    0.46
  -5   1  -6    0.59    0.13
  -5   1  -6    0.85    0.12
   5  -1   6    0.55    0.13
  -6   1  -6    3.00    0.22
  -6   1  -6    2.38    0.23
   6  -1   6    2.96    0.25
  -7   1  -6    2.37    0.23
  -7   1  -6    2.28    0.25
  -7   1  -6    2.11    0.24
   7  -1   6    2.54    0.25
  -8   1  -6    1.18    0.21
  -8   1  -6    1.04    0.20
  -8   1  -6    1.50    0.21
   8  -1   6    1.59    0.22
  -9   1  -6    1.56    0.25
  -9   1  -6    1.15    0.22
 -10   1  -6    0.54    0.20
 -10   0   6    0.47    0.13
 -10   0   6    0.58    0.13
  -9   0   6    2.94    0.23
  -9   0   6    2.62    0.20
  -9   0   6    2.95    0.22
  -8   0   6    2.00    0.19
  -8   0   6    1.88    0.16
  -8   0   6    2.12    0.18
  -8   0   6    2.04    0.16
  -7   0   6    8.30    0.31
  -7   0   6    8.34    0.32
  -7   0   6    8.64    0.48
  -7   0   6    9.11    0.32
  -7   0   6    8.62    0.35
  -6   0   6   12.20    0.39
  -6   0   6   12.53    0.62
  -6   0   6   12.02    0.40
  -6   0   6   13.49    0.43
  -6   0   6   13.23    0.40
   5   0  -6    6.37    0.21
  -5   0   6    7.12    0.24
  -5   0   6    6.62    0.26
  -5   0   6    6.89    0.26
  -5   0   6    7.07    0.39
  -5   0   6    6.47    0.24
  -5   0   6    6.78    0.28
   4   0  -6   17.17    0.45
   4   0  -6   17.84    0.48
  -4   0   6   17.72    0.51
  -4   0   6   18.30    0.51
  -4   0   6   17.68    0.52
  -4   0   6   16.97    0.48
  -4   0   6   18.00    0.49
  -4   0   6   17.85    0.81
   3   0  -6   39.43    0.95
   3   0  -6   38.83    0.97
  -3   0   6   38.56    0.97
  -3   0   6   37.42    0.97
  -3   0   6   38.59    0.98
  -3   0   6   40.30    1.00
  -3   0   6   39.10    1.00
  -3   0   6   38.11    1.63
   2   0  -6    5.94    0.22
   2   0  -6    6.01    0.38
   2   0  -6    5.74    0.22
  -2   0   6    6.93    0.25
  -2   0   6    5.78    0.23
  -2   0   6    6.13    0.22
  -2   0   6    5.70    0.39
  -2   0   6    5.78    0.21
   1   0  -6    5.44    0.22
   1   0  -6    5.48    0.22
  -1   0   6    5.54    0.21
  -1   0   6    5.38    0.23
  -1   0   6    5.58    0.21
   0   0  -6    2.83    0.17
   0   0  -6    2.69    0.13
   0   0  -6    2.49    0.16
   0   0   6    2.70    0.15
   0   0   6    2.84    0.15
   0   0   6    2.53    0.16
  -1   0  -6   10.77    0.37
  -1   0  -6   10.61    0.37
  -1   0  -6   11.32    0.35
   1   0   6   11.59    0.37
   1   0   6   10.44    0.38
   1   0   6   10.50    0.36
  -2   0  -6    0.59    0.10
  -2   0  -6    0.64    0.11
   2   0   6    0.75    0.09
   2   0   6    0.92    0.12
   2   0   6    0.81    0.10
  -3   0  -6    9.82    0.35
  -3   0  -6   10.03    0.38
  -3   0  -6    9.57    0.38
   3   0   6    9.60    0.35
   3   0   6   10.05    0.38
  -4   0  -6   25.72    0.78
  -4   0  -6   27.15    0.81
  -4   0  -6   26.45    0.77
   4   0   6   26.44    0.80
   4   0   6   26.42    0.76
  -5   0  -6    0.82    0.13
  -5   0  -6    1.01    0.16
  -5   0  -6    0.83    0.15
   5   0   6    0.81    0.15
  -6   0  -6    0.07    0.11
  -6   0  -6    0.02    0.10
  -6   0  -6   -0.02    0.07
   6   0   6    0.16    0.11
  -7   0  -6    2.64    0.27
  -7   0  -6    2.50    0.26
  -7   0  -6    2.75    0.28
   7   0   6    2.65    0.26
  -8   0  -6    0.58    0.17
  -8   0  -6    0.57    0.17
   8   0   6    0.84    0.18
  -9   0  -6    2.07    0.29
  -9   0  -6    1.89    0.27
 -11   1   6    0.91    0.15
 -11   1   6    1.11    0.16
 -10   1   6    0.15    0.09
 -10   1   6    0.05    0.08
  -9   1   6    0.43    0.09
  -9   1   6    0.39    0.10
  -9   1   6    0.29    0.08
  -8   1   6    1.55    0.13
  -8   1   6    1.51    0.14
  -8   1   6    1.42    0.16
  -8   1   6    1.85    0.25
  -8   1   6    1.52    0.13
  -7   1   6    2.12    0.17
  -7   1   6    2.18    0.13
  -7   1   6    2.54    0.28
  -7   1   6    2.42    0.15
  -7   1   6    1.99    0.13
  -6   1   6    4.74    0.36
  -6   1   6    4.44    0.19
  -6   1   6    4.83    0.22
  -6   1   6    4.76    0.18
  -6   1   6    4.36    0.17
  -5   1   6   10.61    0.33
  -5   1   6   10.38    0.35
  -5   1   6   10.09    0.30
  -5   1   6   10.65    0.58
  -5   1   6   10.51    0.31
  -5   1   6   10.75    0.33
  -5   1   6   11.08    0.31
   4  -1  -6   12.20    0.36
  -4   1   6   12.23    0.64
  -4   1   6   12.42    0.34
  -4   1   6   11.98    0.34
  -4   1   6   12.43    0.37
  -4   1   6   12.22    0.36
  -4   1   6   12.30    0.36
  -4   1   6   12.08    0.38
   3  -1  -6   59.43    1.45
  -3   1   6   60.54    1.48
  -3   1   6   62.30    1.46
  -3   1   6   60.54    2.50
  -3   1   6   58.34    1.46
  -3   1   6   61.68    1.48
  -3   1   6   59.07    1.46
   2  -1  -6   22.97    0.64
   2  -1  -6   22.85    0.62
  -2   1   6   26.24    0.65
  -2   1   6   23.76    0.62
  -2   1   6   23.32    0.62
  -2   1   6   22.55    1.09
  -2   1   6   23.79    0.64
   1  -1  -6   12.64    0.38
   1  -1  -6   12.19    0.40
  -1   1   6   12.24    0.69
  -1   1   6   12.52    0.38
  -1   1   6   12.73    0.40
  -1   1   6   12.40    0.38
  -1   1   6   13.64    0.41
   0  -1  -6   25.66    0.71
   0  -1  -6   27.06    0.68
   0  -1  -6   25.31    0.71
   0   1   6   26.52    0.70
   0   1   6   25.47    0.72
   0   1   6   24.87    0.70
  -1  -1  -6   11.60    0.39
  -1  -1  -6   11.79    0.36
  -1  -1  -6   10.83    0.39
   1   1   6   11.14    0.38
   1   1   6   12.33    0.38
   1   1   6   11.08    0.40
  -2  -1  -6   17.57    0.56
  -2  -1  -6   17.17    0.56
   2   1   6   18.77    0.55
   2   1   6   17.80    0.57
   2   1   6   17.97    0.54
  -3  -1  -6   16.45    0.55
  -3  -1  -6   17.14    0.53
  -3  -1  -6   16.99    0.56
   3   1   6   17.33    0.54
   3   1   6   16.72    0.57
  -4  -1  -6   18.51    0.61
  -4  -1  -6   17.88    0.62
  -4  -1  -6   18.71    0.59
   4   1   6   18.63    0.58
   4   1   6   18.13    0.62
  -5  -1  -6    0.17    0.11
  -5  -1  -6    0.02    0.07
  -5  -1  -6    0.12    0.10
   5   1   6   -0.07    0.09
  -6  -1  -6    0.73    0.16
  -6  -1  -6    0.55    0.15
   6   1   6    0.62    0.15
  -7  -1  -6    2.21    0.26
  -7  -1  -6    2.35    0.26
   7   1   6    2.09    0.26
  -8  -1  -6    1.88    0.25
  -8  -1  -6    1.69    0.25
   8   1   6    1.74    0.24
  -9  -1  -6    0.39    0.18
 -11   2   6    0.83    0.13
 -10   2   6    0.51    0.10
 -10   2   6    0.44    0.09
 -10   2   6    0.40    0.09
  -9   2   6    0.62    0.09
  -9   2   6    0.76    0.10
  -9   2   6    0.67    0.10
  -8   2   6    2.42    0.14
  -8   2   6    2.38    0.13
  -8   2   6    2.33    0.13
  -8   2   6    2.48    0.16
  -8   2   6    2.63    0.33
  -7   2   6    1.74    0.28
  -7   2   6    1.30    0.09
  -7   2   6    1.26    0.10
  -7   2   6    1.13    0.08
  -7   2   6    1.48    0.13
  -6   2   6    1.11    0.09
  -6   2   6    1.09    0.09
  -6   2   6    1.32    0.24
  -6   2   6    1.32    0.12
  -6   2   6    1.20    0.11
  -5   2   6    5.00    0.18
  -5   2   6    5.00    0.21
  -5   2   6    5.19    0.40
  -5   2   6    5.34    0.21
  -5   2   6    5.07    0.18
   4  -2  -6   14.12    0.42
  -4   2   6   13.89    0.36
  -4   2   6   13.50    0.39
  -4   2   6   13.25    0.73
  -4   2   6   13.96    0.41
  -4   2   6   14.50    0.39
  -4   2   6   14.37    0.42
  -4   2   6   13.33    0.36
   3  -2  -6   39.70    0.96
   3  -2  -6   39.12    1.01
  -3   2   6   41.72    1.02
  -3   2   6   39.87    1.75
  -3   2   6   39.56    1.00
  -3   2   6   38.72    0.98
  -3   2   6   41.86    1.01
  -3   2   6   38.43    0.98
   2  -2  -6   36.05    0.96
   2  -2  -6   37.05    0.93
  -2   2   6   38.41    0.97
  -2   2   6   39.27    0.96
  -2   2   6   37.84    0.96
  -2   2   6   35.57    1.65
  -2   2   6   36.53    0.94
  -2   2   6   36.63    0.94
   1  -2  -6    3.32    0.16
   1  -2  -6    3.09    0.19
  -1   2   6    3.23    0.16
  -1   2   6    3.33    0.19
  -1   2   6    3.68    0.35
  -1   2   6    3.48    0.16
  -1   2   6    3.10    0.17
   0  -2  -6   22.05    0.64
   0  -2  -6   22.04    0.63
   0   2   6   22.38    0.62
   0   2   6   23.10    0.63
   0   2   6   21.79    0.64
   0   2   6   21.20    1.10
  -1  -2  -6    8.11    0.34
  -1  -2  -6    8.63    0.29
  -1  -2  -6    8.34    0.33
   1   2   6    8.36    0.33
   1   2   6    8.77    0.31
   1   2   6    7.97    0.31
  -2  -2  -6   29.09    0.79
  -2  -2  -6   27.87    0.82
  -2  -2  -6   27.82    0.82
   2   2   6   29.12    0.81
   2   2   6   27.79    0.83
   2   2   6   28.65    0.80
  -3  -2  -6   13.35    0.49
  -3  -2  -6   14.06    0.50
  -3  -2  -6   14.04    0.46
   3   2   6   14.05    0.47
   3   2   6   12.96    0.50
  -4  -2  -6    4.09    0.28
  -4  -2  -6    4.26    0.24
  -4  -2  -6    4.59    0.28
   4   2   6    4.46    0.24
   4   2   6    4.22    0.28
  -5  -2  -6    3.75    0.28
  -5  -2  -6    3.81    0.28
   5   2   6    3.78    0.29
  -6  -2  -6    0.01    0.12
  -6  -2  -6    0.02    0.11
   6   2   6    0.06    0.13
  -7  -2  -6    5.74    0.37
  -7  -2  -6    5.48    0.40
   7   2   6    5.66    0.39
  -8  -2  -6    2.51    0.28
  -8  -2  -6    3.23    0.34
   8   2   6    2.58    0.29
 -11   3   6    1.23    0.14
 -11   3   6    1.20    0.13
 -10   3   6    0.67    0.09
 -10   3   6    0.70    0.09
  -9   3   6    1.34    0.10
  -9   3   6    2.24    0.37
  -9   3   6    1.35    0.10
  -8   3   6    0.85    0.24
  -7   3   6    3.51    0.39
  -7   3   6    3.49    0.18
  -7   3   6    3.40    0.16
  -6   3   6   13.80    0.40
  -6   3   6   13.89    0.81
  -6   3   6   14.39    0.44
  -5   3   6    8.75    0.26
  -5   3   6    8.74    0.26
  -5   3   6    8.70    0.28
  -5   3   6    8.78    0.32
  -5   3   6    9.04    0.59
   4  -3  -6   28.48    0.79
  -4   3   6   28.05    0.71
  -4   3   6   30.27    0.80
  -4   3   6   30.25    0.75
  -4   3   6   29.46    0.74
  -4   3   6   28.22    0.71
  -4   3   6   29.30    1.38
   3  -3  -6   28.11    0.69
   3  -3  -6   27.15    0.76
  -3   3   6   28.12    1.33
  -3   3   6   26.81    0.71
  -3   3   6   27.22    0.71
  -3   3   6   28.20    0.73
  -3   3   6   29.44    0.74
  -3   3   6   28.53    0.77
   2  -3  -6   15.74    0.50
   2  -3  -6   16.18    0.45
  -2   3   6   16.25    0.50
  -2   3   6   16.23    0.47
  -2   3   6   15.88    0.86
  -2   3   6   15.88    0.45
  -2   3   6   15.17    0.45
  -2   3   6   15.41    0.47
   1  -3  -6   18.33    0.52
   1  -3  -6   17.78    0.56
  -1   3   6   17.91    0.54
  -1   3   6   18.28    0.52
  -1   3   6   18.48    0.56
  -1   3   6   17.71    0.52
  -1   3   6   17.59    0.95
   0  -3  -6   13.65    0.44
   0  -3  -6   12.53    0.45
   0   3   6   13.52    0.43
   0   3   6   13.29    0.81
   0   3   6   13.92    0.43
   0   3   6   13.43    0.45
  -1  -3  -6   30.07    0.77
  -1  -3  -6   27.53    0.81
  -1  -3  -6   27.95    0.81
   1   3   6   27.79    1.40
   1   3   6   28.22    0.79
   1   3   6   27.71    0.82
   1   3   6   27.59    0.79
  -2  -3  -6   12.23    0.46
  -2  -3  -6   12.58    0.42
  -2  -3  -6   11.62    0.45
   2   3   6   11.37    0.45
   2   3   6   12.25    0.43
   2   3   6   13.04    0.44
  -3  -3  -6    4.83    0.28
  -3  -3  -6    4.85    0.29
   3   3   6    5.13    0.30
   3   3   6    5.08    0.26
  -4  -3  -6    3.17    0.26
  -4  -3  -6    2.57    0.24
   4   3   6    3.22    0.27
  -5  -3  -6    2.65    0.25
  -5  -3  -6    2.70    0.28
   5   3   6    2.06    0.25
  -6  -3  -6    1.07    0.19
  -6  -3  -6    0.88    0.19
   6   3   6    1.22    0.21
  -7  -3  -6    1.77    0.24
  -7  -3  -6    2.04    0.28
   7   3   6    1.56    0.25
  -8  -3  -6    1.46    0.27
   8   3   6    1.56    0.26
 -11   4   6    0.88    0.10
 -11   4   6    0.81    0.10
 -10   4   6    1.85    0.12
 -10   4   6    1.79    0.11
 -10   4   6    3.51    0.46
  -9   4   6    1.83    0.38
  -8   4   6    0.00    0.17
  -7   4   6    3.99    0.44
  -7   4   6    3.33    0.20
  -7   4   6    3.55    0.14
  -6   4   6   15.37    0.43
  -6   4   6   16.48    0.93
  -6   4   6   16.41    0.51
  -5   4   6    3.57    0.14
  -5   4   6    3.54    0.14
  -5   4   6    3.72    0.21
  -5   4   6    3.33    0.40
   4  -4  -6   10.45    0.38
  -4   4   6   11.03    0.32
  -4   4   6   10.52    0.68
  -4   4   6   11.11    0.39
  -4   4   6   10.09    0.29
  -4   4   6   10.01    0.29
  -4   4   6   10.29    0.32
   3  -4  -6   18.94    0.59
  -3   4   6   18.97    0.52
  -3   4   6   18.44    0.52
  -3   4   6   19.11    1.02
  -3   4   6   19.04    0.54
  -3   4   6   19.85    0.55
   2  -4  -6   12.07    0.43
   2  -4  -6   12.65    0.38
  -2   4   6   12.15    0.75
  -2   4   6   12.29    0.40
  -2   4   6   11.97    0.38
  -2   4   6   12.68    0.40
  -2   4   6   12.06    0.38
   1  -4  -6    3.79    0.23
   1  -4  -6    4.08    0.20
  -1   4   6    3.85    0.21
  -1   4   6    3.72    0.19
  -1   4   6    4.18    0.20
  -1   4   6    4.16    0.43
   0  -4  -6    1.18    0.14
   0  -4  -6    0.86    0.14
   0   4   6    0.85    0.26
   0   4   6    1.03    0.12
   0   4   6    0.92    0.14
   0   4   6    1.22    0.13
  -1  -4  -6    0.64    0.13
  -1  -4  -6    0.67    0.13
   1   4   6    0.72    0.12
   1   4   6    0.48    0.26
   1   4   6    0.55    0.10
   1   4   6    1.00    0.15
  -2  -4  -6    0.38    0.12
  -2  -4  -6    0.56    0.13
   2   4   6    0.56    0.13
   2   4   6    0.65    0.12
  -3  -4  -6    0.52    0.14
  -3  -4  -6    0.63    0.14
   3   4   6    0.66    0.15
   3   4   6    0.44    0.10
  -4  -4  -6    3.12    0.28
  -4  -4  -6    2.53    0.25
   4   4   6    2.59    0.27
  -5  -4  -6    1.77    0.24
  -5  -4  -6    2.15    0.26
   5   4   6    1.89    0.25
  -6  -4  -6    0.62    0.19
  -6  -4  -6    1.00    0.20
   6   4   6    1.03    0.21
  -7  -4  -6    0.26    0.18
  -7  -4  -6    0.42    0.17
   7   4   6    0.35    0.18
 -11   5   6    0.03    0.05
 -10   5   6    0.25    0.23
  -9   5   6    0.23    0.24
  -8   5   6    2.61    0.45
  -7   5   6    4.57    0.51
  -6   5   6   15.18    0.41
  -6   5   6   15.99    0.96
  -5   5   6    1.93    0.09
  -5   5   6    2.40    0.41
  -5   5   6    1.79    0.09
  -5   5   6    1.86    0.11
  -5   5   6    1.83    0.11
   4  -5  -6    0.11    0.09
  -4   5   6    0.15    0.19
  -4   5   6    0.17    0.07
  -4   5   6    0.15    0.06
  -4   5   6    0.22    0.05
  -4   5   6    0.16    0.06
  -4   5   6    0.23    0.05
   3  -5  -6   36.00    0.98
   3  -5  -6   39.81    1.08
  -3   5   6   39.22    1.02
  -3   5   6   39.92    1.86
  -3   5   6   39.42    1.01
  -3   5   6   39.31    1.03
  -3   5   6   40.71    1.03
  -3   5   6   41.79    1.00
   2  -5  -6   23.50    0.63
   2  -5  -6   22.36    0.70
  -2   5   6   21.87    1.19
  -2   5   6   21.99    0.64
  -2   5   6   22.52    0.64
  -2   5   6   22.21    0.66
   1  -5  -6   11.18    0.44
   1  -5  -6   11.65    0.40
  -1   5   6   11.10    0.40
  -1   5   6   11.37    0.42
  -1   5   6   11.80    0.78
  -1   5   6   11.72    0.40
   0  -5  -6   11.16    0.42
   0  -5  -6   11.27    0.45
   0   5   6   11.16    0.42
   0   5   6   12.01    0.45
   0   5   6   11.24    0.42
   0   5   6   11.48    0.81
  -1  -5  -6    1.12    0.16
  -1  -5  -6    1.07    0.16
   1   5   6    1.33    0.18
   1   5   6    1.02    0.14
   1   5   6    1.23    0.37
  -2  -5  -6    0.22    0.11
  -2  -5  -6    0.45    0.13
   2   5   6    0.21    0.12
   2   5   6    0.14    0.08
  -3  -5  -6    0.68    0.16
  -3  -5  -6    0.54    0.15
   3   5   6    0.56    0.16
  -4  -5  -6    4.36    0.33
  -4  -5  -6    5.35    0.35
   4   5   6    4.30    0.34
  -5  -5  -6    2.29    0.29
  -5  -5  -6    1.90    0.25
   5   5   6    2.09    0.27
  -6  -5  -6    1.11    0.24
  -6  -5  -6    0.81    0.20
   6   5   6    1.18    0.24
 -10   6   6    0.32    0.27
  -9   6   6    1.30    0.37
  -8   6   6    7.17    0.70
  -7   6   6    6.94    0.66
  -6   6   6    9.70    0.29
  -6   6   6   10.45    0.78
  -6   6   6    9.31    0.27
  -6   6   6    9.18    0.28
  -5   6   6    4.38    0.18
  -5   6   6    3.97    0.51
  -5   6   6    4.46    0.18
  -5   6   6    4.38    0.20
  -4   6   6    1.96    0.16
  -4   6   6    2.34    0.15
  -4   6   6    2.00    0.14
  -4   6   6    2.74    0.43
  -4   6   6    2.30    0.14
   3  -6  -6   26.00    0.80
   3  -6  -6   26.42    0.70
  -3   6   6   26.78    1.38
  -3   6   6   25.33    0.74
  -3   6   6   25.11    0.73
  -3   6   6   26.32    0.73
   2  -6  -6   14.41    0.53
   2  -6  -6   14.69    0.47
  -2   6   6   15.00    0.94
  -2   6   6   14.55    0.47
  -2   6   6   14.19    0.50
  -2   6   6   14.11    0.48
   1  -6  -6    3.20    0.25
   1  -6  -6    3.15    0.21
  -1   6   6    3.55    0.52
  -1   6   6    3.32    0.24
  -1   6   6    3.64    0.22
   0  -6  -6    6.13    0.34
   0  -6  -6    5.79    0.30
   0   6   6    6.43    0.31
   0   6   6    6.09    0.33
   0   6   6    6.30    0.63
  -1  -6  -6    2.73    0.25
  -1  -6  -6    2.31    0.25
   1   6   6    2.71    0.49
   1   6   6    2.75    0.22
   1   6   6    2.59    0.26
  -2  -6  -6    3.48    0.28
  -2  -6  -6    3.39    0.31
   2   6   6    3.68    0.26
   2   6   6    3.76    0.30
  -3  -6  -6    2.39    0.27
  -3  -6  -6    2.80    0.28
   3   6   6    2.98    0.31
  -4  -6  -6    3.36    0.32
  -4  -6  -6    3.80    0.35
   4   6   6    3.45    0.35
  -5  -6  -6    2.89    0.34
   5   6   6    3.09    0.36
 -10   7   6    0.43    0.31
  -9   7   6    3.51    0.61
  -8   7   6    2.32    0.51
  -7   7   6    3.72    0.59
  -7   7   6    2.83    0.14
  -7   7   6    2.72    0.13
  -7   7   6    2.63    0.13
  -6   7   6    1.21    0.37
  -6   7   6    1.03    0.10
  -6   7   6    1.00    0.11
  -6   7   6    1.05    0.10
  -5   7   6    2.70    0.18
  -5   7   6    3.00    0.48
  -5   7   6    3.14    0.17
  -5   7   6    2.86    0.17
  -4   7   6    1.71    0.17
  -4   7   6    2.00    0.15
  -4   7   6    2.48    0.44
  -4   7   6    1.83    0.15
  -3   7   6    6.43    0.29
  -3   7   6    5.98    0.30
  -3   7   6    5.95    0.27
  -3   7   6    6.47    0.63
   2  -7  -6    8.50    0.41
   2  -7  -6    8.27    0.34
  -2   7   6    8.28    0.37
  -2   7   6    8.20    0.35
  -2   7   6    8.96    0.73
   1  -7  -6    4.61    0.26
   1  -7  -6    5.14    0.33
  -1   7   6    4.63    0.27
  -1   7   6    4.85    0.58
  -1   7   6    4.32    0.29
   0  -7  -6    1.64    0.20
   0  -7  -6    1.90    0.23
   0   7   6    2.27    0.25
   0   7   6    2.08    0.48
   0   7   6    1.83    0.21
  -1  -7  -6    1.84    0.23
  -1  -7  -6    1.67    0.22
   1   7   6    2.15    0.23
   1   7   6    2.26    0.53
   1   7   6    1.72    0.23
  -2  -7  -6    1.25    0.21
  -2  -7  -6    1.31    0.21
   2   7   6    1.23    0.22
  -3  -7  -6    1.32    0.22
  -3  -7  -6    0.93    0.21
   3   7   6    0.94    0.23
  -4  -7  -6    2.08    0.29
   4   7   6    2.77    0.34
 -10   8   6    1.75    0.47
  -9   8   6    2.38    0.13
  -9   8   6    2.30    0.13
  -9   8   6    3.35    0.65
  -8   8   6    1.96    0.51
  -8   8   6    0.96    0.10
  -8   8   6    1.13    0.10
  -7   8   6    2.21    0.15
  -7   8   6    2.49    0.15
  -7   8   6    2.54    0.16
  -7   8   6    3.64    0.63
  -6   8   6    3.46    0.19
  -6   8   6    3.90    0.21
  -6   8   6    4.34    0.60
  -6   8   6    3.38    0.20
  -5   8   6    2.02    0.46
  -5   8   6    1.36    0.16
  -5   8   6    1.07    0.13
  -5   8   6    1.16    0.14
  -4   8   6    0.96    0.14
  -4   8   6    1.27    0.37
  -4   8   6    1.12    0.16
  -3   8   6    0.50    0.13
  -3   8   6    0.50    0.29
  -3   8   6    0.45    0.11
  -2   8   6    6.32    0.66
  -2   8   6    6.14    0.32
  -2   8   6    5.87    0.34
   1  -8  -6    1.43    0.21
  -1   8   6    1.79    0.23
  -1   8   6    1.52    0.42
  -1   8   6    1.44    0.18
   0  -8  -6    2.02    0.23
   0  -8  -6    1.66    0.24
   0   8   6    2.19    0.24
   0   8   6    1.82    0.48
   0   8   6    1.51    0.23
  -1  -8  -6    0.38    0.17
  -1  -8  -6    0.25    0.14
   1   8   6    0.23    0.42
   1   8   6    0.54    0.18
  -2  -8  -6    1.69    0.25
   2   8   6    1.24    0.24
  -3  -8  -6    1.70    0.27
   3   8   6    2.01    0.30
 -10   9   6    0.33    0.07
 -10   9   6    0.27    0.08
  -9   9   6    0.23    0.33
  -9   9   6    0.24    0.07
  -9   9   6    0.19    0.08
  -8   9   6    1.05    0.44
  -8   9   6    0.68    0.11
  -8   9   6    0.68    0.10
  -7   9   6    1.38    0.43
  -7   9   6    0.82    0.12
  -7   9   6    1.02    0.13
  -7   9   6    1.16    0.14
  -6   9   6    3.39    0.23
  -6   9   6    4.72    0.70
  -6   9   6    3.63    0.23
  -5   9   6    1.11    0.36
  -5   9   6    0.72    0.14
  -5   9   6    0.71    0.14
  -4   9   6    0.04    0.11
  -4   9   6    0.06    0.09
  -4   9   6    0.12    0.26
  -3   9   6    4.56    0.30
  -3   9   6    5.94    0.67
  -3   9   6    4.22    0.31
  -2   9   6    2.03    0.22
  -2   9   6    1.79    0.24
  -2   9   6    2.55    0.51
  -1   9   6    2.42    0.52
  -1   9   6    2.02    0.24
  -1   9   6    2.46    0.28
   0   9   6    0.74    0.20
   0   9   6    0.37    0.41
   1   9   6    0.29    0.48
   1   9   6    0.37    0.19
   2   9   6    0.70    0.23
  -9  10   6    0.03    0.09
  -8  10   6    0.03    0.09
  -8  10   6    0.49    0.37
  -7  10   6    0.93    0.41
  -7  10   6    1.14    0.16
  -7  10   6    0.95    0.15
  -6  10   6    3.11    0.25
  -6  10   6    3.67    0.65
  -6  10   6    2.74    0.24
  -5  10   6    1.88    0.21
  -5  10   6    2.77    0.55
  -5  10   6    2.18    0.23
  -4  10   6    1.34    0.22
  -4  10   6    1.52    0.20
  -4  10   6    2.05    0.49
  -3  10   6    4.12    0.66
  -3  10   6    2.83    0.30
  -3  10   6    2.97    0.28
  -2  10   6    1.63    0.25
  -2  10   6    1.70    0.23
  -2  10   6    1.60    0.45
  -1  10   6    0.38    0.39
  -1  10   6    0.28    0.18
   0  10   6    1.74    0.61
   0  10   6    2.25    0.31
  -7  11   6    0.28    0.13
  -6  11   6    2.97    0.53
  -6  11   6    1.80    0.22
  -6  11   6    1.51    0.21
  -5  11   6    5.14    0.69
  -5  11   6    2.89    0.29
  -5  11   6    2.47    0.26
  -4  11   6    1.92    0.24
  -4  11   6    3.17    0.59
  -4  11   6    1.94    0.26
  -3  11   6    2.54    0.52
  -3  11   6    1.77    0.24
  -3  11   6    1.23    0.23
  -2  11  -7    0.05    0.18
   2 -11   7    0.50    0.20
  -3  11  -7    0.57    0.22
   3 -11   7    0.55    0.20
  -4  11  -7   -0.02    0.15
   4 -11   7    0.04    0.14
  -5  11  -7    1.90    0.31
   1  10  -7    0.42    0.20
  -1 -10   7    0.73    0.22
   0  10  -7    0.23    0.17
   0 -10   7    0.30    0.17
  -1  10  -7    1.30    0.26
   1 -10   7    1.43    0.25
  -2  10  -7    1.31    0.26
   2 -10   7    1.20    0.21
   2 -10   7    1.67    0.27
  -3  10  -7    1.19    0.24
   3 -10   7    1.86    0.23
   3 -10   7    1.58    0.26
  -4  10  -7    0.85    0.22
   4 -10   7    0.83    0.20
   4 -10   7    0.90    0.18
  -5  10  -7    0.25    0.17
   5 -10   7    0.33    0.16
   5 -10   7    0.25    0.14
  -6  10  -7    1.11    0.24
  -7  10  -7    0.21    0.18
   3   9  -7    0.47    0.21
  -3  -9   7    0.99    0.23
   2   9  -7    0.07    0.16
  -2  -9   7    0.37    0.18
   1   9  -7    2.16    0.29
  -1  -9   7    1.92    0.28
   0   9  -7    0.76    0.20
   0  -9   7    0.69    0.19
   0  -9   7    0.83    0.19
  -1   9  -7    0.16    0.16
   1  -9   7    0.29    0.16
   1  -9   7    0.28    0.14
  -2   9  -7    1.74    0.27
   2  -9   7    0.78    0.16
   2  -9   7    0.93    0.21
  -3   9  -7    1.44    0.24
   3  -9   7    2.52    0.26
   3  -9   7    2.04    0.27
  -4   9  -7    0.99    0.21
   4  -9   7    1.02    0.20
   4  -9   7    0.70    0.16
  -5   9  -7    0.19    0.16
   5  -9   7    0.23    0.12
   5  -9   7    0.27    0.14
  -6   9  -7    1.29    0.23
   6  -9   7    1.60    0.22
   6  -9   7    1.81    0.24
  -7   9  -7    0.49    0.18
  -8   9  -7    0.21    0.18
   4   8  -7    1.71    0.29
  -4  -8   7    1.53    0.27
   3   8  -7    2.19    0.29
  -3  -8   7    2.14    0.28
   2   8  -7    0.06    0.14
  -2  -8   7    0.03    0.12
  -2  -8   7    0.10    0.15
   1   8  -7    2.23    0.28
  -1  -8   7    2.28    0.27
  -1  -8   7    2.08    0.26
   0   8  -7    5.22    0.37
   0  -8   7    5.48    0.35
   0  -8   7    5.53    0.37
  -1   8  -7    1.45    0.23
   1  -8   7    1.84    0.24
   1  -8   7    1.50    0.21
  -2   8  -7   11.43    0.53
   2  -8   7   10.90    0.48
   2  -8   7   11.63    0.52
  -3   8  -7    2.00    0.25
   3  -8   7    2.22    0.25
   3  -8   7    2.53    0.24
  -4   8  -7    1.59    0.24
   4  -8   7    1.50    0.19
   4  -8   7    1.27    0.21
  -5   8  -7    0.05    0.13
   5  -8   7   -0.02    0.11
   5  -8   7   -0.02    0.10
  -6   8  -7    0.56    0.17
   6  -8   7    0.45    0.15
   6  -8   7    0.61    0.13
  -7   8  -7    3.37    0.33
  -8   8  -7    0.35    0.17
  -9   8  -7    0.63    0.21
  -5  -7   7    1.39    0.24
   4   7  -7    1.78    0.25
  -4  -7   7    2.34    0.29
   3   7  -7    0.28    0.15
  -3  -7   7    0.59    0.18
  -3  -7   7    0.56    0.17
   2   7  -7    0.26    0.14
  -2  -7   7   -0.03    0.11
  -2  -7   7    0.19    0.13
   1   7  -7    1.68    0.22
  -1  -7   7    1.40    0.21
  -1  -7   7    1.72    0.22
   0   7  -7    2.37    0.26
   0  -7   7    2.49    0.27
   0  -7   7    3.10    0.27
  -1   7  -7    7.90    0.42
   1  -7   7    7.79    0.40
   1  -7   7    9.06    0.41
  -2   7  -7    4.01    0.31
   2  -7   7    4.21    0.28
   2  -7   7    4.42    0.30
  -3   7  -7    4.01    0.30
   3  -7   7    4.17    0.27
   3  -7   7    3.87    0.29
  -4   7  -7    1.52    0.19
  -4   7  -7    1.66    0.23
   4  -7   7    1.77    0.19
   4  -7   7    1.53    0.21
  -5   7  -7    2.97    0.29
  -5   7  -7    3.03    0.24
   5  -7   7    2.89    0.23
   5  -7   7    2.79    0.27
  -6   7  -7    3.70    0.27
  -6   7  -7    4.22    0.33
   6  -7   7    3.95    0.26
   6  -7   7    3.96    0.29
  -7   7  -7    3.86    0.28
  -7   7  -7    3.07    0.31
   7  -7   7    3.26    0.25
   7  -7   7    3.52    0.28
  -8   7  -7    0.82    0.17
  -8   7  -7    0.66    0.19
  -9   7  -7    0.45    0.19
 -10   7  -7    1.23    0.24
  -6  -6   7    0.90    0.21
  -5  -6   7    4.78    0.36
  -5  -6   7    4.51    0.35
   4   6  -7    6.53    0.38
  -4  -6   7    6.11    0.38
  -4  -6   7    7.28    0.40
  -4  -6   7    6.50    0.36
   3   6  -7    2.90    0.28
  -3  -6   7    2.82    0.23
  -3  -6   7    2.36    0.26
  -3  -6   7    2.99    0.29
   2   6  -7    4.37    0.30
  -2  -6   7    4.03    0.30
  -2  -6   7    4.11    0.26
  -2  -6   7    4.30    0.31
   1   6  -7    1.85    0.22
  -1  -6   7    1.93    0.21
  -1  -6   7    2.23    0.20
  -1  -6   7    2.11    0.23
   0   6  -7    6.48    0.35
   0  -6   7    6.52    0.36
   0  -6   7    7.18    0.33
   0  -6   7    7.47    0.35
  -1   6  -7    2.96    0.25
   1  -6   7    3.25    0.24
   1  -6   7    3.00    0.21
   1  -6   7    2.45    0.24
  -2   6  -7    5.75    0.30
  -2   6  -7    6.02    0.33
   2  -6   7    5.75    0.31
   2  -6   7    5.98    0.32
  -3   6  -7    0.13    0.12
  -3   6  -7    0.16    0.09
   3  -6   7   -0.02    0.10
   3  -6   7    0.13    0.10
  -4   6  -7    5.05    0.33
  -4   6  -7    5.80    0.30
   4  -6   7    5.88    0.30
   4  -6   7    5.92    0.33
  -5   6  -7    5.19    0.29
  -5   6  -7    4.40    0.31
   5  -6   7    4.51    0.30
   5  -6   7    4.53    0.27
  -6   6  -7    3.62    0.26
  -6   6  -7    4.07    0.31
   6  -6   7    3.83    0.28
   6  -6   7    4.27    0.26
  -7   6  -7    1.84    0.24
  -7   6  -7    1.36    0.19
   7  -6   7    1.62    0.21
  -8   6  -7    1.43    0.20
  -8   6  -7    1.06    0.21
  -9   6  -7    1.23    0.24
 -10   6  -7    0.76    0.21
  -7  -5   7    1.17    0.22
  -7  -5   7    0.99    0.18
  -6  -5   7    2.87    0.27
  -6  -5   7    2.97    0.30
  -6  -5   7    3.11    0.30
  -5  -5   7    0.93    0.18
  -5  -5   7    0.64    0.14
  -5  -5   7    0.56    0.16
   4   5  -7    8.58    0.40
  -4  -5   7    7.92    0.41
  -4  -5   7    9.57    0.43
  -4  -5   7    8.48    0.39
   3   5  -7    6.90    0.35
  -3  -5   7    7.09    0.34
  -3  -5   7    7.09    0.37
  -3  -5   7    7.08    0.37
   2   5  -7    5.07    0.30
  -2  -5   7    4.90    0.29
  -2  -5   7    4.85    0.27
  -2  -5   7    5.06    0.31
   1   5  -7   11.00    0.45
  -1  -5   7   11.32    0.45
  -1  -5   7   11.18    0.43
  -1  -5   7   11.69    0.45
   0   5  -7    1.96    0.21
   0  -5   7    2.02    0.18
   0  -5   7    2.02    0.20
   0  -5   7    1.82    0.19
  -1   5  -7    0.41    0.09
  -1   5  -7    0.35    0.12
   1  -5   7    0.41    0.12
   1  -5   7    0.57    0.13
   1  -5   7    0.40    0.09
  -2   5  -7   -0.03    0.08
  -2   5  -7   -0.07    0.06
   2  -5   7    0.03    0.09
   2  -5   7    0.18    0.11
   2  -5   7    0.03    0.06
  -3   5  -7    2.35    0.18
  -3   5  -7    1.75    0.20
   3  -5   7    2.10    0.20
   3  -5   7    1.97    0.20
  -4   5  -7    1.15    0.15
  -4   5  -7    1.26    0.19
   4  -5   7    1.11    0.17
  -5   5  -7   17.26    0.58
  -5   5  -7   16.26    0.61
   5  -5   7   16.25    0.60
  -6   5  -7    0.68    0.17
  -6   5  -7    0.46    0.12
   6  -5   7    0.42    0.13
  -7   5  -7    2.74    0.29
  -7   5  -7    3.44    0.26
   7  -5   7    2.74    0.26
  -8   5  -7    0.26    0.12
  -8   5  -7    0.58    0.17
   8  -5   7    0.67    0.15
  -9   5  -7    0.22    0.16
 -10   5  -7    0.06    0.17
  -8  -4   7    0.73    0.17
  -8  -4   7    0.63    0.17
  -7  -4   7    2.56    0.27
  -7  -4   7    1.98    0.23
  -7  -4   7    2.64    0.27
  -6  -4   7    1.09    0.19
  -6  -4   7    0.97    0.18
  -6  -4   7    1.11    0.17
   5   4  -7    1.98    0.20
  -5  -4   7    2.24    0.22
  -5  -4   7    2.57    0.26
  -5  -4   7    2.26    0.23
   4   4  -7    3.92    0.25
  -4  -4   7    4.40    0.28
  -4  -4   7    4.36    0.26
  -4  -4   7    4.80    0.30
   3   4  -7   15.54    0.54
  -3  -4   7   15.13    0.55
  -3  -4   7   15.00    0.52
  -3  -4   7   16.47    0.56
   2   4  -7    0.63    0.12
  -2  -4   7    0.71    0.13
  -2  -4   7    0.68    0.14
  -2  -4   7    0.48    0.10
   1   4  -7   12.53    0.63
   1   4  -7   12.81    0.47
  -1  -4   7   11.90    0.46
  -1  -4   7   13.45    0.47
  -1  -4   7   13.04    0.45
  -1  -4   7   13.03    0.45
   0   4  -7    5.51    0.29
   0   4  -7    5.42    0.24
   0  -4   7    5.28    0.26
   0  -4   7    5.32    0.26
   0  -4   7    4.88    0.27
   0  -4   7    5.17    0.28
  -1   4  -7    0.77    0.13
   1  -4   7    0.76    0.11
   1  -4   7    0.69    0.13
   1  -4   7    0.61    0.12
  -2   4  -7    9.70    0.40
  -2   4  -7    9.72    0.36
   2  -4   7    9.29    0.40
   2  -4   7    9.65    0.36
   2  -4   7    9.14    0.37
  -3   4  -7    1.29    0.16
  -3   4  -7    1.59    0.16
   3  -4   7    1.68    0.19
   3  -4   7    1.38    0.14
  -4   4  -7    5.78    0.28
  -4   4  -7    5.03    0.30
   4  -4   7    5.17    0.29
  -5   4  -7    2.41    0.20
  -5   4  -7    1.98    0.23
   5  -4   7    2.34    0.23
  -6   4  -7    4.19    0.26
  -6   4  -7    3.58    0.28
   6  -4   7    3.20    0.26
  -7   4  -7    1.11    0.19
  -7   4  -7    0.72    0.14
   7  -4   7    0.81    0.16
  -8   4  -7    2.15    0.24
  -8   4  -7    2.37    0.28
   8  -4   7    1.79    0.23
  -9   4  -7    0.27    0.16
 -10   4  -7    0.57    0.20
  -9  -3   7    0.88    0.17
  -9  -3   7    0.99    0.19
  -8  -3   7    1.55    0.20
  -8  -3   7    1.81    0.24
  -8  -3   7    1.41    0.21
  -7  -3   7    0.60    0.16
  -7  -3   7    0.52    0.13
  -7  -3   7    0.34    0.14
  -6  -3   7    2.43    0.23
  -6  -3   7    2.51    0.24
  -6  -3   7    2.25    0.21
   5   3  -7    2.03    0.19
  -5  -3   7    2.40    0.23
  -5  -3   7    1.86    0.18
  -5  -3   7    2.49    0.21
   4   3  -7   21.61    0.66
  -4  -3   7   21.48    0.65
  -4  -3   7   20.67    0.67
  -4  -3   7   21.35    0.68
   3   3  -7    8.98    0.26
   3   3  -7    8.78    0.36
  -3  -3   7    9.02    0.37
  -3  -3   7    8.18    0.36
  -3  -3   7    9.14    0.35
  -3  -3   7    8.85    0.34
   2   3  -7   13.94    0.63
   2   3  -7   14.49    0.49
  -2  -3   7   14.81    0.48
  -2  -3   7   14.55    0.49
  -2  -3   7   13.75    0.48
  -2  -3   7   14.12    0.47
   1   3  -7    3.26    0.21
   1   3  -7    3.08    0.17
   1   3  -7    3.03    0.25
  -1  -3   7    2.72    0.18
  -1  -3   7    2.96    0.19
  -1  -3   7    2.78    0.18
  -1  -3   7    2.95    0.20
  -1  -3   7    2.93    0.21
   0   3  -7    7.39    0.32
   0   3  -7    7.85    0.29
   0  -3   7    7.76    0.32
   0  -3   7    7.61    0.31
   0  -3   7    7.00    0.32
   0  -3   7    7.38    0.30
  -1   3  -7    8.26    0.35
   1  -3   7    8.39    0.33
   1  -3   7    8.45    0.33
   1  -3   7    8.78    0.36
  -2   3  -7   13.95    0.50
  -2   3  -7   14.00    0.46
   2  -3   7   14.86    0.47
   2  -3   7   14.37    0.50
  -3   3  -7   27.79    0.85
  -3   3  -7   29.06    0.82
   3  -3   7   28.29    0.85
   3  -3   7   28.86    0.81
  -4   3  -7   16.18    0.59
  -4   3  -7   17.82    0.56
   4  -3   7   17.23    0.59
  -5   3  -7   23.19    0.72
  -5   3  -7   23.39    0.77
   5  -3   7   23.30    0.75
  -6   3  -7   12.55    0.48
  -6   3  -7   11.87    0.50
   6  -3   7   12.19    0.50
  -7   3  -7    2.19    0.22
  -7   3  -7    2.00    0.24
   7  -3   7    2.27    0.24
  -8   3  -7    0.80    0.19
   8  -3   7    0.59    0.16
  -9   3  -7    0.91    0.21
 -10   3  -7    0.39    0.19
  -9  -2   7    2.46    0.24
  -9  -2   7    2.93    0.29
  -9  -2   7    2.94    0.27
  -8  -2   7    3.41    0.29
  -8  -2   7    3.45    0.25
  -8  -2   7    2.63    0.25
  -7  -2   7    1.23    0.17
  -7  -2   7    1.80    0.21
  -7  -2   7    1.71    0.18
  -6  -2   7    3.01    0.23
  -6  -2   7    2.51    0.20
  -6  -2   7    2.53    0.21
   5   2  -7   13.92    0.45
  -5  -2   7   13.77    0.48
  -5  -2   7   14.21    0.50
  -5  -2   7   13.52    0.46
  -5  -2   7   13.76    0.47
   4   2  -7    0.64    0.10
  -4  -2   7    0.65    0.10
  -4  -2   7    0.47    0.11
  -4  -2   7    0.67    0.10
  -4  -2   7    0.67    0.11
   3   2  -7   15.83    0.50
   3   2  -7   15.36    0.42
  -3  -2   7   14.97    0.51
  -3  -2   7   15.85    0.50
  -3  -2   7   15.31    0.51
  -3  -2   7   16.34    0.50
  -3  -2   7   16.60    0.50
   2   2  -7    5.02    0.31
   2   2  -7    4.86    0.20
   2   2  -7    5.18    0.24
  -2  -2   7    4.95    0.23
  -2  -2   7    5.26    0.23
  -2  -2   7    4.67    0.25
  -2  -2   7    4.85    0.24
   1   2  -7   18.88    0.58
   1   2  -7   19.57    0.90
  -1  -2   7   20.06    0.58
  -1  -2   7   18.49    0.59
  -1  -2   7   18.77    0.58
  -1  -2   7   18.94    0.57
   0   2  -7    4.92    0.21
   0   2  -7    4.76    0.24
   0  -2   7    5.40    0.24
   0  -2   7    4.68    0.25
   0  -2   7    5.00    0.23
  -1   2  -7   14.74    0.46
  -1   2  -7   14.95    0.50
   1  -2   7   14.49    0.47
   1  -2   7   14.37    0.49
   1  -2   7   15.19    0.48
  -2   2  -7    7.55    0.33
  -2   2  -7    7.16    0.29
   2  -2   7    7.56    0.30
   2  -2   7    7.42    0.33
  -3   2  -7    2.38    0.20
  -3   2  -7    2.56    0.17
   3  -2   7    1.89    0.18
   3  -2   7    2.18    0.16
  -4   2  -7    5.16    0.26
  -4   2  -7    5.09    0.29
   4  -2   7    5.16    0.29
   4  -2   7    4.87    0.25
  -5   2  -7   11.52    0.42
  -5   2  -7    9.69    0.44
   5  -2   7   10.73    0.45
  -6   2  -7    7.39    0.39
  -6   2  -7    7.52    0.35
   6  -2   7    7.30    0.37
  -7   2  -7    1.34    0.21
  -7   2  -7    1.59    0.19
   7  -2   7    1.31    0.20
  -8   2  -7    1.48    0.23
   8  -2   7    1.34    0.21
  -9   2  -7    0.24    0.17
 -10   2  -7   -0.08    0.16
 -10  -1   7    0.93    0.16
 -10  -1   7    0.84    0.16
  -9  -1   7    2.74    0.24
  -9  -1   7    2.89    0.24
  -9  -1   7    3.21    0.28
  -8  -1   7    2.09    0.22
  -8  -1   7    2.16    0.21
  -8  -1   7    2.06    0.19
  -7  -1   7    1.43    0.16
  -7  -1   7    1.47    0.18
  -7  -1   7    1.46    0.15
  -6  -1   7    7.43    0.31
  -6  -1   7    7.44    0.32
  -6  -1   7    7.80    0.34
  -6  -1   7    7.45    0.30
   5   1  -7    7.98    0.28
  -5  -1   7    8.12    0.31
  -5  -1   7    8.33    0.35
  -5  -1   7    8.10    0.32
  -5  -1   7    7.84    0.30
   4   1  -7    1.55    0.13
   4   1  -7    1.65    0.08
  -4  -1   7    1.74    0.13
  -4  -1   7    1.84    0.16
  -4  -1   7    1.95    0.14
  -4  -1   7    1.86    0.17
   3   1  -7    2.27    0.12
   3   1  -7    2.28    0.15
  -3  -1   7    2.23    0.15
  -3  -1   7    2.10    0.14
  -3  -1   7    2.32    0.16
  -3  -1   7    2.53    0.20
   2   1  -7    6.00    0.23
   2   1  -7    5.86    0.25
   2   1  -7    6.04    0.38
  -2  -1   7    5.85    0.24
  -2  -1   7    5.96    0.24
  -2  -1   7    6.09    0.26
  -2  -1   7    5.86    0.26
   1   1  -7    1.35    0.14
   1   1  -7    1.20    0.12
  -1  -1   7    1.34    0.12
  -1  -1   7    1.26    0.14
  -1  -1   7    1.51    0.12
   0   1  -7    7.17    0.25
   0   1  -7    6.41    0.28
   0   1  -7    7.25    0.29
   0  -1   7    6.55    0.29
   0  -1   7    7.03    0.27
   0  -1   7    6.80    0.27
  -1   1  -7    5.66    0.23
  -1   1  -7    5.58    0.26
   1  -1   7    4.74    0.25
   1  -1   7    5.48    0.24
   1  -1   7    5.48    0.24
  -2   1  -7   40.07    1.10
   2  -1   7   39.46    1.08
   2  -1   7   40.41    1.11
   2  -1   7   41.29    1.09
  -3   1  -7    0.27    0.10
  -3   1  -7    0.36    0.09
   3  -1   7    0.18    0.07
   3  -1   7    0.32    0.11
  -4   1  -7    4.72    0.24
  -4   1  -7    4.05    0.26
   4  -1   7    4.43    0.23
   4  -1   7    3.99    0.27
  -5   1  -7    7.09    0.32
  -5   1  -7    6.01    0.34
   5  -1   7    7.45    0.36
  -6   1  -7    1.38    0.18
  -6   1  -7    1.00    0.18
  -6   1  -7    1.37    0.20
   6  -1   7    1.30    0.20
  -7   1  -7    2.31    0.26
  -7   1  -7    2.70    0.28
   7  -1   7    2.65    0.27
  -8   1  -7    2.30    0.28
  -8   1  -7    1.97    0.27
   8  -1   7    2.01    0.26
  -9   1  -7    1.11    0.24
 -10   0   7    0.95    0.15
 -10   0   7    0.96    0.16
  -9   0   7    0.42    0.11
  -9   0   7    0.33    0.10
  -8   0   7    3.07    0.20
  -8   0   7    3.24    0.20
  -8   0   7    3.59    0.24
  -8   0   7    3.30    0.21
  -7   0   7    3.57    0.20
  -7   0   7    3.46    0.20
  -7   0   7    3.40    0.21
  -7   0   7    3.90    0.24
  -6   0   7    6.58    0.30
  -6   0   7    6.27    0.25
  -6   0   7    7.32    0.40
  -6   0   7    6.28    0.27
  -6   0   7    6.58    0.26
   5   0  -7   13.63    0.39
  -5   0   7   14.31    0.46
  -5   0   7   14.04    0.43
  -5   0   7   14.55    0.43
  -5   0   7   14.19    0.45
  -5   0   7   14.63    0.70
   4   0  -7   12.21    0.35
   4   0  -7   11.46    0.33
  -4   0   7   11.62    0.40
  -4   0   7   11.64    0.62
  -4   0   7   11.32    0.36
  -4   0   7   11.40    0.36
  -4   0   7   12.03    0.39
  -4   0   7   11.60    0.38
  -4   0   7   12.13    0.39
   3   0  -7   13.93    0.40
   3   0  -7   13.94    0.41
  -3   0   7   13.66    0.43
  -3   0   7   14.52    0.44
  -3   0   7   14.14    0.42
  -3   0   7   12.90    0.41
  -3   0   7   13.61    0.44
  -3   0   7   13.55    0.71
   2   0  -7   15.20    0.45
   2   0  -7   14.75    0.45
  -2   0   7   15.40    0.45
  -2   0   7   14.63    0.44
  -2   0   7   14.60    0.46
   1   0  -7   14.19    0.44
   1   0  -7   14.43    0.45
  -1   0   7   14.53    0.44
  -1   0   7   14.24    0.44
  -1   0   7   14.16    0.46
   0   0  -7   13.60    0.45
   0   0  -7   13.40    0.45
   0   0   7   14.08    0.46
   0   0   7   14.15    0.44
   0   0   7   13.93    0.44
  -1   0  -7   22.73    0.63
  -1   0  -7   22.20    0.66
  -1   0  -7   20.87    0.65
   1   0   7   21.73    0.66
   1   0   7   21.49    0.64
   1   0   7   23.44    0.65
  -2   0  -7   24.68    0.69
  -2   0  -7   22.43    0.71
  -2   0  -7   23.33    0.72
   2   0   7   23.58    0.70
   2   0   7   25.55    0.71
   2   0   7   23.76    0.73
  -3   0  -7    0.98    0.14
  -3   0  -7    0.89    0.12
  -3   0  -7    0.88    0.14
   3   0   7    0.93    0.15
   3   0   7    0.94    0.13
  -4   0  -7   -0.01    0.09
  -4   0  -7    0.11    0.10
  -4   0  -7    0.23    0.09
   4   0   7    0.03    0.10
   4   0   7    0.08    0.07
  -5   0  -7    7.15    0.37
  -5   0  -7    7.33    0.34
  -5   0  -7    7.83    0.38
   5   0   7    7.96    0.38
  -6   0  -7    1.36    0.20
  -6   0  -7    1.84    0.24
   6   0   7    1.40    0.21
  -7   0  -7    2.45    0.27
  -7   0  -7    2.90    0.30
   7   0   7    2.84    0.29
  -8   0  -7    1.45    0.23
  -8   0  -7    0.99    0.22
   8   0   7    1.25    0.23
  -9   0  -7    0.65    0.21
 -10   1   7    0.21    0.10
 -10   1   7    0.21    0.09
  -9   1   7    0.83    0.12
  -9   1   7    0.81    0.12
  -9   1   7    0.80    0.11
  -8   1   7    0.33    0.08
  -8   1   7    0.27    0.08
  -8   1   7    0.25    0.07
  -8   1   7    0.37    0.10
  -7   1   7    3.87    0.32
  -7   1   7    3.16    0.18
  -7   1   7    2.70    0.19
  -7   1   7    3.04    0.16
  -7   1   7    2.98    0.16
  -6   1   7    0.97    0.13
  -6   1   7    1.39    0.23
  -6   1   7    0.84    0.09
  -6   1   7    0.95    0.09
  -6   1   7    1.17    0.11
  -5   1   7   16.10    0.48
  -5   1   7   16.87    0.50
  -5   1   7   16.39    0.83
  -5   1   7   16.83    0.47
  -5   1   7   15.87    0.46
  -5   1   7   17.04    0.49
   4  -1  -7   18.89    0.52
   4  -1  -7   19.47    0.48
  -4   1   7   18.68    0.52
  -4   1   7   19.36    0.93
  -4   1   7   17.75    0.54
  -4   1   7   19.55    0.54
  -4   1   7   18.08    0.51
  -4   1   7   18.27    0.53
   3  -1  -7    2.16    0.15
   3  -1  -7    2.44    0.12
  -3   1   7    2.37    0.15
  -3   1   7    2.25    0.28
  -3   1   7    2.41    0.13
  -3   1   7    2.48    0.15
  -3   1   7    2.12    0.12
   2  -1  -7   11.31    0.38
   2  -1  -7   12.08    0.37
  -2   1   7   11.49    0.37
  -2   1   7   12.13    0.39
  -2   1   7   12.83    0.40
  -2   1   7   11.95    0.69
  -2   1   7   11.92    0.37
   1  -1  -7   11.38    0.37
   1  -1  -7   11.11    0.38
  -1   1   7   10.75    0.67
  -1   1   7   10.86    0.36
  -1   1   7   10.91    0.38
  -1   1   7   11.55    0.36
   0  -1  -7   35.83    0.98
   0  -1  -7   36.48    0.99
   0   1   7   36.79    0.98
   0   1   7   37.11    1.00
   0   1   7   38.26    0.99
  -1  -1  -7   31.75    0.82
  -1  -1  -7   30.11    0.86
  -1  -1  -7   29.26    0.85
   1   1   7   30.31    0.87
   1   1   7   30.96    0.85
   1   1   7   30.01    0.84
  -2  -1  -7    9.63    0.39
  -2  -1  -7    9.71    0.35
  -2  -1  -7    9.27    0.37
   2   1   7   10.11    0.37
   2   1   7    9.46    0.36
   2   1   7    9.08    0.38
  -3  -1  -7    7.40    0.34
  -3  -1  -7    6.97    0.34
   3   1   7    7.01    0.34
   3   1   7    7.83    0.32
  -4  -1  -7   -0.03    0.10
  -4  -1  -7   -0.01    0.10
   4   1   7    0.04    0.06
   4   1   7   -0.11    0.09
  -5  -1  -7    8.87    0.42
  -5  -1  -7    9.60    0.44
   5   1   7    8.97    0.43
  -6  -1  -7    8.77    0.43
  -6  -1  -7    8.18    0.44
   6   1   7    9.50    0.46
  -7  -1  -7    0.82    0.20
  -7  -1  -7    1.02    0.21
   7   1   7    0.91    0.20
  -8  -1  -7    1.86    0.28
   8   1   7    1.71    0.26
  -9  -1  -7    0.12    0.18
 -11   2   7    0.06    0.08
 -10   2   7    0.42    0.10
 -10   2   7    0.24    0.08
  -9   2   7    1.44    0.13
  -9   2   7    1.40    0.13
  -9   2   7    1.44    0.13
  -8   2   7    6.17    0.26
  -8   2   7    5.59    0.22
  -8   2   7    5.49    0.22
  -8   2   7    6.73    0.48
  -8   2   7    5.46    0.21
  -7   2   7    1.80    0.15
  -7   2   7    1.97    0.11
  -7   2   7    1.63    0.10
  -7   2   7    2.07    0.31
  -7   2   7    1.89    0.12
  -6   2   7   12.30    0.36
  -6   2   7   13.62    0.75
  -6   2   7   12.99    0.38
  -6   2   7   13.56    0.40
  -6   2   7   12.99    0.36
  -6   2   7   13.24    0.41
  -5   2   7   19.20    0.52
  -5   2   7   19.56    0.53
  -5   2   7   20.33    0.55
  -5   2   7   20.84    0.56
  -5   2   7   19.54    0.57
  -5   2   7   21.04    0.57
  -5   2   7   21.59    1.03
   4  -2  -7   12.07    0.41
  -4   2   7   12.82    0.37
  -4   2   7   13.07    0.39
  -4   2   7   12.88    0.36
  -4   2   7   13.30    0.41
  -4   2   7   13.29    0.74
  -4   2   7   12.70    0.39
   3  -2  -7    3.85    0.20
  -3   2   7    3.62    0.18
  -3   2   7    4.12    0.37
  -3   2   7    3.93    0.21
  -3   2   7    3.81    0.16
  -3   2   7    4.00    0.17
  -3   2   7    3.98    0.19
   2  -2  -7   12.94    0.40
   2  -2  -7   13.33    0.44
  -2   2   7   13.43    0.42
  -2   2   7   13.01    0.40
  -2   2   7   14.02    0.45
  -2   2   7   12.86    0.40
  -2   2   7   13.58    0.77
  -2   2   7   13.90    0.43
   1  -2  -7   31.32    0.85
   1  -2  -7   30.36    0.82
  -1   2   7   30.89    0.82
  -1   2   7   30.89    1.46
  -1   2   7   30.20    0.84
  -1   2   7   30.27    0.83
   0  -2  -7   31.23    0.87
   0  -2  -7   31.21    0.85
   0   2   7   29.66    0.84
   0   2   7   30.43    1.48
   0   2   7   31.16    0.84
   0   2   7   30.83    0.87
  -1  -2  -7    8.47    0.30
  -1  -2  -7    8.39    0.36
  -1  -2  -7    8.34    0.34
   1   2   7    7.92    0.32
   1   2   7    8.19    0.35
   1   2   7    8.22    0.33
  -2  -2  -7    7.93    0.36
  -2  -2  -7    8.22    0.31
  -2  -2  -7    7.56    0.34
   2   2   7    7.71    0.32
   2   2   7    7.71    0.35
   2   2   7    7.46    0.33
  -3  -2  -7    5.37    0.30
  -3  -2  -7    5.51    0.31
   3   2   7    4.76    0.30
   3   2   7    5.14    0.27
  -4  -2  -7    1.48    0.20
  -4  -2  -7    1.72    0.22
   4   2   7    1.32    0.19
  -5  -2  -7    6.48    0.37
  -5  -2  -7    6.08    0.36
   5   2   7    6.33    0.38
  -6  -2  -7    7.55    0.43
  -6  -2  -7    6.99    0.41
   6   2   7    7.77    0.43
  -7  -2  -7    1.41    0.25
  -7  -2  -7    2.17    0.28
   7   2   7    1.98    0.28
  -8  -2  -7    1.25    0.25
   8   2   7    1.17    0.24
 -11   3   7    0.51    0.10
 -11   3   7    0.48    0.10
 -10   3   7    0.04    0.06
 -10   3   7    0.15    0.07
  -9   3   7    1.75    0.11
  -9   3   7    1.55    0.11
  -8   3   7    4.98    0.17
  -8   3   7    4.65    0.16
  -8   3   7    5.80    0.51
  -7   3   7    1.50    0.13
  -7   3   7    1.91    0.33
  -6   3   7   13.56    0.44
  -6   3   7   13.66    0.41
  -6   3   7   14.40    0.82
  -6   3   7   13.27    0.38
  -5   3   7   16.98    0.47
  -5   3   7   16.39    0.44
  -5   3   7   16.68    0.44
  -5   3   7   17.21    0.93
  -5   3   7   17.55    0.47
  -5   3   7   17.85    0.53
  -5   3   7   17.01    0.49
   4  -3  -7    3.10    0.19
  -4   3   7    3.20    0.16
  -4   3   7    2.84    0.13
  -4   3   7    3.23    0.16
  -4   3   7    3.19    0.19
  -4   3   7    3.15    0.37
  -4   3   7    2.97    0.13
   3  -3  -7    1.76    0.16
  -3   3   7    1.69    0.13
  -3   3   7    1.74    0.12
  -3   3   7    1.66    0.30
  -3   3   7    1.83    0.13
  -3   3   7    1.68    0.11
  -3   3   7    2.08    0.18
   2  -3  -7    2.83    0.15
   2  -3  -7    2.74    0.19
  -2   3   7    2.85    0.15
  -2   3   7    2.80    0.17
  -2   3   7    3.21    0.38
  -2   3   7    2.54    0.15
   1  -3  -7    6.67    0.26
   1  -3  -7    6.17    0.29
  -1   3   7    6.31    0.26
  -1   3   7    6.03    0.28
  -1   3   7    6.66    0.55
  -1   3   7    7.19    0.27
   0  -3  -7    0.17    0.08
   0  -3  -7    0.00    0.08
   0   3   7    0.01    0.07
   0   3   7    0.02    0.21
   0   3   7    0.06    0.06
   0   3   7    0.04    0.06
  -1  -3  -7    2.35    0.21
  -1  -3  -7    2.72    0.20
   1   3   7    2.12    0.20
   1   3   7    2.76    0.19
   1   3   7    2.16    0.18
  -2  -3  -7    8.30    0.37
  -2  -3  -7    8.04    0.38
   2   3   7    8.61    0.35
   2   3   7    7.74    0.37
  -3  -3  -7    4.62    0.30
  -3  -3  -7    4.40    0.29
   3   3   7    4.83    0.31
   3   3   7    4.51    0.26
  -4  -3  -7    2.16    0.25
  -4  -3  -7    2.82    0.27
   4   3   7    2.95    0.29
  -5  -3  -7    1.99    0.25
  -5  -3  -7    2.36    0.27
   5   3   7    2.12    0.27
  -6  -3  -7    2.12    0.26
  -6  -3  -7    1.80    0.26
   6   3   7    1.62    0.25
  -7  -3  -7    1.45    0.27
   7   3   7    0.97    0.23
 -11   4   7    0.06    0.06
 -11   4   7    0.01    0.06
 -10   4   7    0.42    0.07
 -10   4   7    0.46    0.07
  -9   4   7    1.90    0.39
  -8   4   7    7.62    0.65
  -7   4   7    2.12    0.38
  -7   4   7    1.70    0.12
  -6   4   7    1.81    0.35
  -6   4   7    1.38    0.09
  -6   4   7    1.36    0.12
  -5   4   7   17.71    0.48
  -5   4   7   18.51    0.48
  -5   4   7   18.88    0.51
  -5   4   7   20.18    1.06
   4  -4  -7    8.72    0.36
  -4   4   7   10.00    0.32
  -4   4   7    9.07    0.29
  -4   4   7    8.74    0.29
  -4   4   7    9.01    0.31
  -4   4   7    9.65    0.67
   3  -4  -7   11.35    0.43
  -3   4   7   11.48    0.37
  -3   4   7   11.61    0.39
  -3   4   7   12.48    0.40
  -3   4   7   11.49    0.36
  -3   4   7   12.02    0.77
   2  -4  -7   11.99    0.44
   2  -4  -7   12.29    0.38
  -2   4   7   11.95    0.39
  -2   4   7   11.81    0.41
  -2   4   7   12.24    0.78
  -2   4   7   11.64    0.39
   1  -4  -7    0.28    0.10
   1  -4  -7    0.24    0.08
  -1   4   7    0.39    0.09
  -1   4   7    0.35    0.11
  -1   4   7    0.42    0.23
  -1   4   7    0.47    0.09
   0  -4  -7    0.35    0.10
   0  -4  -7    0.27    0.11
   0   4   7    0.46    0.11
   0   4   7    0.34    0.09
   0   4   7    0.46    0.27
   0   4   7    0.40    0.10
  -1  -4  -7    1.92    0.20
  -1  -4  -7    1.72    0.20
   1   4   7    1.87    0.20
   1   4   7    1.64    0.18
   1   4   7    1.73    0.40
  -2  -4  -7    6.98    0.35
  -2  -4  -7    6.61    0.36
   2   4   7    5.99    0.35
   2   4   7    7.57    0.33
  -3  -4  -7    3.16    0.29
  -3  -4  -7    2.51    0.25
   3   4   7    2.88    0.29
  -4  -4  -7    2.23    0.25
  -4  -4  -7    2.24    0.26
   4   4   7    2.63    0.29
  -5  -4  -7    2.55    0.27
  -5  -4  -7    3.17    0.32
   5   4   7    3.11    0.33
  -6  -4  -7    2.27    0.30
  -6  -4  -7    2.21    0.30
   6   4   7    1.79    0.27
  -7  -4  -7    0.69    0.22
   7   4   7    1.01    0.23
 -10   5   7    7.17    0.60
  -9   5   7    3.77    0.56
  -8   5   7    6.16    0.64
  -7   5   7    4.44    0.54
  -6   5   7    0.33    0.06
  -6   5   7    0.46    0.25
  -6   5   7    0.28    0.07
  -5   5   7   21.60    1.15
  -5   5   7   19.11    0.53
  -5   5   7   19.05    0.54
  -5   5   7   19.70    0.53
   4  -5  -7   16.10    0.55
  -4   5   7   16.04    0.46
  -4   5   7   15.91    0.48
  -4   5   7   15.32    0.46
  -4   5   7   16.64    0.99
   3  -5  -7    5.86    0.22
   3  -5  -7    4.86    0.29
  -3   5   7    5.55    0.55
  -3   5   7    5.19    0.25
  -3   5   7    5.12    0.23
  -3   5   7    5.22    0.23
   2  -5  -7    8.57    0.38
   2  -5  -7    8.81    0.31
  -2   5   7    8.23    0.34
  -2   5   7    9.03    0.69
  -2   5   7    7.94    0.32
  -2   5   7    7.84    0.31
   1  -5  -7    2.26    0.22
   1  -5  -7    2.12    0.17
  -1   5   7    2.14    0.17
  -1   5   7    2.14    0.21
  -1   5   7    2.13    0.40
  -1   5   7    1.82    0.17
   0  -5  -7    9.07    0.41
   0  -5  -7    9.56    0.38
   0   5   7    8.78    0.37
   0   5   7    7.93    0.38
   0   5   7    9.51    0.80
  -1  -5  -7   10.48    0.43
  -1  -5  -7   10.50    0.46
   1   5   7   10.68    0.87
   1   5   7    9.72    0.45
   1   5   7   10.18    0.42
  -2  -5  -7   10.25    0.45
  -2  -5  -7    9.88    0.46
   2   5   7    9.62    0.42
   2   5   7    9.45    0.46
  -3  -5  -7    6.60    0.39
  -3  -5  -7    7.16    0.39
   3   5   7    6.97    0.41
  -4  -5  -7    1.43    0.23
  -4  -5  -7    1.33    0.23
   4   5   7    1.50    0.25
  -5  -5  -7    3.76    0.37
   5   5   7    3.11    0.34
  -6  -5  -7    1.39    0.27
   6   5   7    1.59    0.28
 -10   6   7    4.93    0.55
  -9   6   7    2.53    0.51
  -8   6   7    2.50    0.55
  -7   6   7    1.58    0.43
  -6   6   7    1.36    0.10
  -6   6   7    1.42    0.11
  -6   6   7    1.72    0.40
  -6   6   7    1.26    0.10
  -5   6   7    9.00    0.32
  -5   6   7    9.17    0.31
  -5   6   7   10.18    0.77
  -5   6   7    9.13    0.31
   4  -6  -7   14.39    0.53
  -4   6   7   13.80    0.43
  -4   6   7   13.71    0.46
  -4   6   7   14.21    0.94
  -4   6   7   13.94    0.44
   3  -6  -7    2.99    0.25
  -3   6   7    3.51    0.53
  -3   6   7    2.76    0.20
  -3   6   7    2.62    0.18
  -3   6   7    3.07    0.19
   2  -6  -7    1.15    0.17
   2  -6  -7    1.11    0.13
  -2   6   7    1.14    0.15
  -2   6   7    1.49    0.18
  -2   6   7    1.18    0.14
  -2   6   7    1.24    0.34
   1  -6  -7    2.14    0.19
   1  -6  -7    1.81    0.21
  -1   6   7    2.01    0.19
  -1   6   7    1.74    0.43
  -1   6   7    1.71    0.20
   0  -6  -7    3.82    0.29
   0  -6  -7    3.87    0.26
   0   6   7    3.79    0.25
   0   6   7    3.71    0.57
   0   6   7    3.29    0.27
  -1  -6  -7    1.73    0.22
  -1  -6  -7    1.92    0.22
   1   6   7    1.41    0.21
   1   6   7    1.90    0.49
   1   6   7    1.71    0.20
  -2  -6  -7    4.47    0.33
  -2  -6  -7    4.63    0.32
   2   6   7    4.33    0.34
  -3  -6  -7    4.01    0.32
  -3  -6  -7    4.10    0.34
   3   6   7    4.25    0.36
  -4  -6  -7    1.50    0.25
   4   6   7    1.15    0.23
  -5  -6  -7    0.39    0.19
   5   6   7    1.01    0.24
 -10   7   7    1.69    0.40
  -9   7   7    2.88    0.61
  -8   7   7    2.03    0.53
  -8   7   7    1.08    0.09
  -7   7   7    0.41    0.07
  -7   7   7    0.91    0.36
  -7   7   7    0.37    0.07
  -6   7   7    0.80    0.10
  -6   7   7    1.05    0.12
  -6   7   7    0.80    0.09
  -6   7   7    1.06    0.36
  -5   7   7    1.23    0.14
  -5   7   7    1.88    0.41
  -5   7   7    1.37    0.13
  -5   7   7    1.02    0.12
  -4   7   7    4.37    0.23
  -4   7   7    5.18    0.59
  -4   7   7    4.22    0.22
  -4   7   7    4.71    0.25
   3  -7  -7    1.93    0.23
  -3   7   7    1.86    0.18
  -3   7   7    2.04    0.42
  -3   7   7    1.65    0.18
   2  -7  -7    1.62    0.23
  -2   7   7    1.55    0.19
  -2   7   7    1.51    0.17
  -2   7   7    1.83    0.42
   1  -7  -7    2.61    0.27
  -1   7   7    2.89    0.27
  -1   7   7    3.34    0.56
  -1   7   7    3.05    0.24
   0  -7  -7    1.72    0.21
   0  -7  -7    1.36    0.22
   0   7   7    1.31    0.21
   0   7   7    1.43    0.46
   0   7   7    1.62    0.20
  -1  -7  -7    2.58    0.26
  -1  -7  -7    2.94    0.29
   1   7   7    2.49    0.28
   1   7   7    1.82    0.53
   1   7   7    2.63    0.26
  -2  -7  -7    1.99    0.27
  -2  -7  -7    2.19    0.26
   2   7   7    2.04    0.28
  -3  -7  -7    3.07    0.34
   3   7   7    3.57    0.37
  -4  -7  -7    1.10    0.24
   4   7   7    1.25    0.27
 -10   8   7    2.64    0.51
  -9   8   7    1.26    0.10
  -9   8   7    1.07    0.10
  -9   8   7    1.96    0.56
  -8   8   7    2.06    0.14
  -8   8   7    2.15    0.14
  -8   8   7    3.42    0.67
  -7   8   7    1.02    0.41
  -7   8   7    0.94    0.11
  -7   8   7    0.92    0.12
  -7   8   7    0.82    0.11
  -6   8   7    0.50    0.11
  -6   8   7    0.62    0.34
  -6   8   7    0.51    0.09
  -6   8   7    0.42    0.09
  -5   8   7    3.80    0.24
  -5   8   7    4.42    0.62
  -5   8   7    3.80    0.23
  -4   8   7    3.28    0.57
  -4   8   7    3.36    0.23
  -4   8   7    3.14    0.24
  -3   8   7    2.29    0.22
  -3   8   7    3.57    0.59
  -3   8   7    2.60    0.25
   2  -8  -7    2.66    0.29
  -2   8   7    3.24    0.56
  -2   8   7    3.05    0.28
  -2   8   7    2.70    0.25
   1  -8  -7    0.31    0.15
  -1   8   7    0.44    0.13
  -1   8   7    0.12    0.13
  -1   8   7    0.55    0.35
   0  -8  -7    0.97    0.22
   0   8   7    0.79    0.17
   0   8   7    1.17    0.21
   0   8   7    0.75    0.47
   1   8   7    1.68    0.26
   1   8   7    1.44    0.56
  -2  -8  -7    0.21    0.14
   2   8   7    0.36    0.18
  -3  -8  -7    0.35    0.17
   3   8   7   -0.11    0.18
  -9   9   7    1.19    0.38
  -9   9   7    0.21    0.08
  -9   9   7    0.36    0.08
  -8   9   7    3.19    0.64
  -8   9   7    2.32    0.17
  -8   9   7    2.04    0.17
  -7   9   7    0.73    0.12
  -7   9   7    1.46    0.46
  -7   9   7    0.65    0.12
  -6   9   7    0.63    0.12
  -6   9   7    0.53    0.12
  -6   9   7    0.95    0.40
  -5   9   7    2.81    0.25
  -5   9   7    2.94    0.23
  -5   9   7    4.32    0.69
  -4   9   7    2.16    0.22
  -4   9   7    2.48    0.52
  -4   9   7    2.13    0.23
  -3   9   7    1.17    0.40
  -3   9   7    0.87    0.18
  -3   9   7    1.29    0.19
  -2   9   7    2.48    0.26
  -2   9   7    2.72    0.58
  -2   9   7    2.22    0.26
  -1   9   7    1.28    0.23
  -1   9   7    1.46    0.22
  -1   9   7    1.42    0.48
   0   9   7    1.27    0.54
   0   9   7    2.23    0.30
   1   9   7    2.27    0.32
  -8  10   7    2.72    0.56
  -8  10   7    1.27    0.16
  -7  10   7    3.95    0.69
  -7  10   7    2.57    0.23
  -6  10   7    3.05    0.61
  -6  10   7    1.98    0.21
  -6  10   7    1.92    0.21
  -5  10   7    2.94    0.26
  -5  10   7    2.83    0.27
  -5  10   7    4.43    0.70
  -4  10   7    2.35    0.26
  -4  10   7    3.51    0.61
  -4  10   7    1.79    0.24
  -3  10   7    2.12    0.27
  -3  10   7    2.53    0.56
  -3  10   7    2.34    0.26
  -2  10   7    1.64    0.52
  -2  10   7    1.35    0.24
  -2  10   7    1.38    0.22
  -1  10   7    1.97    0.30
  -1  10   7    2.31    0.66
   0  10  -8    0.42    0.20
   0 -10   8    0.89    0.22
  -1  10  -8    1.07    0.24
   1 -10   8    0.92    0.23
  -2  10  -8    0.47    0.20
   2 -10   8    0.35    0.18
  -3  10  -8    0.47    0.20
   3 -10   8    0.51    0.19
   3 -10   8    0.44    0.17
  -4  10  -8    2.61    0.33
   4 -10   8    2.49    0.31
   4 -10   8    1.55    0.22
  -5  10  -8    0.07    0.17
   5 -10   8    0.23    0.15
  -6  10  -8    0.18    0.19
   2   9  -8    2.15    0.30
  -2  -9   8    2.30    0.32
   1   9  -8    1.04    0.24
  -1  -9   8    0.60    0.21
   0   9  -8    4.72    0.40
   0  -9   8    4.94    0.39
  -1   9  -8    1.02    0.22
   1  -9   8    1.66    0.23
   1  -9   8    1.17    0.22
  -2   9  -8    0.88    0.21
   2  -9   8    0.60    0.16
   2  -9   8    0.67    0.19
  -3   9  -8    0.04    0.15
   3  -9   8    0.25    0.14
   3  -9   8    0.04    0.15
  -4   9  -8    0.44    0.18
   4  -9   8    0.54    0.18
   4  -9   8    0.68    0.16
  -5   9  -8    2.50    0.32
   5  -9   8    2.28    0.24
   5  -9   8    1.99    0.27
  -6   9  -8    0.27    0.17
   6  -9   8    0.19    0.14
  -7   9  -8    1.63    0.28
  -8   9  -8    0.52    0.21
  -4  -8   8    0.25    0.18
   3   8  -8    0.23    0.16
  -3  -8   8    0.64    0.20
   2   8  -8    1.59    0.26
  -2  -8   8    1.46    0.25
   1   8  -8    3.06    0.33
  -1  -8   8    3.36    0.31
  -1  -8   8    3.63    0.36
   0   8  -8    5.07    0.38
   0  -8   8    4.58    0.35
   0  -8   8    4.39    0.34
  -1   8  -8    2.84    0.30
   1  -8   8    2.71    0.28
   1  -8   8    2.62    0.30
  -2   8  -8    2.50    0.29
   2  -8   8    2.58    0.26
   2  -8   8    2.38    0.28
  -3   8  -8    1.71    0.24
   3  -8   8    1.75    0.22
   3  -8   8    1.30    0.22
  -4   8  -8    2.48    0.29
   4  -8   8    2.72    0.29
   4  -8   8    3.13    0.28
  -5   8  -8    3.86    0.37
   5  -8   8    4.29    0.29
   5  -8   8    3.61    0.33
  -6   8  -8    0.92    0.21
   6  -8   8    1.01    0.20
   6  -8   8    1.26    0.18
  -7   8  -8    0.40    0.18
  -8   8  -8    0.92    0.23
  -5  -7   8    0.67    0.21
  -4  -7   8    0.54    0.19
   3   7  -8    0.41    0.16
  -3  -7   8    0.37    0.15
  -3  -7   8    0.56    0.17
   2   7  -8    2.55    0.28
  -2  -7   8    2.58    0.28
  -2  -7   8    2.56    0.29
   1   7  -8    3.90    0.32
  -1  -7   8    3.54    0.31
  -1  -7   8    3.92    0.31
   0   7  -8    1.48    0.22
   0  -7   8    2.03    0.24
   0  -7   8    2.21    0.26
  -1   7  -8    0.79    0.18
   1  -7   8    0.91    0.18
   1  -7   8    0.56    0.16
  -2   7  -8    2.12    0.25
   2  -7   8    2.03    0.25
   2  -7   8    2.19    0.24
  -3   7  -8    4.05    0.31
   3  -7   8    4.28    0.32
   3  -7   8    3.95    0.29
  -4   7  -8    2.82    0.29
   4  -7   8    3.32    0.30
   4  -7   8    3.00    0.27
  -5   7  -8    4.74    0.36
   5  -7   8    5.22    0.35
   5  -7   8    4.90    0.31
  -6   7  -8    1.98    0.26
   6  -7   8    1.29    0.20
   6  -7   8    1.47    0.19
  -7   7  -8    2.15    0.28
   7  -7   8    2.37    0.24
   7  -7   8    2.36    0.26
  -8   7  -8    0.93    0.23
  -9   7  -8    2.06    0.29
  -6  -6   8    3.07    0.33
  -5  -6   8    1.50    0.24
   4   6  -8    0.91    0.19
  -4  -6   8    0.98    0.19
  -4  -6   8    1.49    0.22
   3   6  -8    4.71    0.33
  -3  -6   8    4.58    0.34
  -3  -6   8    4.23    0.33
  -3  -6   8    4.87    0.30
   2   6  -8    3.12    0.28
  -2  -6   8    2.61    0.27
  -2  -6   8    2.79    0.23
  -2  -6   8    3.02    0.28
   1   6  -8    0.83    0.17
  -1  -6   8    0.99    0.16
  -1  -6   8    0.95    0.18
  -1  -6   8    1.07    0.19
   0   6  -8    0.14    0.12
   0  -6   8    0.31    0.13
   0  -6   8    0.52    0.15
  -1   6  -8    1.32    0.19
   1  -6   8    1.35    0.20
   1  -6   8    1.36    0.20
  -2   6  -8    2.94    0.29
   2  -6   8    2.90    0.25
   2  -6   8    2.66    0.26
  -3   6  -8   10.78    0.48
   3  -6   8   11.11    0.45
   3  -6   8   10.88    0.48
  -4   6  -8    3.35    0.28
   4  -6   8    3.59    0.28
   4  -6   8    3.52    0.26
  -5   6  -8    1.43    0.21
   5  -6   8    1.15    0.19
   5  -6   8    1.27    0.18
  -6   6  -8    2.15    0.26
   6  -6   8    2.08    0.22
   6  -6   8    2.02    0.24
  -7   6  -8    0.04    0.14
   7  -6   8    0.01    0.10
  -8   6  -8    1.26    0.24
  -9   6  -8    0.46    0.18
  -7  -5   8    0.43    0.15
  -7  -5   8    0.72    0.20
  -6  -5   8    1.50    0.24
  -6  -5   8    1.98    0.23
  -5  -5   8    1.51    0.22
  -5  -5   8    1.69    0.20
  -5  -5   8    1.69    0.23
   4   5  -8    0.60    0.14
  -4  -5   8    0.99    0.18
  -4  -5   8    0.44    0.15
  -4  -5   8    0.60    0.14
   3   5  -8    4.02    0.28
  -3  -5   8    4.25    0.30
  -3  -5   8    3.84    0.28
  -3  -5   8    3.52    0.25
   2   5  -8    3.58    0.27
  -2  -5   8    3.38    0.27
  -2  -5   8    3.40    0.24
  -2  -5   8    3.05    0.26
   1   5  -8   -0.02    0.10
  -1  -5   8    0.05    0.10
  -1  -5   8   -0.04    0.08
  -1  -5   8    0.11    0.10
   0   5  -8    5.79    0.33
   0  -5   8    5.11    0.32
   0  -5   8    6.29    0.33
   0  -5   8    6.43    0.31
  -1   5  -8    1.15    0.17
   1  -5   8    1.46    0.19
   1  -5   8    1.36    0.17
   1  -5   8    1.24    0.19
  -2   5  -8    2.03    0.22
   2  -5   8    2.26    0.21
   2  -5   8    2.51    0.23
   2  -5   8    2.13    0.23
  -3   5  -8    5.91    0.35
   3  -5   8    5.87    0.34
   3  -5   8    6.58    0.33
  -4   5  -8    1.19    0.19
   4  -5   8    1.03    0.17
  -5   5  -8    2.50    0.26
   5  -5   8    2.93    0.27
  -6   5  -8    0.98    0.20
   6  -5   8    1.44    0.20
  -7   5  -8    1.23    0.22
   7  -5   8    1.91    0.24
  -8   5  -8    0.50    0.18
   8  -5   8    0.47    0.15
  -9   5  -8    0.45    0.19
  -8  -4   8    0.77    0.19
  -8  -4   8    0.66    0.17
  -7  -4   8    0.69    0.18
  -7  -4   8    0.56    0.15
  -7  -4   8    0.84    0.19
  -6  -4   8    2.71    0.27
  -6  -4   8    2.35    0.24
  -6  -4   8    2.64    0.27
  -5  -4   8    5.98    0.35
  -5  -4   8    6.52    0.37
  -5  -4   8    6.13    0.33
   4   4  -8    1.71    0.19
  -4  -4   8    2.17    0.22
  -4  -4   8    2.51    0.25
  -4  -4   8    2.04    0.20
   3   4  -8    4.24    0.26
  -3  -4   8    4.44    0.30
  -3  -4   8    4.01    0.27
  -3  -4   8    4.33    0.26
   2   4  -8    0.16    0.10
  -2  -4   8    0.07    0.08
  -2  -4   8    0.16    0.11
  -2  -4   8    0.03    0.09
   1   4  -8    9.09    0.39
  -1  -4   8    9.48    0.40
  -1  -4   8    9.22    0.37
  -1  -4   8    9.29    0.40
   0   4  -8    9.11    0.40
   0  -4   8    9.40    0.40
   0  -4   8    9.78    0.38
   0  -4   8    9.06    0.40
  -1   4  -8   29.23    0.88
   1  -4   8   29.69    0.85
   1  -4   8   29.22    0.85
   1  -4   8   28.66    0.88
  -2   4  -8   16.06    0.56
  -2   4  -8   17.13    0.60
   2  -4   8   17.62    0.57
   2  -4   8   16.05    0.59
   2  -4   8   17.12    0.56
  -3   4  -8   26.75    0.85
  -3   4  -8   26.83    0.80
   3  -4   8   27.86    0.83
   3  -4   8   25.12    0.83
  -4   4  -8   14.85    0.57
  -4   4  -8   14.71    0.53
   4  -4   8   14.85    0.56
  -5   4  -8    2.02    0.21
  -5   4  -8    1.73    0.22
   5  -4   8    1.68    0.20
  -6   4  -8    2.07    0.26
   6  -4   8    2.39    0.26
  -7   4  -8    0.64    0.18
   7  -4   8    0.54    0.16
  -8   4  -8    1.58    0.26
   8  -4   8    1.54    0.23
  -9   4  -8    0.49    0.19
  -8  -3   8    0.93    0.17
  -8  -3   8    0.76    0.18
  -8  -3   8    0.84    0.19
  -7  -3   8    2.15    0.24
  -7  -3   8    1.91    0.24
  -7  -3   8    2.61    0.24
  -6  -3   8    1.37    0.17
  -6  -3   8    1.42    0.20
  -6  -3   8    1.21    0.18
  -5  -3   8    6.05    0.34
  -5  -3   8    5.63    0.31
  -5  -3   8    6.15    0.31
   4   3  -8    6.34    0.29
  -4  -3   8    6.02    0.29
  -4  -3   8    6.16    0.34
  -4  -3   8    6.15    0.31
   3   3  -8    1.18    0.09
   3   3  -8    1.29    0.16
  -3  -3   8    1.12    0.15
  -3  -3   8    1.18    0.16
  -3  -3   8    1.08    0.16
   2   3  -8    7.74    0.42
   2   3  -8    8.42    0.35
   2   3  -8    7.28    0.27
  -2  -3   8    7.75    0.33
  -2  -3   8    8.01    0.36
  -2  -3   8    7.39    0.34
   1   3  -8    5.41    0.29
  -1  -3   8    6.18    0.28
  -1  -3   8    6.17    0.31
  -1  -3   8    5.78    0.30
  -1  -3   8    5.73    0.27
  -1  -3   8    5.96    0.28
   0   3  -8   13.44    0.48
   0  -3   8   12.41    0.48
   0  -3   8   12.96    0.45
   0  -3   8   13.31    0.46
   0  -3   8   13.03    0.47
  -1   3  -8    0.46    0.11
  -1   3  -8    0.46    0.09
   1  -3   8    0.55    0.11
   1  -3   8    0.46    0.12
  -2   3  -8   18.66    0.62
   2  -3   8   17.86    0.57
   2  -3   8   17.17    0.61
  -3   3  -8   13.97    0.49
  -3   3  -8   13.28    0.52
   3  -3   8   13.81    0.52
   3  -3   8   14.81    0.49
  -4   3  -8   19.90    0.69
  -4   3  -8   20.39    0.65
   4  -3   8   20.16    0.69
  -5   3  -8    2.19    0.25
   5  -3   8    2.15    0.23
  -6   3  -8    3.25    0.30
   6  -3   8    2.70    0.27
  -7   3  -8    1.18    0.22
   7  -3   8    0.94    0.19
  -8   3  -8    0.15    0.15
   8  -3   8    0.09    0.12
  -9   3  -8    0.55    0.20
  -9  -2   8    0.08    0.14
  -9  -2   8   -0.07    0.11
  -9  -2   8   -0.05    0.10
  -8  -2   8    2.21    0.24
  -8  -2   8    1.89    0.21
  -8  -2   8    2.14    0.25
  -7  -2   8    1.64    0.19
  -7  -2   8    1.74    0.19
  -7  -2   8    2.03    0.22
  -6  -2   8    1.12    0.18
  -6  -2   8    1.42    0.17
  -6  -2   8    1.09    0.14
  -5  -2   8    1.45    0.15
  -5  -2   8    1.54    0.18
  -5  -2   8    2.24    0.22
   4   2  -8    0.91    0.12
  -4  -2   8    0.73    0.12
  -4  -2   8    0.73    0.14
  -4  -2   8    0.95    0.13
  -4  -2   8    0.77    0.13
   3   2  -8    1.75    0.16
   3   2  -8    1.28    0.10
  -3  -2   8    1.36    0.15
  -3  -2   8    1.08    0.13
  -3  -2   8    1.14    0.15
  -3  -2   8    1.34    0.14
  -3  -2   8    1.37    0.14
   2   2  -8    4.34    0.20
   2   2  -8    4.22    0.30
   2   2  -8    3.98    0.22
  -2  -2   8    3.94    0.24
  -2  -2   8    3.80    0.23
  -2  -2   8    4.39    0.23
  -2  -2   8    4.37    0.22
   1   2  -8   12.17    0.40
   1   2  -8   11.72    0.43
  -1  -2   8   11.16    0.43
  -1  -2   8   11.94    0.42
  -1  -2   8   12.85    0.43
  -1  -2   8   12.93    0.45
   0   2  -8   11.48    0.43
   0   2  -8   11.91    0.39
   0  -2   8   12.02    0.42
   0  -2   8   11.50    0.44
   0  -2   8   11.98    0.42
  -1   2  -8    4.89    0.27
  -1   2  -8    5.14    0.24
   1  -2   8    5.04    0.28
   1  -2   8    4.91    0.25
   1  -2   8    5.50    0.26
  -2   2  -8    3.35    0.24
   2  -2   8    3.11    0.23
   2  -2   8    3.46    0.21
  -3   2  -8   20.73    0.64
  -3   2  -8   20.23    0.68
   3  -2   8   20.63    0.69
   3  -2   8   20.77    0.64
  -4   2  -8    0.07    0.08
  -4   2  -8    0.12    0.10
   4  -2   8    0.01    0.10
  -5   2  -8    4.39    0.31
   5  -2   8    4.63    0.31
  -6   2  -8    2.27    0.25
   6  -2   8    1.91    0.23
  -7   2  -8    2.34    0.28
   7  -2   8    2.41    0.28
  -8   2  -8    0.07    0.14
   8  -2   8    0.36    0.15
  -9   2  -8    0.31    0.18
  -9  -1   8    1.48    0.19
  -9  -1   8    1.37    0.17
  -8  -1   8    0.67    0.15
  -8  -1   8    0.64    0.13
  -8  -1   8    0.63    0.13
  -7  -1   8    7.02    0.32
  -7  -1   8    7.19    0.33
  -7  -1   8    7.78    0.37
  -6  -1   8    1.90    0.17
  -6  -1   8    1.85    0.18
  -6  -1   8    1.49    0.15
  -6  -1   8    1.70    0.19
  -5  -1   8    6.57    0.30
  -5  -1   8    6.95    0.29
  -5  -1   8    6.27    0.31
  -5  -1   8    6.91    0.29
  -5  -1   8    6.63    0.28
   4   1  -8    3.28    0.14
   4   1  -8    3.50    0.18
  -4  -1   8    2.92    0.20
  -4  -1   8    3.51    0.20
  -4  -1   8    3.53    0.19
  -4  -1   8    3.70    0.23
   3   1  -8   11.59    0.36
   3   1  -8   11.86    0.39
  -3  -1   8   11.92    0.40
  -3  -1   8   11.61    0.42
  -3  -1   8   11.48    0.42
  -3  -1   8   11.99    0.40
   2   1  -8    9.95    0.34
   2   1  -8   10.05    0.36
  -2  -1   8    9.61    0.35
  -2  -1   8    9.97    0.36
  -2  -1   8    9.89    0.37
  -2  -1   8    9.75    0.38
   1   1  -8    4.49    0.23
   1   1  -8    4.94    0.24
  -1  -1   8    4.57    0.22
  -1  -1   8    4.96    0.23
  -1  -1   8    4.55    0.25
   0   1  -8   26.74    0.77
   0   1  -8   25.76    0.75
   0  -1   8   27.35    0.77
   0  -1   8   27.02    0.76
   0  -1   8   26.09    0.78
  -1   1  -8    1.08    0.15
  -1   1  -8    1.23    0.15
  -1   1  -8    1.56    0.13
   1  -1   8    1.21    0.14
   1  -1   8    1.70    0.16
   1  -1   8    1.29    0.16
  -2   1  -8    3.81    0.21
  -2   1  -8    3.26    0.24
  -2   1  -8    4.02    0.25
   2  -1   8    3.43    0.24
   2  -1   8    3.66    0.21
  -3   1  -8    9.49    0.36
  -3   1  -8    8.70    0.39
  -3   1  -8    8.77    0.39
   3  -1   8    9.02    0.40
   3  -1   8    9.15    0.36
  -4   1  -8    5.17    0.31
  -4   1  -8    4.39    0.30
   4  -1   8    4.55    0.30
  -5   1  -8    4.02    0.29
  -5   1  -8    4.06    0.29
   5  -1   8    3.68    0.28
  -6   1  -8    4.21    0.32
  -6   1  -8    4.67    0.34
   6  -1   8    4.83    0.34
  -7   1  -8    0.57    0.16
  -7   1  -8    0.65    0.19
   7  -1   8    0.58    0.17
  -8   1  -8    0.39    0.18
   8  -1   8    0.55    0.18
  -9   1  -8    0.11    0.16
 -10   0   8    0.17    0.11
 -10   0   8    0.27    0.11
  -9   0   8    0.31    0.10
  -9   0   8    0.15    0.09
  -8   0   8    1.00    0.14
  -8   0   8    0.86    0.12
  -8   0   8    0.97    0.16
  -7   0   8    2.49    0.19
  -7   0   8    2.56    0.22
  -7   0   8    2.57    0.18
  -7   0   8    2.43    0.17
  -6   0   8    9.08    0.33
  -6   0   8    9.08    0.38
  -6   0   8    9.01    0.34
  -6   0   8    8.91    0.33
  -6   0   8    9.24    0.34
  -5   0   8   -0.23    0.12
  -5   0   8    0.07    0.07
  -5   0   8   -0.12    0.07
  -5   0   8   -0.01    0.05
  -5   0   8   -0.04    0.05
   4   0  -8   15.75    0.44
   4   0  -8   15.39    0.45
  -4   0   8   15.63    0.51
  -4   0   8   15.37    0.49
  -4   0   8   15.64    0.47
  -4   0   8   15.50    0.80
  -4   0   8   15.69    0.48
   3   0  -8    7.84    0.28
   3   0  -8    7.58    0.28
  -3   0   8    7.96    0.29
  -3   0   8    7.49    0.28
  -3   0   8    7.27    0.31
  -3   0   8    7.84    0.32
   2   0  -8   23.99    0.67
   2   0  -8   22.92    0.66
  -2   0   8   23.32    0.69
  -2   0   8   23.05    0.66
  -2   0   8   23.88    0.67
   1   0  -8   21.59    0.63
   1   0  -8   21.65    0.64
  -1   0   8   22.21    0.64
  -1   0   8   21.69    0.63
  -1   0   8   20.55    0.65
   0   0  -8   22.53    0.68
   0   0  -8   23.37    0.68
   0   0   8   23.44    0.67
   0   0   8   22.63    0.66
   0   0   8   21.89    0.69
  -1   0  -8   11.59    0.38
  -1   0  -8   11.38    0.43
  -1   0  -8   10.92    0.42
   1   0   8   11.08    0.40
   1   0   8   11.55    0.43
   1   0   8   11.29    0.41
  -2   0  -8    0.42    0.09
  -2   0  -8    0.32    0.11
  -2   0  -8    0.33    0.10
   2   0   8    0.52    0.12
   2   0   8    0.46    0.10
  -3   0  -8   14.18    0.52
  -3   0  -8   13.29    0.51
   3   0   8   13.21    0.51
   3   0   8   13.31    0.48
  -4   0  -8   13.37    0.54
  -4   0  -8   13.95    0.54
   4   0   8   13.57    0.53
  -5   0  -8    3.80    0.29
  -5   0  -8    3.65    0.29
   5   0   8    3.78    0.30
  -6   0  -8    2.17    0.25
  -6   0  -8    2.27    0.27
   6   0   8    2.58    0.28
  -7   0  -8    0.52    0.18
  -7   0  -8    0.70    0.19
   7   0   8    0.41    0.17
  -8   0  -8    0.00    0.15
   8   0   8    0.21    0.16
 -10   1   8    0.79    0.13
  -9   1   8    0.80    0.12
  -9   1   8    0.69    0.11
  -8   1   8    2.88    0.22
  -8   1   8    2.71    0.18
  -8   1   8    2.73    0.18
  -8   1   8    2.88    0.18
  -7   1   8    8.79    0.32
  -7   1   8    9.49    0.33
  -7   1   8    9.40    0.37
  -7   1   8    9.17    0.33
  -7   1   8    9.33    0.32
  -6   1   8    2.29    0.19
  -6   1   8    1.86    0.14
  -6   1   8    2.16    0.15
  -6   1   8    1.73    0.13
  -6   1   8    2.79    0.28
  -5   1   8    3.44    0.33
  -5   1   8    3.40    0.19
  -5   1   8    3.19    0.21
  -5   1   8    3.29    0.16
  -5   1   8    3.33    0.17
   4  -1  -8    5.45    0.19
   4  -1  -8    6.11    0.24
  -4   1   8    5.92    0.25
  -4   1   8    6.11    0.46
  -4   1   8    6.27    0.24
  -4   1   8    6.38    0.28
  -4   1   8    5.74    0.23
   3  -1  -8   21.32    0.57
   3  -1  -8   20.45    0.60
  -3   1   8   20.83    1.05
  -3   1   8   19.72    0.58
  -3   1   8   21.12    0.61
  -3   1   8   20.27    0.60
  -3   1   8   20.75    0.59
   2  -1  -8   15.30    0.46
   2  -1  -8   14.73    0.48
  -2   1   8   14.66    0.84
  -2   1   8   14.36    0.46
  -2   1   8   15.22    0.46
  -2   1   8   14.97    0.48
   1  -1  -8   25.26    0.74
   1  -1  -8   25.83    0.72
  -1   1   8   26.66    0.73
  -1   1   8   24.92    0.72
  -1   1   8   25.13    0.74
   0  -1  -8    8.39    0.36
   0  -1  -8    8.74    0.34
   0   1   8    8.42    0.35
   0   1   8    8.43    0.33
   0   1   8    8.42    0.33
  -1  -1  -8    7.11    0.33
  -1  -1  -8    7.35    0.33
   1   1   8    7.59    0.32
   1   1   8    7.72    0.32
   1   1   8    7.62    0.34
  -2  -1  -8    0.50    0.12
  -2  -1  -8    0.32    0.11
   2   1   8    0.38    0.09
   2   1   8    0.17    0.10
  -3  -1  -8   19.17    0.64
  -3  -1  -8   17.61    0.63
   3   1   8   18.30    0.60
   3   1   8   17.84    0.64
  -4  -1  -8   21.00    0.73
  -4  -1  -8   22.35    0.75
   4   1   8   21.95    0.75
  -5  -1  -8    3.70    0.31
  -5  -1  -8    3.20    0.29
   5   1   8    3.65    0.31
  -6  -1  -8    3.80    0.36
  -6  -1  -8    4.24    0.33
   6   1   8    3.30    0.33
  -7  -1  -8    1.11    0.22
  -7  -1  -8    1.41    0.25
   7   1   8    1.03    0.22
  -8  -1  -8    1.52    0.27
   8   1   8    1.03    0.23
 -10   2   8    1.02    0.13
  -9   2   8    0.73    0.10
  -9   2   8    0.73    0.10
  -8   2   8    6.80    0.26
  -8   2   8    7.20    0.26
  -8   2   8    7.06    0.26
  -8   2   8    7.26    0.26
  -7   2   8    7.78    0.27
  -7   2   8    9.13    0.57
  -7   2   8    7.20    0.31
  -7   2   8    7.10    0.26
  -7   2   8    6.60    0.25
  -6   2   8    1.76    0.13
  -6   2   8    1.93    0.16
  -6   2   8    2.39    0.31
  -6   2   8    1.40    0.11
  -6   2   8    1.58    0.12
   5  -2  -8    1.31    0.13
  -5   2   8    1.40    0.27
  -5   2   8    1.23    0.10
  -5   2   8    1.26    0.11
  -5   2   8    1.15    0.13
  -5   2   8    1.37    0.14
  -5   2   8    1.43    0.13
   4  -2  -8    3.17    0.19
  -4   2   8    3.47    0.16
  -4   2   8    3.29    0.20
  -4   2   8    3.49    0.37
  -4   2   8    3.41    0.18
  -4   2   8    3.04    0.16
   3  -2  -8    4.72    0.19
   3  -2  -8    4.47    0.24
  -3   2   8    4.96    0.45
  -3   2   8    4.66    0.20
  -3   2   8    4.76    0.20
  -3   2   8    4.82    0.22
  -3   2   8    4.71    0.22
   2  -2  -8    6.62    0.29
   2  -2  -8    6.68    0.25
  -2   2   8    6.27    0.54
  -2   2   8    6.19    0.27
  -2   2   8    6.03    0.25
  -2   2   8    6.40    0.26
   1  -2  -8    6.63    0.27
   1  -2  -8    6.94    0.31
  -1   2   8    6.68    0.58
  -1   2   8    7.14    0.28
  -1   2   8    6.47    0.28
  -1   2   8    6.68    0.30
   0  -2  -8   11.95    0.43
   0  -2  -8   12.19    0.46
   0   2   8   12.61    0.43
   0   2   8   12.91    0.43
   0   2   8   12.22    0.45
  -1  -2  -8    3.16    0.24
  -1  -2  -8    3.50    0.23
   1   2   8    3.15    0.21
   1   2   8    3.36    0.23
  -2  -2  -8    7.06    0.34
  -2  -2  -8    6.66    0.35
   2   2   8    7.27    0.36
   2   2   8    7.00    0.32
  -3  -2  -8    7.54    0.38
  -3  -2  -8    7.67    0.39
   3   2   8    7.98    0.36
   3   2   8    7.71    0.40
  -4  -2  -8    5.75    0.35
  -4  -2  -8    6.07    0.36
   4   2   8    6.19    0.36
  -5  -2  -8    1.26    0.21
  -5  -2  -8    1.98    0.24
   5   2   8    1.91    0.26
  -6  -2  -8    2.04    0.27
  -6  -2  -8    1.74    0.26
   6   2   8    1.40    0.25
  -7  -2  -8    1.00    0.24
   7   2   8    0.93    0.24
 -10   3   8    2.58    0.16
 -10   3   8    2.83    0.17
  -9   3   8    0.57    0.08
  -9   3   8    0.53    0.08
  -8   3   8    1.32    0.10
  -8   3   8    1.49    0.11
  -7   3   8    6.18    0.21
  -7   3   8    6.75    0.55
  -7   3   8    6.01    0.26
  -7   3   8    6.44    0.22
  -7   3   8    6.35    0.21
  -6   3   8    2.47    0.14
  -6   3   8    2.44    0.12
  -6   3   8    2.46    0.17
  -6   3   8    2.93    0.40
  -6   3   8    2.51    0.12
   5  -3  -8    4.97    0.25
  -5   3   8    4.92    0.19
  -5   3   8    5.42    0.26
  -5   3   8    5.43    0.50
  -5   3   8    5.06    0.24
  -5   3   8    4.81    0.19
  -5   3   8    5.19    0.21
   4  -3  -8    4.57    0.24
  -4   3   8    4.31    0.19
  -4   3   8    4.84    0.46
  -4   3   8    4.02    0.18
  -4   3   8    4.19    0.20
   3  -3  -8    1.39    0.16
   3  -3  -8    1.13    0.09
  -3   3   8    1.21    0.11
  -3   3   8    1.42    0.31
  -3   3   8    1.40    0.14
  -3   3   8    1.31    0.12
   2  -3  -8    0.19    0.07
   2  -3  -8    0.25    0.10
  -2   3   8    0.07    0.20
  -2   3   8    0.28    0.09
  -2   3   8    0.23    0.07
  -2   3   8    0.36    0.08
   1  -3  -8    1.38    0.17
   1  -3  -8    1.41    0.14
  -1   3   8    1.24    0.34
  -1   3   8    1.32    0.14
  -1   3   8    0.94    0.12
  -1   3   8    1.25    0.15
   0  -3  -8    5.14    0.29
   0  -3  -8    4.84    0.25
   0   3   8    4.85    0.56
   0   3   8    5.22    0.26
   0   3   8    4.75    0.27
   0   3   8    5.00    0.25
  -1  -3  -8    3.86    0.27
  -1  -3  -8    3.88    0.25
   1   3   8    4.03    0.24
   1   3   8    3.86    0.26
  -2  -3  -8    6.27    0.35
  -2  -3  -8    6.52    0.33
   2   3   8    6.39    0.32
   2   3   8    6.33    0.35
  -3  -3  -8    5.74    0.34
  -3  -3  -8    6.17    0.36
   3   3   8    6.22    0.36
  -4  -3  -8    3.64    0.33
  -4  -3  -8    2.89    0.29
   4   3   8    3.48    0.33
  -5  -3  -8    2.13    0.27
  -5  -3  -8    2.26    0.28
   5   3   8    2.01    0.27
  -6  -3  -8    1.58    0.26
   6   3   8    0.95    0.23
  -7  -3  -8    1.09    0.25
   7   3   8    0.89    0.23
 -10   4   8    2.10    0.13
 -10   4   8    2.32    0.13
  -9   4   8    5.01    0.50
  -8   4   8    0.09    0.17
  -7   4   8    9.29    0.27
  -7   4   8   10.32    0.74
  -6   4   8    8.61    0.27
  -6   4   8    8.26    0.26
  -6   4   8    9.74    0.72
  -6   4   8    8.91    0.31
  -6   4   8    8.65    0.28
  -5   4   8    2.78    0.16
  -5   4   8    2.65    0.14
  -5   4   8    2.82    0.14
  -5   4   8    3.67    0.48
   4  -4  -8    8.55    0.37
  -4   4   8    8.46    0.31
  -4   4   8    8.63    0.30
  -4   4   8    8.33    0.29
  -4   4   8    9.40    0.69
   3  -4  -8    3.48    0.24
  -3   4   8    3.28    0.20
  -3   4   8    3.27    0.44
  -3   4   8    3.26    0.18
  -3   4   8    3.29    0.18
   2  -4  -8    8.72    0.39
   2  -4  -8    9.49    0.33
  -2   4   8    9.10    0.34
  -2   4   8    9.06    0.36
  -2   4   8    9.45    0.71
  -2   4   8    8.48    0.33
   1  -4  -8   13.90    0.54
   1  -4  -8   15.40    0.50
  -1   4   8   15.92    0.51
  -1   4   8   15.06    0.51
  -1   4   8   15.15    0.53
  -1   4   8   16.30    1.01
   0  -4  -8   17.25    0.62
   0  -4  -8   17.86    0.58
   0   4   8   17.08    0.60
   0   4   8   19.12    1.14
   0   4   8   16.80    0.58
  -1  -4  -8   14.40    0.53
  -1  -4  -8   13.86    0.55
   1   4   8   14.73    0.53
   1   4   8   13.74    0.54
  -2  -4  -8    3.71    0.29
  -2  -4  -8    3.09    0.26
   2   4   8    3.24    0.27
   2   4   8    3.45    0.25
  -3  -4  -8    5.03    0.34
  -3  -4  -8    5.34    0.35
   3   4   8    5.10    0.36
  -4  -4  -8    4.42    0.35
  -4  -4  -8    4.81    0.35
   4   4   8    4.51    0.37
  -5  -4  -8    1.38    0.24
   5   4   8    1.29    0.25
  -6  -4  -8    1.34    0.25
   6   4   8    1.24    0.26
 -10   5   8    9.43    0.62
  -9   5   8    0.86    0.30
  -8   5   8    0.79    0.31
  -7   5   8    9.62    0.76
  -7   5   8    8.23    0.25
  -6   5   8   10.68    0.33
  -6   5   8   10.86    0.33
  -6   5   8   10.51    0.35
  -6   5   8   13.39    0.87
  -6   5   8   10.09    0.32
  -5   5   8    1.16    0.12
  -5   5   8    2.19    0.42
  -5   5   8    1.28    0.11
  -5   5   8    1.16    0.11
   4  -5  -8    0.88    0.16
  -4   5   8    1.34    0.34
  -4   5   8    1.23    0.12
  -4   5   8    1.05    0.13
  -4   5   8    1.09    0.11
   3  -5  -8    1.27    0.18
  -3   5   8    1.55    0.15
  -3   5   8    1.33    0.15
  -3   5   8    1.43    0.14
  -3   5   8    1.59    0.38
   2  -5  -8    4.64    0.30
  -2   5   8    5.02    0.25
  -2   5   8    5.08    0.57
  -2   5   8    4.77    0.25
  -2   5   8    4.63    0.27
   1  -5  -8    4.56    0.25
   1  -5  -8    4.66    0.30
  -1   5   8    4.58    0.61
  -1   5   8    4.70    0.26
  -1   5   8    4.77    0.28
   0  -5  -8   12.51    0.46
   0  -5  -8   11.76    0.50
   0   5   8   11.31    0.91
   0   5   8   12.02    0.46
   0   5   8   10.87    0.47
  -1  -5  -8   10.99    0.45
  -1  -5  -8   11.20    0.50
   1   5   8   10.80    0.48
   1   5   8   10.28    0.44
  -2  -5  -8    2.15    0.24
  -2  -5  -8    2.95    0.30
   2   5   8    2.41    0.26
   2   5   8    2.30    0.28
  -3  -5  -8    2.44    0.28
  -3  -5  -8    3.11    0.31
   3   5   8    2.29    0.28
  -4  -5  -8    1.21    0.22
   4   5   8    1.21    0.23
  -5  -5  -8    0.37    0.18
   5   5   8    0.33    0.18
  -9   6   8    0.47    0.27
  -8   6   8    1.31    0.41
  -7   6   8    2.33    0.48
  -7   6   8    1.54    0.11
  -7   6   8    1.67    0.11
  -6   6   8    3.15    0.17
  -6   6   8    3.08    0.16
  -6   6   8    4.48    0.64
  -6   6   8    2.95    0.16
  -5   6   8    1.68    0.43
  -5   6   8    0.71    0.10
  -5   6   8    0.87    0.12
  -5   6   8    0.84    0.10
   4  -6  -8    1.17    0.19
  -4   6   8    1.24    0.14
  -4   6   8    1.23    0.13
  -4   6   8    1.24    0.13
  -4   6   8    1.53    0.38
   3  -6  -8    3.17    0.27
  -3   6   8    3.75    0.55
  -3   6   8    3.52    0.24
  -3   6   8    3.69    0.22
  -3   6   8    3.24    0.21
   2  -6  -8    2.15    0.24
  -2   6   8    2.75    0.49
  -2   6   8    2.29    0.22
  -2   6   8    2.24    0.20
   1  -6  -8    3.79    0.29
  -1   6   8    3.82    0.58
  -1   6   8    3.95    0.28
  -1   6   8    3.49    0.25
   0  -6  -8    5.48    0.31
   0  -6  -8    4.88    0.35
   0   6   8    5.18    0.34
   0   6   8    5.06    0.71
   0   6   8    5.95    0.32
  -1  -6  -8    6.99    0.36
  -1  -6  -8    5.69    0.37
   1   6   8    5.37    0.37
   1   6   8    6.09    0.34
  -2  -6  -8    2.57    0.28
  -2  -6  -8    3.14    0.30
   2   6   8    2.96    0.33
  -3  -6  -8    1.43    0.24
   3   6   8    1.31    0.25
  -4  -6  -8    1.31    0.24
   4   6   8    1.26    0.27
 -10   7   8    8.73    0.68
  -9   7   8    0.56    0.33
  -8   7   8    1.71    0.48
  -8   7   8    0.91    0.09
  -8   7   8    0.90    0.08
  -7   7   8    2.58    0.53
  -7   7   8    1.90    0.13
  -7   7   8    1.86    0.14
  -6   7   8    2.02    0.16
  -6   7   8    2.29    0.16
  -6   7   8    3.06    0.57
  -6   7   8    2.29    0.17
  -5   7   8    3.03    0.54
  -5   7   8    2.30    0.17
  -5   7   8    2.20    0.18
  -5   7   8    2.02    0.17
  -4   7   8    2.54    0.22
  -4   7   8    3.43    0.55
  -4   7   8    2.55    0.20
   3  -7  -8    0.09    0.12
  -3   7   8    0.83    0.34
  -3   7   8    0.50    0.12
  -3   7   8    0.53    0.13
   2  -7  -8    1.05    0.20
  -2   7   8    0.64    0.14
  -2   7   8    0.94    0.17
  -2   7   8    1.26    0.38
   1  -7  -8    3.02    0.31
  -1   7   8    3.86    0.66
  -1   7   8    3.49    0.27
  -1   7   8    3.58    0.29
   0  -7  -8    1.23    0.22
   0   7   8    1.69    0.24
   0   7   8    1.06    0.48
   0   7   8    1.73    0.21
   1   7   8    1.39    0.23
  -2  -7  -8    1.28    0.23
   2   7   8    1.36    0.25
  -3  -7  -8    0.33    0.18
   3   7   8    0.34    0.20
  -9   8   8    0.45    0.08
  -9   8   8    1.40    0.43
  -9   8   8    0.59    0.08
  -8   8   8    0.41    0.33
  -8   8   8    0.14    0.06
  -8   8   8    0.06    0.07
  -7   8   8    2.23    0.16
  -7   8   8    3.29    0.62
  -7   8   8    2.42    0.18
  -6   8   8    1.97    0.18
  -6   8   8    2.60    0.56
  -6   8   8    2.02    0.18
  -5   8   8    2.14    0.21
  -5   8   8    3.12    0.58
  -5   8   8    1.87    0.18
  -4   8   8    2.48    0.23
  -4   8   8    2.75    0.25
  -4   8   8    3.57    0.59
   3  -8  -8    0.86    0.19
  -3   8   8    0.88    0.17
  -3   8   8    0.76    0.15
  -3   8   8    1.19    0.41
   2  -8  -8    2.37    0.29
  -2   8   8    2.38    0.24
  -2   8   8    2.42    0.26
  -2   8   8    3.05    0.57
  -1   8   8    4.93    0.76
  -1   8   8    4.68    0.36
  -1   8   8    4.93    0.33
   0   8   8   -0.41    0.40
   0   8   8    0.45    0.18
   1   8   8    0.43    0.20
   2   8   8    0.36    0.21
  -8   9   8    2.57    0.53
  -7   9   8    4.23    0.70
  -7   9   8    2.53    0.21
  -6   9   8    3.11    0.24
  -6   9   8    3.25    0.24
  -6   9   8    4.88    0.75
  -5   9   8    1.20    0.17
  -5   9   8    1.84    0.48
  -5   9   8    1.21    0.18
  -4   9   8    1.71    0.22
  -4   9   8    2.56    0.54
  -4   9   8    1.50    0.20
  -3   9   8    1.72    0.22
  -3   9   8    2.46    0.27
  -3   9   8    2.70    0.54
  -2   9   8    2.83    0.63
  -2   9   8    2.09    0.27
  -2   9   8    1.97    0.24
  -1   9   8    1.53    0.26
  -1   9   8    1.61    0.23
  -1   9   8    1.56    0.58
   0   9   8    0.63    0.21
   0   9   8    0.15    0.54
  -6  10   8    0.40    0.14
  -6  10   8    0.42    0.13
  -5  10   8    1.56    0.43
  -5  10   8    0.35    0.14
  -5  10   8    0.48    0.15
  -4  10   8    0.90    0.18
  -4  10   8    1.63    0.45
  -4  10   8    0.68    0.18
  -3  10   8    1.72    0.24
  -3  10   8    1.47    0.24
  -3  10   8    2.40    0.57
  -2  10  -9    0.45    0.20
   2 -10   9    0.35    0.18
  -3  10  -9    1.34    0.27
   3 -10   9    1.65    0.29
  -4  10  -9    0.53    0.22
   4 -10   9    0.11    0.17
   1   9  -9    1.37    0.25
  -1  -9   9    1.34    0.26
   0   9  -9    2.13    0.31
   0  -9   9    2.10    0.31
  -1   9  -9    0.48    0.20
   1  -9   9    1.20    0.25
  -2   9  -9    0.81    0.22
   2  -9   9    0.96    0.20
   2  -9   9    1.03    0.23
  -3   9  -9    2.38    0.31
   3  -9   9    2.44    0.32
   3  -9   9    2.45    0.28
  -4   9  -9    0.91    0.23
   4  -9   9    1.16    0.24
   4  -9   9    1.13    0.20
  -5   9  -9    0.58    0.21
   5  -9   9    0.54    0.16
   5  -9   9    0.52    0.18
  -6   9  -9    1.12    0.25
   6  -9   9    0.89    0.20
  -7   9  -9    0.27    0.19
  -3  -8   9    1.00    0.23
   2   8  -9    1.31    0.24
  -2  -8   9    1.31    0.26
   1   8  -9    0.58    0.20
  -1  -8   9    0.72    0.19
   0   8  -9    1.20    0.23
   0  -8   9    0.96    0.21
   0  -8   9    0.98    0.21
  -1   8  -9    1.20    0.24
   1  -8   9    1.14    0.21
   1  -8   9    1.63    0.24
  -2   8  -9    2.55    0.30
   2  -8   9    3.02    0.33
   2  -8   9    2.70    0.28
  -3   8  -9    5.67    0.41
   3  -8   9    5.63    0.36
   3  -8   9    6.21    0.41
  -4   8  -9    1.44    0.25
   4  -8   9    1.78    0.23
   4  -8   9    1.62    0.25
  -5   8  -9    2.01    0.28
   5  -8   9    1.62    0.22
   5  -8   9    1.63    0.24
  -6   8  -9    1.43    0.26
   6  -8   9    1.38    0.21
   6  -8   9    1.20    0.22
  -7   8  -9    2.20    0.31
  -8   8  -9    0.74    0.24
  -4  -7   9    1.43    0.26
   3   7  -9    1.18    0.21
  -3  -7   9    1.12    0.22
   2   7  -9    0.68    0.19
  -2  -7   9    0.62    0.19
  -2  -7   9    0.80    0.19
   1   7  -9    0.51    0.17
  -1  -7   9    0.86    0.20
  -1  -7   9    0.63    0.18
   0   7  -9    1.14    0.21
   0  -7   9    0.84    0.20
   0  -7   9    0.66    0.18
  -1   7  -9    5.50    0.37
   1  -7   9    5.23    0.37
   1  -7   9    5.87    0.36
  -2   7  -9    3.77    0.34
   2  -7   9    3.34    0.30
   2  -7   9    3.31    0.32
  -3   7  -9    1.87    0.26
   3  -7   9    2.26    0.25
   3  -7   9    2.17    0.27
  -4   7  -9    1.52    0.24
   4  -7   9    1.25    0.22
   4  -7   9    1.46    0.20
  -5   7  -9    0.38    0.16
   5  -7   9    0.45    0.17
   5  -7   9    0.57    0.15
  -6   7  -9    1.29    0.24
   6  -7   9    1.63    0.22
   6  -7   9    1.47    0.23
  -7   7  -9    0.97    0.24
   7  -7   9    1.27    0.22
   7  -7   9    0.93    0.18
  -8   7  -9    0.77    0.23
  -5  -6   9    1.23    0.23
  -4  -6   9    1.04    0.21
   3   6  -9    0.10    0.13
  -3  -6   9    0.41    0.16
  -3  -6   9    0.09    0.13
   2   6  -9    2.10    0.25
  -2  -6   9    2.18    0.26
  -2  -6   9    1.98    0.25
   1   6  -9    0.29    0.15
  -1  -6   9    0.44    0.15
  -1  -6   9    0.40    0.15
   0   6  -9    0.68    0.17
   0  -6   9    1.00    0.18
   0  -6   9    0.64    0.17
  -1   6  -9    7.31    0.40
   1  -6   9    7.53    0.40
   1  -6   9    7.09    0.40
  -2   6  -9    0.91    0.18
   2  -6   9    0.99    0.19
   2  -6   9    0.97    0.17
  -3   6  -9    1.11    0.21
   3  -6   9    1.52    0.21
   3  -6   9    1.13    0.20
  -4   6  -9    1.53    0.23
   4  -6   9    2.11    0.25
   4  -6   9    1.96    0.22
  -5   6  -9    1.33    0.23
   5  -6   9    1.33    0.20
   5  -6   9    1.55    0.22
  -6   6  -9    1.21    0.23
   6  -6   9    1.82    0.25
   6  -6   9    1.55    0.21
  -7   6  -9   -0.06    0.14
   7  -6   9    0.04    0.14
  -8   6  -9    0.69    0.21
  -6  -5   9    0.71    0.19
  -6  -5   9    0.57    0.15
  -5  -5   9    0.83    0.20
  -5  -5   9    0.60    0.15
  -5  -5   9    0.75    0.19
  -4  -5   9    0.26    0.14
  -4  -5   9    0.46    0.13
  -4  -5   9    0.40    0.15
   3   5  -9    2.14    0.23
  -3  -5   9    2.06    0.24
  -3  -5   9    2.02    0.21
  -3  -5   9    1.93    0.25
   2   5  -9    5.95    0.34
  -2  -5   9    6.04    0.32
  -2  -5   9    5.66    0.35
  -2  -5   9    5.80    0.35
   1   5  -9   10.04    0.44
  -1  -5   9    9.53    0.41
  -1  -5   9    9.99    0.44
  -1  -5   9    9.14    0.44
   0   5  -9   15.94    0.61
   0  -5   9   15.83    0.57
   0  -5   9   16.30    0.61
   0  -5   9   16.48    0.59
  -1   5  -9   15.59    0.60
   1  -5   9   16.29    0.59
   1  -5   9   15.36    0.60
  -2   5  -9    8.68    0.42
   2  -5   9    8.55    0.41
   2  -5   9    9.14    0.44
  -3   5  -9    0.73    0.17
   3  -5   9    0.47    0.14
   3  -5   9    0.52    0.15
  -4   5  -9    3.72    0.30
   4  -5   9    3.71    0.29
  -5   5  -9    0.57    0.17
   5  -5   9    0.81    0.18
  -6   5  -9    1.98    0.26
   6  -5   9    1.90    0.24
  -7   5  -9    1.31    0.23
   7  -5   9    1.13    0.21
  -8   5  -9    1.53    0.27
   8  -5   9    1.34    0.22
  -9   5  -9    0.68    0.22
  -7  -4   9    1.81    0.23
  -7  -4   9    1.78    0.24
  -6  -4   9    1.47    0.22
  -6  -4   9    1.54    0.20
  -6  -4   9    1.53    0.23
  -5  -4   9    0.61    0.16
  -5  -4   9    0.30    0.12
  -5  -4   9    0.56    0.17
  -4  -4   9    2.03    0.24
  -4  -4   9    2.03    0.21
  -4  -4   9    2.02    0.22
   3   4  -9    4.34    0.27
  -3  -4   9    4.28    0.27
  -3  -4   9    4.60    0.31
  -3  -4   9    4.08    0.29
   2   4  -9    3.58    0.25
  -2  -4   9    3.25    0.24
  -2  -4   9    3.36    0.26
  -2  -4   9    3.79    0.27
   1   4  -9    5.08    0.30
  -1  -4   9    5.12    0.28
  -1  -4   9    5.16    0.31
  -1  -4   9    5.27    0.31
   0   4  -9   12.85    0.51
   0  -4   9   12.99    0.52
   0  -4   9   13.42    0.49
   0  -4   9   13.91    0.52
  -1   4  -9   18.59    0.67
   1  -4   9   19.07    0.67
   1  -4   9   19.42    0.65
   1  -4   9   20.14    0.64
  -2   4  -9   15.19    0.58
   2  -4   9   15.67    0.56
   2  -4   9   15.73    0.54
   2  -4   9   15.16    0.58
  -3   4  -9    8.35    0.41
   3  -4   9    8.51    0.42
  -4   4  -9    2.74    0.27
   4  -4   9    2.48    0.26
  -5   4  -9    3.03    0.30
   5  -4   9    2.81    0.28
  -6   4  -9    0.05    0.13
   6  -4   9   -0.07    0.12
  -7   4  -9    2.25    0.29
   7  -4   9    2.63    0.30
  -8   4  -9    0.01    0.16
   8  -4   9    0.15    0.15
  -9   4  -9    0.48    0.21
  -8  -3   9    0.34    0.13
  -8  -3   9    0.59    0.16
  -7  -3   9    1.22    0.19
  -7  -3   9    0.89    0.18
  -7  -3   9    0.99    0.20
  -6  -3   9    0.05    0.12
  -6  -3   9    0.20    0.11
  -6  -3   9   -0.08    0.10
  -5  -3   9    0.64    0.15
  -5  -3   9    0.68    0.15
  -5  -3   9    0.64    0.13
  -4  -3   9    2.27    0.20
  -4  -3   9    1.79    0.20
  -4  -3   9    1.79    0.22
   3   3  -9    5.74    0.29
   3   3  -9    5.54    0.21
  -3  -3   9    5.20    0.30
  -3  -3   9    4.90    0.30
  -3  -3   9    5.19    0.28
   2   3  -9    7.77    0.29
   2   3  -9    7.49    0.35
  -2  -3   9    8.00    0.34
  -2  -3   9    7.61    0.37
  -2  -3   9    7.42    0.36
   1   3  -9    3.30    0.24
  -1  -3   9    3.38    0.22
  -1  -3   9    3.09    0.24
  -1  -3   9    3.10    0.24
   0   3  -9    5.59    0.31
   0  -3   9    5.83    0.32
   0  -3   9    5.84    0.29
   0  -3   9    6.43    0.33
  -1   3  -9    9.13    0.41
   1  -3   9    9.24    0.41
   1  -3   9    9.46    0.38
  -2   3  -9    3.13    0.26
   2  -3   9    3.14    0.25
   2  -3   9    3.35    0.22
  -3   3  -9    0.63    0.15
   3  -3   9    0.87    0.16
  -4   3  -9    4.07    0.31
   4  -3   9    3.87    0.29
  -5   3  -9    0.64    0.16
   5  -3   9    0.75    0.17
  -6   3  -9    2.25    0.27
   6  -3   9    2.53    0.28
  -7   3  -9    0.69    0.19
   7  -3   9    0.60    0.18
  -8   3  -9    0.49    0.18
   8  -3   9    0.61    0.18
  -9   3  -9   -0.04    0.15
  -8  -2   9    0.78    0.17
  -8  -2   9    0.49    0.13
  -8  -2   9    0.96    0.18
  -7  -2   9    0.56    0.16
  -7  -2   9    0.75    0.14
  -7  -2   9    0.52    0.14
  -6  -2   9    2.71    0.25
  -6  -2   9    2.74    0.26
  -6  -2   9    2.82    0.22
  -5  -2   9    1.77    0.18
  -5  -2   9    1.71    0.19
  -5  -2   9    1.97    0.22
  -4  -2   9    4.83    0.28
  -4  -2   9    5.47    0.30
  -4  -2   9    5.55    0.28
   3   2  -9    0.39    0.10
   3   2  -9    0.45    0.08
  -3  -2   9    0.41    0.10
  -3  -2   9    0.23    0.11
  -3  -2   9    0.48    0.12
   2   2  -9   20.22    0.64
   2   2  -9   20.61    0.59
  -2  -2   9   20.00    0.63
  -2  -2   9   20.70    0.66
  -2  -2   9   20.20    0.66
   1   2  -9    1.02    0.13
   1   2  -9    0.98    0.14
  -1  -2   9    1.13    0.16
  -1  -2   9    1.11    0.15
  -1  -2   9    1.25    0.17
   0   2  -9    4.17    0.26
   0   2  -9    4.47    0.25
   0  -2   9    4.57    0.25
   0  -2   9    4.70    0.28
  -1   2  -9   19.25    0.65
   1  -2   9   20.04    0.63
   1  -2   9   19.49    0.66
  -2   2  -9    2.57    0.24
   2  -2   9    2.43    0.23
   2  -2   9    2.88    0.21
  -3   2  -9    5.93    0.34
   3  -2   9    5.90    0.30
   3  -2   9    6.49    0.35
  -4   2  -9    2.05    0.24
   4  -2   9    2.03    0.23
  -5   2  -9    3.92    0.32
   5  -2   9    4.18    0.31
  -6   2  -9    0.72    0.17
  -6   2  -9    0.26    0.16
   6  -2   9    0.60    0.17
  -7   2  -9    1.58    0.25
   7  -2   9    1.21    0.22
  -8   2  -9    1.89    0.29
   8  -2   9    2.04    0.28
  -9  -1   9    0.87    0.16
  -9  -1   9    0.93    0.16
  -8  -1   9    0.90    0.15
  -8  -1   9    0.87    0.17
  -8  -1   9    0.88    0.15
  -7  -1   9    0.67    0.15
  -7  -1   9    0.83    0.14
  -7  -1   9    0.68    0.13
  -6  -1   9    4.96    0.28
  -6  -1   9    4.68    0.26
  -6  -1   9    5.18    0.31
  -5  -1   9    8.23    0.37
  -5  -1   9    8.26    0.34
  -5  -1   9    8.21    0.35
   4   1  -9    4.22    0.18
  -4  -1   9    3.89    0.24
  -4  -1   9    3.80    0.22
  -4  -1   9    4.47    0.23
  -4  -1   9    3.86    0.25
   3   1  -9   21.11    0.62
   3   1  -9   20.40    0.58
  -3  -1   9   20.32    0.64
  -3  -1   9   20.24    0.62
  -3  -1   9   19.75    0.64
  -3  -1   9   20.53    0.63
   2   1  -9   12.46    0.41
   2   1  -9   11.99    0.43
  -2  -1   9   12.62    0.43
  -2  -1   9   11.62    0.44
  -2  -1   9   11.64    0.45
  -2  -1   9   12.22    0.43
   1   1  -9   11.69    0.43
   1   1  -9   12.16    0.42
  -1  -1   9   11.48    0.42
  -1  -1   9   11.84    0.45
  -1  -1   9   12.46    0.44
   0   1  -9    0.37    0.11
   0   1  -9    0.24    0.10
   0  -1   9    0.32    0.09
   0  -1   9    0.29    0.11
  -1   1  -9   20.64    0.66
  -1   1  -9   21.15    0.68
   1  -1   9   21.02    0.68
   1  -1   9   20.46    0.65
  -2   1  -9   11.66    0.46
  -2   1  -9   11.60    0.47
   2  -1   9   11.22    0.47
   2  -1   9   11.51    0.44
  -3   1  -9    4.15    0.29
  -3   1  -9    4.27    0.28
   3  -1   9    4.20    0.29
   3  -1   9    4.67    0.26
  -4   1  -9    6.10    0.35
  -4   1  -9    6.13    0.36
   4  -1   9    5.87    0.36
  -5   1  -9    0.41    0.15
  -5   1  -9    0.55    0.16
   5  -1   9    0.51    0.16
  -6   1  -9    0.26    0.15
  -6   1  -9    0.40    0.15
   6  -1   9    0.32    0.15
  -7   1  -9   -0.15    0.13
   7  -1   9   -0.30    0.12
  -8   1  -9    2.48    0.32
   8  -1   9    2.16    0.29
  -9   0   9    1.28    0.17
  -9   0   9    1.73    0.18
  -8   0   9    0.64    0.12
  -8   0   9    0.74    0.13
  -8   0   9    0.65    0.15
  -7   0   9    1.22    0.15
  -7   0   9    0.74    0.12
  -7   0   9    0.79    0.15
  -6   0   9    5.06    0.28
  -6   0   9    4.60    0.25
  -6   0   9    4.39    0.23
  -6   0   9    4.54    0.24
  -6   0   9    4.69    0.24
  -5   0   9    3.45    0.21
  -5   0   9    3.17    0.23
  -5   0   9    2.86    0.18
  -5   0   9    3.08    0.19
   4   0  -9   12.08    0.38
  -4   0   9   11.81    0.45
  -4   0   9   12.40    0.42
  -4   0   9   12.51    0.44
  -4   0   9   12.59    0.42
   3   0  -9   13.41    0.43
   3   0  -9   13.80    0.43
  -3   0   9   12.99    0.46
  -3   0   9   13.36    0.45
  -3   0   9   13.48    0.48
  -3   0   9   13.51    0.45
   2   0  -9   13.07    0.44
   2   0  -9   13.83    0.44
  -2   0   9   12.75    0.44
  -2   0   9   12.68    0.46
  -2   0   9   13.45    0.45
   1   0  -9    2.36    0.19
   1   0  -9    2.45    0.18
  -1   0   9    2.14    0.19
  -1   0   9    2.18    0.17
  -1   0   9    2.45    0.18
   0   0  -9    2.74    0.21
   0   0  -9    2.67    0.21
   0   0   9    2.67    0.21
   0   0   9    2.68    0.20
   0   0   9    3.05    0.20
  -1   0  -9   14.79    0.53
  -1   0  -9   15.54    0.55
   1   0   9   16.39    0.53
   1   0   9   14.88    0.55
  -2   0  -9   39.65    1.13
  -2   0  -9   39.14    1.13
   2   0   9   39.45    1.15
   2   0   9   40.79    1.12
  -3   0  -9    3.63    0.28
  -3   0  -9    3.84    0.27
   3   0   9    3.66    0.24
   3   0   9    3.55    0.28
  -4   0  -9    9.25    0.44
  -4   0  -9    8.87    0.43
   4   0   9    8.59    0.44
  -5   0  -9    1.73    0.23
  -5   0  -9    1.53    0.23
   5   0   9    1.93    0.24
  -6   0  -9    1.00    0.21
  -6   0  -9    1.05    0.21
   6   0   9    0.94    0.21
  -7   0  -9    1.15    0.24
   7   0   9    1.28    0.24
  -8   0  -9    0.52    0.22
   8   0   9    0.46    0.19
 -10   1   9    2.80    0.22
  -9   1   9    2.08    0.18
  -9   1   9    1.98    0.18
  -8   1   9    1.54    0.15
  -8   1   9    1.71    0.16
  -8   1   9    1.39    0.15
  -7   1   9    0.85    0.14
  -7   1   9    0.62    0.10
  -7   1   9    0.69    0.11
  -7   1   9    0.89    0.12
  -6   1   9    1.26    0.13
  -6   1   9    1.20    0.14
  -6   1   9    1.25    0.13
  -6   1   9    1.37    0.16
  -6   1   9    1.59    0.27
   5  -1  -9    3.68    0.19
  -5   1   9    4.07    0.22
  -5   1   9    3.99    0.24
  -5   1   9    3.97    0.20
  -5   1   9    3.90    0.41
  -5   1   9    3.94    0.20
   4  -1  -9    8.15    0.31
  -4   1   9    7.78    0.30
  -4   1   9    7.86    0.59
  -4   1   9    7.57    0.33
  -4   1   9    7.95    0.30
  -4   1   9    7.87    0.32
   3  -1  -9   12.82    0.44
   3  -1  -9   12.82    0.40
  -3   1   9   12.97    0.80
  -3   1   9   13.30    0.45
  -3   1   9   12.74    0.43
  -3   1   9   13.54    0.43
   2  -1  -9    4.09    0.23
   2  -1  -9    4.12    0.20
  -2   1   9    3.69    0.22
  -2   1   9    3.71    0.20
  -2   1   9    3.87    0.21
   1  -1  -9    6.09    0.27
   1  -1  -9    6.17    0.30
  -1   1   9    5.97    0.27
  -1   1   9    5.96    0.30
  -1   1   9    6.62    0.28
   0  -1  -9    3.03    0.21
   0  -1  -9    3.38    0.24
   0   1   9    3.28    0.21
   0   1   9    3.20    0.23
  -1  -1  -9   19.74    0.65
  -1  -1  -9   20.27    0.67
   1   1   9   20.33    0.64
   1   1   9   19.78    0.67
  -2  -1  -9    8.99    0.40
  -2  -1  -9    9.08    0.42
   2   1   9    9.49    0.39
   2   1   9    9.01    0.42
  -3  -1  -9    4.90    0.32
  -3  -1  -9    5.44    0.33
   3   1   9    5.56    0.29
   3   1   9    5.24    0.33
  -4  -1  -9    2.80    0.28
  -4  -1  -9    2.36    0.26
   4   1   9    2.30    0.27
  -5  -1  -9    2.70    0.29
  -5  -1  -9    2.92    0.30
   5   1   9    2.55    0.30
  -6  -1  -9    1.03    0.22
   6   1   9    1.15    0.22
  -7  -1  -9    0.55    0.19
   7   1   9    0.56    0.20
 -10   2   9    0.16    0.09
  -9   2   9    3.39    0.20
  -9   2   9    3.67    0.21
  -8   2   9    0.04    0.07
  -8   2   9    0.17    0.07
  -8   2   9    0.19    0.07
  -7   2   9    1.78    0.15
  -7   2   9    1.72    0.18
  -7   2   9    1.75    0.13
  -7   2   9    1.84    0.14
  -6   2   9    0.47    0.08
  -6   2   9    0.59    0.11
  -6   2   9    0.83    0.21
  -6   2   9    0.49    0.08
  -6   2   9    0.47    0.09
   5  -2  -9    3.12    0.19
  -5   2   9    2.84    0.18
  -5   2   9    2.82    0.17
  -5   2   9    2.80    0.16
  -5   2   9    2.54    0.20
  -5   2   9    3.20    0.38
   4  -2  -9    0.14    0.08
  -4   2   9    0.21    0.07
  -4   2   9    0.20    0.08
  -4   2   9    0.14    0.06
  -4   2   9    0.23    0.20
   3  -2  -9    0.09    0.08
  -3   2   9    0.12    0.08
  -3   2   9    0.10    0.06
  -3   2   9    0.26    0.22
  -3   2   9   -0.08    0.05
   2  -2  -9    3.91    0.24
   2  -2  -9    3.66    0.20
  -2   2   9    4.09    0.21
  -2   2   9    4.11    0.22
  -2   2   9    3.71    0.23
  -2   2   9    3.77    0.50
   1  -2  -9    2.57    0.21
   1  -2  -9    2.16    0.17
  -1   2   9    1.94    0.17
  -1   2   9    2.16    0.18
  -1   2   9    2.04    0.20
   0  -2  -9   11.54    0.47
   0  -2  -9   12.04    0.44
   0   2   9   11.68    0.46
   0   2   9   12.05    0.44
  -1  -2  -9    6.05    0.32
  -1  -2  -9    6.39    0.34
   1   2   9    6.19    0.34
   1   2   9    7.05    0.32
  -2  -2  -9    7.42    0.39
  -2  -2  -9    7.34    0.37
   2   2   9    6.83    0.33
   2   2   9    7.13    0.37
  -3  -2  -9    2.96    0.27
  -3  -2  -9    3.01    0.29
   3   2   9    2.87    0.29
  -4  -2  -9    2.66    0.28
  -4  -2  -9    2.46    0.27
   4   2   9    2.95    0.30
  -5  -2  -9    1.10    0.21
  -5  -2  -9    0.83    0.19
   5   2   9    0.79    0.20
  -6  -2  -9    1.41    0.25
   6   2   9    1.51    0.26
  -7  -2  -9    0.70    0.22
   7   2   9   -0.12    0.16
 -10   3   9   -0.03    0.06
 -10   3   9    0.00    0.06
  -9   3   9    2.47    0.16
  -9   3   9    2.47    0.16
  -9   3   9    2.71    0.16
  -8   3   9    2.84    0.15
  -8   3   9    2.55    0.15
  -7   3   9    0.20    0.06
  -7   3   9    0.12    0.06
  -7   3   9    0.57    0.19
  -7   3   9    0.28    0.07
  -6   3   9    8.16    0.28
  -6   3   9    8.52    0.29
  -6   3   9    7.87    0.33
  -6   3   9    8.15    0.29
  -6   3   9    9.23    0.66
   5  -3  -9    3.15    0.21
  -5   3   9    3.13    0.17
  -5   3   9    4.15    0.45
  -5   3   9    3.29    0.21
  -5   3   9    3.32    0.18
  -5   3   9    3.20    0.17
   4  -3  -9    5.53    0.28
  -4   3   9    5.10    0.23
  -4   3   9    5.46    0.53
  -4   3   9    5.17    0.23
  -4   3   9    5.13    0.25
   3  -3  -9    8.82    0.38
  -3   3   9    9.09    0.71
  -3   3   9    9.08    0.35
  -3   3   9    9.03    0.33
  -3   3   9    8.78    0.33
   2  -3  -9   19.52    0.58
   2  -3  -9   18.85    0.64
  -2   3   9   21.05    1.17
  -2   3   9   19.27    0.60
  -2   3   9   19.86    0.62
  -2   3   9   19.74    0.60
   1  -3  -9   14.33    0.54
   1  -3  -9   15.05    0.49
  -1   3   9   13.89    0.51
  -1   3   9   15.09    0.51
  -1   3   9   14.27    0.97
   0  -3  -9    4.15    0.28
   0  -3  -9    3.57    0.23
   0   3   9    3.41    0.24
   0   3   9    3.40    0.26
  -1  -3  -9    6.99    0.37
  -1  -3  -9    6.76    0.34
   1   3   9    7.23    0.34
   1   3   9    6.60    0.36
  -2  -3  -9    7.60    0.39
  -2  -3  -9    7.38    0.40
   2   3   9    7.65    0.36
   2   3   9    7.41    0.40
  -3  -3  -9    3.39    0.31
  -3  -3  -9    3.94    0.32
   3   3   9    3.29    0.32
  -4  -3  -9    2.43    0.28
  -4  -3  -9    2.61    0.29
   4   3   9    3.30    0.34
  -5  -3  -9    1.19    0.23
   5   3   9    1.66    0.27
  -6  -3  -9    0.44    0.20
   6   3   9    0.23    0.19
 -10   4   9    0.03    0.06
 -10   4   9    0.06    0.06
  -9   4   9    3.98    0.17
  -9   4   9    4.22    0.18
  -8   4   9    3.60    0.16
  -8   4   9    3.51    0.16
  -7   4   9    1.59    0.37
  -7   4   9    1.02    0.09
  -7   4   9    1.19    0.10
  -7   4   9    1.12    0.10
  -6   4   9    1.44    0.15
  -6   4   9    1.63    0.36
  -6   4   9    1.30    0.12
  -6   4   9    1.35    0.12
  -6   4   9    1.24    0.11
   5  -4  -9    1.15    0.16
  -5   4   9    0.99    0.12
  -5   4   9    0.86    0.10
  -5   4   9    0.89    0.10
  -5   4   9    1.38    0.36
   4  -4  -9    2.28    0.22
  -4   4   9    2.40    0.16
  -4   4   9    2.20    0.16
  -4   4   9    2.69    0.43
  -4   4   9    2.26    0.18
   3  -4  -9   12.09    0.47
  -3   4   9   11.74    0.41
  -3   4   9   12.58    0.86
  -3   4   9   11.10    0.42
  -3   4   9   12.12    0.41
   2  -4  -9   19.75    0.67
  -2   4   9   18.82    0.62
  -2   4   9   19.21    0.61
  -2   4   9   20.74    1.20
  -2   4   9   19.20    0.63
   1  -4  -9   18.23    0.58
   1  -4  -9   18.13    0.65
  -1   4   9   17.55    0.62
  -1   4   9   18.14    1.16
  -1   4   9   18.48    0.60
   0  -4  -9    3.31    0.23
   0  -4  -9    3.48    0.30
   0   4   9    2.28    0.23
   0   4   9    3.05    0.23
  -1  -4  -9    7.79    0.38
   1   4   9    7.66    0.39
   1   4   9    7.31    0.36
  -2  -4  -9    4.32    0.31
  -2  -4  -9    4.62    0.33
   2   4   9    4.53    0.34
   2   4   9    4.97    0.31
  -3  -4  -9    0.18    0.14
  -3  -4  -9   -0.03    0.12
   3   4   9    0.55    0.17
  -4  -4  -9    0.81    0.21
   4   4   9    0.81    0.22
  -5  -4  -9    0.72    0.21
   5   4   9    0.74    0.22
  -8   5   9    2.20    0.12
  -8   5   9    2.00    0.12
  -7   5   9    1.07    0.36
  -7   5   9    0.40    0.07
  -7   5   9    0.52    0.07
  -6   5   9    0.37    0.08
  -6   5   9    0.52    0.08
  -6   5   9    0.90    0.33
  -6   5   9    0.64    0.09
   5  -5  -9    1.08    0.17
  -5   5   9    1.72    0.39
  -5   5   9    1.09    0.12
  -5   5   9    1.12    0.13
  -5   5   9    0.99    0.12
   4  -5  -9    4.20    0.29
  -4   5   9    4.04    0.21
  -4   5   9    4.20    0.54
  -4   5   9    3.91    0.23
  -4   5   9    3.73    0.21
   3  -5  -9    4.43    0.30
  -3   5   9    4.46    0.25
  -3   5   9    4.59    0.25
  -3   5   9    5.48    0.60
  -3   5   9    4.96    0.27
   2  -5  -9    7.43    0.38
  -2   5   9    7.21    0.35
  -2   5   9    7.50    0.73
  -2   5   9    7.05    0.33
   1  -5  -9    5.87    0.35
  -1   5   9    5.60    0.70
  -1   5   9    5.63    0.32
  -1   5   9    5.88    0.31
   0  -5  -9    4.31    0.32
   0  -5  -9    4.36    0.27
   0   5   9    4.36    0.29
   0   5   9    4.54    0.69
   0   5   9    3.86    0.29
  -1  -5  -9    3.65    0.27
  -1  -5  -9    2.98    0.29
   1   5   9    3.93    0.28
   1   5   9    3.93    0.32
  -2  -5  -9    2.16    0.28
  -2  -5  -9    2.19    0.26
   2   5   9    1.59    0.25
  -3  -5  -9    0.88    0.20
   3   5   9    0.51    0.19
  -4  -5  -9    0.76    0.21
   4   5   9    0.53    0.21
  -9   6   9    7.25    0.60
  -8   6   9    1.20    0.10
  -8   6   9    1.38    0.11
  -8   6   9    2.85    0.54
  -7   6   9    2.23    0.51
  -7   6   9    0.95    0.10
  -7   6   9    0.81    0.10
  -6   6   9    0.49    0.09
  -6   6   9    1.07    0.39
  -6   6   9    0.62    0.09
  -6   6   9    0.50    0.10
  -5   6   9    0.96    0.12
  -5   6   9    1.22    0.14
  -5   6   9    0.69    0.11
  -5   6   9    1.39    0.38
   4  -6  -9    1.81    0.23
  -4   6   9    2.17    0.48
  -4   6   9    1.80    0.18
  -4   6   9    1.53    0.16
   3  -6  -9    4.38    0.32
  -3   6   9    5.38    0.63
  -3   6   9    4.78    0.29
  -3   6   9    5.23    0.28
   2  -6  -9    2.43    0.27
  -2   6   9    2.51    0.22
  -2   6   9    2.14    0.23
  -2   6   9    2.59    0.55
   1  -6  -9    4.39    0.33
  -1   6   9    4.29    0.31
  -1   6   9    4.16    0.66
  -1   6   9    4.60    0.30
   0  -6  -9    3.53    0.32
   0   6   9    3.52    0.27
   0   6   9    3.61    0.31
   0   6   9    3.36    0.65
  -1  -6  -9    1.30    0.23
  -1  -6  -9    1.23    0.21
   1   6   9    1.26    0.23
   1   6   9    1.43    0.22
  -2  -6  -9    1.48    0.22
   2   6   9    1.24    0.25
  -3  -6  -9    2.44    0.30
   3   6   9    2.85    0.36
  -8   7   9    1.59    0.13
  -8   7   9    1.64    0.13
  -7   7   9    1.28    0.13
  -7   7   9    1.07    0.12
  -7   7   9    2.19    0.57
  -6   7   9    2.95    0.20
  -6   7   9    2.49    0.18
  -6   7   9    3.10    0.20
  -6   7   9    4.19    0.67
  -5   7   9    0.74    0.13
  -5   7   9    1.11    0.39
  -5   7   9    0.61    0.12
   4  -7  -9    1.88    0.25
  -4   7   9    2.72    0.51
  -4   7   9    1.95    0.19
  -4   7   9    2.10    0.21
   3  -7  -9    4.40    0.35
  -3   7   9    5.86    0.68
  -3   7   9    4.60    0.30
  -3   7   9    4.87    0.29
   2  -7  -9    0.98    0.20
  -2   7   9    1.26    0.18
  -2   7   9    1.10    0.44
  -2   7   9    1.05    0.19
  -1   7   9    1.24    0.20
  -1   7   9    1.00    0.49
  -1   7   9    1.66    0.23
   0   7   9    1.18    0.22
   0   7   9    1.06    0.54
   0   7   9    0.84    0.18
   1   7   9    0.54    0.20
   2   7   9    1.89    0.29
  -8   8   9    1.87    0.16
  -8   8   9    2.48    0.18
  -7   8   9    2.72    0.59
  -7   8   9    1.24    0.15
  -6   8   9    1.29    0.16
  -6   8   9    2.96    0.59
  -6   8   9    1.55    0.17
  -5   8   9    2.42    0.53
  -5   8   9    1.48    0.18
  -5   8   9    1.48    0.19
  -4   8   9    2.08    0.22
  -4   8   9    1.95    0.23
  -4   8   9    2.84    0.56
  -3   8   9    3.87    0.66
  -3   8   9    3.24    0.27
  -3   8   9    3.04    0.29
  -2   8   9    1.39    0.51
  -2   8   9    1.47    0.21
  -2   8   9    1.87    0.25
  -1   8   9    0.80    0.52
  -1   8   9    0.71    0.20
  -1   8   9    1.05    0.20
   0   8   9    1.47    0.66
   0   8   9    2.50    0.31
   1   8   9    3.95    0.40
  -7   9   9    0.73    0.13
  -6   9   9    1.09    0.17
  -6   9   9    0.77    0.15
  -6   9   9    2.01    0.48
  -5   9   9    2.49    0.55
  -5   9   9    2.07    0.23
  -5   9   9    1.82    0.21
  -4   9   9    0.67    0.16
  -4   9   9    1.71    0.50
  -4   9   9    0.77    0.16
  -3   9   9    1.16    0.47
  -3   9   9    0.54    0.16
  -3   9   9    0.59    0.18
  -2   9   9    0.35    0.16
  -2   9   9    0.10    0.42
  -2   9   9    0.46    0.18
  -1   9   9    0.29    0.17
  -1   9   9   -0.67    0.46
   0   9 -10    1.38    0.26
   0  -9  10    1.18    0.26
  -1   9 -10    3.94    0.40
   1  -9  10    3.54    0.38
  -2   9 -10    1.38    0.26
   2  -9  10    1.33    0.26
  -3   9 -10    1.34    0.27
   3  -9  10    1.52    0.26
  -4   9 -10    0.92    0.24
   4  -9  10    0.88    0.23
  -5   9 -10    0.85    0.24
   5  -9  10    0.85    0.23
   2   8 -10    0.25    0.17
  -2  -8  10    0.36    0.19
   1   8 -10    1.43    0.25
  -1  -8  10    1.29    0.26
   0   8 -10    2.13    0.29
   0  -8  10    2.35    0.32
  -1   8 -10    1.28    0.24
   1  -8  10    1.22    0.24
  -2   8 -10    1.16    0.24
   2  -8  10    1.46    0.23
   2  -8  10    1.82    0.28
  -3   8 -10    0.36    0.19
   3  -8  10    0.30    0.15
   3  -8  10    0.55    0.19
  -4   8 -10    1.25    0.24
   4  -8  10    1.11    0.23
   4  -8  10    1.00    0.19
  -5   8 -10    1.24    0.25
   5  -8  10    1.41    0.22
   5  -8  10    1.35    0.24
  -6   8 -10    0.70    0.23
   6  -8  10    0.85    0.21
   6  -8  10    0.91    0.20
  -3  -7  10   -0.01    0.15
   2   7 -10    0.05    0.14
  -2  -7  10    0.18    0.16
   1   7 -10    4.15    0.35
  -1  -7  10    4.53    0.37
   0   7 -10    0.70    0.19
   0  -7  10    0.54    0.17
   0  -7  10    0.50    0.18
  -1   7 -10    1.20    0.23
   1  -7  10    1.19    0.22
   1  -7  10    1.09    0.20
  -2   7 -10    1.50    0.24
   2  -7  10    1.48    0.24
   2  -7  10    1.53    0.22
  -3   7 -10    0.95    0.21
   3  -7  10    1.04    0.21
   3  -7  10    0.96    0.19
  -4   7 -10    1.54    0.25
   4  -7  10    1.10    0.21
   4  -7  10    0.93    0.19
  -5   7 -10    0.39    0.18
   5  -7  10    0.08    0.15
   5  -7  10    0.33    0.14
  -6   7 -10    0.45    0.19
   6  -7  10    0.37    0.15
   6  -7  10    0.79    0.20
  -7   7 -10    0.03    0.17
   7  -7  10   -0.12    0.13
   7  -7  10    0.18    0.14
  -5  -6  10    0.38    0.17
  -4  -6  10    1.14    0.23
  -3  -6  10    3.56    0.34
   2   6 -10    5.50    0.36
  -2  -6  10    6.68    0.41
  -2  -6  10    6.04    0.41
   1   6 -10    7.10    0.41
  -1  -6  10    7.70    0.45
  -1  -6  10    8.16    0.44
   0   6 -10    1.82    0.25
   0  -6  10    2.36    0.27
   0  -6  10    2.60    0.27
  -1   6 -10    0.41    0.16
   1  -6  10    0.29    0.15
   1  -6  10    0.37    0.15
  -2   6 -10    2.29    0.27
   2  -6  10    2.37    0.27
   2  -6  10    2.63    0.27
  -3   6 -10    0.63    0.17
   3  -6  10    0.57    0.16
   3  -6  10    0.56    0.17
  -4   6 -10    2.56    0.30
   4  -6  10    3.04    0.31
   4  -6  10    2.56    0.27
  -5   6 -10    1.11    0.23
   5  -6  10    1.14    0.21
   5  -6  10    1.36    0.21
  -6   6 -10    1.69    0.27
   6  -6  10    1.79    0.24
   6  -6  10    1.75    0.26
  -7   6 -10    0.24    0.19
   7  -6  10    0.32    0.18
  -8   6 -10    0.46    0.19
  -6  -5  10    0.52    0.18
  -5  -5  10    1.00    0.21
  -5  -5  10    0.93    0.18
  -4  -5  10    2.05    0.26
  -4  -5  10    2.14    0.24
  -4  -5  10    2.22    0.27
  -3  -5  10    4.00    0.35
  -3  -5  10    3.92    0.29
  -3  -5  10    3.59    0.33
   2   5 -10    9.60    0.45
  -2  -5  10   10.00    0.44
  -2  -5  10    9.44    0.47
  -2  -5  10    9.96    0.48
   1   5 -10    9.94    0.47
  -1  -5  10    9.89    0.44
  -1  -5  10    9.69    0.47
  -1  -5  10    9.36    0.47
   0   5 -10   12.06    0.53
   0  -5  10   13.06    0.56
   0  -5  10   13.22    0.54
  -1   5 -10    6.36    0.38
   1  -5  10    6.74    0.38
   1  -5  10    6.35    0.38
  -2   5 -10    3.71    0.31
   2  -5  10    3.47    0.30
   2  -5  10    4.36    0.32
  -3   5 -10    2.49    0.28
   3  -5  10    2.12    0.24
   3  -5  10    2.53    0.27
  -4   5 -10    0.66    0.19
   4  -5  10    1.03    0.20
  -5   5 -10    2.67    0.31
   5  -5  10    2.56    0.30
  -6   5 -10    0.62    0.20
   6  -5  10    1.04    0.20
  -7   5 -10    0.70    0.21
   7  -5  10    0.72    0.20
  -8   5 -10   -0.06    0.15
   8  -5  10    0.09    0.14
  -6  -4  10    0.14    0.12
  -6  -4  10    0.47    0.16
  -5  -4  10    2.49    0.28
  -5  -4  10    2.54    0.25
  -5  -4  10    2.69    0.29
  -4  -4  10    4.39    0.32
  -4  -4  10    4.31    0.34
  -4  -4  10    4.23    0.30
   3   4 -10    2.05    0.24
  -3  -4  10    1.33    0.21
  -3  -4  10    2.08    0.24
  -3  -4  10    2.42    0.23
   2   4 -10    3.06    0.25
  -2  -4  10    2.52    0.26
  -2  -4  10    2.98    0.27
  -2  -4  10    2.67    0.23
   1   4 -10    4.65    0.30
  -1  -4  10    4.83    0.29
  -1  -4  10    5.03    0.32
  -1  -4  10    4.65    0.32
   0   4 -10    2.44    0.25
   0  -4  10    3.02    0.23
   0  -4  10    2.47    0.26
   0  -4  10    3.16    0.29
  -1   4 -10    0.43    0.14
   1  -4  10    0.52    0.12
   1  -4  10    0.47    0.16
   1  -4  10    0.62    0.15
  -2   4 -10    1.64    0.22
   2  -4  10    1.97    0.24
   2  -4  10    1.83    0.22
  -3   4 -10    1.97    0.25
   3  -4  10    2.41    0.26
  -4   4 -10    1.83    0.24
   4  -4  10    2.14    0.26
  -5   4 -10    2.77    0.30
   5  -4  10    3.26    0.31
  -6   4 -10    0.27    0.16
   6  -4  10    0.12    0.14
  -7   4 -10    0.27    0.18
   7  -4  10    0.30    0.18
  -8   4 -10    0.22    0.18
   8  -4  10    0.03    0.15
  -7  -3  10    0.23    0.12
  -7  -3  10    0.32    0.14
  -6  -3  10    0.71    0.17
  -6  -3  10    0.81    0.16
  -6  -3  10    0.82    0.17
  -5  -3  10    1.04    0.16
  -5  -3  10    1.35    0.21
  -5  -3  10    0.66    0.16
  -4  -3  10    6.37    0.34
  -4  -3  10    6.47    0.37
  -4  -3  10    6.34    0.35
   3   3 -10    1.09    0.16
  -3  -3  10    0.81    0.16
  -3  -3  10    1.07    0.18
  -3  -3  10    1.00    0.16
   2   3 -10    2.25    0.17
   2   3 -10    2.48    0.23
  -2  -3  10    1.83    0.22
  -2  -3  10    2.65    0.25
  -2  -3  10    1.90    0.20
   1   3 -10   20.64    0.69
   1   3 -10   20.05    0.63
  -1  -3  10   21.14    0.70
  -1  -3  10   21.40    0.68
  -1  -3  10   20.07    0.70
   0   3 -10    0.98    0.15
   0   3 -10    0.95    0.16
   0  -3  10    1.27    0.17
   0  -3  10    1.15    0.18
   0  -3  10    1.38    0.19
  -1   3 -10    2.39    0.24
   1  -3  10    2.42    0.21
   1  -3  10    2.22    0.24
  -2   3 -10    1.62    0.21
   2  -3  10    1.78    0.23
  -3   3 -10    3.01    0.28
   3  -3  10    2.83    0.28
  -4   3 -10    1.94    0.24
   4  -3  10    2.35    0.26
  -5   3 -10    2.27    0.28
   5  -3  10    1.54    0.22
  -6   3 -10    4.29    0.38
   6  -3  10    4.29    0.36
  -7   3 -10    1.27    0.25
   7  -3  10    1.11    0.22
  -8   3 -10    1.67    0.29
   8  -3  10    1.32    0.25
  -8  -2  10    1.25    0.18
  -8  -2  10    1.64    0.21
  -7  -2  10    2.15    0.25
  -7  -2  10    1.84    0.20
  -7  -2  10    1.76    0.22
  -6  -2  10    2.66    0.23
  -6  -2  10    3.14    0.26
  -6  -2  10    3.19    0.29
  -5  -2  10    5.38    0.30
  -5  -2  10    5.36    0.31
  -5  -2  10    6.04    0.35
  -4  -2  10    7.30    0.36
  -4  -2  10    7.55    0.38
  -4  -2  10    7.63    0.35
   3   2 -10    2.21    0.15
   3   2 -10    2.16    0.21
  -3  -2  10    2.08    0.22
  -3  -2  10    2.27    0.20
  -3  -2  10    2.56    0.25
   2   2 -10    1.52    0.15
   2   2 -10    1.39    0.17
  -2  -2  10    1.41    0.19
  -2  -2  10    1.50    0.17
  -2  -2  10    1.36    0.18
   1   2 -10   13.45    0.50
   1   2 -10   12.98    0.47
  -1  -2  10   12.49    0.50
  -1  -2  10   13.75    0.52
  -1  -2  10   13.16    0.49
   0   2 -10    7.36    0.36
   0   2 -10    7.30    0.34
   0  -2  10    7.32    0.37
   0  -2  10    7.35    0.34
  -1   2 -10    1.40    0.18
  -1   2 -10    1.29    0.18
   1  -2  10    1.14    0.18
   1  -2  10    1.48    0.17
  -2   2 -10    9.94    0.44
  -2   2 -10    9.93    0.45
   2  -2  10   10.26    0.42
   2  -2  10    9.88    0.45
  -3   2 -10    1.23    0.19
  -3   2 -10    1.01    0.18
   3  -2  10    0.71    0.17
  -4   2 -10    0.49    0.16
  -4   2 -10    0.46    0.15
   4  -2  10    0.68    0.17
  -5   2 -10    0.18    0.14
  -5   2 -10    0.10    0.13
   5  -2  10    0.17    0.14
  -6   2 -10    3.95    0.36
   6  -2  10    3.68    0.36
  -7   2 -10    1.66    0.27
   7  -2  10    1.21    0.24
  -8   2 -10    0.53    0.21
   8  -2  10    0.53    0.20
  -8  -1  10    1.28    0.19
  -8  -1  10    1.40    0.18
  -8  -1  10    1.60    0.22
  -7  -1  10    1.51    0.19
  -7  -1  10    1.10    0.19
  -7  -1  10    1.31    0.17
  -6  -1  10    4.11    0.25
  -6  -1  10    3.92    0.29
  -6  -1  10    3.62    0.26
  -5  -1  10    7.50    0.35
  -5  -1  10    7.13    0.37
  -5  -1  10    6.80    0.32
  -4  -1  10    3.86    0.26
  -4  -1  10    4.20    0.25
  -4  -1  10    4.43    0.29
   3   1 -10    5.48    0.25
  -3  -1  10    4.99    0.27
  -3  -1  10    5.10    0.29
  -3  -1  10    5.40    0.31
   2   1 -10    1.17    0.15
   2   1 -10    1.18    0.15
  -2  -1  10    1.48    0.19
  -2  -1  10    1.16    0.15
  -2  -1  10    1.27    0.18
   1   1 -10   14.92    0.52
   1   1 -10   15.55    0.54
  -1  -1  10   15.87    0.53
  -1  -1  10   15.30    0.56
   0   1 -10   20.42    0.67
   0   1 -10   20.96    0.67
   0  -1  10   20.70    0.70
   0  -1  10   20.73    0.66
  -1   1 -10    9.49    0.42
  -1   1 -10    9.66    0.42
   1  -1  10   10.43    0.41
   1  -1  10    9.15    0.43
  -2   1 -10    8.21    0.39
  -2   1 -10    7.18    0.38
   2  -1  10    7.94    0.36
   2  -1  10    7.23    0.38
  -3   1 -10    4.37    0.31
  -3   1 -10    4.20    0.30
   3  -1  10    3.37    0.29
  -4   1 -10    0.14    0.12
  -4   1 -10    0.09    0.13
   4  -1  10    0.07    0.12
  -5   1 -10    2.91    0.30
  -5   1 -10    2.94    0.30
   5  -1  10    2.89    0.31
  -6   1 -10    1.48    0.25
   6  -1  10    1.11    0.23
  -7   1 -10    1.08    0.24
   7  -1  10    0.98    0.24
  -9   0  10    0.61    0.13
  -9   0  10    0.54    0.13
  -8   0  10    0.31    0.11
  -8   0  10    0.42    0.11
  -7   0  10    3.01    0.22
  -7   0  10    2.88    0.21
  -7   0  10    3.24    0.28
  -6   0  10    3.12    0.25
  -6   0  10    3.08    0.21
  -6   0  10    3.16    0.22
  -5   0  10    7.60    0.36
  -5   0  10    7.07    0.33
  -5   0  10    7.58    0.32
   4   0 -10    2.50    0.16
  -4   0  10    2.52    0.19
  -4   0  10    2.66    0.21
  -4   0  10    2.86    0.25
   3   0 -10    4.18    0.23
  -3   0  10    3.73    0.25
  -3   0  10    4.34    0.27
  -3   0  10    3.85    0.23
   2   0 -10    2.05    0.17
   2   0 -10    1.95    0.19
  -2   0  10    2.02    0.20
  -2   0  10    1.97    0.18
   1   0 -10   11.70    0.43
   1   0 -10   11.21    0.44
  -1   0  10   11.38    0.43
  -1   0  10   11.70    0.46
   0   0 -10   25.23    0.78
   0   0 -10   24.85    0.77
   0   0  10   24.84    0.79
   0   0  10   25.29    0.77
  -1   0 -10    4.21    0.29
  -1   0 -10    4.65    0.28
   1   0  10    3.91    0.28
   1   0  10    4.67    0.27
  -2   0 -10    6.91    0.38
  -2   0 -10    6.93    0.36
   2   0  10    6.83    0.37
   2   0  10    7.27    0.34
  -3   0 -10    1.08    0.18
  -3   0 -10    0.70    0.17
   3   0  10    0.89    0.18
  -4   0 -10    4.51    0.32
  -4   0 -10    4.49    0.33
   4   0  10    4.25    0.34
  -5   0 -10    1.34    0.22
  -5   0 -10    1.60    0.24
   5   0  10    1.25    0.23
  -6   0 -10    1.03    0.22
   6   0  10    0.83    0.22
  -7   0 -10    0.26    0.18
   7   0  10    0.39    0.19
  -9   1  10   -0.05    0.08
  -8   1  10    0.62    0.12
  -8   1  10    0.82    0.12
  -7   1  10    0.69    0.11
  -7   1  10    0.70    0.13
  -7   1  10    1.06    0.17
  -6   1  10    1.07    0.14
  -6   1  10    1.13    0.13
  -6   1  10    1.16    0.14
  -6   1  10    1.10    0.16
   5  -1 -10    0.04    0.06
  -5   1  10   -0.42    0.19
  -5   1  10   -0.03    0.06
  -5   1  10    0.04    0.08
  -5   1  10   -0.01    0.08
  -5   1  10   -0.07    0.06
   4  -1 -10    4.49    0.23
  -4   1  10    4.51    0.23
  -4   1  10    4.06    0.23
  -4   1  10    4.44    0.25
  -4   1  10    3.52    0.50
  -4   1  10    4.48    0.27
   3  -1 -10    0.29    0.10
  -3   1  10    0.20    0.08
  -3   1  10    0.31    0.09
  -3   1  10    0.23    0.10
   2  -1 -10    7.40    0.30
   2  -1 -10    6.91    0.33
  -2   1  10    7.16    0.31
  -2   1  10    7.04    0.33
   1  -1 -10   11.33    0.43
   1  -1 -10   11.57    0.46
  -1   1  10   11.59    0.46
  -1   1  10   11.78    0.43
   0  -1 -10    9.07    0.41
   0  -1 -10    8.94    0.38
   0   1  10    9.13    0.41
   0   1  10    9.77    0.39
  -1  -1 -10    4.61    0.31
  -1  -1 -10    4.76    0.28
   1   1  10    4.22    0.27
   1   1  10    4.28    0.29
  -2  -1 -10    0.98    0.17
  -2  -1 -10    0.86    0.17
   2   1  10    0.94    0.15
   2   1  10    0.94    0.17
  -3  -1 -10    3.14    0.29
  -3  -1 -10    2.68    0.28
   3   1  10    2.83    0.29
  -4  -1 -10    1.62    0.24
  -4  -1 -10    1.29    0.22
   4   1  10    1.78    0.25
  -5  -1 -10    1.70    0.25
   5   1  10    1.60    0.25
  -6  -1 -10   -0.31    0.12
   6   1  10    0.13    0.17
  -7  -1 -10    0.98    0.24
   7   1  10    0.86    0.23
  -9   2  10    0.18    0.08
  -8   2  10    1.85    0.16
  -8   2  10    2.00    0.17
  -7   2  10    3.36    0.19
  -7   2  10    3.37    0.20
  -7   2  10    3.27    0.24
  -7   2  10    3.14    0.19
  -6   2  10    0.63    0.11
  -6   2  10    1.25    0.30
  -6   2  10    0.87    0.11
  -6   2  10    1.13    0.13
  -6   2  10    0.88    0.14
   5  -2 -10    6.54    0.30
  -5   2  10    6.65    0.32
  -5   2  10    7.35    0.29
  -5   2  10    6.70    0.28
  -5   2  10    6.38    0.29
  -5   2  10    7.15    0.61
   4  -2 -10    6.70    0.31
  -4   2  10    6.69    0.62
  -4   2  10    6.39    0.28
  -4   2  10    6.21    0.28
  -4   2  10    6.43    0.30
   3  -2 -10    7.99    0.36
  -3   2  10    8.37    0.73
  -3   2  10    7.91    0.33
  -3   2  10    8.03    0.35
  -3   2  10    8.39    0.34
   2  -2 -10    2.79    0.24
  -2   2  10    2.48    0.22
  -2   2  10    2.67    0.20
   1  -2 -10   10.83    0.45
   1  -2 -10   10.93    0.41
  -1   2  10   11.00    0.45
  -1   2  10   10.98    0.42
   0  -2 -10    6.32    0.31
   0  -2 -10    6.89    0.36
   0   2  10    5.87    0.33
   0   2  10    6.00    0.32
  -1  -2 -10    3.93    0.30
  -1  -2 -10    4.57    0.28
   1   2  10    4.02    0.26
   1   2  10    4.44    0.30
  -2  -2 -10    5.06    0.32
  -2  -2 -10    5.38    0.35
   2   2  10    5.51    0.31
   2   2  10    5.64    0.36
  -3  -2 -10    3.57    0.33
  -3  -2 -10    3.13    0.30
   3   2  10    3.64    0.34
  -4  -2 -10    1.21    0.22
  -4  -2 -10    0.98    0.20
   4   2  10    0.89    0.20
  -5  -2 -10    1.19    0.23
   5   2  10    1.12    0.24
  -6  -2 -10    0.87    0.22
   6   2  10    0.74    0.23
  -9   3  10    0.26    0.08
  -9   3  10    0.17    0.07
  -8   3  10    1.52    0.14
  -8   3  10    1.52    0.13
  -7   3  10    0.86    0.21
  -7   3  10    0.25    0.07
  -7   3  10    0.44    0.08
  -7   3  10    0.33    0.08
  -6   3  10    2.89    0.22
  -6   3  10    2.94    0.18
  -6   3  10    2.81    0.18
  -6   3  10    3.67    0.44
  -6   3  10    2.86    0.18
   5  -3 -10    8.77    0.37
  -5   3  10    8.08    0.32
  -5   3  10    7.67    0.31
  -5   3  10    7.59    0.35
  -5   3  10    8.92    0.68
  -5   3  10    8.16    0.31
   4  -3 -10   23.23    0.70
  -4   3  10   20.54    0.64
  -4   3  10   21.24    0.64
  -4   3  10   20.49    0.65
  -4   3  10   22.36    1.24
   3  -3 -10   14.20    0.53
  -3   3  10   14.58    0.49
  -3   3  10   14.51    0.51
  -3   3  10   14.89    0.99
  -3   3  10   14.59    0.49
   2  -3 -10    7.55    0.38
  -2   3  10    8.09    0.36
  -2   3  10    7.99    0.77
  -2   3  10    8.06    0.34
   1  -3 -10    6.25    0.35
   1  -3 -10    6.45    0.30
  -1   3  10    6.62    0.33
  -1   3  10    7.43    0.36
   0  -3 -10    8.38    0.42
   0  -3 -10    8.44    0.37
   0   3  10    8.68    0.39
   0   3  10    8.31    0.41
  -1  -3 -10    0.35    0.13
  -1  -3 -10    0.90    0.18
   1   3  10    0.47    0.16
   1   3  10    0.56    0.13
  -2  -3 -10    4.27    0.30
  -2  -3 -10    4.30    0.33
   2   3  10    4.49    0.34
   2   3  10    3.98    0.30
  -3  -3 -10    1.47    0.22
  -3  -3 -10    1.35    0.23
   3   3  10    1.76    0.26
  -4  -3 -10    0.54    0.18
   4   3  10    0.68    0.21
  -5  -3 -10    1.61    0.28
   5   3  10    1.59    0.27
  -9   4  10    0.21    0.07
  -9   4  10    0.18    0.07
  -8   4  10    0.09    0.06
  -8   4  10    0.11    0.06
  -7   4  10    0.35    0.08
  -7   4  10    0.42    0.08
  -7   4  10    1.36    0.31
  -6   4  10    2.78    0.17
  -6   4  10    2.74    0.18
  -6   4  10    3.75    0.48
  -6   4  10    2.60    0.17
  -6   4  10    2.86    0.22
   5  -4 -10    5.05    0.30
  -5   4  10    6.44    0.61
  -5   4  10    4.99    0.24
  -5   4  10    5.09    0.25
  -5   4  10    5.17    0.24
   4  -4 -10    4.51    0.30
  -4   4  10    4.91    0.59
  -4   4  10    4.76    0.26
  -4   4  10    4.47    0.24
  -4   4  10    4.72    0.24
   3  -4 -10    7.77    0.39
  -3   4  10    7.84    0.34
  -3   4  10    8.79    0.77
  -3   4  10    8.25    0.36
   2  -4 -10    1.95    0.24
  -2   4  10    2.25    0.49
  -2   4  10    2.14    0.20
  -2   4  10    2.45    0.23
   1  -4 -10    6.44    0.37
  -1   4  10    6.88    0.34
  -1   4  10    5.20    0.73
  -1   4  10    6.07    0.34
   0  -4 -10    2.00    0.23
   0  -4 -10    2.08    0.22
   0   4  10    2.10    0.22
   0   4  10    1.93    0.23
  -1  -4 -10    1.30    0.21
  -1  -4 -10    1.87    0.22
   1   4  10    1.58    0.23
   1   4  10    1.32    0.18
  -2  -4 -10    0.62    0.16
  -2  -4 -10    0.90    0.20
   2   4  10    0.75    0.19
  -3  -4 -10    0.74    0.19
   3   4  10    1.23    0.24
  -4  -4 -10    0.94    0.22
   4   4  10    1.16    0.25
  -5  -4 -10    1.22    0.25
   5   4  10    1.17    0.27
  -9   5  10    0.22    0.07
  -9   5  10    0.41    0.08
  -8   5  10    0.05    0.06
  -8   5  10    0.03    0.06
  -7   5  10    1.14    0.12
  -7   5  10    1.11    0.12
  -7   5  10    1.96    0.40
  -6   5  10    2.17    0.17
  -6   5  10    2.17    0.16
  -6   5  10    2.18    0.16
   5  -5 -10    3.77    0.28
  -5   5  10    3.61    0.21
  -5   5  10    3.50    0.21
  -5   5  10    5.10    0.59
  -5   5  10    3.71    0.22
   4  -5 -10    3.84    0.29
  -4   5  10    3.86    0.24
  -4   5  10    3.89    0.25
  -4   5  10    4.45    0.59
   3  -5 -10    4.91    0.33
  -3   5  10    4.16    0.27
  -3   5  10    5.42    0.67
  -3   5  10    4.63    0.27
   2  -5 -10    6.01    0.36
  -2   5  10    5.71    0.31
  -2   5  10    5.19    0.32
  -2   5  10    5.43    0.73
   1  -5 -10    1.15    0.20
  -1   5  10    1.51    0.19
  -1   5  10    1.77    0.56
  -1   5  10    1.51    0.21
   0  -5 -10    2.39    0.27
   0   5  10    2.96    0.30
   0   5  10    2.93    0.27
  -1  -5 -10    3.30    0.36
   1   5  10    3.36    0.28
   1   5  10    2.92    0.32
  -2  -5 -10    2.43    0.27
   2   5  10    2.56    0.31
  -3  -5 -10    1.56    0.24
   3   5  10    1.17    0.26
  -4  -5 -10    1.46    0.26
   4   5  10    2.23    0.33
  -9   6  10    0.29    0.07
  -9   6  10    0.32    0.07
  -7   6  10    1.88    0.42
  -7   6  10    0.66    0.10
  -7   6  10    0.63    0.10
  -6   6  10    1.34    0.14
  -6   6  10    1.25    0.14
  -6   6  10    2.57    0.50
  -6   6  10    1.67    0.16
  -5   6  10    4.43    0.59
  -5   6  10    3.69    0.23
  -5   6  10    3.33    0.23
   4  -6 -10    1.62    0.23
  -4   6  10    1.85    0.45
  -4   6  10    1.64    0.19
  -4   6  10    1.45    0.17
   3  -6 -10    2.31    0.27
  -3   6  10    2.93    0.57
  -3   6  10    2.73    0.23
  -3   6  10    2.57    0.24
   2  -6 -10    1.51    0.23
  -2   6  10    1.56    0.21
  -2   6  10    1.81    0.53
  -2   6  10    1.61    0.20
   1  -6 -10    0.42    0.16
  -1   6  10    0.39    0.16
  -1   6  10    0.11    0.42
  -1   6  10    0.49    0.14
   0   6  10    1.93    0.23
   0   6  10    1.61    0.25
   1   6  10    2.29    0.29
   2   6  10    1.94    0.29
  -7   7  10    1.86    0.45
  -6   7  10    0.96    0.14
  -6   7  10    1.95    0.47
  -6   7  10    0.95    0.14
  -5   7  10    4.62    0.28
  -5   7  10    4.84    0.28
  -5   7  10    6.17    0.72
   4  -7 -10    2.41    0.32
  -4   7  10    3.76    0.65
  -4   7  10    2.30    0.24
  -4   7  10    2.30    0.22
  -3   7  10    1.62    0.22
  -3   7  10    1.75    0.21
  -3   7  10    1.53    0.49
  -2   7  10    2.71    0.63
  -2   7  10    3.15    0.30
  -2   7  10    2.74    0.27
  -1   7  10    4.06    0.32
  -1   7  10    3.65    0.76
  -1   7  10    4.43    0.35
   0   7  10    3.50    0.36
   1   7  10    1.22    0.25
  -6   8  10    1.23    0.17
  -6   8  10    1.61    0.19
  -5   8  10    1.32    0.19
  -5   8  10    1.99    0.50
  -5   8  10    1.04    0.17
  -4   8  10    0.73    0.17
  -4   8  10    0.91    0.17
  -4   8  10    1.37    0.48
  -3   8  10    0.35    0.14
  -3   8  10    0.21    0.40
  -3   8  10    0.10    0.11
  -2   8  10    3.43    0.32
  -2   8  10    3.52    0.72
  -2   8  10    3.42    0.33
  -1   8  10    5.16    0.92
  -1   8  10    5.87    0.38
  -1   8  10    4.71    0.40
   0   8 -11    1.38    0.26
   0  -8  11    1.14    0.25
  -1   8 -11    0.05    0.16
   1  -8  11    0.03    0.17
  -2   8 -11    1.13    0.25
   2  -8  11    0.67    0.21
  -3   8 -11   -0.14    0.15
   3  -8  11    0.30    0.17
  -4   8 -11    0.91    0.23
   4  -8  11    0.51    0.20
  -5   8 -11   -0.07    0.17
   5  -8  11    0.08    0.15
  -2  -7  11    1.40    0.26
   1   7 -11    0.00    0.15
  -1  -7  11    0.28    0.18
   0   7 -11    1.18    0.24
   0  -7  11    0.92    0.23
  -1   7 -11    0.27    0.18
   1  -7  11    0.28    0.18
  -2   7 -11    2.57    0.32
   2  -7  11    2.07    0.29
  -3   7 -11    1.24    0.24
   3  -7  11    1.22    0.24
   3  -7  11    1.10    0.22
  -4   7 -11    0.73    0.23
   4  -7  11    0.81    0.20
  -5   7 -11    0.34    0.19
   5  -7  11    0.67    0.20
  -6   7 -11    0.05    0.18
   6  -7  11    0.09    0.16
  -4  -6  11    3.01    0.33
  -3  -6  11    5.61    0.42
  -2  -6  11    4.76    0.39
   1   6 -11    2.67    0.29
  -1  -6  11    3.06    0.33
   0   6 -11    2.42    0.29
   0  -6  11    2.86    0.32
   0  -6  11    2.05    0.28
  -1   6 -11    2.41    0.29
   1  -6  11    2.51    0.28
   1  -6  11    3.17    0.33
  -2   6 -11    1.21    0.23
   2  -6  11    1.07    0.20
   2  -6  11    0.98    0.21
  -3   6 -11    1.69    0.26
   3  -6  11    1.38    0.23
   3  -6  11    1.72    0.26
  -4   6 -11    1.55    0.26
   4  -6  11    1.31    0.23
   4  -6  11    1.47    0.23
  -5   6 -11    0.80    0.23
   5  -6  11    0.79    0.21
   5  -6  11    1.32    0.22
  -6   6 -11    0.08    0.17
   6  -6  11   -0.04    0.15
  -5  -5  11    0.72    0.20
  -4  -5  11    1.97    0.27
  -3  -5  11    2.05    0.27
   2   5 -11    1.60    0.25
  -2  -5  11    1.94    0.26
  -2  -5  11    1.48    0.23
   1   5 -11    0.34    0.14
  -1  -5  11    0.20    0.14
  -1  -5  11    0.32    0.15
   0   5 -11    1.66    0.23
   0  -5  11    2.08    0.26
   0  -5  11    2.13    0.27
  -1   5 -11    2.63    0.28
   1  -5  11    3.58    0.33
   1  -5  11    2.47    0.28
  -2   5 -11    1.44    0.24
   2  -5  11    1.38    0.22
   2  -5  11    1.62    0.24
  -3   5 -11    3.69    0.36
   3  -5  11    3.51    0.35
   3  -5  11    3.54    0.32
  -4   5 -11    0.81    0.20
   4  -5  11    0.91    0.21
   4  -5  11    0.96    0.19
  -5   5 -11    0.40    0.19
   5  -5  11    0.64    0.19
  -6   5 -11    0.22    0.18
   6  -5  11   -0.04    0.15
  -7   5 -11    1.14    0.26
   7  -5  11    0.95    0.23
  -6  -4  11    1.74    0.24
  -6  -4  11    1.46    0.22
  -5  -4  11    0.34    0.14
  -5  -4  11    0.30    0.16
  -4  -4  11    1.24    0.22
  -4  -4  11    1.59    0.24
  -4  -4  11    2.01    0.23
  -3  -4  11    8.48    0.45
  -3  -4  11    9.13    0.47
  -3  -4  11    8.50    0.42
   2   4 -11    0.23    0.11
  -2  -4  11    0.21    0.11
  -2  -4  11    0.19    0.13
  -2  -4  11    0.44    0.15
   1   4 -11    0.42    0.14
   1   4 -11    0.26    0.11
  -1  -4  11    0.51    0.16
  -1  -4  11    0.53    0.17
  -1  -4  11    0.39    0.11
   0   4 -11    0.55    0.15
   0   4 -11    0.52    0.14
   0  -4  11    0.62    0.15
   0  -4  11    0.57    0.17
   0  -4  11    0.60    0.17
  -1   4 -11    0.93    0.19
   1  -4  11    1.22    0.21
   1  -4  11    1.12    0.19
  -2   4 -11    2.19    0.26
   2  -4  11    1.58    0.23
   2  -4  11    1.70    0.24
  -3   4 -11    3.89    0.33
   3  -4  11    3.34    0.33
  -4   4 -11    4.19    0.35
   4  -4  11    3.70    0.35
  -5   4 -11    1.26    0.24
   5  -4  11    1.45    0.24
  -6   4 -11    1.28    0.25
   6  -4  11    0.88    0.21
  -7   4 -11    1.38    0.27
   7  -4  11    1.50    0.27
  -6  -3  11    2.08    0.23
  -6  -3  11    2.42    0.27
  -5  -3  11    1.32    0.19
  -5  -3  11    0.97    0.19
  -5  -3  11    1.20    0.22
  -4  -3  11    0.76    0.18
  -4  -3  11    0.66    0.18
  -4  -3  11    0.58    0.14
  -3  -3  11    8.91    0.41
  -3  -3  11    8.24    0.43
  -3  -3  11    8.91    0.44
   2   3 -11    1.71    0.20
   2   3 -11    1.82    0.19
  -2  -3  11    1.79    0.23
  -2  -3  11    2.17    0.25
  -2  -3  11    1.84    0.21
   1   3 -11    1.72    0.18
   1   3 -11    2.06    0.23
  -1  -3  11    1.61    0.22
  -1  -3  11    1.62    0.21
  -1  -3  11    1.36    0.19
   0   3 -11    5.42    0.31
   0   3 -11    5.54    0.33
   0  -3  11    5.25    0.35
   0  -3  11    4.72    0.33
   0  -3  11    6.06    0.32
  -1   3 -11    1.15    0.18
  -1   3 -11    1.08    0.18
   1  -3  11    1.17    0.20
   1  -3  11    1.39    0.19
  -2   3 -11    1.56    0.21
  -2   3 -11    1.32    0.20
   2  -3  11    1.36    0.21
  -3   3 -11    1.05    0.19
  -3   3 -11    1.14    0.21
   3  -3  11    1.28    0.21
  -4   3 -11    4.77    0.36
  -4   3 -11    4.27    0.37
   4  -3  11    4.23    0.34
  -5   3 -11    3.29    0.34
   5  -3  11    2.66    0.30
  -6   3 -11    1.70    0.27
   6  -3  11    1.21    0.23
  -7   3 -11    2.85    0.35
   7  -3  11    2.06    0.31
  -7  -2  11    2.01    0.22
  -7  -2  11    1.99    0.24
  -6  -2  11    2.03    0.24
  -6  -2  11    2.08    0.22
  -6  -2  11    2.98    0.29
  -5  -2  11    2.69    0.27
  -5  -2  11    2.76    0.25
  -5  -2  11    2.78    0.27
  -4  -2  11    0.86    0.15
  -4  -2  11    1.34    0.20
  -4  -2  11    1.23    0.21
  -3  -2  11    6.75    0.37
  -3  -2  11    6.90    0.34
  -3  -2  11    6.85    0.38
   2   2 -11   11.75    0.47
   2   2 -11   11.92    0.44
  -2  -2  11   12.33    0.50
  -2  -2  11   11.85    0.47
  -2  -2  11   12.19    0.51
   1   2 -11    4.08    0.27
   1   2 -11    4.27    0.26
  -1  -2  11    4.35    0.31
  -1  -2  11    3.51    0.25
  -1  -2  11    4.00    0.29
   0   2 -11    7.15    0.37
   0   2 -11    7.69    0.37
   0  -2  11    8.26    0.38
   0  -2  11    7.86    0.40
  -1   2 -11    2.17    0.24
  -1   2 -11    2.68    0.25
   1  -2  11    2.30    0.25
   1  -2  11    2.84    0.23
  -2   2 -11    0.64    0.16
  -2   2 -11    0.60    0.15
   2  -2  11    0.64    0.16
  -3   2 -11    1.49    0.22
  -3   2 -11    1.90    0.25
   3  -2  11    1.35    0.22
  -4   2 -11    3.53    0.33
  -4   2 -11    3.40    0.32
   4  -2  11    3.19    0.32
  -5   2 -11    1.37    0.23
   5  -2  11    1.49    0.24
  -6   2 -11    0.33    0.17
   6  -2  11    0.29    0.17
  -7   2 -11    0.07    0.17
   7  -2  11    0.14    0.17
  -8  -1  11    0.93    0.17
  -8  -1  11    0.73    0.15
  -7  -1  11    2.19    0.25
  -7  -1  11    2.60    0.25
  -7  -1  11    2.24    0.22
  -6  -1  11    1.81    0.21
  -6  -1  11    1.62    0.19
  -6  -1  11    2.26    0.25
  -5  -1  11    1.41    0.17
  -5  -1  11    1.36    0.19
  -5  -1  11    1.28    0.19
  -4  -1  11    0.82    0.17
  -4  -1  11    0.50    0.12
  -4  -1  11    0.69    0.15
   3   1 -11    6.12    0.28
  -3  -1  11    5.88    0.33
  -3  -1  11    6.25    0.32
  -3  -1  11    6.16    0.35
   2   1 -11   21.00    0.66
  -2  -1  11   21.29    0.69
  -2  -1  11   20.82    0.71
  -2  -1  11   21.06    0.71
   1   1 -11    3.46    0.25
   1   1 -11    4.09    0.26
  -1  -1  11    3.45    0.27
  -1  -1  11    3.90    0.26
   0   1 -11    6.04    0.33
   0   1 -11    6.25    0.34
   0  -1  11    5.88    0.32
   0  -1  11    6.86    0.36
  -1   1 -11    2.70    0.26
  -1   1 -11    2.86    0.27
   1  -1  11    2.95    0.23
   1  -1  11    2.94    0.28
  -2   1 -11    2.12    0.24
  -2   1 -11    3.01    0.28
   2  -1  11    3.06    0.29
  -3   1 -11    5.26    0.35
  -3   1 -11    5.90    0.37
   3  -1  11    4.71    0.36
  -4   1 -11    2.02    0.27
  -4   1 -11    1.66    0.24
   4  -1  11    1.79    0.27
  -5   1 -11    2.98    0.32
   5  -1  11    2.84    0.31
  -6   1 -11    0.05    0.16
   6  -1  11    0.17    0.16
  -7   1 -11    0.75    0.23
   7  -1  11    0.55    0.21
  -8   0  11    0.55    0.14
  -8   0  11    0.43    0.12
  -7   0  11    0.47    0.13
  -7   0  11    0.55    0.15
  -7   0  11    0.37    0.11
  -6   0  11    1.11    0.15
  -6   0  11    1.32    0.17
  -6   0  11    1.07    0.18
  -5   0  11    0.21    0.10
  -5   0  11   -0.01    0.08
  -5   0  11    0.22    0.11
  -4   0  11    1.45    0.18
  -4   0  11    1.38    0.16
  -4   0  11    1.69    0.21
   3   0 -11   13.16    0.47
  -3   0  11   13.30    0.49
  -3   0  11   13.90    0.52
  -3   0  11   12.96    0.50
   2   0 -11    8.09    0.35
  -2   0  11    7.87    0.35
  -2   0  11    6.80    0.36
   1   0 -11    3.79    0.26
   1   0 -11    3.59    0.23
  -1   0  11    3.93    0.28
  -1   0  11    3.74    0.25
   0   0 -11    0.47    0.14
   0   0 -11    0.47    0.12
   0   0  11    0.37    0.14
   0   0  11    0.43    0.11
  -1   0 -11    2.17    0.22
  -1   0 -11    1.95    0.23
   1   0  11    2.02    0.24
   1   0  11    1.94    0.21
  -2   0 -11    2.22    0.25
  -2   0 -11    2.15    0.24
   2   0  11    2.28    0.26
  -3   0 -11    2.07    0.25
  -3   0 -11    2.35    0.27
   3   0  11    2.64    0.29
  -4   0 -11    1.01    0.20
  -4   0 -11    0.91    0.19
   4   0  11    0.93    0.21
  -5   0 -11    0.76    0.21
   5   0  11    1.17    0.23
  -6   0 -11    0.77    0.22
   6   0  11    0.75    0.23
  -8   1  11    0.88    0.15
  -8   1  11    0.89    0.14
  -7   1  11    1.43    0.20
  -7   1  11    1.53    0.17
  -7   1  11    1.54    0.17
  -6   1  11    2.11    0.23
  -6   1  11    2.21    0.21
  -6   1  11    2.43    0.20
  -5   1  11    0.70    0.12
  -5   1  11    0.71    0.15
  -5   1  11    0.60    0.13
   4  -1 -11    3.99    0.24
  -4   1  11    4.03    0.24
  -4   1  11    3.77    0.27
  -4   1  11    3.68    0.25
   3  -1 -11    6.66    0.32
  -3   1  11    6.36    0.33
  -3   1  11    7.00    0.32
   2  -1 -11    6.57    0.34
  -2   1  11    6.14    0.33
  -2   1  11    6.35    0.31
   1  -1 -11    1.93    0.19
   1  -1 -11    1.88    0.22
  -1   1  11    1.90    0.21
  -1   1  11    1.85    0.20
   0  -1 -11    6.14    0.32
   0  -1 -11    7.04    0.37
   0   1  11    6.78    0.37
   0   1  11    6.58    0.34
  -1  -1 -11    2.23    0.25
  -1  -1 -11    2.23    0.23
   1   1  11    2.14    0.25
   1   1  11    2.75    0.25
  -2  -1 -11    2.22    0.25
  -2  -1 -11    2.16    0.26
   2   1  11    2.25    0.26
  -3  -1 -11    1.75    0.24
  -3  -1 -11    1.41    0.23
   3   1  11    1.59    0.25
  -4  -1 -11    1.27    0.23
   4   1  11    1.40    0.24
  -5  -1 -11    1.64    0.26
   5   1  11    1.45    0.26
  -6  -1 -11    2.41    0.33
   6   1  11    2.61    0.35
  -8   2  11    1.43    0.16
  -7   2  11    3.71    0.23
  -7   2  11    3.99    0.23
  -6   2  11    8.79    0.35
  -6   2  11    8.43    0.73
  -6   2  11    8.42    0.39
  -6   2  11    8.34    0.35
  -5   2  11   11.14    0.85
  -5   2  11   10.86    0.42
  -5   2  11   11.44    0.46
  -5   2  11   11.62    0.42
   4  -2 -11    6.03    0.31
  -4   2  11    6.16    0.30
  -4   2  11    6.86    0.77
  -4   2  11    6.37    0.31
   3  -2 -11    6.98    0.35
  -3   2  11    7.44    0.35
  -3   2  11    7.36    0.33
   2  -2 -11    4.21    0.28
  -2   2  11    3.65    0.27
  -2   2  11    4.34    0.26
   1  -2 -11    3.58    0.28
  -1   2  11    3.15    0.26
  -1   2  11    3.50    0.25
   0  -2 -11    3.85    0.30
   0  -2 -11    3.69    0.26
   0   2  11    3.76    0.29
   0   2  11    3.85    0.27
  -1  -2 -11    4.78    0.30
  -1  -2 -11    5.18    0.35
   1   2  11    4.53    0.33
   1   2  11    4.59    0.30
  -2  -2 -11    0.24    0.12
  -2  -2 -11   -0.07    0.12
   2   2  11    0.40    0.16
  -3  -2 -11    4.43    0.34
   3   2  11    4.61    0.38
  -4  -2 -11    0.48    0.18
   4   2  11    0.36    0.18
  -5  -2 -11    0.34    0.18
   5   2  11   -0.12    0.16
  -9   3  11    0.54    0.11
  -8   3  11    0.49    0.10
  -7   3  11    2.77    0.19
  -7   3  11    2.93    0.19
  -7   3  11    3.43    0.23
  -6   3  11    3.57    0.53
  -6   3  11    3.02    0.20
  -6   3  11    3.26    0.21
  -6   3  11    2.96    0.25
   5  -3 -11    7.49    0.36
  -5   3  11    7.99    0.73
  -5   3  11    6.95    0.31
  -5   3  11    7.53    0.33
  -5   3  11    7.24    0.35
   4  -3 -11    1.30    0.18
  -4   3  11    1.18    0.16
  -4   3  11    1.33    0.43
  -4   3  11    1.40    0.16
   3  -3 -11    3.48    0.27
  -3   3  11    3.44    0.62
  -3   3  11    3.07    0.23
  -3   3  11    3.06    0.24
   2  -3 -11    4.96    0.32
  -2   3  11    5.36    0.29
  -2   3  11    4.82    0.30
   1  -3 -11    1.09    0.19
  -1   3  11    1.24    0.17
  -1   3  11    1.26    0.19
   0  -3 -11    2.07    0.25
   0   3  11    2.26    0.26
   0   3  11    2.72    0.26
  -1  -3 -11    0.47    0.14
  -1  -3 -11    0.60    0.17
   1   3  11    0.52    0.17
   1   3  11    0.40    0.13
  -2  -3 -11    2.51    0.27
   2   3  11    2.27    0.28
  -3  -3 -11    1.43    0.23
   3   3  11    1.49    0.26
  -4  -3 -11    0.79    0.21
   4   3  11    1.14    0.25
  -8   4  11    1.74    0.16
  -8   4  11    1.77    0.16
  -7   4  11    1.95    0.17
  -7   4  11    1.97    0.17
  -6   4  11    5.51    0.60
  -6   4  11    4.17    0.24
  -6   4  11    4.58    0.24
   5  -4 -11    2.27    0.24
  -5   4  11    2.28    0.19
  -5   4  11    2.43    0.21
  -5   4  11    2.38    0.48
   4  -4 -11    2.42    0.24
  -4   4  11    2.53    0.21
  -4   4  11    2.28    0.21
  -4   4  11    2.81    0.54
   3  -4 -11    1.38    0.20
  -3   4  11    1.78    0.51
  -3   4  11    1.59    0.18
  -3   4  11    1.63    0.20
   2  -4 -11    3.09    0.29
  -2   4  11    3.08    0.68
  -2   4  11    3.12    0.25
  -2   4  11    3.30    0.27
   1  -4 -11    2.92    0.30
  -1   4  11    3.32    0.27
  -1   4  11    3.59    0.31
   0  -4 -11    2.02    0.26
   0   4  11    1.88    0.24
   0   4  11    1.97    0.22
   1   4  11    3.10    0.32
   1   4  11    3.26    0.30
  -2  -4 -11    3.30    0.33
   2   4  11    2.87    0.32
  -3  -4 -11    1.33    0.23
   3   4  11    1.20    0.25
  -4  -4 -11    0.51    0.20
   4   4  11    0.38    0.20
  -8   5  11    0.64    0.11
  -8   5  11    0.58    0.10
  -7   5  11    3.55    0.21
  -7   5  11    3.13    0.21
  -6   5  11    0.85    0.13
  -6   5  11    1.18    0.36
  -6   5  11    0.69    0.12
   5  -5 -11    2.36    0.26
  -5   5  11    2.22    0.20
  -5   5  11    2.37    0.21
  -5   5  11    2.82    0.54
   4  -5 -11    1.45    0.22
  -4   5  11    1.69    0.20
  -4   5  11    1.70    0.49
  -4   5  11    1.75    0.19
   3  -5 -11    0.93    0.19
  -3   5  11    0.98    0.47
  -3   5  11    1.15    0.18
  -3   5  11    1.51    0.19
   2  -5 -11    1.27    0.21
  -2   5  11    1.09    0.17
  -2   5  11    1.42    0.21
  -2   5  11    0.69    0.51
   1  -5 -11    1.57    0.24
  -1   5  11    2.18    0.26
  -1   5  11    1.72    0.22
   0   5  11    2.93    0.28
   0   5  11    2.73    0.30
   1   5  11    1.94    0.28
   2   5  11    1.80    0.29
   3   5  11    1.62    0.30
  -8   6  11    0.96    0.12
  -7   6  11    3.10    0.21
  -6   6  11    2.02    0.19
  -6   6  11    2.00    0.19
  -6   6  11    2.51    0.48
   5  -6 -11    1.53    0.24
  -5   6  11    1.24    0.16
  -5   6  11    1.56    0.46
  -5   6  11    1.22    0.17
   4  -6 -11    3.97    0.35
  -4   6  11    3.69    0.26
  -4   6  11    3.63    0.65
  -4   6  11    3.34    0.27
  -3   6  11    2.15    0.59
  -3   6  11    1.86    0.22
  -3   6  11    1.87    0.23
  -2   6  11    3.92    0.32
  -2   6  11    3.44    0.29
  -2   6  11    3.37    0.71
  -1   6  11    1.46    0.23
  -1   6  11    1.46    0.22
   0   6  11    2.63    0.32
   0   6  11    2.47    0.29
   1   6  11    0.26    0.17
  -6   7  11    0.93    0.15
  -6   7  11    2.16    0.45
  -5   7  11    1.16    0.42
  -5   7  11    0.69    0.15
  -5   7  11    0.63    0.15
  -4   7  11    2.67    0.26
  -4   7  11    3.39    0.27
  -4   7  11    3.69    0.68
  -3   7  11    5.82    0.37
  -3   7  11    5.40    0.35
  -3   7  11    5.55    0.84
  -2   7  11    2.87    0.29
  -2   7  11    3.10    0.32
  -2   7  11    2.49    0.73
  -1   7  11    1.71    0.23
  -1   7  11    2.26    0.28
   0   7  11    0.21    0.18
  -4   8  11    4.30    0.77
  -4   8  11    3.20    0.30
  -4   8  11    2.97    0.28
  -1  -7  12    1.21    0.25
   0   7 -12    0.83    0.22
   0  -7  12    0.87    0.23
  -1   7 -12    0.62    0.20
   1  -7  12    1.17    0.24
  -2   7 -12    1.16    0.24
   2  -7  12    0.92    0.24
  -3   7 -12    1.30    0.26
   3  -7  12    1.12    0.25
  -4   7 -12    0.26    0.20
   4  -7  12    0.28    0.18
  -2  -6  12    1.09    0.24
  -1  -6  12    3.20    0.37
   0   6 -12    1.07    0.22
   0  -6  12    1.10    0.24
  -1   6 -12    2.73    0.32
   1  -6  12    3.68    0.36
  -2   6 -12    0.81    0.21
   2  -6  12    1.11    0.24
  -3   6 -12    0.54    0.19
   3  -6  12    0.48    0.19
  -4   6 -12    0.18    0.19
   4  -6  12    0.38    0.18
  -5   6 -12    0.66    0.22
   5  -6  12    0.93    0.23
  -4  -5  12   -0.11    0.14
  -3  -5  12   -0.04    0.14
  -2  -5  12    0.44    0.18
  -1  -5  12    0.03    0.15
   0   5 -12    1.32    0.23
   0  -5  12    1.43    0.24
  -1   5 -12    2.97    0.32
   1  -5  12    3.27    0.35
   1  -5  12    3.26    0.32
  -2   5 -12    4.03    0.34
   2  -5  12    3.50    0.35
   2  -5  12    4.04    0.36
  -3   5 -12    0.17    0.17
   3  -5  12    0.65    0.20
  -4   5 -12    1.12    0.24
   4  -5  12    1.50    0.26
  -5   5 -12    1.47    0.27
   5  -5  12    1.22    0.25
  -6   5 -12    1.93    0.31
   6  -5  12    1.88    0.30
  -5  -4  12    3.50    0.34
  -5  -4  12    3.11    0.31
  -4  -4  12    0.75    0.17
  -4  -4  12    0.86    0.20
  -3  -4  12    0.38    0.14
  -3  -4  12    0.69    0.18
  -2  -4  12    2.53    0.27
  -2  -4  12    2.18    0.28
  -2  -4  12    2.41    0.30
   1   4 -12    0.68    0.17
  -1  -4  12    0.65    0.18
  -1  -4  12    0.52    0.17
   0   4 -12    2.22    0.23
   0   4 -12    2.36    0.26
   0  -4  12    2.13    0.27
   0  -4  12    1.91    0.26
  -1   4 -12    1.41    0.21
  -1   4 -12    1.74    0.24
   1  -4  12    1.59    0.23
   1  -4  12    2.01    0.27
  -2   4 -12    3.46    0.33
  -2   4 -12    2.88    0.29
   2  -4  12    3.41    0.33
   2  -4  12    2.87    0.32
  -3   4 -12    2.92    0.33
   3  -4  12    2.58    0.32
  -4   4 -12    2.11    0.29
   4  -4  12    1.75    0.27
  -5   4 -12    4.66    0.42
   5  -4  12    4.03    0.40
  -6   4 -12    0.61    0.22
   6  -4  12    0.87    0.23
  -6  -3  12    0.35    0.16
  -6  -3  12    0.34    0.13
  -5  -3  12    4.21    0.33
  -5  -3  12    3.87    0.31
  -4  -3  12    3.02    0.30
  -4  -3  12    2.99    0.28
  -4  -3  12    2.82    0.32
  -3  -3  12    1.04    0.18
  -3  -3  12    1.18    0.22
  -3  -3  12    1.05    0.21
  -2  -3  12    2.89    0.31
  -2  -3  12    3.49    0.27
  -2  -3  12    3.49    0.33
   1   3 -12    2.90    0.23
   1   3 -12    2.77    0.29
  -1  -3  12    3.26    0.30
  -1  -3  12    2.92    0.30
  -1  -3  12    2.51    0.25
   0   3 -12    0.97    0.17
   0   3 -12    1.26    0.20
   0  -3  12    1.33    0.22
   0  -3  12    0.94    0.19
  -1   3 -12    1.14    0.20
  -1   3 -12    1.38    0.21
   1  -3  12    1.33    0.23
   1  -3  12    1.92    0.25
  -2   3 -12    3.81    0.32
  -2   3 -12    3.04    0.30
   2  -3  12    3.76    0.36
  -3   3 -12    2.53    0.28
  -3   3 -12    1.92    0.27
   3  -3  12    2.37    0.29
  -4   3 -12    0.54    0.19
   4  -3  12    0.48    0.18
  -5   3 -12    0.94    0.23
   5  -3  12    0.93    0.22
  -6   3 -12    0.42    0.21
   6  -3  12    0.77    0.22
  -6  -2  12    0.30    0.15
  -6  -2  12    0.56    0.15
  -5  -2  12    2.92    0.27
  -5  -2  12    2.90    0.29
  -5  -2  12    2.96    0.30
  -4  -2  12    9.09    0.47
  -4  -2  12    9.53    0.44
  -4  -2  12    9.08    0.45
  -3  -2  12    1.64    0.20
  -3  -2  12    1.09    0.19
  -3  -2  12    1.35    0.21
  -2  -2  12    5.25    0.35
  -2  -2  12    5.50    0.33
  -2  -2  12    5.54    0.35
   1   2 -12    3.24    0.25
  -1  -2  12    2.95    0.29
  -1  -2  12    3.48    0.26
  -1  -2  12    3.48    0.33
   0   2 -12    1.43    0.20
   0   2 -12    1.39    0.19
   0  -2  12    1.32    0.18
   0  -2  12    1.57    0.22
  -1   2 -12    5.10    0.34
  -1   2 -12    4.80    0.33
   1  -2  12    5.16    0.36
  -2   2 -12    4.03    0.33
  -2   2 -12    4.60    0.34
   2  -2  12    4.59    0.36
  -3   2 -12    4.34    0.35
  -3   2 -12    4.58    0.36
   3  -2  12    5.35    0.39
  -4   2 -12    0.52    0.18
   4  -2  12    0.60    0.19
  -5   2 -12    0.17    0.16
   5  -2  12    0.28    0.17
  -6   2 -12    1.11    0.25
   6  -2  12    1.23    0.25
  -7  -1  12   -0.01    0.11
  -7  -1  12    0.12    0.11
  -6  -1  12    0.56    0.14
  -6  -1  12    0.64    0.17
  -6  -1  12    0.57    0.17
  -5  -1  12    5.13    0.34
  -5  -1  12    4.86    0.32
  -5  -1  12    4.47    0.30
  -4  -1  12    4.99    0.31
  -4  -1  12    4.57    0.33
  -4  -1  12    4.93    0.32
  -3  -1  12    2.14    0.24
  -3  -1  12    2.11    0.23
  -3  -1  12    2.15    0.25
   2   1 -12    1.29    0.17
  -2  -1  12    1.00    0.16
  -2  -1  12    0.92    0.19
  -2  -1  12    0.96    0.18
   1   1 -12    0.41    0.12
  -1  -1  12    0.64    0.14
  -1  -1  12    0.31    0.14
   0   1 -12    1.54    0.20
   0   1 -12    1.56    0.20
   0  -1  12    1.56    0.19
   0  -1  12    1.06    0.19
  -1   1 -12    4.09    0.31
  -1   1 -12    4.47    0.31
   1  -1  12    3.65    0.33
   1  -1  12    4.04    0.31
  -2   1 -12    2.35    0.26
  -2   1 -12    2.86    0.30
   2  -1  12    2.64    0.30
  -3   1 -12    2.35    0.28
  -3   1 -12    2.15    0.27
   3  -1  12    2.77    0.30
  -4   1 -12    0.60    0.19
   4  -1  12    0.66    0.20
  -5   1 -12    0.71    0.22
   5  -1  12    0.48    0.20
  -6   1 -12    1.63    0.29
   6  -1  12    2.14    0.32
  -7   0  12    0.04    0.11
  -7   0  12    0.12    0.10
  -6   0  12    1.44    0.21
  -6   0  12    1.11    0.17
  -6   0  12    0.94    0.16
  -5   0  12    4.54    0.32
  -5   0  12    4.13    0.27
  -5   0  12    4.14    0.29
  -4   0  12    3.03    0.28
  -4   0  12    3.17    0.28
  -4   0  12    3.42    0.25
   3   0 -12    2.62    0.21
  -3   0  12    2.05    0.24
  -3   0  12    2.41    0.23
  -3   0  12    2.45    0.25
   2   0 -12    2.09    0.22
  -2   0  12    2.12    0.22
  -2   0  12    1.82    0.22
   1   0 -12    1.19    0.19
  -1   0  12    1.16    0.19
  -1   0  12    1.33    0.18
   0   0 -12    1.89    0.22
   0   0 -12    1.72    0.23
   0   0  12    1.93    0.23
   0   0  12    1.95    0.21
  -1   0 -12    3.69    0.33
  -1   0 -12    2.97    0.28
   1   0  12    3.31    0.27
   1   0  12    3.40    0.32
  -2   0 -12    1.01    0.20
  -2   0 -12    0.75    0.18
   2   0  12    0.75    0.20
  -3   0 -12    2.55    0.28
   3   0  12    2.50    0.30
  -4   0 -12    3.04    0.33
   4   0  12    3.05    0.34
  -5   0 -12    3.26    0.38
   5   0  12    3.65    0.40
  -7   1  12    4.23    0.27
  -7   1  12    4.61    0.28
  -6   1  12    2.89    0.23
  -6   1  12    3.11    0.24
  -6   1  12    2.82    0.27
  -5   1  12    4.50    0.28
  -5   1  12    4.55    0.29
  -5   1  12    4.70    0.31
  -4   1  12    3.32    0.29
  -4   1  12    3.04    0.25
  -4   1  12    2.72    0.23
   3  -1 -12    1.77    0.21
  -3   1  12    2.12    0.21
  -3   1  12    1.80    0.21
   2  -1 -12    2.88    0.27
  -2   1  12    3.01    0.28
  -2   1  12    3.02    0.25
   1  -1 -12    3.60    0.29
  -1   1  12    3.80    0.27
  -1   1  12    3.48    0.29
   0  -1 -12    1.79    0.23
   0   1  12    1.70    0.20
   0   1  12    1.32    0.21
  -1  -1 -12    3.28    0.27
  -1  -1 -12    2.96    0.29
   1   1  12    3.70    0.28
   1   1  12    3.14    0.31
  -2  -1 -12    1.20    0.20
  -2  -1 -12    1.28    0.22
   2   1  12    1.50    0.24
  -3  -1 -12    0.41    0.17
   3   1  12    0.66    0.21
  -4  -1 -12    4.28    0.36
   4   1  12    4.61    0.43
  -5  -1 -12    0.79    0.22
   5   1  12    1.16    0.26
  -8   2  12    1.91    0.19
  -7   2  12    3.41    0.24
  -7   2  12    3.46    0.23
  -6   2  12    1.27    0.17
  -6   2  12    1.03    0.15
  -6   2  12    1.50    0.20
  -5   2  12    1.71    0.19
  -5   2  12    1.86    0.20
  -5   2  12    1.87    0.22
   4  -2 -12    5.76    0.31
  -4   2  12    5.55    0.34
  -4   2  12    5.46    0.31
  -4   2  12    5.50    0.30
   3  -2 -12    0.69    0.15
  -3   2  12    0.84    0.14
  -3   2  12    0.98    0.17
   2  -2 -12    2.87    0.27
  -2   2  12    2.29    0.23
  -2   2  12    2.43    0.25
   1  -2 -12    1.31    0.20
  -1   2  12    1.34    0.18
  -1   2  12    1.36    0.20
   0  -2 -12    0.82    0.18
   0   2  12    0.83    0.19
   0   2  12    1.10    0.18
  -1  -2 -12    3.20    0.32
   1   2  12    3.01    0.31
   1   2  12    2.85    0.30
  -2  -2 -12    1.45    0.22
   2   2  12    1.12    0.23
  -3  -2 -12    1.05    0.21
   3   2  12    0.85    0.22
  -4  -2 -12    1.68    0.27
   4   2  12    1.61    0.28
  -8   3  12    1.88    0.18
  -7   3  12    1.20    0.16
  -6   3  12   -0.06    0.31
  -6   3  12    0.16    0.09
  -6   3  12    0.11    0.10
  -5   3  12    1.74    0.18
  -5   3  12    1.28    0.51
  -5   3  12    1.22    0.17
  -5   3  12    1.23    0.19
   4  -3 -12    1.75    0.22
  -4   3  12    1.43    0.19
  -4   3  12    0.57    0.54
  -4   3  12    1.34    0.17
   3  -3 -12    2.82    0.28
  -3   3  12    2.51    0.23
  -3   3  12    2.65    0.25
   2  -3 -12    1.70    0.23
  -2   3  12    1.52    0.20
  -2   3  12    1.74    0.22
   1  -3 -12    3.42    0.32
  -1   3  12    3.65    0.30
  -1   3  12    3.64    0.28
   0  -3 -12    2.94    0.31
   0   3  12    3.11    0.29
   0   3  12    3.22    0.31
   1   3  12    2.24    0.29
   2   3  12    0.96    0.22
  -3  -3 -12    0.76    0.20
   3   3  12    1.03    0.24
  -7   4  12    0.84    0.13
  -6   4  12    1.72    0.18
  -6   4  12    1.57    0.17
  -6   4  12    1.48    0.44
   5  -4 -12    0.49    0.15
  -5   4  12    0.29    0.12
  -5   4  12   -0.13    0.38
  -5   4  12    0.38    0.12
   4  -4 -12    1.16    0.20
  -4   4  12    1.12    0.53
  -4   4  12    1.33    0.17
  -4   4  12    1.07    0.18
   3  -4 -12    1.19    0.21
  -3   4  12    1.29    0.19
  -3   4  12    0.30    0.56
  -3   4  12    1.05    0.17
   2  -4 -12    4.35    0.34
  -2   4  12    4.03    0.32
  -2   4  12    4.59    0.31
  -1   4  12    2.54    0.28
  -1   4  12    2.38    0.26
   0   4  12    4.25    0.32
   0   4  12    5.06    0.38
   1   4  12    2.76    0.33
   2   4  12    1.45    0.27
  -7   5  12    2.15    0.43
  -7   5  12    0.92    0.15
  -6   5  12    2.09    0.20
  -6   5  12    2.15    0.20
  -6   5  12    2.81    0.56
   5  -5 -12    0.71    0.18
  -5   5  12    0.89    0.15
  -5   5  12    0.55    0.42
  -5   5  12    0.90    0.16
   4  -5 -12    1.43    0.24
  -4   5  12    1.29    0.18
  -4   5  12    0.83    0.52
  -4   5  12    1.22    0.18
  -3   5  12    2.39    0.25
  -3   5  12    2.62    0.25
  -3   5  12    1.91    0.66
  -2   5  12    2.16    0.26
  -2   5  12    2.20    0.25
  -1   5  12    0.90    0.18
  -1   5  12    1.07    0.22
   0   5  12    0.53    0.19
   1   5  12    4.61    0.42
  -6   6  12    2.96    0.57
  -6   6  12    1.74    0.20
  -5   6  12    2.48    0.24
  -5   6  12    2.93    0.25
  -5   6  12    4.19    0.75
  -4   6  12    3.14    0.73
  -4   6  12    2.89    0.26
  -4   6  12    3.14    0.29
  -3   6  12    2.09    0.71
  -3   6  12    2.51    0.26
  -3   6  12    2.03    0.26
  -2   6  12    1.80    0.25
  -2   6  12   -0.07    0.63
  -2   6  12    1.58    0.22
  -1   6  12    0.21    0.14
  -1   6  12    0.16    0.16
   0  -6  13    1.73    0.28
  -1   6 -13    0.73    0.21
   1  -6  13    0.53    0.21
  -2   6 -13    0.65    0.21
   2  -6  13    0.65    0.22
  -2  -5  13    1.24    0.25
  -1  -5  13    1.30    0.25
   0  -5  13    2.36    0.31
  -1   5 -13    1.52    0.25
   1  -5  13    1.79    0.30
  -2   5 -13    1.92    0.28
   2  -5  13    2.00    0.30
  -3   5 -13    3.36    0.37
   3  -5  13    3.45    0.37
  -4   5 -13    2.25    0.31
   4  -5  13    2.58    0.33
  -3  -4  13    1.31    0.24
  -2  -4  13    1.45    0.25
  -1  -4  13    1.08    0.23
   0  -4  13    3.06    0.33
  -1   4 -13    1.81    0.26
  -1   4 -13    0.93    0.20
   1  -4  13    1.53    0.25
  -2   4 -13    0.63    0.20
   2  -4  13    0.55    0.20
  -3   4 -13    2.06    0.29
   3  -4  13    1.76    0.28
  -4   4 -13    0.86    0.23
   4  -4  13    0.96    0.24
  -4  -3  13    2.13    0.28
  -4  -3  13    2.15    0.26
  -3  -3  13    2.53    0.28
  -3  -3  13    2.58    0.29
  -2  -3  13    1.03    0.21
  -2  -3  13    0.75    0.16
  -1  -3  13    3.80    0.35
   0   3 -13    3.57    0.31
   0  -3  13    3.54    0.35
  -1   3 -13    3.91    0.34
  -1   3 -13    3.75    0.32
   1  -3  13    3.69    0.36
  -2   3 -13    0.32    0.16
   2  -3  13    0.15    0.17
  -3   3 -13    0.63    0.21
   3  -3  13    0.42    0.19
  -4   3 -13    0.68    0.22
   4  -3  13    1.01    0.24
  -5  -2  13    1.04    0.21
  -5  -2  13    1.20    0.20
  -4  -2  13    0.52    0.17
  -4  -2  13    0.86    0.17
  -3  -2  13    0.43    0.15
  -3  -2  13    0.35    0.16
  -2  -2  13    1.30    0.22
  -2  -2  13    0.75    0.18
  -2  -2  13    0.81    0.17
   1   2 -13    4.08    0.30
  -1  -2  13    4.45    0.35
  -1  -2  13    3.81    0.30
  -1  -2  13    4.37    0.37
   0   2 -13    3.37    0.30
   0  -2  13    3.60    0.35
   0  -2  13    3.76    0.35
  -1   2 -13    3.11    0.31
  -1   2 -13    3.33    0.32
   1  -2  13    2.70    0.32
  -2   2 -13    1.57    0.24
   2  -2  13    1.20    0.23
  -3   2 -13    0.92    0.22
   3  -2  13    0.64    0.21
  -4   2 -13    2.31    0.31
   4  -2  13    2.92    0.35
  -6  -1  13    1.91    0.23
  -6  -1  13    2.26    0.25
  -5  -1  13    0.83    0.16
  -5  -1  13    0.98    0.19
  -4  -1  13    0.32    0.13
  -4  -1  13    0.36    0.15
  -4  -1  13    0.41    0.17
  -3  -1  13    0.31    0.15
  -3  -1  13    0.20    0.14
  -3  -1  13    0.24    0.12
  -2  -1  13    1.75    0.24
  -2  -1  13    1.41    0.20
  -2  -1  13    1.79    0.25
   1   1 -13    3.05    0.28
  -1  -1  13    3.12    0.27
  -1  -1  13    2.89    0.30
   0   1 -13    0.94    0.18
   0  -1  13    1.09    0.20
   0  -1  13    0.89    0.20
  -1   1 -13    2.40    0.27
  -1   1 -13    2.98    0.30
   1  -1  13    3.41    0.34
  -2   1 -13    3.03    0.32
   2  -1  13    2.89    0.33
  -3   1 -13    3.65    0.36
   3  -1  13    3.36    0.37
  -4   1 -13    2.58    0.32
   4  -1  13    2.97    0.35
  -6   0  13    1.74    0.21
  -6   0  13    1.71    0.21
  -5   0  13    0.80    0.19
  -5   0  13    0.63    0.15
  -5   0  13    0.64    0.15
  -4   0  13    0.95    0.19
  -4   0  13    0.62    0.16
  -4   0  13    0.94    0.17
  -3   0  13    2.91    0.29
  -3   0  13    2.46    0.25
  -3   0  13    2.72    0.28
   2   0 -13    2.50    0.25
  -2   0  13    2.18    0.24
  -2   0  13    2.13    0.25
   1   0 -13    3.20    0.30
  -1   0  13    3.23    0.31
  -1   0  13    3.51    0.29
   0   0 -13    1.92    0.26
   0   0  13    1.80    0.26
   0   0  13    1.64    0.21
  -1   0 -13    1.38    0.24
   1   0  13    1.41    0.24
  -2   0 -13    4.61    0.35
   2   0  13    5.47    0.42
  -3   0 -13    2.76    0.31
   3   0  13    2.71    0.35
  -4   0 -13    2.70    0.33
   4   0  13    3.27    0.39
  -6   1  13    2.54    0.28
  -6   1  13    2.44    0.24
  -6   1  13    2.50    0.24
  -5   1  13    0.39    0.13
  -5   1  13    0.29    0.14
  -5   1  13    0.51    0.15
  -4   1  13    1.78    0.21
  -4   1  13    2.22    0.24
  -4   1  13    1.77    0.23
   3  -1 -13    1.80    0.23
  -3   1  13    2.29    0.24
  -3   1  13    1.99    0.22
  -3   1  13    2.17    0.26
   2  -1 -13    0.85    0.17
  -2   1  13    0.42    0.15
  -2   1  13    0.31    0.13
   1  -1 -13    2.72    0.28
  -1   1  13    2.79    0.27
  -1   1  13    2.48    0.28
   0  -1 -13    2.14    0.26
   0   1  13    2.08    0.25
   0   1  13    1.93    0.26
   1   1  13    1.30    0.23
   2   1  13    2.78    0.33
  -3  -1 -13    1.23    0.23
   3   1  13    0.41    0.21
  -6   2  13    0.77    0.15
  -6   2  13    0.76    0.15
  -5   2  13    1.15    0.17
  -5   2  13    1.14    0.17
  -5   2  13    0.94    0.18
  -4   2  13    2.04    0.22
  -4   2  13    2.22    0.26
  -4   2  13    1.99    0.23
   3  -2 -13    1.86    0.23
  -3   2  13    1.32    0.19
  -3   2  13    1.37    0.20
   2  -2 -13    1.94    0.24
  -2   2  13    1.94    0.23
  -2   2  13    2.30    0.27
   1  -2 -13    2.72    0.30
  -1   2  13    2.43    0.26
  -1   2  13    2.04    0.27
   0   2  13    2.40    0.26
   0   2  13    2.31    0.29
   1   2  13    1.05    0.23
   2   2  13    3.03    0.35
   3   2  13    4.24    0.43
  -6   3  13    0.52    0.13
  -6   3  13    0.95    0.16
  -5   3  13    1.63    0.24
  -5   3  13    1.65    0.20
  -5   3  13    1.48    0.20
  -4   3  13    1.98    0.23
  -4   3  13    2.23    0.23
   3  -3 -13    2.38    0.27
  -3   3  13    2.51    0.25
  -3   3  13    2.38    0.26
   2  -3 -13    4.88    0.37
  -2   3  13    5.05    0.34
  -2   3  13    4.34    0.34
  -1   3  13    4.61    0.37
  -1   3  13    5.22    0.35
   0   3  13    1.29    0.24
   0   3  13    1.81    0.26
   1   3  13    1.83    0.30
   2   3  13    1.95    0.29
  -6   4  13    0.49    0.13
  -6   4  13    0.60    0.15
  -6   4  13    0.30    0.49
  -5   4  13   -0.06    0.61
  -5   4  13    1.27    0.18
  -5   4  13    1.45    0.19
   4  -4 -13    1.05    0.21
  -4   4  13    1.36    0.20
  -4   4  13    1.61    0.20
  -3   4  13    1.31    0.21
  -3   4  13    1.72    0.22
  -2   4  13    1.71    0.23
  -2   4  13    1.25    0.22
  -1   4  13    3.40    0.31
  -1   4  13    3.21    0.33
   0   4  13    1.06    0.24
   1   4  13    0.32    0.20
  -5   5  13    1.58    0.20
  -5   5  13    1.25    0.62
  -5   5  13    1.17    0.19
  -4   5  13    1.14    0.76
  -4   5  13    2.41    0.25
  -4   5  13    2.67    0.27
  -3   5  13    0.80    0.18
  -3   5  13    0.86    0.18
  -2   5  13    0.63    0.19
  -2   5  13    0.20    0.14
  -1   5  13    3.46    0.35
  -1   5  13    3.54    0.34
  -1  -4  14    1.32    0.26
   0  -4  14    0.80    0.22
   1  -4  14    0.56    0.20
  -2  -3  14    1.79    0.28
  -1  -3  14    3.54    0.36
   0  -3  14    1.01    0.23
   1  -3  14    0.19    0.19
   2  -3  14    2.32    0.33
  -3  -2  14    1.68    0.26
  -3  -2  14    1.69    0.23
  -2  -2  14    1.24    0.23
  -1  -2  14    2.60    0.31
   0   2 -14    1.90    0.25
   0  -2  14    1.52    0.26
   1  -2  14    1.68    0.27
   2  -2  14    3.35    0.37
  -4  -1  14    1.97    0.24
  -4  -1  14    1.56    0.24
  -3  -1  14    1.87    0.26
  -3  -1  14    2.44    0.26
  -2  -1  14    2.28    0.26
  -2  -1  14    2.05    0.28
  -1  -1  14    1.21    0.23
   0  -1  14    3.43    0.36
   1  -1  14    2.72    0.34
   2  -1  14    3.45    0.37
  -4   0  14    0.31    0.15
  -4   0  14    0.22    0.13
  -3   0  14    2.89    0.30
  -3   0  14    2.91    0.28
  -2   0  14    1.66    0.24
  -2   0  14    1.75    0.23
   1   0 -14    1.27    0.22
  -1   0  14    1.12    0.22
  -1   0  14    1.33    0.20
   0   0  14    4.44    0.38
   1   0  14    1.56    0.28
   2   0  14    0.80    0.23
  -4   1  14    1.07    0.19
  -4   1  14    0.69    0.17
  -3   1  14    1.81    0.24
  -3   1  14    1.67    0.22
   2  -1 -14    1.84    0.25
  -2   1  14    1.67    0.24
  -2   1  14    1.64    0.22
  -1   1  14    1.25    0.21
  -1   1  14    1.44    0.23
   0   1  14    4.35    0.39
   1   1  14    2.57    0.34
  -4   2  14    3.66    0.29
  -4   2  14    3.25    0.30
  -3   2  14    3.70    0.30
  -3   2  14    2.86    0.30
  -2   2  14    1.86    0.25
  -2   2  14    1.98    0.24
  -1   2  14    2.02    0.27
  -1   2  14    1.76    0.24
   0   2  14    2.11    0.29
  -4   3  14    1.85    0.23
  -4   3  14    1.53    0.20
  -3   3  14    2.94    0.30
  -3   3  14    2.13    0.25
  -2   3  14    1.08    0.20
  -2   3  14    1.16    0.22
  -1   3  14    0.98    0.20
  -1   3  14    1.20    0.23
   0   0   0    0.00    0.00
;
_shelx_hkl_checksum              51511
_shelx_res_file
;
TITL sz54cg
CELL  0.71073    8.7209    8.7949   10.3490    91.966    94.945   112.682
ZERR     1    0.0004    0.0004    0.0004    0.0020    0.0020    0.0020
LATT   1
SFAC  C  H  CD N
UNIT    28   20   1  18
OMIT -2     65.00
TEMP    23.0
SIZE      0.18     0.16     0.12
ACTA
PLAN   30
BOND $H
CONF
HTAB
L.S.     10
MPLA CD1 N1 C5 C52 N51
OMIT 0 0 1
WGHT    0.029800    0.187800
FVAR       0.16033
CD1   3    0.500000    0.500000    0.500000    10.50000    0.04493    0.03405 =
         0.02380    0.00052    0.00564    0.01100
N1    4    0.421774    0.492123    0.285579    11.00000    0.04288    0.02742 =
         0.02778    0.00069    0.00242    0.01343
N2    4    0.357820    0.584397    0.212912    11.00000    0.04338    0.02730 =
         0.02961    0.00109    0.00311    0.01380
C3    1    0.306102    0.505604    0.097145    11.00000    0.03029    0.02359 =
         0.03052    0.00221    0.00614    0.00770
N4    4    0.336330    0.363374    0.094549    11.00000    0.02926    0.02380 =
         0.02659   -0.00098    0.00344    0.00831
C5    1    0.410391    0.360187    0.214478    11.00000    0.02953    0.02497 =
         0.02704    0.00045    0.00514    0.00732
N31   4    0.198607    0.486139   -0.127277    11.00000    0.04234    0.03584 =
         0.03015    0.00362    0.00610    0.01413
C32   1    0.227082    0.564979   -0.009006    11.00000    0.02762    0.02683 =
         0.03104    0.00413    0.00595    0.00607
C33   1    0.183438    0.698139    0.017433    11.00000    0.03688    0.03069 =
         0.03832    0.00208    0.00580    0.01166
AFIX  43
H33   2    0.206855    0.750752    0.100530    11.00000   -1.20000
AFIX   0
C34   1    0.104830    0.750537   -0.081927    11.00000    0.03710    0.03504 =
         0.05153    0.01086    0.00803    0.01538
AFIX  43
H34   2    0.075319    0.840127   -0.067303    11.00000   -1.20000
AFIX   0
C35   1    0.070515    0.668321   -0.203345    11.00000    0.03656    0.04548 =
         0.04115    0.01620    0.00292    0.01324
AFIX  43
H35   2    0.015151    0.699582   -0.271623    11.00000   -1.20000
AFIX   0
C36   1    0.120141    0.538401   -0.221483    11.00000    0.04783    0.04550 =
         0.02991    0.00559    0.00334    0.01382
AFIX  43
H36   2    0.097693    0.484190   -0.303926    11.00000   -1.20000
AFIX   0
N41   4    0.294987    0.239497   -0.008625    11.00000    0.04697    0.03160 =
         0.03094   -0.00730   -0.00114    0.01585
AFIX   3
H41A  2    0.262503    0.283417   -0.075317    11.00000   -1.20000
H41B  2    0.212403    0.149518    0.014183    11.00000   -1.20000
AFIX   0
N51   4    0.549521    0.282628    0.389561    11.00000    0.03853    0.03194 =
         0.03056    0.00734    0.00575    0.01190
C52   1    0.480390    0.242874    0.264997    11.00000    0.02816    0.02624 =
         0.03303    0.00435    0.00652    0.00713
C53   1    0.483488    0.109004    0.192694    11.00000    0.03723    0.02947 =
         0.04351   -0.00141    0.00304    0.01129
AFIX  43
H53   2    0.433495    0.082648    0.107386    11.00000   -1.20000
AFIX   0
C54   1    0.562990    0.014944    0.250501    11.00000    0.04555    0.03005 =
         0.06236    0.00455    0.01066    0.01662
AFIX  43
H54   2    0.565893   -0.076461    0.204515    11.00000   -1.20000
AFIX   0
C55   1    0.637132    0.057910    0.375858    11.00000    0.04637    0.04064 =
         0.05821    0.01964    0.01023    0.02158
AFIX  43
H55   2    0.693277   -0.002061    0.415408    11.00000   -1.20000
AFIX   0
C56   1    0.626970    0.191405    0.442113    11.00000    0.04601    0.04380 =
         0.03780    0.01505    0.00551    0.01757
AFIX  43
H56   2    0.676379    0.219380    0.527509    11.00000   -1.20000
AFIX   0
N11   4    1.029129    0.865257    0.388825    11.00000    0.04060    0.07365 =
         0.04998    0.01826    0.00077    0.00719
C12   1    0.885852    0.778469    0.428383    11.00000    0.04350    0.03792 =
         0.03709   -0.00035    0.00189    0.01011
N13   4    0.768821    0.697191    0.473419    11.00000    0.05187    0.05003 =
         0.05250    0.00152    0.01409    0.00245
C14   1    1.039643    0.932018    0.276147    11.00000    0.03020    0.03442 =
         0.04206    0.00089    0.00276    0.01013
N15   4    1.065528    0.991328    0.179910    11.00000    0.05437    0.05305 =
         0.05520    0.01603    0.00934    0.02030
HKLF 4
REM  sz54cg
REM R1 =  0.0299 for    4028 Fo > 4sig(Fo)  and  0.0341 for all    4392 data
REM    214 parameters refined using      0 restraints
END
WGHT      0.0298      0.1877
REM Instructions for potential hydrogen bonds
HTAB N41 N31
EQIV $1 x-1, y-1, z
HTAB N41 N15_$1
HTAB C53 N41
REM Highest difference peak  0.740,  deepest hole -0.258,  1-sigma level  0.065
Q1    1   0.4552  0.5227  0.4315  11.00000  0.05    0.42
Q2    1   0.4133  0.4144  0.4567  11.00000  0.05    0.39
Q3    1   0.5646  0.3563  0.4215  11.00000  0.05    0.38
Q4    1   0.4936  0.1888  0.2202  11.00000  0.05    0.38
Q5    1   0.4619  0.5601  0.5354  11.00000  0.05    0.38
Q6    1   0.3638  0.3397  0.1555  11.00000  0.05    0.37
Q7    1   0.9788  0.9217  0.3796  11.00000  0.05    0.37
Q8    1   0.3739  0.4638  0.4975  11.00000  0.05    0.35
Q9    1   0.2091  0.6369 -0.0093  11.00000  0.05    0.35
Q10   1   0.4718  0.4090  0.5417  11.00000  0.05    0.35
Q11   1   0.2718  0.5367  0.0439  11.00000  0.05    0.34
Q12   1   0.2911  0.4237  0.0973  11.00000  0.05    0.33
Q13   1   0.3776  0.4018  0.2616  11.00000  0.05    0.33
Q14   1   0.5252  0.2566  0.3203  11.00000  0.05    0.33
Q15   1   0.1096  0.6803 -0.0367  11.00000  0.05    0.33
Q16   1   0.6047  0.1162  0.3949  11.00000  0.05    0.32
Q17   1   0.5665  0.0922  0.2230  11.00000  0.05    0.32
Q18   1   0.4256  0.2873  0.2434  11.00000  0.05    0.32
Q19   1   0.2456  0.4356 -0.1367  11.00000  0.05    0.31
Q20   1   0.2078  0.5252 -0.0706  11.00000  0.05    0.31
Q21   1   0.3547  0.5617  0.1449  11.00000  0.05    0.31
Q22   1   0.9941  0.9500  0.2316  11.00000  0.05    0.30
Q23   1   0.1677  0.5152 -0.1617  11.00000  0.05    0.29
Q24   1   0.5619  0.0194  0.3257  11.00000  0.05    0.29
Q25   1   0.4599  0.4380  0.2420  11.00000  0.05    0.28
Q26   1   0.1105  0.7133 -0.1405  11.00000  0.05    0.28
Q27   1   1.0782  0.9997  0.2821  11.00000  0.05    0.28
Q28   1   0.3409  0.5341  0.2512  11.00000  0.05    0.28
Q29   1   0.7707  0.6240  0.4906  11.00000  0.05    0.24
Q30   1   0.3985  0.4967  0.3599  11.00000  0.05    0.24
;
_shelx_res_checksum              55436
_shelxl_version_number           2.014
loop_
_space_group_symop_operation_xyz
'x, y, z'
'-x, -y, -z'
loop_
_atom_site_type_symbol
_atom_site_label
_atom_site_fract_x
_atom_site_fract_y
_atom_site_fract_z
_atom_site_U_iso_or_equiv
_atom_site_adp_type
_atom_site_calc_flag
_atom_site_occupancy
Cd Cd1 0.5000 0.5000 0.5000 0.03552(7) Uani d 1
N N1 0.42177(18) 0.49212(16) 0.28558(13) 0.0329(3) Uani d 1
N N2 0.35782(18) 0.58440(16) 0.21291(13) 0.0335(3) Uani d 1
C C3 0.30610(19) 0.50560(18) 0.09715(15) 0.0288(3) Uani d 1
N N4 0.33633(16) 0.36337(15) 0.09455(12) 0.0272(2) Uani d 1
C C5 0.41039(19) 0.36019(18) 0.21448(15) 0.0281(3) Uani d 1
N N31 0.19861(18) 0.48614(18) -0.12728(14) 0.0363(3) Uani d 1
C C32 0.22708(19) 0.56498(19) -0.00901(15) 0.0297(3) Uani d 1
C C33 0.1834(2) 0.6981(2) 0.01743(17) 0.0357(3) Uani d 1
H H33 0.2069 0.7508 0.1005 0.043 Uiso calc 1
C C34 0.1048(2) 0.7505(2) -0.08193(19) 0.0404(4) Uani d 1
H H34 0.0753 0.8401 -0.0673 0.049 Uiso calc 1
C C35 0.0705(2) 0.6683(2) -0.20334(19) 0.0417(4) Uani d 1
H H35 0.0152 0.6996 -0.2716 0.050 Uiso calc 1
C C36 0.1201(2) 0.5384(2) -0.22148(18) 0.0424(4) Uani d 1
H H36 0.0977 0.4842 -0.3039 0.051 Uiso calc 1
N N41 0.29499(19) 0.23950(18) -0.00863(14) 0.0369(3) Uani d 1
H H41A 0.2625 0.2834 -0.0753 0.044 Uiso d 1
H H41B 0.2124 0.1495 0.0142 0.044 Uiso d 1
N N51 0.54952(18) 0.28263(17) 0.38956(14) 0.0340(3) Uani d 1
C C52 0.48039(19) 0.24287(19) 0.26500(16) 0.0299(3) Uani d 1
C C53 0.4835(2) 0.1090(2) 0.19269(18) 0.0374(4) Uani d 1
H H53 0.4335 0.0826 0.1074 0.045 Uiso calc 1
C C54 0.5630(2) 0.0149(2) 0.2505(2) 0.0451(4) Uani d 1
H H54 0.5659 -0.0765 0.2045 0.054 Uiso calc 1
C C55 0.6371(2) 0.0579(2) 0.3759(2) 0.0463(4) Uani d 1
H H55 0.6933 -0.0021 0.4154 0.056 Uiso calc 1
C C56 0.6270(2) 0.1914(2) 0.44211(18) 0.0422(4) Uani d 1
H H56 0.6764 0.2194 0.5275 0.051 Uiso calc 1
N N11 1.0291(2) 0.8653(3) 0.38882(19) 0.0593(5) Uani d 1
C C12 0.8859(2) 0.7785(2) 0.42838(18) 0.0415(4) Uani d 1
N N13 0.7688(2) 0.6972(2) 0.47342(19) 0.0563(5) Uani d 1
C C14 1.0396(2) 0.9320(2) 0.27615(18) 0.0364(4) Uani d 1
N N15 1.0655(2) 0.9913(2) 0.17991(19) 0.0539(4) Uani d 1
loop_
_atom_site_aniso_label
_atom_site_aniso_U_11
_atom_site_aniso_U_22
_atom_site_aniso_U_33
_atom_site_aniso_U_12
_atom_site_aniso_U_13
_atom_site_aniso_U_23
Cd1 0.04493(11) 0.03405(10) 0.02380(9) 0.01100(7) 0.00564(7) 0.00052(6)
N1 0.0429(8) 0.0274(6) 0.0278(6) 0.0134(6) 0.0024(6) 0.0007(5)
N2 0.0434(8) 0.0273(6) 0.0296(6) 0.0138(6) 0.0031(6) 0.0011(5)
C3 0.0303(7) 0.0236(7) 0.0305(7) 0.0077(6) 0.0061(6) 0.0022(6)
N4 0.0293(6) 0.0238(6) 0.0266(6) 0.0083(5) 0.0034(5) -0.0010(5)
C5 0.0295(7) 0.0250(7) 0.0270(7) 0.0073(6) 0.0051(6) 0.0005(5)
N31 0.0423(8) 0.0358(7) 0.0301(7) 0.0141(6) 0.0061(6) 0.0036(6)
C32 0.0276(7) 0.0268(7) 0.0310(7) 0.0061(6) 0.0059(6) 0.0041(6)
C33 0.0369(8) 0.0307(8) 0.0383(9) 0.0117(7) 0.0058(7) 0.0021(7)
C34 0.0371(9) 0.0350(9) 0.0515(10) 0.0154(7) 0.0080(8) 0.0109(8)
C35 0.0366(9) 0.0455(10) 0.0411(9) 0.0132(8) 0.0029(7) 0.0162(8)
C36 0.0478(10) 0.0455(10) 0.0299(8) 0.0138(8) 0.0033(7) 0.0056(7)
N41 0.0470(8) 0.0316(7) 0.0309(7) 0.0158(6) -0.0011(6) -0.0073(5)
N51 0.0385(7) 0.0319(7) 0.0306(7) 0.0119(6) 0.0057(6) 0.0073(5)
C52 0.0282(7) 0.0262(7) 0.0330(8) 0.0071(6) 0.0065(6) 0.0044(6)
C53 0.0372(8) 0.0295(8) 0.0435(9) 0.0113(7) 0.0030(7) -0.0014(7)
C54 0.0455(10) 0.0300(8) 0.0624(12) 0.0166(8) 0.0107(9) 0.0045(8)
C55 0.0464(10) 0.0406(10) 0.0582(12) 0.0216(8) 0.0102(9) 0.0196(9)
C56 0.0460(10) 0.0438(10) 0.0378(9) 0.0176(8) 0.0055(8) 0.0151(8)
N11 0.0406(9) 0.0737(13) 0.0500(10) 0.0072(9) 0.0008(8) 0.0183(9)
C12 0.0435(10) 0.0379(9) 0.0371(9) 0.0101(8) 0.0019(7) -0.0003(7)
N13 0.0519(10) 0.0500(10) 0.0525(10) 0.0025(8) 0.0141(8) 0.0015(8)
C14 0.0302(8) 0.0344(8) 0.0421(9) 0.0101(7) 0.0028(7) 0.0009(7)
N15 0.0544(10) 0.0531(10) 0.0552(10) 0.0203(8) 0.0093(8) 0.0160(8)
loop_
_atom_type_symbol
_atom_type_description
_atom_type_scat_dispersion_real
_atom_type_scat_dispersion_imag
_atom_type_scat_source
C C 0.0033 0.0016 'International Tables Vol C Tables 4.2.6.8 and 6.1.1.4'
H H 0.0000 0.0000 'International Tables Vol C Tables 4.2.6.8 and 6.1.1.4'
Cd Cd -0.8075 1.2024 'International Tables Vol C Tables 4.2.6.8 and 6.1.1.4'
N N 0.0061 0.0033 'International Tables Vol C Tables 4.2.6.8 and 6.1.1.4'
loop_
_geom_angle_atom_site_label_1
_geom_angle_atom_site_label_2
_geom_angle_atom_site_label_3
_geom_angle_site_symmetry_1
_geom_angle_site_symmetry_3
_geom_angle
N1 Cd1 N1 . 2_666 180.00(8)
N1 Cd1 N13 . 2_666 89.71(6)
N1 Cd1 N13 2_666 2_666 90.28(6)
N1 Cd1 N13 . . 90.29(6)
N1 Cd1 N13 2_666 . 89.72(6)
N13 Cd1 N13 2_666 . 180.0
N1 Cd1 N51 . 2_666 108.93(5)
N1 Cd1 N51 2_666 2_666 71.07(5)
N13 Cd1 N51 2_666 2_666 92.62(6)
N13 Cd1 N51 . 2_666 87.38(6)
N1 Cd1 N51 . . 71.07(5)
N1 Cd1 N51 2_666 . 108.93(5)
N13 Cd1 N51 2_666 . 87.38(6)
N13 Cd1 N51 . . 92.62(6)
N51 Cd1 N51 2_666 . 180.00(6)
C5 N1 N2 . . 109.62(13)
C5 N1 Cd1 . . 116.37(10)
N2 N1 Cd1 . . 133.17(10)
C3 N2 N1 . . 106.59(13)
N2 C3 N4 . . 109.64(14)
N2 C3 C32 . . 123.20(14)
N4 C3 C32 . . 127.15(14)
C5 N4 C3 . . 105.99(12)
C5 N4 N41 . . 125.56(13)
C3 N4 N41 . . 128.42(13)
N1 C5 N4 . . 108.16(13)
N1 C5 C52 . . 121.74(14)
N4 C5 C52 . . 130.00(14)
C36 N31 C32 . . 116.81(15)
N31 C32 C33 . . 123.22(15)
N31 C32 C3 . . 117.94(14)
C33 C32 C3 . . 118.83(14)
C34 C33 C32 . . 118.61(16)
C34 C33 H33 . . 120.7
C32 C33 H33 . . 120.7
C33 C34 C35 . . 119.02(17)
C33 C34 H34 . . 120.5
C35 C34 H34 . . 120.5
C34 C35 C36 . . 118.55(17)
C34 C35 H35 . . 120.7
C36 C35 H35 . . 120.7
N31 C36 C35 . . 123.75(17)
N31 C36 H36 . . 118.1
C35 C36 H36 . . 118.1
N4 N41 H41A . . 103.6
N4 N41 H41B . . 107.3
H41A N41 H41B . . 112.6
C56 N51 C52 . . 118.14(15)
C56 N51 Cd1 . . 126.23(12)
C52 N51 Cd1 . . 115.43(11)
N51 C52 C53 . . 122.14(15)
N51 C52 C5 . . 113.16(14)
C53 C52 C5 . . 124.64(15)
C52 C53 C54 . . 118.43(17)
C52 C53 H53 . . 120.8
C54 C53 H53 . . 120.8
C55 C54 C53 . . 119.45(18)
C55 C54 H54 . . 120.3
C53 C54 H54 . . 120.3
C54 C55 C56 . . 118.76(17)
C54 C55 H55 . . 120.6
C56 C55 H55 . . 120.6
N51 C56 C55 . . 123.05(18)
N51 C56 H56 . . 118.5
C55 C56 H56 . . 118.5
C12 N11 C14 . . 121.65(18)
N13 C12 N11 . . 172.8(2)
C12 N13 Cd1 . . 162.67(17)
N15 C14 N11 . . 172.9(2)
loop_
_geom_bond_atom_site_label_1
_geom_bond_atom_site_label_2
_geom_bond_site_symmetry_2
_geom_bond_distance
Cd1 N1 . 2.2553(13)
Cd1 N1 2_666 2.2553(13)
Cd1 N13 2_666 2.3638(17)
Cd1 N13 . 2.3638(17)
Cd1 N51 2_666 2.3915(14)
Cd1 N51 . 2.3916(14)
N1 C5 . 1.3182(19)
N1 N2 . 1.362(2)
N2 C3 . 1.314(2)
C3 N4 . 1.3741(19)
C3 C32 . 1.463(2)
N4 C5 . 1.355(2)
N4 N41 . 1.4170(17)
C5 C52 . 1.476(2)
N31 C36 . 1.337(2)
N31 C32 . 1.341(2)
C32 C33 . 1.390(2)
C33 C34 . 1.376(3)
C33 H33 . 0.9300
C34 C35 . 1.377(3)
C34 H34 . 0.9300
C35 C36 . 1.382(3)
C35 H35 . 0.9300
C36 H36 . 0.9300
N41 H41A . 0.8802
N41 H41B . 0.8962
N51 C56 . 1.334(2)
N51 C52 . 1.349(2)
C52 C53 . 1.384(2)
C53 C54 . 1.388(3)
C53 H53 . 0.9300
C54 C55 . 1.370(3)
C54 H54 . 0.9300
C55 C56 . 1.375(3)
C55 H55 . 0.9300
C56 H56 . 0.9300
N11 C12 . 1.298(3)
N11 C14 . 1.318(3)
C12 N13 . 1.145(2)
C14 N15 . 1.140(2)
loop_
_geom_hbond_atom_site_label_D
_geom_hbond_atom_site_label_H
_geom_hbond_atom_site_label_A
_geom_hbond_site_symmetry_A
_geom_hbond_distance_DH
_geom_hbond_distance_HA
_geom_hbond_distance_DA
_geom_hbond_angle_DHA
_geom_hbond_publ_flag
N41 H41A N31 . 0.88 2.14 2.886(2) 143 no
N41 H41B N15 1_445 0.90 2.38 3.190(2) 150 no
C34 H34 N15 2_675 0.93 2.52 3.300(3) 142 no
loop_
_geom_torsion_atom_site_label_1
_geom_torsion_atom_site_label_2
_geom_torsion_atom_site_label_3
_geom_torsion_atom_site_label_4
_geom_torsion
C5 N1 N2 C3 0.58(18)
Cd1 N1 N2 C3 -168.22(11)
N1 N2 C3 N4 -0.06(17)
N1 N2 C3 C32 179.23(14)
N2 C3 N4 C5 -0.47(17)
C32 C3 N4 C5 -179.72(14)
N2 C3 N4 N41 177.40(14)
C32 C3 N4 N41 -1.9(2)
N2 N1 C5 N4 -0.88(17)
Cd1 N1 C5 N4 170.02(9)
N2 N1 C5 C52 175.78(13)
Cd1 N1 C5 C52 -13.31(19)
C3 N4 C5 N1 0.82(16)
N41 N4 C5 N1 -177.13(14)
C3 N4 C5 C52 -175.47(15)
N41 N4 C5 C52 6.6(2)
C36 N31 C32 C33 -1.8(2)
C36 N31 C32 C3 177.36(14)
N2 C3 C32 N31 171.72(15)
N4 C3 C32 N31 -9.1(2)
N2 C3 C32 C33 -9.1(2)
N4 C3 C32 C33 170.10(15)
N31 C32 C33 C34 1.0(2)
C3 C32 C33 C34 -178.17(15)
C32 C33 C34 C35 0.7(2)
C33 C34 C35 C36 -1.5(3)
C32 N31 C36 C35 1.0(3)
C34 C35 C36 N31 0.7(3)
C56 N51 C52 C53 1.9(2)
Cd1 N51 C52 C53 -173.28(12)
C56 N51 C52 C5 -175.39(14)
Cd1 N51 C52 C5 9.43(16)
N1 C5 C52 N51 2.1(2)
N4 C5 C52 N51 177.98(15)
N1 C5 C52 C53 -175.09(15)
N4 C5 C52 C53 0.8(3)
N51 C52 C53 C54 -1.1(2)
C5 C52 C53 C54 175.92(15)
C52 C53 C54 C55 -0.7(3)
C53 C54 C55 C56 1.6(3)
C52 N51 C56 C55 -1.0(3)
Cd1 N51 C56 C55 173.60(13)
C54 C55 C56 N51 -0.7(3)

_cod_database_fobs_code 2020846
