#------------------------------------------------------------------------------
#$Date: 2016-07-21 04:10:48 +0300 (Thu, 21 Jul 2016) $
#$Revision: 184562 $
#$URL: file:///home/coder/svn-repositories/cod/cif/2/02/05/2020557.cif $
#------------------------------------------------------------------------------
#
# This file is available in the Crystallography Open Database (COD),
# http://www.crystallography.net/. The original data for this entry
# were provided by IUCr Journals, http://journals.iucr.org/.
#
# The file may be used within the scientific community so long as
# proper attribution is given to the journal article from which the
# data were obtained.
#
data_2020557
loop_
_publ_author_name
'H\"utzler, Wilhelm Maximilian'
'Egert, Ernst'
'Bolte, Michael'
_publ_section_title
;
 6-Propyl-2-thiouracil <i>versus</i> 6-methoxymethyl-2-thiouracil:
 enhancing the hydrogen-bonded synthon motif by replacement of a methylene
 group with an O atom
;
_journal_issue                   8
_journal_name_full               'Acta Crystallographica Section C'
_journal_page_first
;
;
_journal_paper_doi               10.1107/S2053229616011281
_journal_volume                  72
_journal_year                    2016
_chemical_formula_iupac          'C6 H8 N2 O2 S, C3 H7 N O'
_chemical_formula_moiety         'C6 H8 N2 O2 S, C3 H7 N O'
_chemical_formula_sum            'C9 H15 N3 O3 S'
_chemical_formula_weight         245.30
_chemical_name_systematic
'6-Methoxymethyl-2-thiouracil--<i>N</i>,<i>N</i>-dimethylformamide (1/1)'
_space_group_crystal_system      triclinic
_space_group_IT_number           2
_space_group_name_Hall           '-P 1'
_space_group_name_H-M_alt        'P -1'
_symmetry_space_group_name_Hall  '-P 1'
_symmetry_space_group_name_H-M   'P -1'
_atom_sites_solution_hydrogens   mixed
_audit_creation_method           SHELXL-2014/7
_cell_angle_alpha                109.275(16)
_cell_angle_beta                 109.132(17)
_cell_angle_gamma                97.283(17)
_cell_formula_units_Z            2
_cell_length_a                   7.2516(16)
_cell_length_b                   8.9841(17)
_cell_length_c                   10.736(2)
_cell_measurement_reflns_used    13024
_cell_measurement_temperature    173(2)
_cell_measurement_theta_max      26.00
_cell_measurement_theta_min      3.42
_cell_volume                     601.7(2)
_computing_cell_refinement
;
X-AREA (Stoe & Cie, 2001)
;
_computing_data_collection
;
X-AREA (Stoe & Cie, 2001)
;
_computing_data_reduction
;
X-AREA (Stoe & Cie, 2001)
;
_computing_molecular_graphics
;
Mercury (Macrae <i>et al.</i>,  2008) and XP in SHELXTL-Plus (Sheldrick,
2008)
;
_computing_publication_material
;
publCIF (Westrip, 2010)
;
_computing_structure_refinement
;
SHELXL2014 (Sheldrick, 2015)
;
_computing_structure_solution
;
SHELXS97 (Sheldrick, 2008)
;
_diffrn_ambient_temperature      173(2)
_diffrn_measured_fraction_theta_full 0.990
_diffrn_measured_fraction_theta_max 0.985
_diffrn_measurement_device_type  'Stoe IPDS II two-circle'
_diffrn_measurement_method       \w
_diffrn_radiation_type           MoK\a
_diffrn_radiation_wavelength     0.71073
_diffrn_reflns_av_R_equivalents  0.0661
_diffrn_reflns_limit_h_max       8
_diffrn_reflns_limit_h_min       -8
_diffrn_reflns_limit_k_max       10
_diffrn_reflns_limit_k_min       -10
_diffrn_reflns_limit_l_max       13
_diffrn_reflns_limit_l_min       -12
_diffrn_reflns_number            5137
_diffrn_reflns_theta_full        25.000
_diffrn_reflns_theta_max         25.608
_diffrn_reflns_theta_min         3.415
_exptl_absorpt_coefficient_mu    0.266
_exptl_absorpt_correction_T_max  1.000
_exptl_absorpt_correction_T_min  0.624
_exptl_absorpt_correction_type   multi-scan
_exptl_absorpt_process_details
;
(X-AREA; Stoe & Cie, 2001)
;
_exptl_crystal_colour            colourless
_exptl_crystal_density_diffrn    1.354
_exptl_crystal_description       block
_exptl_crystal_F_000             260
_exptl_crystal_size_max          0.420
_exptl_crystal_size_mid          0.280
_exptl_crystal_size_min          0.210
_refine_diff_density_max         0.521
_refine_diff_density_min         -0.306
_refine_ls_extinction_method     none
_refine_ls_goodness_of_fit_ref   1.040
_refine_ls_hydrogen_treatment    mixed
_refine_ls_matrix_type           full
_refine_ls_number_parameters     154
_refine_ls_number_reflns         2227
_refine_ls_number_restraints     2
_refine_ls_restrained_S_all      1.040
_refine_ls_R_factor_all          0.0453
_refine_ls_R_factor_gt           0.0422
_refine_ls_shift/su_max          0.000
_refine_ls_shift/su_mean         0.000
_refine_ls_structure_factor_coef Fsqd
_refine_ls_weighting_details
'w=1/[\s^2^(Fo^2^)+(0.0680P)^2^+0.1405P] where P=(Fo^2^+2Fc^2^)/3'
_refine_ls_weighting_scheme      calc
_refine_ls_wR_factor_gt          0.1137
_refine_ls_wR_factor_ref         0.1162
_reflns_number_gt                2024
_reflns_number_total             2227
_reflns_threshold_expression     'I > 2\s(I)'
_cod_data_source_file            sk3632sup1.cif
_cod_data_source_block           II
_cod_database_code               2020557
_shelx_space_group_comment
;
The symmetry employed for this shelxl refinement is uniquely defined
by the following loop, which should always be used as a source of
symmetry information in preference to the above space-group names.
They are only intended as comments.
;
_shelx_estimated_absorpt_t_min   0.896
_shelx_estimated_absorpt_t_max   0.946
_shelx_hkl_file
;
  -7   3  -4   29.84    3.18   0
  -7   5   0   35.09    3.92   0
  -6   2  -5   41.84    3.04   0
  -6   3  -4    0.32    3.18   0
  -6   5   2    5.49    4.96   0
  -5   0  -6   88.38    3.66   0
  -5   2  -5  131.12    3.62   0
  -5   2  11  145.22    4.78   0
  -5   3  -4   69.44    2.96   0
  -5   3   9   47.20    4.11   0
  -5   4  -2 1015.19    7.50   0
  -4   0  -6  500.52    5.77   0
  -4   4   1    1.78    4.43   0
  -4   4   2  653.44   12.77   0
  -3  -1  -6   13.14    2.76   0
  -3   1  -5    3.19    2.78   0
  -2  -5  -6  137.51    3.93   0
  -2  -4  -6    1.87    3.09   0
  -2  -3  -6    2.74    3.07   0
  -2  -2  12  329.93    4.28   0
  -2   0  -5  303.48    4.48   0
  -2   1  -4 2226.57   10.67   0
  -2   2  -2   13.59    3.45   0
  -1  -2  -5  732.18    6.36   0
   0  -6  12  495.17    4.94   0
   0  -3   9  261.35    3.85   0
   0   0   2 3733.32   20.39   0
   1  -9  -2   70.69    5.67   0
   1  -6  -3   44.02    4.25   0
   1  -5  -3   18.63    3.79   0
   1  -3   6  384.04    4.65   0
   1  -2   3 2521.25   12.45   0
   2  -7   7 1226.97    7.34   0
   2  -6   6  701.29    5.89   0
  -8   5   0   74.70    4.10   0
  -4  -1  -6    2.07    3.16   0
  -4   3  -3 1836.68    9.08   0
  -3  -2  -6  171.31    4.04   0
  -3   3   5   58.96    4.78   0
  -2  -1  11   22.68    2.68   0
  -2   2   5  180.25    4.98   0
  -1  -6  -5    9.96    3.77   0
  -1  -1   9 1269.15    7.30   0
  -1   0   7  269.79    3.93   0
   0  -7  -4    5.35    3.64   0
   0  -3  -4  153.97    4.06   0
   0  -2   8  281.05    4.42   0
   0  -1   6   61.24    2.97   0
   1  -6  10  591.01    5.21   0
   1  -5   9    2.96    2.60   0
   2  -8   8    0.77    2.45   0
  -7   4  -2   18.99    3.29   0
  -7   5   1   25.01    4.17   0
  -7   5   5    1.59    7.19   0
  -6   1  -5  225.07    4.55   0
  -6   4  -2  708.72    6.64   0
  -4  -2  -6  319.46    5.29   0
  -4   1  -5  278.87    4.86   0
  -4   2  -4  375.22    5.37   0
  -3  -4  -6    1.93    2.82   0
  -3  -3  -6   68.46    3.48   0
  -3   1  10  597.56    5.94   0
  -3   2   8  109.74    4.14   0
  -3   3  -1 1564.42   11.01   0
  -2  -1  -5 2709.93   11.86   0
  -2   1   8  111.44    3.68   0
  -1  -5  -5   66.62    3.51   0
  -1  -3  -5 1373.29    8.30   0
   0   0   3 2589.98   14.12   0
   1  -7  11  247.39    3.76   0
   1  -4   8 2617.79    9.58   0
   1  -2   4 3327.36   12.88   0
   2  -9   9  577.83    5.51   0
   2  -5   5  552.04    5.29   0
  -8   5   1   67.59    4.35   0
  -5   1  -5   40.80    3.12   0
  -5   3  -3   53.97    3.42   0
  -5   4  -1  139.43    4.32   0
  -5   4   7    2.31    5.46   0
  -4   2  10  112.95    3.97   0
  -3   0  -5    2.39    2.64   0
  -3   2  -3  298.11    4.84   0
  -2   0  10  671.76    5.99   0
  -1  -4  -5  357.62    4.69   0
  -1  -3  12  206.75    3.59   0
  -1  -2  11  108.44    3.52   0
  -1  -1  -4  464.88    5.45   0
  -1   0  -3 1334.94    9.21   0
  -1   1   5 3610.17   14.64   0
   0  -6  -4   34.04    3.71   0
   0  -5  -4   32.41    3.74   0
   0  -5  12   57.93    2.92   0
   0  -4  -4  465.56    6.04   0
   0  -4  11    5.29    2.55   0
   0  -3  10  147.67    3.61   0
   1  -3   7  189.23    3.94   0
   2  -8   9   33.66    3.29   0
   2  -7   8   73.93    3.12   0
   2  -6   7  987.25    6.56   0
   2  -4   2  862.72    8.62   0
   2  -4   3 2122.23   11.26   0
  -7   3  -3   29.97    3.30   0
  -7   5   2   10.02    4.57   0
  -6   2  -4  220.62    4.11   0
  -6   3  -3  187.80    4.40   0
  -5   2  -4   18.77    2.80   0
  -4   0  -5    5.95    3.41   0
  -4   3   8  240.66    6.01   0
  -3   0  12  308.91    4.67   0
  -3   1  -4  431.40    5.70   0
  -2  -2  -5 4821.39   16.35   0
  -1   0   8  841.16    6.39   0
   0  -1   7 1552.17    8.12   0
   0   0   4 6745.21   20.15   0
   1  -6  11   57.47    3.27   0
   1  -5  10    9.54    3.08   0
   1  -2   5 2912.38   11.46   0
   2  -5   6 1298.15    7.17   0
  -8   4  -1   -3.71    3.40   0
  -8   5   2   39.21    4.36   0
  -6   4  -1  103.32    4.02   0
  -5   0  -5    7.77    2.88   0
  -5   3  10   22.61    4.39   0
  -4   3  -2  135.43    3.81   0
  -3  -1  -5  445.19    5.58   0
  -2  -5  -5  338.95    4.92   0
  -2  -1  12   -0.43    3.34   0
  -2   0  -4  878.48    7.34   0
  -2   1  -3 3940.58   14.69   0
  -2   2  -1 1535.82   12.01   0
  -2   2   6  205.03    4.86   0
  -1  -1  10  217.71    4.10   0
  -1   1  -1  215.95    6.61   0
   0  -2  -3    2.91    3.38   0
   0  -2   9   35.14    2.93   0
   0  -1  -2 2267.21   15.22   0
   1  -8  -2  157.36    6.24   0
   1  -4   9    0.45    2.58   0
   2  -7   9  553.21    5.40   0
   2  -6   8  786.82    6.09   0
   2  -4   1  776.56    9.65   0
   2  -4   4  882.06    6.91   0
  -7   4  -1   22.47    3.32   0
  -7   5   3  197.99    6.71   0
  -7   5   4   34.63    5.90   0
  -6   4   9   65.53    6.19   0
  -5  -1  -5  118.91    4.03   0
  -5   4   0  172.07    5.10   0
  -4  -1  -5    6.48    3.13   0
  -4   1  -4   18.14    3.40   0
  -3   3   0 1015.21   10.62   0
  -3   3   6   21.52    4.41   0
  -2  -4  -5  465.16    5.72   0
  -2  -3  -5  422.79    5.61   0
  -1  -7  -4   35.01    4.20   0
  -1  -2  -4 1907.72    9.61   0
  -1   1   6 1626.29    9.44   0
   0  -8  -3  339.15    6.40   0
   0  -4  12  687.41    5.60   0
   1  -3   8   73.41    3.35   0
   2  -5   7  277.54    3.97   0
   2  -4   5  765.89    6.15   0
  -8   5   3   86.14    5.26   0
  -7   2  -3   60.98    3.63   0
  -7   3  -2    6.03    3.36   0
  -6   1  -4    5.10    2.93   0
  -5  -2  -5   31.05    3.35   0
  -5   1  -4   43.43    3.24   0
  -5   3  -2   97.19    3.58   0
  -4  -2  -5   -2.30    3.22   0
  -4   2  -3  374.58    4.71   0
  -3  -5  -5  150.64    5.09   0
  -3  -4  -5    9.56    3.36   0
  -3  -3  -5   69.44    3.60   0
  -3  -2  -5   69.87    3.57   0
  -3   1  11    5.36    3.12   0
  -3   2   9   15.59    3.16   0
  -2   0  11    2.42    2.88   0
  -2   1   9  213.21    4.12   0
  -1  -2  12  348.23    4.68   0
   0  -3  11  405.12    4.40   0
   0   0   5 3960.77   14.12   0
   1  -5  11  208.10    3.95   0
   1  -4  -2    7.30    4.15   0
   1  -2   6    4.38    2.44   0
   3 -10   5  318.60    6.07   0
   3  -9   4    5.19    3.97   0
   3  -9   5  690.79    7.08   0
  -8   4   0  137.51    4.50   0
  -8   5   4  280.95    8.12   0
  -7   5   7    0.12    2.55   0
  -6   2  -3    5.65    3.05   0
  -6   3  -2    6.43    3.27   0
  -5   2  -3   52.34    3.73   0
  -4  -3  -5    1.53    2.70   0
  -4   2  11    2.20    3.15   0
  -3   0  -4 1165.43    9.02   0
  -2  -1  -4   71.14    3.31   0
  -1  -6  -4  352.34    5.20   0
  -1  -3  -4  583.19    6.01   0
  -1   0   9 1184.50    7.33   0
   0  -2  10   13.29    2.44   0
   0  -1   8   22.56    2.64   0
   1  -4  10  615.60    5.17   0
   2  -7  10   -1.24    2.56   0
   2  -6   9   16.50    2.67   0
   2  -5   8  417.54    4.59   0
   2  -4   6  804.45    5.93   0
   3 -10   4   30.79    4.54   0
   3 -10   6   81.78    3.69   0
   3  -9   6    9.53    3.16   0
   3  -8   4  202.74    4.71   0
   3  -8   5  204.68    4.42   0
   3  -8   6  680.61    6.30   0
  -7   4   0    4.34    3.22   0
  -6   0  -4    0.37    2.86   0
  -6   4   0  113.92    3.97   0
  -4   3  -1   43.60    3.26   0
  -4   3   9   67.37    4.40   0
  -4   4   5   24.50    7.05   0
  -3   2  -2    1.88    2.90   0
  -2   2   7  809.69    7.38   0
  -1  -5  -4  167.87    4.38   0
  -1  -4  -4 2556.01   11.43   0
  -1  -1  11  467.67    4.77   0
   0  -7  -3   68.78    4.39   0
   0  -3  -3 2216.11   12.20   0
   0   0   6 1310.95    8.04   0
   1  -7  -2    4.34    4.39   0
   1  -3   9   20.53    2.63   0
   1  -2   7  137.60    3.51   0
   3  -9   3  446.58    7.67   0
   3  -9   7  181.59    4.20   0
   3  -8   3  398.65    6.96   0
   3  -8   7   47.92    3.17   0
   3  -7   4    6.70    3.32   0
   3  -7   5   60.79    3.38   0
  -8   3  -1   73.98    3.52   0
  -7   1  -3   69.37    3.25   0
  -6  -1  -4    1.97    2.77   0
  -5   0  -4  196.08    4.12   0
  -5   4   1   98.42    4.87   0
  -5   4   8   96.68    6.04   0
  -4   0  -4  897.26   10.16   0
  -3   1  -3 1538.12    9.66   0
  -2  -6  -4  175.27    4.41   0
  -1  -1  -3 1282.15    9.32   0
  -1   1   7  169.47    3.74   0
   0  -3  12   15.37    2.67   0
   1  -1   3   61.40    3.17   0
   1  -1   4 1539.45    9.11   0
   2  -6  10  150.26    3.36   0
   2  -5   9  974.32    6.43   0
   2  -4   7  159.70    3.47   0
   2  -3   3 2001.76   11.09   0
   2  -3   4   56.01    3.40   0
   3  -9   8   20.78    3.20   0
   3  -7   3  189.94    5.14   0
   3  -7   6  100.85    3.71   0
  -8   4   1    0.21    3.80   0
  -7   2  -2  221.87    4.85   0
  -7   3  -1  165.41    4.64   0
  -6   1  -3  649.71    6.36   0
  -5  -1  -4   19.38    2.79   0
  -3  -1  -4  111.21    3.94   0
  -3   2  10    8.92    3.04   0
  -3   3   7  257.88    5.63   0
  -2  -2  -4  742.78    7.38   0
  -2   0  -3   28.89    2.99   0
  -2   0  12  191.73    4.11   0
  -2   1  -2  824.71    7.45   0
  -2   1  10    1.68    2.61   0
  -1  -8  -3   55.83    4.12   0
  -1   0  -2 1658.13   11.56   0
   0  -9  -2   14.95    4.58   0
   0  -6  -3  229.29    5.02   0
   0  -4  -3  134.04    4.34   0
   0  -2  11    3.76    2.99   0
   0  -1   9 1014.90    6.33   0
   1  -6  -2  190.51    5.88   0
   1  -5  -2  523.55    8.45   0
   1  -4  11  158.44    3.38   0
   1  -2   8 1986.09    8.87   0
   1  -1   2    7.23    3.18   0
   2  -3   2  471.97    6.89   0
   2  -3   5 3109.33   11.45   0
   3 -10   3  120.14    6.00   0
   3  -8   8  121.34    3.77   0
   3  -7   7  695.72    6.00   0
   3  -6   4  352.71    5.56   0
   3  -6   5   21.09    3.43   0
  -7   4   1    6.96    3.47   0
  -6   3  -1  770.51    6.80   0
  -6   4   1  249.01    5.55   0
  -5  -3  -4    2.73    2.95   0
  -5  -2  -4   10.48    2.90   0
  -5   1  -3  892.25    6.78   0
  -5   3  -1    6.23    2.95   0
  -4  -1  -4 1428.56    9.66   0
  -4   1  -3  743.11    6.75   0
  -4   2  -2 1800.68    9.73   0
  -3  -2  -4  433.97    7.88   0
  -3   3   1  423.91    9.14   0
  -2  -5  -4   83.72    3.67   0
  -2  -4  -4    2.37    3.05   0
  -2  -3  -4  468.38    5.11   0
  -2   2   8  454.68    5.83   0
  -1  -1  12  101.66    3.77   0
  -1   0  10   13.38    2.70   0
   0  -5  -3  156.83    4.71   0
   0   0   7   87.49    3.06   0
   1  -9  -1  167.91    6.93   0
   1  -3  10  146.07    3.34   0
   1  -1   5   25.10    2.76   0
   2  -4   8  113.73    3.33   0
   2  -3   6   48.08    3.14   0
   3  -8   2    0.43    4.87   0
   3  -8   9   97.87    3.66   0
   3  -7   2  357.63    7.36   0
   3  -7   8   87.98    3.47   0
   3  -6   3  350.16    5.86   0
   3  -6   6 3091.34   11.42   0
  -8   2  -1   11.98    3.62   0
  -8   3   0   34.86    3.69   0
  -6   0  -3  567.73    5.97   0
  -6   2  -2  377.95    4.74   0
  -5   2  -2  797.81    6.59   0
  -4  -4  -4  371.51    5.47   0
  -4  -3  -4  128.50    3.90   0
  -4  -2  -4  297.56    4.50   0
  -4   4   6  249.98    8.77   0
  -3  -5  -4   10.26    2.82   0
  -3  -4  -4  112.23    3.91   0
  -3  -3  -4  179.07    4.22   0
  -2   2   0   39.14    4.76   0
  -1  -7  -3   37.00    3.81   0
  -1   1   8   17.62    2.59   0
   0  -1  10    1.60    3.04   0
   1  -1   6  754.93    5.87   0
   2  -5  10   55.34    2.84   0
   3  -6   7  213.80    4.26   0
  -8   4   2   37.28    4.11   0
  -7   1  -2    1.39    3.20   0
  -5   4   2  405.73    7.72   0
  -4   3  10   88.29    4.41   0
  -3   0  -3  174.01    4.04   0
  -3   3   8   24.34    3.93   0
  -2   1  11  214.60    4.34   0
  -1  -2  -3  494.19    6.01   0
   0  -2  12  254.89    4.21   0
   0   0   8  374.73    4.91   0
   1  -2   9  184.32    3.63   0
   2  -4   9  215.72    3.66   0
   2  -3   7  530.83    5.05   0
   3  -9   2   84.25    6.03   0
   3  -7   9  315.22    4.67   0
  -7   3   0   26.89    3.54   0
  -6  -1  -3   95.92    3.83   0
  -5   0  -3   23.32    2.91   0
  -5   4   9   25.94    5.25   0
  -4   0  -3   15.68    3.00   0
  -4   3   0  673.11    7.52   0
  -3   2  -1  150.93    4.84   0
  -3   2  11   48.06    3.51   0
  -2  -7  -3   16.75    3.94   0
  -2  -1  -3   16.95    2.99   0
  -1   0  11   24.88    2.83   0
  -1   1   9    3.36    2.93   0
  -1   2   4  634.61    7.61   0
   0  -8  -2  470.27    7.31   0
   0  -2  -2  247.65    5.64   0
   1  -3  11  401.27    4.45   0
   1  -1   1  205.84    6.49   0
   1  -1   7  946.65    6.43   0
   2  -4   0  563.47   12.29   0
   3  -6   2  818.70    8.75   0
   3  -6   8    4.55    2.52   0
   3  -5   4   -1.81    2.92   0
   3  -5   5 1110.86    7.30   0
   3  -5   6  248.68    4.29   0
  -7   0  -2  198.51    4.46   0
  -7   2  -1   15.21    3.03   0
  -7   4   2   83.49    4.39   0
  -6  -2  -3   -4.44    2.87   0
  -6   1  -2   10.02    2.86   0
  -3   1  -2  405.65    5.21   0
  -2   2   9  119.17    3.87   0
  -1  -6  -3  213.07    4.52   0
  -1  -3  -3 1438.18    9.03   0
  -1   2   3   57.62    4.45   0
  -1   2   5  299.77    5.46   0
   0  -1  11  247.41    4.29   0
   1  -2  10  565.26    5.29   0
   2  -4  10  300.86    4.18   0
   2  -3   1  239.94    5.92   0
   2  -3   8    0.51    2.48   0
   3  -5   3  510.53    5.92   0
   3  -5   7 1131.37    6.88   0
  -8   3   1   34.87    3.58   0
  -6   2  -1   72.35    3.63   0
  -6   3   0   48.65    3.57   0
  -6   4   2  276.19    6.18   0
  -5  -1  -3  423.34    5.42   0
  -5   1  -2   46.45    3.51   0
  -5   3   0   53.34    3.53   0
  -4  -1  -3  881.75    8.32   0
  -4   4   7  109.04    6.58   0
  -3  -1  -3  564.31    6.65   0
  -2  -6  -3    2.16    3.44   0
  -1  -5  -3 1483.08    9.13   0
  -1  -4  -3  220.12    4.45   0
   0   0   9   36.62    2.90   0
   0   1   3 3410.50   16.40   0
   0   1   4    5.26    2.98   0
   0   1   5  437.77    5.57   0
   1  -1   8  940.36    6.52   0
   2  -2   4 4187.64   14.11   0
   2  -2   5  327.55    4.42   0
   3  -6   9   14.66    2.75   0
  -8   2   0   61.72    3.68   0
  -8   4   3   44.00    4.55   0
  -7  -1  -2   24.55    3.10   0
  -5  -4  -3   -0.15    2.81   0
  -5  -3  -3   80.93    3.33   0
  -5  -2  -3   71.80    3.18   0
  -5   2  -1  103.20    3.48   0
  -4  -5  -3   79.79    4.09   0
  -4   1  -2   33.43    2.75   0
  -4   2  -1  218.80    4.46   0
  -3  -6  -3   18.75    3.22   0
  -3   3   9   27.76    3.73   0
  -2  -2  -3   53.90    2.91   0
  -2   3   4   27.51    4.58   0
  -2   3   5  407.80    7.05   0
  -1   1  10   27.34    3.12   0
  -1   2   6  885.92    7.65   0
   0   1   6 1017.38    7.22   0
   2  -4  11    0.22    3.29   0
   2  -3   9   33.73    2.78   0
   2  -2   3  189.09    4.33   0
   2  -2   6  768.59    6.03   0
   3  -5   8   16.93    2.68   0
   3  -4   5  259.50    4.19   0
  -7   1  -1   36.49    3.24   0
  -6   0  -2  797.29    6.77   0
  -4  -4  -3   71.61    3.83   0
  -4  -3  -3   16.30    3.18   0
  -4  -2  -3  293.98    4.61   0
  -3  -5  -3  247.81    4.58   0
  -3  -2  -3  512.73    5.43   0
  -2  -5  -3   82.38    3.53   0
  -2  -4  -3   23.97    3.31   0
  -2  -3  -3  249.92    4.25   0
  -2   0  -2 1645.74   10.33   0
  -2   2  10  296.13    4.85   0
  -1  -8  -2  177.31    5.17   0
  -1  -1  -2   12.05    3.29   0
  -1   2   7    1.82    3.14   0
   0  -7  -2    9.59    3.89   0
   0   0  10  133.09    3.68   0
   1 -10   0   11.72    5.94   0
   1  -8  -1  116.74    6.15   0
   1  -2  11   70.20    3.17   0
   1  -1   9   22.73    2.64   0
   2  -2   7    4.09    2.59   0
   3 -10   2    0.97    6.74   0
   3  -5   2   18.13    3.29   0
   3  -5   9  546.98    5.05   0
   3  -4   4   29.27    2.55   0
   3  -4   6  402.01    4.69   0
   4  -9   6    2.95    3.24   0
  -8   1   0   11.78    3.64   0
  -7   2   0  228.34    5.36   0
  -7   3   1    5.01    3.35   0
  -7   4   3  100.14    4.85   0
  -6  -1  -2  161.84    3.88   0
  -5   0  -2  163.53    4.59   0
  -5   4   3   91.92    6.15   0
  -4   4   8  303.44    7.71   0
  -3  -4  -3   32.15    3.27   0
  -3  -3  -3  946.00    9.26   0
  -2   1  -1 3949.86   17.42   0
  -2   3   6  401.72    6.51   0
   0  -3  -2 1808.07   12.67   0
   0   1   7  830.25    6.37   0
   1   0   4 2519.85   11.49   0
   1   0   5 1839.98    9.28   0
   1   0   6   45.83    3.14   0
   2  -3  10    6.63    2.69   0
   2  -2   2   14.08    3.47   0
   2  -2   8  587.56    5.65   0
   3  -7   1  688.59   11.56   0
   3  -4   3  144.91    3.94   0
   3  -4   7    3.75    2.71   0
   4  -9   5   99.23    4.28   0
   4  -8   5  194.77    4.60   0
   4  -8   6  640.89    6.28   0
   4  -8   7  113.59    3.48   0
  -8   3   2   33.24    3.89   0
  -8   4   4  513.71    8.63   0
  -7   0  -1  161.92    4.02   0
  -6  -3  -2   40.91    3.41   0
  -6  -2  -2   42.99    3.14   0
  -6   1  -1   86.38    3.85   0
  -4   0  -2   37.02    3.35   0
  -3   0  -2 1103.82    8.25   0
  -3   3  10   51.90    4.18   0
  -2   3   7  972.93    8.77   0
  -1   1  11  543.61    5.64   0
  -1   2   8   18.58    3.35   0
   0  -9  -1   41.68    4.91   0
   0  -6  -2 1285.29   10.13   0
   0  -1  -1 1574.48   16.77   0
   0   1   2 2123.96   15.20   0
   1  -1  10    9.73    3.12   0
   1   0   3 1305.74    9.15   0
   1   0   7  111.27    3.64   0
   3  -8   1  128.08    8.61   0
   3  -6   1  714.27   10.18   0
   3  -5  10   80.19    3.14   0
   3  -4   8   29.24    2.77   0
   4  -7   5  231.05    4.66   0
   4  -7   6  320.86    4.97   0
   4  -7   7  273.09    4.66   0
  -8   0   0   73.93    4.00   0
  -8   2   1    3.32    2.97   0
  -7  -1  -1  263.08    4.81   0
  -6   3   1  233.24    4.80   0
  -6   4   3  905.49   10.49   0
  -5  -1  -2  266.51    4.68   0
  -4   3   1  225.04    5.88   0
  -2   2  11   58.65    3.65   0
  -2   3   3  153.17    8.00   0
  -1  -7  -2  344.76    5.52   0
  -1   2   2  353.35    9.15   0
   0   0  11   35.62    3.69   0
   0   1   8  102.20    3.30   0
   2  -2   9    8.10    2.68   0
   3  -4   9  152.21    3.64   0
   4  -9   4   46.24    4.12   0
   4  -8   4  224.78    5.04   0
   4  -7   4   78.23    4.10   0
   4  -7   8    6.62    2.91   0
  -7  -2  -1    4.96    3.38   0
  -6   2   0   60.06    3.45   0
  -5  -4  -2  102.02    3.84   0
  -5  -2  -2  730.36    6.50   0
  -5   1  -1  652.75    6.60   0
  -5   3   1  374.29    5.94   0
  -4  -6  -2   15.02    3.53   0
  -4   4   9  168.62    6.04   0
  -3  -7  -2   86.42    3.81   0
  -3   2   0  566.19    7.67   0
  -2  -7  -2  295.72    5.23   0
  -2   3   8  185.15    4.84   0
  -1   0  -1 6641.53   26.78   0
   0  -5  -2   46.06    3.74   0
   0  -4  -2  962.69    8.98   0
   0   1   9  558.41    5.78   0
   1   0   8   10.04    2.61   0
   2  -1   4 2251.83   10.57   0
   2  -1   5 1073.47    7.31   0
   2  -1   6   68.12    3.55   0
   3  -4   2    0.47    3.01   0
   3  -3   4 1132.09    7.34   0
   3  -3   5   48.32    2.84   0
   3  -3   6   63.96    3.11   0
   3  -3   7 1362.93    7.72   0
   4 -10   4    1.60    4.71   0
   4  -6   5  449.35    5.53   0
   4  -6   6  122.69    3.59   0
   4  -6   7  101.91    3.72   0
  -7   1   0    6.23    2.91   0
  -7   3   2    1.62    3.75   0
  -7   4   4   66.93    5.80   0
  -6   0  -1    2.46    2.80   0
  -5  -3  -2    1.27    2.74   0
  -5   2   0   74.98    3.79   0
  -4  -1  -2    8.54    2.93   0
  -4   1  -1  170.33    4.27   0
  -3  -1  -2   94.66    3.87   0
  -3   1  -1  558.48    6.46   0
  -2  -1  -2   -0.59    2.74   0
  -1  -9  -1  170.07    5.13   0
  -1  -2  -2  170.62    4.82   0
  -1   2   9  293.40    4.84   0
   1  -1  11  212.85    3.93   0
   1   0   2 1699.67   11.64   0
   2  -2  10  278.60    4.30   0
   2  -1   7  577.30    5.76   0
   3  -4  10  176.92    4.02   0
   3  -3   8  189.31    4.13   0
   4  -6   4  173.84    4.17   0
   4  -6   8  620.46    5.75   0
  -8   1   1   39.96    3.43   0
  -8   3   3    4.83    3.88   0
  -8   4   5  191.44    6.62   0
  -7   2   1   41.89    3.80   0
  -4  -5  -2    5.20    2.79   0
  -4  -2  -2  106.55    3.82   0
  -4   2   0  980.65    8.20   0
  -3  -6  -2   55.77    3.16   0
  -3   3   2  145.92    8.19   0
  -1  -6  -2  331.07    5.25   0
   1  -7  -1  361.06    7.76   0
   1   0   9   -2.30    2.75   0
   2  -1   3 4052.86   14.61   0
   2  -1   8   92.03    3.53   0
   3  -5   1 2224.18   15.29   0
   3  -3   3 2679.82   11.69   0
   4  -8   3   71.26    4.71   0
   4  -7   3    9.40    3.35   0
   4  -5   5  386.12    5.04   0
   4  -5   6   52.42    3.54   0
   4  -5   7   70.86    3.42   0
  -8   2   2  125.18    4.38   0
  -7   0   0  232.87    4.25   0
  -6  -4  -1   -1.05    3.27   0
  -6  -2  -1   34.82    3.53   0
  -6  -1  -1   92.28    3.38   0
  -5   0  -1   26.41    3.28   0
  -4  -4  -2   57.86    3.10   0
  -4  -3  -2   45.97    3.21   0
  -3  -5  -2  156.78    4.11   0
  -3  -2  -2  965.45    8.21   0
  -2  -6  -2   51.78    3.75   0
  -2  -2  -2 1462.39   10.82   0
  -2   3   9  893.59    7.49   0
  -1  -5  -2   72.07    4.18   0
  -1  -3  -2  347.95    5.37   0
  -1   2  10  219.25    4.55   0
   0   1  10   75.91    3.37   0
   2  -2   1 2176.42   14.07   0
   3  -3   9  509.57    5.38   0
   4  -9   3   31.81    4.47   0
   4  -5   8   77.15    3.60   0
  -8   0   1    1.57    3.40   0
  -6  -3  -1   53.69    3.21   0
  -6   1   0    7.22    2.62   0
  -6   3   2  370.08    6.34   0
  -6   4   4   17.05    5.12   0
  -5   4   4   29.92    6.14   0
  -3  -4  -2 1373.02    8.26   0
  -3  -3  -2   29.60    3.06   0
  -3   4   6  907.81   11.69   0
  -3   4   7  672.14    9.56   0
  -2  -5  -2  196.39    4.35   0
  -1  -4  -2    5.30    2.74   0
   0  -8  -1   24.32    4.49   0
   1   0  10  605.14    5.73   0
   2  -1   9   59.52    3.01   0
   3  -2   5  273.55    4.52   0
   3  -2   6  923.30    6.95   0
   4  -6   3  372.55    5.59   0
   4  -5   4  274.74    4.62   0
  -8  -1   1   13.79    3.50   0
  -7  -3   0   36.60    3.79   0
  -7  -2   0  273.78    4.97   0
  -7  -1   0    0.34    2.89   0
  -6   2   1  294.83    5.05   0
  -5  -5  -1   56.82    3.73   0
  -5  -1  -1  588.03    6.07   0
  -4   0  -1    4.48    2.95   0
  -3   4   5  351.26    9.63   0
  -3   4   8   30.90    5.36   0
  -2  -8  -1   37.71    4.05   0
  -2  -4  -2   48.93    3.28   0
  -2  -3  -2  238.06    4.56   0
  -2   3  10    8.59    3.81   0
  -1  -8  -1   21.50    3.77   0
   0   2   5  396.99    5.50   0
   0   2   6 2251.72   10.71   0
   0   2   7  117.05    3.91   0
   1   1   5 1718.87    9.25   0
   1   1   6   40.35    2.77   0
   1   1   7   10.65    2.99   0
   2  -3   0   78.79    5.70   0
   3  -3   2  743.67    7.24   0
   3  -2   4   88.53    3.34   0
   3  -2   7  395.53    4.83   0
   4  -4   6  418.05    4.88   0
   4  -4   7   -1.49    2.95   0
  -8   1   2    9.18    3.64   0
  -8   4   6   44.11    5.41   0
  -7   1   1   18.95    3.09   0
  -7   3   3  172.38    5.19   0
  -7   4   5    0.18    4.99   0
  -6   0   0  129.28    4.00   0
  -5  -4  -1   75.15    3.62   0
  -5  -2  -1    2.02    3.05   0
  -5   1   0  244.48    4.41   0
  -3   0  -1  275.71    5.25   0
  -2   0  -1 1864.47   11.56   0
  -1   3   6 1011.69    8.74   0
   0   2   4  178.53    4.39   0
   0   2   8 1427.86    8.57   0
   1  -9   0    1.73    5.33   0
   1  -6  -1   18.63    4.65   0
   1   1   4  435.61    5.39   0
   1   1   8  500.14    5.50   0
   2  -1   2  782.52    7.32   0
   2  -1  10   26.81    3.01   0
   2   0   6  583.11    5.94   0
   3  -4   1  279.72    6.03   0
   3  -2   8   17.52    2.86   0
   4 -10   3    3.43    5.08   0
   4  -5   3  336.51    5.33   0
   4  -4   5   41.80    2.94   0
   4  -4   8   59.45    3.15   0
  -8   2   3    5.08    3.61   0
  -8   3   4    5.21    3.76   0
  -7   2   2  353.56    5.76   0
  -5  -3  -1  603.08    5.81   0
  -5   3   2  581.69    7.68   0
  -4  -6  -1  225.78    4.44   0
  -3  -7  -1  142.46    4.22   0
  -3   4   9   66.67    5.06   0
  -1   3   5 1923.56   11.83   0
  -1   3   7   73.98    4.16   0
   1  -4  -1 1985.11   18.88   0
   2   0   5  299.79    4.31   0
   2   0   7    7.87    2.86   0
   3  -2   3  284.18    4.46   0
   3  -2   9   -1.49    2.65   0
   4  -7   2  223.34    5.99   0
   4  -4   4  836.16    6.52   0
   5  -8   6  207.48    4.23   0
   5  -7   7   27.24    3.42   0
  -7   0   1   93.45    3.78   0
  -6  -1   0   12.98    3.30   0
  -5   2   1  204.02    4.64   0
  -4  -5  -1   47.10    3.51   0
  -4  -1  -1  469.50    5.60   0
  -4   3   2 2510.83   17.17   0
  -2  -7  -1  301.07    5.68   0
  -1   3   8  119.04    4.38   0
   0  -7  -1  121.28    4.66   0
   0   2   9    0.26    3.01   0
   1  -5  -1 4253.56   23.73   0
   1   1   3 1236.75    9.36   0
   1   1   9  347.99    4.72   0
   2   0   4  929.22    7.14   0
   2   0   8  376.95    5.13   0
   4  -8   2  665.32    9.85   0
   4  -6   2  225.36    5.39   0
   5  -8   5   72.77    3.94   0
   5  -7   6   43.21    3.10   0
  -8   0   2   66.11    3.48   0
  -6  -4   0   28.99    3.03   0
  -6  -3   0   12.06    3.56   0
  -6  -2   0   12.49    2.84   0
  -6   1   1  450.66    6.02   0
  -4  -4  -1   54.05    3.57   0
  -4  -2  -1  109.66    4.06   0
  -4   1   0 1091.66    8.25   0
  -3  -6  -1  221.08    4.75   0
  -1  -7  -1  168.76    5.31   0
  -1   3   4  777.70    8.79   0
  -1   3   9   12.90    3.66   0
   0   2   3    0.14    3.84   0
   1   0   1 6744.83   27.07   0
   1   1  10  144.24    4.24   0
   2   0   9   87.81    3.42   0
   3  -1   5    6.76    3.15   0
   3  -1   6  210.38    4.09   0
   3  -1   7   41.71    3.27   0
   4  -4   3  535.83    5.96   0
   4  -3   5  350.18    4.59   0
   4  -3   6    5.25    2.68   0
   4  -3   7  102.29    3.38   0
   4  -3   8    3.33    3.21   0
   5  -7   5 1419.69    8.61   0
   5  -6   6  255.65    4.69   0
   5  -6   7   13.99    2.93   0
  -8  -1   2   10.93    3.09   0
  -7  -2   1   24.70    3.57   0
  -7  -1   1   82.40    3.36   0
  -6   3   3 2872.41   15.46   0
  -6   4   5   35.67    5.81   0
  -5  -6   0  140.93    3.94   0
  -5   0   0   18.89    2.88   0
  -4  -3  -1   14.95    2.72   0
  -4   2   1 1901.70   12.34   0
  -3  -1  -1   52.10    3.08   0
  -3   1   0 2494.24   13.62   0
  -2   1   0 5321.61   23.68   0
  -1  -1  -1 1053.52   10.18   0
   0   2  10  371.05    5.21   0
   2   0   3   35.04    2.88   0
   3  -1   4  496.28    5.57   0
   3  -1   8   11.69    2.75   0
   4  -5   2  246.67    5.42   0
   4  -3   4   60.45    3.27   0
   5  -8   4   43.79    4.02   0
   5  -7   4  134.69    4.56   0
   5  -6   5   46.50    3.47   0
  -8   1   3  238.13    5.14   0
  -8   3   5  132.29    5.32   0
  -7  -3   1  364.63    5.04   0
  -7   1   2  239.04    4.69   0
  -7   3   4  105.34    4.93   0
  -7   4   6  154.28    6.82   0
  -6   2   2   14.16    3.46   0
  -4  -7   0   40.04    3.72   0
  -3  -8   0  137.17    4.35   0
  -3  -5  -1  442.66    5.40   0
  -2  -6  -1   11.27    3.14   0
  -2  -1  -1 1279.35    9.50   0
  -1  -9   0   18.94    4.02   0
  -1   3  10   39.77    4.04   0
   0  -9   0    4.79    3.69   0
   0  -2  -1  380.64    7.84   0
   0   1   1 1456.29   16.49   0
   1  -1   0 1401.74   19.01   0
   3  -3   1 1603.47   11.47   0
   3  -2   2    2.80    2.87   0
   3  -1   9  370.28    5.25   0
   4  -9   2   27.84    5.62   0
   5  -9   4  146.72    5.18   0
   5  -5   6   12.50    3.28   0
   5  -5   7    4.72    2.93   0
  -8   2   4  180.91    5.06   0
  -7   2   3   11.79    3.51   0
  -6   0   1    8.47    3.33   0
  -5  -5   0  113.04    3.62   0
  -5  -1   0  158.81    3.84   0
  -3  -4  -1   13.59    3.03   0
  -3  -3  -1   59.31    3.24   0
  -3  -2  -1  144.96    4.03   0
  -3   2   1 1909.68   14.23   0
  -2   4   7 3344.68   15.98   0
  -2   4   8   75.29    4.66   0
  -1  -6  -1   11.50    3.67   0
   0  -6  -1  297.04    5.74   0
   2  -1   1 3974.51   17.65   0
   4  -3   3 1864.99    9.68   0
   4  -2   6  487.20    5.33   0
   4  -2   7   49.46    3.44   0
   5  -6   4  653.36    6.57   0
   5  -5   5  236.71    4.18   0
  -8   0   3   81.21    4.14   0
  -7   0   2   80.16    3.78   0
  -6  -5   1  174.57    4.33   0
  -5  -4   0  540.17    5.46   0
  -5  -3   0    2.63    2.89   0
  -5  -2   0  168.29    3.79   0
  -5   1   1 1211.74    8.19   0
  -4  -6   0  263.84    4.81   0
  -4   0   0  983.07    8.83   0
  -2  -5  -1 1542.13    9.18   0
  -2   4   6  295.76    6.44   0
   1   1   2   13.26    3.29   0
   1   2   5  585.65    6.10   0
   1   2   6  248.63    4.23   0
   1   2   7   84.72    3.31   0
   1   2   8   60.90    3.53   0
   2   1   5 2632.43   11.90   0
   2   1   6   63.82    3.04   0
   2   1   7 1114.96    7.99   0
   2   1   8    7.83    3.25   0
   3  -1   3 1708.86    9.35   0
   4  -4   2  810.49    7.32   0
   4  -2   5   26.51    2.91   0
   4  -2   8   59.32    3.23   0
   5  -5   4   52.21    3.57   0
   5  -4   6  552.65    6.21   0
   5  -4   7  135.83    4.07   0
  -6  -1   1  224.76    4.56   0
  -3  -7   0    1.40    3.09   0
  -2  -8   0  110.50    3.97   0
  -2  -4  -1   57.73    3.11   0
  -2  -2  -1  678.72    7.44   0
  -2   4   9   18.73    3.48   0
  -1  -5  -1   21.94    3.40   0
  -1  -2  -1 3844.22   17.41   0
   0  -5  -1   59.72    4.19   0
   0   3   6 5548.41   17.89   0
   0   3   7   60.20    3.62   0
   1   2   9    4.15    3.37   0
   2  -7   0  119.57    8.72   0
   2   0   2 1612.79   10.13   0
   2   1   9  204.40    4.73   0
   3   0   6   30.73    3.26   0
   3   0   7  236.10    4.91   0
   4  -2   4  437.32    5.13   0
   5  -8   3    8.78    4.12   0
   5  -7   3  156.32    4.85   0
   5  -4   5   -0.54    3.23   0
  -8  -1   3   83.04    3.43   0
  -8   3   6   18.08    4.53   0
  -7  -4   2  109.72    3.95   0
  -7  -1   2  102.43    3.94   0
  -6  -4   1   17.40    2.87   0
  -6  -3   1  395.27    5.03   0
  -6  -2   1    0.82    2.78   0
  -5   3   3  238.53    6.01   0
  -5   4   5    6.89    6.58   0
  -4  -5   0   13.55    3.05   0
  -2  -3  -1  811.17    7.94   0
  -2   4   5  267.73    6.68   0
   0  -3  -1 5767.08   23.91   0
   0   3   5  432.22    5.92   0
   0   3   8   12.18    3.22   0
   1 -10   1  101.90    6.10   0
   1  -8   0  269.54    7.28   0
   1   2   4 1557.36    9.46   0
   2   1   4   67.72    2.96   0
   3   0   5    0.28    2.76   0
   3   0   8  233.56    4.49   0
   5  -6   3   10.67    3.17   0
  -8  -2   3   -0.96    2.65   0
  -8   1   4   44.83    3.76   0
  -7  -3   2    2.13    2.90   0
  -7  -2   2   18.28    2.80   0
  -7   1   3  152.70    4.45   0
  -7   4   7    1.59    5.55   0
  -6   1   2   76.45    3.78   0
  -5  -6   1    3.65    3.19   0
  -5   2   2  433.25    6.09   0
  -4  -1   0   21.41    2.95   0
  -3   0   0 1527.87   10.76   0
  -1  -8   0  210.48    4.72   0
  -1  -4  -1 1098.69    8.67   0
  -1  -3  -1  404.56    6.32   0
  -1   3   3   23.50    3.62   0
   0 -10   1  107.26    5.10   0
   0  -8   0   36.09    4.26   0
   0  -4  -1 1730.83   12.64   0
   0   3   9   78.41    3.52   0
   3  -1   2  413.21    5.50   0
   3   0   4 1383.63    8.91   0
   4  -6   1   32.11    4.61   0
   4  -3   2  130.59    3.92   0
   5  -9   3   59.66    4.89   0
   5  -5   3   68.77    3.54   0
   5  -4   4  178.73    3.85   0
   5  -3   6  127.47    3.96   0
   5  -3   7    5.86    3.21   0
  -8   2   5   27.98    3.88   0
  -7   3   5   70.72    4.88   0
  -6   3   4  910.06    9.72   0
  -5   0   1 1292.99    8.90   0
  -4  -4   0  971.64    7.22   0
  -4  -3   0   14.47    2.77   0
  -4  -2   0  433.81    5.52   0
  -3  -6   0  186.76    4.21   0
  -2  -7   0   29.78    3.43   0
   0   2   2  226.51    5.70   0
   2  -2   0   40.66    4.63   0
   2   1   3   18.70    3.08   0
   3  -2   1  152.16    4.79   0
   4  -5   1  363.20    6.49   0
   4  -2   3  347.35    4.47   0
   4  -1   5  337.96    4.95   0
   4  -1   6   22.96    2.86   0
   4  -1   7  174.30    3.94   0
   4  -1   8   69.56    3.21   0
   5  -3   5  558.97    5.39   0
   6  -7   5   40.87    3.71   0
  -8   0   4  244.55    5.22   0
  -7   2   4  219.43    5.17   0
  -6   2   3   12.01    3.61   0
  -6   4   6   57.22    6.49   0
  -5  -5   1  144.15    3.72   0
  -4  -7   1  131.97    3.82   0
  -4   1   1  681.02    7.74   0
  -2  -9   1    5.06    3.29   0
  -1   4   6  791.97    8.06   0
  -1   4   7  101.59    4.05   0
  -1   4   8  180.72    4.46   0
   0   3   4  142.85    4.17   0
   1   2   3  428.45    6.00   0
   3  -5   0  174.24    7.76   0
   3   0   3  193.15    4.34   0
   4  -7   1  256.70    7.96   0
   5  -4   3  346.97    5.19   0
   6  -6   5   11.64    3.16   0
  -7   0   3  113.42    4.07   0
  -6  -5   2    5.38    2.81   0
  -6   0   2  555.41    6.08   0
  -5  -4   1   14.30    2.94   0
  -5  -1   1   63.04    3.25   0
  -4   5   8 1175.62   15.87   0
  -3  -8   1   24.84    2.91   0
  -3  -5   0    4.49    2.97   0
  -1   4   9   69.43    3.97   0
   2   2   6   25.66    2.90   0
   2   2   7    4.14    2.60   0
   2   2   8   75.74    3.75   0
   3   1   6   15.11    3.20   0
   3   1   7  109.50    3.43   0
   4  -4   1   11.89    3.61   0
   4  -1   4   21.68    2.76   0
   5  -3   4   49.52    2.97   0
   5  -2   7    9.13    2.75   0
   6  -5   6    3.09    2.76   0
  -8  -2   4   30.63    3.53   0
  -8  -1   4   42.89    3.37   0
  -8   3   7   29.81    4.96   0
  -6  -4   2   49.79    3.60   0
  -6  -1   2  231.92    4.77   0
  -5  -7   2   13.79    3.02   0
  -5  -3   1    4.44    2.63   0
  -5  -2   1  423.88    5.32   0
  -4  -6   1   13.81    3.20   0
  -3  -1   0 3789.61   15.78   0
  -2  -6   0  106.59    4.08   0
  -2   0   0 4192.82   19.11   0
  -1  -7   0  102.58    4.04   0
   1   3   6  191.61    4.59   0
   1   3   7  117.51    3.98   0
   1   3   8   67.94    3.68   0
   2   2   5 4071.03   15.39   0
   3   1   5  343.19    5.07   0
   3   1   8   10.02    2.76   0
   4  -2   2 1816.16    9.40   0
   5  -7   2  257.59    5.83   0
   5  -6   2  152.30    4.23   0
   5  -5   2   77.46    4.03   0
   5  -2   5  121.74    3.88   0
   5  -2   6   40.96    3.06   0
   6  -7   4  112.96    4.33   0
   6  -6   4  105.22    4.14   0
   6  -5   5  189.53    3.98   0
  -8   1   5   58.82    3.78   0
  -8   2   6  201.23    5.94   0
  -7  -4   3   11.79    2.90   0
  -7  -3   3   78.74    3.47   0
  -7  -2   3    1.83    3.15   0
  -7  -1   3  208.24    4.29   0
  -6  -3   2    2.15    2.76   0
  -6  -2   2  161.91    3.84   0
  -5   1   2   52.88    3.48   0
  -4   3   3   33.82    5.02   0
  -4   5   7  290.04   12.75   0
  -3  -4   0    0.98    2.42   0
  -3  -3   0  948.24    7.64   0
  -3  -2   0   22.86    2.90   0
  -3   5   8   21.05    5.21   0
  -2   4   4  825.64   11.64   0
  -1  -9   1   40.84    3.62   0
  -1   4   5  165.22    5.00   0
   1   3   5 1170.49    8.19   0
   2   0   1 1831.18   11.53   0
   4  -1   3  738.56    6.57   0
   4   0   5   28.23    3.40   0
   4   0   6  702.50    6.22   0
   4   0   7    1.74    2.87   0
   5  -8   2   69.28    5.69   0
   5  -3   3   51.82    2.98   0
   6  -4   6   15.69    2.87   0
  -7   1   4    0.11    3.31   0
  -7   4   8  243.85    9.02   0
  -5  -6   2   90.49    3.71   0
  -4  -8   2   18.22    3.11   0
  -4  -5   1   79.04    3.60   0
  -4   0   1  274.19    5.53   0
  -3  -7   1  194.37    4.50   0
  -3   5   7  428.53    9.47   0
  -2  -8   1    5.30    3.15   0
   0  -7   0   92.26    4.73   0
   0   3   3 1995.47   12.36   0
   0   4   7   17.02    3.74   0
   0   4   8  374.73    6.34   0
   1  -7   0    4.08    4.42   0
   2  -9   1  795.37   13.01   0
   2   1   2   -2.04    2.71   0
   2   2   4  907.71    6.96   0
   3  -1   1  576.34    6.82   0
   3   0   2 1170.65    8.32   0
   3   1   4  140.40    3.85   0
   4  -3   1   55.11    3.57   0
   5  -4   2 1033.64    8.15   0
   5  -2   4   14.14    2.72   0
   6  -5   4   35.01    3.01   0
   6  -4   5    0.61    2.89   0
  -8   0   5   -1.49    3.23   0
  -7   3   6   16.15    4.42   0
  -6  -6   3   29.44    3.06   0
  -6   1   3  941.14    7.97   0
  -3   1   1  565.17    7.67   0
  -2  -5   0   45.96    3.29   0
   0  -9   1   11.19    3.63   0
   0   4   6  155.03    4.59   0
   1   1   1  993.49    9.91   0
   1   3   4  506.67    6.07   0
   3  -3   0 1368.68   12.26   0
   4   0   4 1592.26    9.27   0
   5  -1   6   73.66    3.22   0
   6  -7   3   59.85    4.59   0
   6  -6   3  114.26    4.43   0
   6  -4   4  107.78    3.92   0
   6  -3   6   17.73    3.29   0
  -7  -5   4   23.20    3.64   0
  -7   2   5  191.11    5.11   0
  -5  -5   2   21.34    3.21   0
  -5   2   3  458.19    6.82   0
  -4  -4   1    1.63    2.63   0
  -4  -1   1 1437.85    9.99   0
  -2  -1   0  761.13    8.03   0
  -2   5   8   27.58    4.31   0
  -1 -10   2  173.94    5.05   0
  -1  -6   0  301.55    5.64   0
   1  -9   1   -0.58    4.90   0
   1   2   2  152.90    4.52   0
   2   2   3   52.36    3.17   0
   3   1   3  668.25    6.54   0
   3   2   7   40.60    3.47   0
   4  -1   2   40.81    2.78   0
   5  -3   2   82.43    3.67   0
   5  -2   3   71.41    3.31   0
   5  -1   5   61.81    3.19   0
   6  -8   3   30.44    4.17   0
   6  -5   3  233.83    4.80   0
   6  -3   5  194.83    4.36   0
  -8  -3   5    8.44    3.54   0
  -8  -2   5  117.29    4.27   0
  -8  -1   5  188.41    4.34   0
  -8   1   6    8.32    3.85   0
  -7   0   4   40.43    3.14   0
  -6  -5   3   98.30    3.48   0
  -6   0   3  151.85    4.19   0
  -6   2   4  444.49    6.95   0
  -6   3   5  227.99    6.21   0
  -5   0   2  568.74    5.79   0
  -5   3   4   14.62    4.17   0
  -4  -7   2   18.04    2.96   0
  -4  -3   1  259.15    4.44   0
  -4  -2   1  398.87    5.53   0
  -3  -6   1   51.64    3.45   0
  -2  -4   0  227.83    4.58   0
  -2   5   7    1.99    4.61   0
  -1   4   4  496.65    7.41   0
   0   4   5  159.52    4.86   0
   2   3   6    3.28    3.17   0
   2   3   7  509.72    5.98   0
   3   2   6  130.75    3.52   0
   4  -2   1  209.49    4.44   0
   4   0   3   19.69    2.84   0
   4   1   6    4.69    3.08   0
   4   1   7   74.88    3.18   0
   5  -1   4   64.70    3.54   0
  -8   2   7    5.41    3.97   0
  -7  -4   4   66.03    3.50   0
  -7  -3   4   61.63    3.71   0
  -7  -1   4  224.64    4.72   0
  -6  -4   3    7.08    3.29   0
  -5  -7   3  173.22    4.21   0
  -5  -4   2  149.27    3.65   0
  -5  -1   2  560.16    5.94   0
  -3  -8   2  117.39    3.86   0
  -2  -9   2  177.11    4.72   0
  -2  -7   1   72.26    3.59   0
  -2  -3   0 1016.21    8.81   0
  -2  -2   0 4591.73   17.59   0
  -1  -8   1   43.78    3.50   0
   2  -1   0 5354.81   23.75   0
   2   3   5  428.36    5.54   0
   3   2   5  115.82    3.52   0
   4   1   5    8.08    2.76   0
   5  -9   2  130.58    7.68   0
   6  -4   3   -0.33    3.24   0
   6  -3   4    2.41    2.80   0
  -7  -2   4  180.27    4.04   0
  -6  -3   3   99.91    3.46   0
  -6  -2   3  245.31    4.72   0
  -6  -1   3  490.79    5.65   0
  -6   4   7  244.56    8.74   0
  -5  -3   2   46.20    3.07   0
  -5  -2   2  764.08    6.67   0
  -4  -6   2  135.36    3.98   0
  -3  -5   1  230.91    4.29   0
  -3   5   6    6.10    6.63   0
  -1  -5   0  345.17    5.53   0
  -1   5   8   37.14    4.32   0
   0 -10   2  266.07    6.33   0
   0  -6   0   67.95    4.24   0
   1   3   3 1232.00    8.71   0
   1   4   7   62.29    3.72   0
   1   4   8  114.52    4.09   0
   3  -2   0  676.05    8.28   0
   3   2   4  933.23    7.57   0
   4   1   4 2280.78   10.31   0
   5  -6   1   12.99    3.92   0
   5  -5   1   24.81    3.92   0
   5  -2   2  787.12    6.61   0
   5  -1   3  736.79    7.11   0
   5   0   6  118.04    3.46   0
   6  -2   5   48.24    3.01   0
  -8   0   6  119.76    4.31   0
  -7   1   5  107.88    4.26   0
  -5  -6   3   49.91    3.46   0
  -4  -8   3  211.39    4.83   0
  -4   1   2   25.21    3.80   0
  -3   0   1  517.38    6.93   0
  -2   5   6   36.45    5.21   0
  -1   5   7   80.72    4.65   0
   0   4   4  400.07    6.38   0
   1   4   6  100.71    4.04   0
   3   0   1  316.32    5.01   0
   3   1   2  123.05    3.53   0
   4   0   2   46.50    3.37   0
   5  -4   1  179.36    4.82   0
   5   0   5    8.18    2.89   0
   6  -6   2   63.59    4.04   0
   6  -5   2  332.92    5.64   0
   6  -3   3  165.24    3.96   0
   6  -2   4  191.27    4.29   0
  -8  -1   6   -2.53    3.56   0
  -7   3   7   -0.87    4.31   0
  -6  -6   4    4.89    3.05   0
  -6   1   4   33.39    3.84   0
  -3  -9   3  204.02    4.54   0
  -3   2   2  550.72    9.22   0
   0  -8   1  234.41    5.31   0
   1  -6   0 1554.34   13.69   0
   1   4   5  258.97    5.31   0
   2   1   1 1377.39    9.58   0
   2   2   2 1667.93   10.19   0
   2   3   4  393.98    5.09   0
   4  -1   1  205.99    4.19   0
   5  -7   1  297.06    7.99   0
   5   0   4  254.15    4.27   0
   6  -7   2   98.52    4.67   0
   6  -4   2  598.68    6.64   0
  -8  -3   6    4.28    3.05   0
  -8  -2   6   50.71    3.43   0
  -8   1   7   55.81    3.89   0
  -7  -5   5    2.67    2.97   0
  -7   0   5    0.70    3.27   0
  -7   2   6   42.77    3.74   0
  -6  -5   4  342.65    5.14   0
  -5   1   3  465.45    6.28   0
  -4  -5   2   62.58    3.20   0
  -3  -7   2   77.10    3.38   0
  -3  -4   1  252.45    4.10   0
  -2  -6   1  133.88    3.83   0
  -1  -9   2  162.20    4.70   0
  -1  -4   0 4385.07   18.40   0
  -1  -1   0  540.30    9.00   0
  -1   3   2 2306.73   19.90   0
  -1   5   6  272.34    6.17   0
   1 -10   2  141.21    5.81   0
   2  -6   0  121.48    7.88   0
   3 -10   2    0.99    7.00   0
   3   2   3  430.24    5.33   0
   3   3   6   99.75    3.95   0
   4  -5   0  470.53    8.67   0
   4  -4   0   14.68    4.07   0
   4   1   3 1313.60    8.19   0
   4   2   6  440.68    5.09   0
   5  -3   1    3.94    2.71   0
   5  -1   2   67.07    3.39   0
   6  -2   3    1.19    3.10   0
   6  -1   5  291.72    4.45   0
   7  -4   4  177.12    4.35   0
  -8   2   8   74.59    4.63   0
  -7  -4   5  311.20    4.89   0
  -5  -5   3  251.24    4.31   0
  -5   4   6    7.01    6.59   0
  -4  -7   3    2.15    3.17   0
  -3  -3   1 2272.43   11.46   0
  -3  -1   1 2038.37   11.24   0
  -2  -8   2    9.68    3.32   0
  -1  -7   1  409.52    5.81   0
   0  -5   0 2899.02   17.20   0
   0   3   2 1540.36   12.35   0
   3   3   5   47.00    3.47   0
   4  -3   0  842.27    8.50   0
   4   2   5   -0.03    2.69   0
   5   0   3   26.47    2.94   0
   6  -8   2   17.35    4.68   0
   6  -3   2   12.51    3.17   0
   6  -1   4    8.62    2.92   0
   7  -6   3    6.82    3.31   0
   7  -5   3  102.28    3.88   0
  -7  -3   5  593.58    5.97   0
  -7  -2   5    6.74    3.35   0
  -7  -1   5  109.25    3.55   0
  -6  -4   4    7.82    2.87   0
  -6   0   4  327.66    5.10   0
  -6   2   5   12.93    3.92   0
  -5  -7   4  114.87    3.71   0
  -5  -4   3   94.39    3.70   0
  -4  -4   2  273.25    4.34   0
  -4   0   2 4176.20   17.37   0
  -4   4   5   32.04    7.82   0
  -3  -2   1 2133.49   11.59   0
  -1  -3   0 4115.96   18.89   0
   0   2   1  335.51    7.67   0
   0   5   7    2.22    3.35   0
   1   4   4 1886.00   10.95   0
   2 -10   2  219.45    7.57   0
   2   3   3  221.57    4.01   0
   2   4   6    3.30    3.25   0
   2   4   7    0.57    2.86   0
   3  -1   0 2444.91   13.42   0
   4   2   4  390.37    5.14   0
   5  -2   1   90.29    3.45   0
   5   1   5  153.24    3.71   0
   7  -4   3   18.28    3.31   0
   7  -3   4   40.46    3.24   0
  -8   0   7    4.00    2.88   0
  -6  -3   4  359.76    4.85   0
  -6  -1   4   13.86    3.28   0
  -6   3   6    7.34    4.33   0
  -5   0   3   16.49    2.63   0
  -4  -3   2 1252.50    8.26   0
  -3  -8   3  151.08    4.21   0
  -3  -6   2  427.18    5.51   0
  -3   3   3  113.38    8.06   0
  -2  -5   1  292.58    4.89   0
  -1 -10   3  195.10    5.30   0
   0   5   6  423.19    6.05   0
   1  -8   1 2051.05   15.11   0
   1   2   1 3918.91   17.54   0
   1   3   2  290.56    5.34   0
   2   0   0 4391.15   19.23   0
   2   4   5  420.98    5.46   0
   3   1   1   44.68    3.07   0
   3   2   2 1202.64    8.20   0
   3   3   4  171.77    3.78   0
   4  -2   0  934.84    8.37   0
   4   0   1    7.99    2.56   0
   4   1   2   12.13    2.83   0
   5   1   4   18.18    2.90   0
   6  -2   2  335.93    5.13   0
   6  -1   3  842.58    6.52   0
  -8  -3   7    2.27    3.50   0
  -8  -2   7    5.41    3.65   0
  -8  -1   7  195.94    5.03   0
  -7  -5   6   12.82    3.50   0
  -7   1   6   97.40    4.30   0
  -7   3   8    2.29    4.82   0
  -6  -6   5    6.67    2.97   0
  -6  -2   4  494.34    5.55   0
  -5  -3   3  667.11    6.06   0
  -5  -2   3  431.84    5.42   0
  -5  -1   3   79.89    3.43   0
  -5   2   4  131.45    4.91   0
  -4  -8   4  211.65    4.75   0
  -4  -6   3  688.32    6.26   0
  -4  -2   2 1223.90    8.30   0
  -4  -1   2  266.80    4.91   0
  -4   2   3 2267.72   15.75   0
  -2  -9   3  322.56    5.51   0
  -2   5   5  310.46    7.81   0
  -1   4   3  435.03    7.84   0
  -1   5   5 1549.98   12.22   0
   0   4   3  103.52    4.40   0
   4  -6   0   32.28    6.46   0
   4   2   3  338.56    5.04   0
   5   0   2  212.78    4.16   0
   6  -5   1  173.50    4.99   0
   6  -4   1  127.63    4.49   0
   6   0   4    1.92    3.24   0
   7  -3   3   43.93    3.65   0
  -8   1   8    2.12    3.50   0
  -7   2   7   61.83    4.33   0
  -5  -6   4    2.34    2.83   0
  -2  -7   2  606.36    6.36   0
  -1  -6   1   19.63    3.64   0
   0  -9   2   66.59    4.35   0
   0   5   5    2.56    3.72   0
   1   5   7    3.54    3.32   0
   2   4   4    4.28    3.04   0
   3   3   3 1530.77    8.98   0
   5  -8   1   62.51    7.31   0
   5  -1   1  697.30    6.45   0
   5   1   3  586.93    5.62   0
   6  -6   1    4.49    3.81   0
   7  -6   2   69.34    4.32   0
   7  -5   2   77.16    4.02   0
  -7  -4   6 1551.66    8.73   0
  -7   0   6  388.15    5.90   0
  -6  -5   5  418.07    5.18   0
  -6   1   5  695.46    7.56   0
  -6   4   8   51.22    6.50   0
  -5   3   5  395.10    8.11   0
  -3  -9   4  122.57    3.91   0
  -3  -5   2   80.83    3.47   0
  -2 -10   4    4.00    3.84   0
  -2  -4   1 3172.65   14.27   0
  -1  -8   2   -1.32    3.22   0
   0  -7   1  223.33    5.80   0
   0  -4   0 2010.55   14.36   0
   1   4   3  177.73    4.50   0
   1   5   6   39.87    3.57   0
   2  -8   1   17.37    5.87   0
   2   2   1  756.48    7.25   0
   2   3   2  259.32    4.66   0
   3   0   0 1699.14   10.84   0
   3   4   6    0.21    3.37   0
   4  -1   0 1046.86    8.46   0
   4   3   5   -0.04    2.67   0
   5  -4   0  238.47    5.51   0
   5   2   5   83.38    3.29   0
   6  -3   1  652.15    6.47   0
   6  -1   2   18.40    2.80   0
   6   0   3  753.94    6.32   0
   7  -7   2    8.27    3.71   0
   7  -4   2   29.45    3.26   0
   7  -2   3   92.90    3.89   0
  -8   0   8   12.52    3.43   0
  -7  -3   6  134.73    3.75   0
  -7  -2   6  309.81    5.09   0
  -7  -1   6    1.00    3.27   0
  -5  -5   4  833.43    6.50   0
  -4  -5   3  132.80    4.01   0
  -4   3   4   19.64    4.74   0
  -3  -7   3    2.70    3.03   0
   1  -5   0   20.45    4.66   0
   1   5   5   48.09    3.92   0
   3   4   5    8.76    3.36   0
   4   1   1  525.44    5.69   0
   4   2   2  143.04    3.99   0
   4   3   4  191.24    4.25   0
   5  -5   0   31.26    4.34   0
   5  -3   0   55.28    3.64   0
   5   1   2  301.89    4.75   0
   5   2   4   17.00    2.96   0
   6  -7   1   86.10    5.41   0
   6  -2   1   53.45    3.49   0
   7  -3   2   12.21    3.30   0
  -8  -1   8   69.23    3.89   0
  -6  -4   5    2.41    2.83   0
  -5  -7   5  766.94    6.48   0
  -4  -7   4    0.13    2.79   0
  -2  -3   1 1850.79   11.47   0
  -2   0   1    0.53    4.14   0
   0 -10   3   12.01    3.85   0
   2   4   3   40.15    3.30   0
   3   2   1  176.72    4.23   0
   5  -2   0   75.35    3.72   0
   5   0   1   29.76    2.77   0
   6   1   4    3.16    2.87   0
   7  -1   3   99.74    3.74   0
  -8  -2   8   49.10    3.51   0
  -7  -5   7   22.95    3.15   0
  -7   1   7   15.00    3.75   0
  -7   3   9    7.98    5.02   0
  -6  -6   6  176.97    4.03   0
  -6  -3   5   36.90    2.97   0
  -6   0   5   13.36    3.18   0
  -5  -4   4  810.86    6.41   0
  -5   1   4  645.33    7.17   0
  -3  -4   2 1219.40    8.30   0
  -3   1   2 1103.87   10.99   0
  -2  -8   3   10.34    3.27   0
  -1   5   4  232.22    6.10   0
  -1   6   7   71.04    4.98   0
   0   5   4   24.02    3.80   0
   2   1   0  783.79    7.91   0
   2   5   6  188.50    4.58   0
   3   3   2   36.10    2.71   0
   3   4   4   97.71    3.39   0
   4   0   0 1265.26    8.76   0
   4   3   3   15.20    3.05   0
   5   2   3   88.09    3.26   0
   6  -1   1  124.41    3.66   0
   6   0   2 1049.48    7.12   0
   6   1   3  157.13    4.03   0
   7  -2   2  295.68    4.68   0
  -6  -2   5    1.15    2.68   0
  -6  -1   5  113.26    3.48   0
  -6   2   6   24.05    3.76   0
  -6   3   7  387.88    8.08   0
  -5  -8   6  113.17    3.57   0
  -4  -4   3  590.88    5.72   0
  -4   1   3  926.56    9.16   0
  -2  -6   2  322.95    4.90   0
  -2  -2   1    2.34    2.70   0
  -2   4   3  600.05   15.25   0
  -2   6   7  252.37    7.13   0
  -1  -9   3  489.42    5.96   0
  -1  -5   1 1847.11   11.43   0
   0  -3   0 1116.16   12.26   0
   1  -9   2  576.18    8.34   0
   1   1   0  550.49    8.92   0
   1   5   4  138.45    4.12   0
   2   5   5  260.90    4.77   0
   3  -8   1  127.47    8.75   0
   5  -1   0  210.31    4.29   0
   7  -5   1  213.11    5.19   0
   7  -4   1   22.66    3.18   0
  -7  -4   7    1.06    2.99   0
  -7   0   7  435.30    6.24   0
  -7   2   8  259.45    6.06   0
  -6  -5   6  459.13    5.72   0
  -5  -6   5  113.21    3.71   0
  -5  -3   4   23.06    2.91   0
  -5   0   4  334.10    5.30   0
  -4  -8   5   29.35    3.19   0
  -4  -6   4  875.64    6.83   0
  -3  -8   4  831.53    6.85   0
  -3  -6   3 1349.26    8.62   0
  -3  -3   2  526.21    6.03   0
   3   1   0 4284.49   15.60   0
   3   4   3   34.47    3.28   0
   4   2   1  137.96    4.10   0
   5  -6   0  566.40   10.31   0
   5   1   1  664.85    6.02   0
   5   2   2  911.14    6.80   0
   5   3   4    1.39    3.19   0
   6  -4   0  142.11    4.62   0
   7  -6   1   31.83    4.06   0
   7  -3   1  240.41    4.73   0
   7  -1   2    2.01    2.88   0
  -7  -3   7   67.10    3.33   0
  -7  -2   7   46.43    3.63   0
  -7  -1   7  181.71    4.62   0
  -5  -2   4  178.28    3.87   0
  -5  -1   4   28.95    2.99   0
  -4  -3   3  672.94    6.50   0
  -3   0   2 1020.84    9.66   0
  -2  -9   4   28.76    3.34   0
  -1 -10   4  163.84    4.63   0
  -1  -7   2 2011.10   11.32   0
  -1   6   6   19.24    4.08   0
   0  -8   2 1237.76   10.02   0
   0  -6   1  290.40    6.04   0
   0   4   2  746.01    8.84   0
   0   6   6  128.00    4.76   0
   1  -7   1  459.30    7.86   0
   1   3   1  384.39    6.38   0
   1   4   2    4.91    2.87   0
   2   3   1  932.28    8.06   0
   2   5   4   72.52    3.66   0
   4   3   2   46.41    3.14   0
   4   4   4  366.36    5.27   0
   6  -5   0    0.91    3.71   0
   6  -3   0   47.01    3.52   0
   6  -2   0   74.47    3.72   0
   6   0   1    1.92    2.72   0
   6   1   2  208.12    4.02   0
   7  -2   1   29.71    3.41   0
  -7  -5   8   43.71    3.68   0
  -6  -4   6    9.82    3.28   0
  -5  -7   6   30.58    3.12   0
  -5  -5   5 3737.93   12.82   0
  -4  -2   3  138.42    3.77   0
  -4  -1   3  898.39    8.01   0
  -4   0   3   25.16    3.20   0
  -3  -9   5  129.93    3.83   0
  -3  -2   2   16.83    2.77   0
  -3  -1   2  182.71    4.74   0
  -2 -10   5   72.84    3.83   0
   1 -10   3    4.23    4.19   0
   2   4   2   41.43    2.83   0
   3   5   5  373.61    5.34   0
   4   1   0   28.74    2.93   0
   5   0   0   22.56    2.82   0
   5   3   3  106.69    3.31   0
   6  -8   1   30.71    6.10   0
   6   2   3   50.39    3.09   0
   7   0   2  263.84    4.69   0
  -7   1   8    6.24    3.79   0
  -6  -6   7   91.66    3.41   0
  -6   1   6   15.25    3.36   0
  -6   4   9   86.42    7.06   0
  -5   2   5   82.69    4.47   0
  -4  -7   5  252.01    4.61   0
  -4  -5   4   37.47    3.50   0
  -3   6   7  183.05    9.59   0
  -2  -7   3 1414.05    9.03   0
  -2  -5   2  653.48    6.37   0
  -2   5   4    5.24    5.40   0
  -2   6   6   10.37    5.26   0
   0   5   3  121.64    4.83   0
   1   5   3 1163.75    8.81   0
   3   3   1   70.93    2.95   0
   3   4   2 1083.98    7.59   0
   4   4   3   90.77    3.79   0
   6  -1   0   11.57    3.04   0
   7  -7   1   33.46    4.61   0
   7  -1   1   56.05    3.37   0
  -7  -4   8  172.94    3.86   0
  -6  -3   6    9.97    2.91   0
  -6   0   6  109.05    4.06   0
  -3  -7   4  412.34    5.05   0
  -3  -5   3  966.95    6.98   0
  -1  -4   1  117.10    4.65   0
  -1   6   5  329.96    7.21   0
   0   6   5   18.12    3.35   0
   1   6   5   16.97    3.97   0
   2  -9   2  139.33    6.39   0
   2   2   0 4788.70   17.70   0
   2   5   3   67.77    3.51   0
   3  -2  -1 1960.03   14.80   0
   3   2   0   26.73    2.83   0
   3   5   4   15.78    2.98   0
   4  -2  -1 1846.89   12.29   0
   5   2   1    1.44    2.60   0
   5   3   2   -0.46    3.07   0
   6  -6   0  139.64    5.82   0
   6   1   1  115.71    3.33   0
   6   2   2   65.62    3.20   0
   8  -4   1    4.89    3.30   0
  -7  -3   8   28.91    3.59   0
  -7   0   8  105.15    4.10   0
  -7   2   9   43.03    4.28   0
  -6  -5   7   52.65    3.65   0
  -6  -2   6  761.20    6.32   0
  -6  -1   6    9.81    3.34   0
  -5  -6   6    1.19    3.39   0
  -5  -4   5   65.09    3.21   0
  -5   4   7    5.37    5.82   0
  -4  -8   6  373.03    5.35   0
  -1  -8   3  642.54    6.69   0
   0  -9   3  280.33    5.41   0
   3  -1  -1  566.25    7.69   0
   4  -3  -1  228.04    6.14   0
   4  -1  -1  728.23    7.78   0
   4   3   1   25.16    2.69   0
   5   1   0  165.09    3.76   0
   6   0   0  152.49    3.93   0
   7  -4   0    8.29    3.20   0
   7  -3   0   46.87    3.64   0
   7   0   1  216.56    4.09   0
   7   1   2   40.23    3.08   0
   8  -3   1   99.78    3.99   0
  -7  -2   8   48.52    3.42   0
  -7  -1   8    8.72    3.45   0
  -6   2   7    4.56    3.68   0
  -5  -3   5 1126.66    7.81   0
  -5   3   6    0.28    4.51   0
  -4  -4   4   70.49    3.79   0
  -3  -8   5   32.69    3.44   0
  -2  -8   4  306.45    5.07   0
  -1  -6   2  733.17    7.46   0
   1  -4   0  624.13   10.97   0
   3  -3  -1  594.84   10.65   0
   3   5   3  206.30    4.14   0
   4   2   0  470.10    5.42   0
   4   4   2   74.49    3.17   0
   5  -3  -1  398.26    6.68   0
   5  -2  -1  187.88    4.62   0
   5   4   3   10.54    3.29   0
   7  -5   0   44.90    4.02   0
   7  -2   0  303.75    4.82   0
   8  -2   1   12.56    3.17   0
  -6  -6   8  107.93    3.85   0
  -6  -4   7   14.83    3.39   0
  -6   3   8  170.89    6.25   0
  -5  -7   7   73.59    3.82   0
  -5   1   5  189.16    4.86   0
  -4  -6   5  554.13    5.77   0
  -4   2   4  557.60    8.71   0
  -3  -4   3   12.29    3.05   0
  -2  -4   2  343.87    5.30   0
  -1  -9   4    4.30    3.25   0
  -1   5   3   25.09    4.27   0
   0 -10   4  521.68    6.80   0
   0   6   4   27.05    3.82   0
   1   6   4  268.48    5.01   0
   2   4   1   51.70    3.12   0
   3   0  -1  534.57    6.81   0
   4   0  -1  308.00    5.19   0
   5  -1  -1 1066.25    8.27   0
   5   3   1  774.95    6.44   0
   6   1   0   13.47    3.29   0
   6   2   1   44.64    3.17   0
   7  -1   0    3.04    2.97   0
   7   1   1  343.57    5.01   0
  -7  -4   9    2.08    2.88   0
  -7   1   9  111.57    4.62   0
  -5  -5   6    7.64    2.91   0
  -5  -2   5    6.73    2.69   0
  -5   0   5  539.08    6.53   0
  -3  -9   6    4.41    3.08   0
  -3  -6   4 5636.31   16.00   0
  -2  -9   5  521.31    5.83   0
  -2  -6   3  125.21    4.05   0
  -1  -3   1  361.88    6.20   0
  -1   4   2    8.65    4.42   0
   0  -7   2  111.48    4.96   0
   0  -5   1   54.05    4.02   0
   1  -8   2 3117.63   16.39   0
   1   4   1  913.87    8.42   0
   1   5   2   65.53    4.11   0
   2 -10   3   20.70    4.71   0
   2   5   2  166.21    4.30   0
   2   6   4  155.79    4.31   0
   3   3   0  918.89    7.56   0
   3   4   1   15.52    2.58   0
   4  -4  -1    2.38    4.48   0
   4   5   3  117.51    4.25   0
   5  -4  -1  100.08    5.20   0
   5   0  -1 1588.46    9.09   0
   5   2   0  186.98    3.83   0
   5   4   2  153.11    3.86   0
   6  -3  -1  194.77    5.12   0
   6  -2  -1  246.91    4.86   0
   6   3   2   46.22    3.16   0
  -7  -3   9   25.41    3.87   0
  -6  -3   7  139.90    3.67   0
  -6   1   7  302.99    5.38   0
  -5  -1   5 1427.59    8.65   0
  -4  -7   6   84.83    3.61   0
  -4  -3   4   16.02    2.88   0
  -2 -10   6  393.78    5.52   0
  -1 -10   5    0.18    3.39   0
   2  -5   0  126.09    8.10   0
   2   3   0 1106.53    8.94   0
   3   5   2  132.38    3.64   0
   4   1  -1 1635.57    9.87   0
   4   3   0   21.81    3.12   0
   4   4   1   64.82    3.46   0
   6  -1  -1  552.23    5.98   0
   7  -6   0   23.96    4.31   0
   7   0   0  302.60    4.56   0
   8  -4   0  183.88    5.05   0
   8  -3   0   49.57    3.72   0
  -7  -2   9   29.95    3.74   0
  -7  -1   9  118.35    4.15   0
  -7   0   9    2.97    3.42   0
  -6  -5   8    0.17    2.83   0
  -6  -2   7  189.41    4.35   0
  -6   0   7   15.45    3.29   0
  -5  -6   7   98.04    3.88   0
  -4  -5   5   25.66    3.38   0
  -4   5   7  254.58   12.51   0
  -3  -3   3  370.47    5.41   0
  -2   6   5   40.32    5.99   0
  -1   6   4  549.22    8.82   0
   2  -7   1  597.77   10.80   0
   2   6   3    6.14    3.53   0
   3   1  -1 2053.14   11.23   0
   4   5   2    6.94    3.26   0
   5  -7   0  228.10   11.73   0
   5   1  -1   78.96    3.55   0
   6  -4  -1  217.95    5.48   0
   6   0  -1    8.99    3.22   0
   6   2   0   14.31    3.12   0
   6   3   1   68.68    3.26   0
   7   2   1   -3.32    2.82   0
   8  -5   0  102.80    4.60   0
   8  -2   0   89.39    3.64   0
  -6  -1   7   27.86    2.94   0
  -5  -4   6   81.58    3.22   0
  -4  -8   7   -0.01    2.85   0
  -4  -2   4    4.72    2.66   0
  -4   1   4  480.88    7.09   0
  -3  -7   5   75.84    3.28   0
  -3   2   3  129.48    5.82   0
  -2  -3   2   89.21    3.60   0
  -1  -7   3 5956.64   18.30   0
   0   5   2   34.89    3.75   0
   1  -6   1   51.18    4.38   0
   1   6   3  169.61    4.46   0
   2   0  -1    7.49    4.08   0
   3  -9   2   86.63    6.65   0
   3   6   3   38.33    3.46   0
   5   3   0    0.14    2.68   0
   5   4   1   96.86    3.26   0
   6  -7   0    6.64    5.49   0
   7  -3  -1    1.70    3.26   0
   7  -2  -1   52.83    3.72   0
   7   1   0    4.89    2.81   0
   8  -1   0   13.59    3.32   0
  -7   1  10   75.48    4.40   0
  -6  -6   9   33.67    3.18   0
  -6  -4   8  180.57    3.91   0
  -6   2   8  347.87    6.37   0
  -6   3   9   39.29    5.13   0
  -5  -7   8    1.41    2.94   0
  -5   2   6   21.24    4.36   0
  -4  -1   4   79.12    3.42   0
  -4   0   4 1058.15    9.16   0
  -3  -8   6   83.74    3.75   0
  -3  -5   4   20.93    2.72   0
  -2  -7   4  412.09    5.32   0
  -1  -5   2    9.76    2.91   0
  -1   7   6   11.72    4.84   0
   0  -8   3  225.72    5.39   0
   1  -9   3   41.86    4.12   0
   4   2  -1  461.69    5.61   0
   6   1  -1  256.78    4.65   0
   7  -4  -1    6.85    3.54   0
   7  -1  -1   26.52    2.99   0
   8   0   0  102.51    4.03   0
  -7  -3  10   73.19    3.67   0
  -7   0  10   74.23    4.41   0
  -5  -5   7  249.54    4.51   0
  -5  -3   6   71.12    3.31   0
  -4  -6   6  203.99    3.99   0
  -3  -9   7   24.96    3.59   0
  -3  -2   3  164.02    4.08   0
  -2  -5   3  303.24    4.90   0
  -2   2   2   29.25    5.73   0
  -1  -2   1  357.33    6.62   0
   0   6   3  179.49    5.06   0
   0   7   5  173.83    5.21   0
   1 -10   4   15.11    4.26   0
   1   3   0 4268.89   18.68   0
   2   5   1 1372.64    8.75   0
   3   2  -1 2278.81   11.48   0
   3   4   0    4.61    2.55   0
   3   5   1  482.02    5.33   0
   4   4   0 1082.00    7.64   0
   5  -5  -1 1450.36   15.04   0
   5   2  -1  453.49    5.13   0
   6  -5  -1    5.52    3.98   0
   6   3   0   19.81    3.05   0
   7   0  -1  118.14    3.59   0
   7   2   0  353.36    4.68   0
  -7  -2  10  162.40    4.21   0
  -7  -1  10   14.80    3.50   0
  -6  -5   9   23.14    3.03   0
  -6  -3   8   37.90    3.07   0
  -5  -2   6  797.41    6.90   0
  -4  -4   5    3.57    2.95   0
  -4   3   5  222.22    7.04   0
  -2  -8   5   33.69    3.02   0
  -2  -2   2 2342.94   12.74   0
  -1  -8   4  137.51    4.05   0
   0   4   1 1577.53   12.62   0
   2   4   0  243.59    4.77   0
   2   6   2   59.09    3.63   0
   3   6   2   72.48    3.57   0
   4   5   1   50.06    3.07   0
   6   2  -1    6.17    3.15   0
   6   4   1    0.80    2.75   0
   7  -7   0    3.69    4.72   0
   8  -3  -1   47.90    3.61   0
   8  -2  -1    1.87    3.36   0
  -6  -2   8  100.05    4.01   0
  -6   1   8   87.88    4.17   0
  -5  -6   8    0.28    3.40   0
  -5   1   6  139.05    4.76   0
  -5   4   8  128.53    7.25   0
  -4  -7   7  201.29    3.91   0
  -3  -6   5   36.03    3.37   0
  -3  -1   3  648.75    7.25   0
  -3   1   3  360.29    7.34   0
  -2 -10   7    3.61    3.34   0
  -2  -9   6    6.58    3.32   0
  -1  -9   5   60.49    3.72   0
   0 -10   5    3.16    3.79   0
   0  -9   4    4.34    3.23   0
   1   5   1   21.14    3.08   0
   1   6   2  266.25    5.36   0
   1   7   4   45.89    3.87   0
   3 -10   3  104.40    6.05   0
   4   3  -1  285.35    4.53   0
   4   6   2   20.26    3.51   0
   5   4   0  669.81    5.64   0
   5   5   1   74.80    3.70   0
   7  -5  -1   32.08    4.39   0
   7   1  -1  103.46    3.29   0
   8  -4  -1    5.09    3.87   0
   8  -1  -1   47.22    3.46   0
  -6  -4   9    8.96    3.56   0
  -6  -1   8   25.26    3.36   0
  -6   0   8   75.70    3.94   0
  -5  -7   9  631.53    5.75   0
  -5  -4   7    1.94    2.70   0
  -5  -1   6  897.68    7.30   0
  -5   0   6  216.69    4.77   0
  -5   3   7  973.92   11.67   0
  -4  -8   8   45.40    3.17   0
  -4  -3   5 2106.16   10.71   0
  -3  -4   4 2582.61   11.48   0
  -3   0   3 2563.73   15.10   0
  -1 -10   6   49.33    3.74   0
  -1   7   5  220.41    6.50   0
   0   7   4    4.61    4.03   0
   2   2  -1    1.44    2.71   0
   3   3  -1 2185.49   11.53   0
   5  -1  -2   52.75    3.51   0
   5   0  -2  530.81    5.99   0
   5   3  -1    0.62    2.58   0
   6  -1  -2   87.99    3.77   0
   6   4   0   33.53    3.44   0
   7   3   0   57.01    3.28   0
   8   0  -1    2.26    2.89   0
  -6   2   9   58.70    4.74   0
  -6   3  10   41.55    5.30   0
  -4  -5   6   46.17    2.99   0
  -3  -7   6   96.43    3.59   0
  -2  -6   4   19.89    2.89   0
  -2  -1   2 1025.67    9.88   0
   0  -6   2  712.55    7.97   0
   0  -4   1   61.61    3.83   0
   2   7   3   26.93    3.55   0
   3   5   0    7.00    3.12   0
   4   0  -2 4424.12   17.23   0
   4   5   0   18.21    3.04   0
   5  -2  -2  383.32    6.23   0
   5   1  -2  594.14    6.05   0
   6  -2  -2   18.30    3.18   0
   6   0  -2  572.94    5.91   0
   6   3  -1  436.33    5.10   0
   7   2  -1   32.26    3.03   0
   8   1  -1    8.44    3.33   0
  -6  -5  10   12.07    3.08   0
  -6  -3   9   12.39    3.37   0
  -5  -5   8   18.88    3.36   0
  -4   4   6  294.60    9.63   0
  -3  -9   8    5.72    3.43   0
  -3  -8   7    9.93    3.12   0
  -2  -4   3   22.09    2.97   0
  -2   7   6    7.90    5.83   0
  -1  -6   3  344.75    5.25   0
  -1  -1   1 1897.31   15.81   0
   1   4   0 4132.82   17.84   0
   1   7   3   37.60    3.43   0
   2  -8   2    7.51    4.51   0
   3   6   1  254.98    4.47   0
   4  -1  -2   15.75    3.58   0
   4   1  -2  250.62    4.67   0
   4   4  -1    3.90    3.04   0
   4   6   1  275.54    4.81   0
   5   5   0  150.16    4.08   0
   6  -3  -2  322.90    6.22   0
   6   1  -2  239.08    4.27   0
   7  -2  -2  404.84    5.77   0
   7  -1  -2  262.69    4.63   0
   7   0  -2   98.94    3.75   0
   8  -5  -1   88.68    4.56   0
  -6   1   9  253.44    5.62   0
  -5  -6   9  137.28    4.18   0
  -5  -3   7   68.88    3.20   0
  -4  -6   7    2.79    2.78   0
  -4  -2   5  233.65    4.26   0
  -2  -7   5  446.87    5.48   0
  -1  -4   2 1112.81    9.14   0
  -1   6   3   46.64    4.89   0
   1  -7   2  450.92    6.90   0
   2   3  -1 1852.30   11.33   0
   2   5   0   50.20    3.27   0
   2   6   1   11.18    2.75   0
   3   4  -1  246.68    4.51   0
   5   2  -2  780.96    6.46   0
   5   4  -1   20.38    2.82   0
   6   2  -2  204.13    4.22   0
   7  -3  -2    3.29    3.69   0
   7   1  -2  124.92    3.86   0
   7   3  -1  439.93    5.01   0
  -6  -4  10  340.13    4.77   0
  -6  -2   9   93.82    3.65   0
  -6  -1   9   71.00    3.95   0
  -6   0   9   -0.06    3.83   0
  -5  -7  10   28.00    3.14   0
  -5   2   7   38.54    4.34   0
  -4  -8   9   61.34    3.30   0
  -4  -7   8  120.53    3.49   0
  -4  -4   6  252.21    4.78   0
  -4   2   5    6.89    4.01   0
  -3  -5   5    2.91    2.62   0
  -3  -3   4    9.59    2.72   0
  -2   0   2 1175.30   11.76   0
  -1   5   2  494.02    9.07   0
   0   6   2  975.21    9.71   0
   2   7   2  367.67    5.42   0
   3   7   2   92.74    3.46   0
   4  -5  -1  228.75   10.87   0
   4   2  -2 1162.82    8.27   0
   5  -3  -2  562.75    7.76   0
   6  -6  -1  163.84    7.28   0
   6   4  -1   14.45    2.88   0
   7  -6  -1    6.38    4.55   0
   8  -2  -2  169.67    4.46   0
   8  -1  -2   17.27    2.96   0
   8   0  -2   76.66    3.84   0
  -6   2  10  226.91    6.07   0
  -5  -4   8  157.15    4.13   0
  -5  -2   7    6.35    2.71   0
  -4  -1   5  255.71    4.92   0
  -2  -9   7    1.93    2.84   0
  -2  -8   6  215.94    4.19   0
  -1  -7   4  163.72    4.14   0
   0  -7   3    6.57    3.37   0
   0   5   1   63.09    4.46   0
   0   7   3   54.39    4.61   0
   1   6   1    8.07    3.58   0
   2 -10   4   33.42    4.50   0
   2  -9   3  298.42    6.79   0
   4   6   0  315.77    4.95   0
   5   3  -2   48.40    2.99   0
   6   3  -2   10.15    3.01   0
   7   2  -2   19.75    2.81   0
   8  -3  -2   51.12    3.81   0
   8   1  -2   12.34    3.35   0
  -6  -3  10  237.52    4.45   0
  -5  -1   7  286.55    4.90   0
  -5   1   7  887.56    8.80   0
  -4   0   5   50.52    3.49   0
  -4   1   5    4.75    3.53   0
  -3  -6   6  373.27    4.94   0
  -2   6   4  185.72    8.92   0
  -1 -10   7    6.94    3.33   0
  -1  -9   6   52.26    3.53   0
  -1  -8   5   98.82    3.83   0
  -1   7   4  181.46    6.51   0
   1  -8   3  214.52    5.34   0
   1  -3   0   18.43    5.24   0
   1   7   2  289.24    5.40   0
   3   0  -2 1143.09    9.65   0
   3   1  -2  189.28    4.36   0
   3   6   0  195.97    4.27   0
   4   3  -2 1175.71    8.09   0
   4   5  -1   80.27    3.12   0
   5   5  -1  147.57    3.61   0
   5   6   0  158.28    3.91   0
   6  -4  -2  232.62    6.04   0
   7  -4  -2   98.37    4.37   0
  -6  -4  11   78.80    3.93   0
  -6  -2  10  857.49    7.36   0
  -5  -6  10  220.45    4.10   0
  -5  -5   9 1292.36    7.91   0
  -5   0   7  164.41    4.38   0
  -5   3   8  210.73    6.74   0
  -5   4   9   30.49    5.64   0
  -4  -5   7  257.92    4.15   0
  -4  -3   6  567.12    6.11   0
  -3  -9   9   81.02    3.56   0
  -3  -8   8  995.35    7.27   0
  -3  -7   7    4.67    2.75   0
  -2  -5   4   94.26    3.28   0
  -2  -3   3  101.46    4.00   0
   0 -10   6    9.96    3.50   0
   0  -9   5  115.87    4.44   0
   0  -8   4  481.19    6.39   0
   1 -10   5   63.50    4.27   0
   1  -9   4  119.74    4.67   0
   2   4  -1 3332.15   14.77   0
   3   2  -2    4.21    2.65   0
   3   5  -1  234.80    4.38   0
   3   7   1  166.09    4.30   0
   4  -9   2   30.74    5.99   0
   5   4  -2  156.33    4.01   0
   6   5  -1  217.44    4.06   0
   7   3  -2    7.57    2.86   0
   8  -4  -2   42.37    4.13   0
  -6  -1  10   62.30    3.71   0
  -6   0  10  914.21    8.13   0
  -6   1  10   62.86    4.25   0
  -5  -3   8   34.41    3.00   0
  -4  -8  10  120.39    3.70   0
  -4  -7   9  153.70    3.74   0
  -4  -6   8   42.41    3.01   0
  -3  -4   5  146.33    4.03   0
  -3  -2   4 4774.86   17.14   0
   1  -5   1 1288.75   11.85   0
   1   5   0  384.65    5.46   0
   2   6   0  124.87    3.97   0
   2   7   1  327.61    5.31   0
   3  -1  -2 1174.33   10.98   0
   3   3  -2  519.24    6.20   0
   4 -10   3    2.00    5.40   0
   4   4  -2  277.69    4.86   0
   6   0  -3  159.27    4.16   0
   6   1  -3  544.39    5.85   0
   6   4  -2   55.78    3.17   0
   7  -1  -3  156.35    4.34   0
   7   0  -3  111.22    3.91   0
  -6  -3  11  230.78    4.69   0
  -5  -4   9   33.43    3.31   0
  -2  -6   5   47.99    3.26   0
  -1  -5   3 3481.59   13.91   0
   0   3   0 1102.86   11.79   0
   0   8   4   19.56    4.74   0
   1   8   3  110.93    4.66   0
   5   0  -3   19.59    2.85   0
   5   1  -3   82.93    3.25   0
   5   6  -1    3.72    3.20   0
   6  -1  -3  899.15    7.81   0
   6   2  -3  236.72    4.26   0
   7   1  -3  212.30    4.16   0
   7   2  -3    4.65    2.91   0
   7   4  -2   99.56    3.51   0
   8  -1  -3  256.72    4.77   0
   8   0  -3   91.21    3.96   0
  -6  -2  11  389.22    5.68   0
  -6   1  11   47.68    4.21   0
  -5  -6  11  104.30    3.90   0
  -5  -5  10   97.06    3.98   0
  -5  -2   8  210.66    4.20   0
  -4  -4   7   18.96    2.89   0
  -4  -2   6    6.30    2.77   0
  -2  -9   8   25.03    3.11   0
  -2  -8   7  208.94    4.36   0
  -2  -7   6    4.24    2.95   0
  -2   7   5    2.77    6.21   0
  -1  -3   2  385.90    5.89   0
   0  -5   2    1.50    3.03   0
   1   1  -1 1741.73   15.32   0
   1   2  -1  344.93    6.71   0
   2   5  -1  272.75    4.68   0
   2   8   2   94.42    4.02   0
   3  -7   1  768.22   12.07   0
   4  -3  -2 2721.12   18.15   0
   4   6  -1   11.82    2.65   0
   4   7   0   40.41    3.29   0
   5  -4  -2  533.09    8.77   0
   5   2  -3  393.37    4.98   0
   5   5  -2   20.09    3.08   0
   6   3  -3  104.78    3.68   0
   6   5  -2    4.83    3.11   0
   7  -2  -3    8.87    3.18   0
   8  -2  -3   11.46    3.35   0
   8   1  -3   81.62    3.59   0
  -6  -1  11   49.44    3.87   0
  -6   0  11   11.28    3.64   0
  -5  -1   8    3.83    3.35   0
  -5   2   8    6.65    3.61   0
  -4  -5   8   70.59    3.53   0
  -4   3   6  350.97    8.24   0
  -3  -5   6   36.05    2.84   0
  -3  -1   4 2430.63   13.45   0
  -3   3   4   20.63    4.78   0
  -1 -10   8   77.87    3.82   0
   0  -3   1 2375.33   16.12   0
   0   7   2    8.54    3.93   0
   3   4  -2 1127.95    8.11   0
   3   6  -1   43.11    3.27   0
   3   7   0   -1.19    2.65   0
   4   5  -2   56.16    3.11   0
   5  -1  -3  478.33    6.30   0
   5   3  -3  623.75    5.95   0
   6  -2  -3   15.12    3.53   0
   7  -5  -2   13.26    4.63   0
   7   3  -3   77.68    3.19   0
   8  -5  -2   53.11    4.57   0
   8   2  -3    3.43    2.59   0
  -5  -3   9  352.65    4.80   0
  -5   0   8  126.31    4.25   0
  -5   1   8  174.76    5.10   0
  -4  -7  10  289.06    4.55   0
  -4  -6   9   19.66    3.01   0
  -3  -8   9   13.28    2.86   0
  -3  -7   8  326.40    4.55   0
  -3  -6   7   61.38    3.17   0
  -3  -3   5 1571.56    9.84   0
  -2  -4   4 3526.33   14.57   0
  -2  -2   3   83.00    3.93   0
  -1  -9   7  820.79    6.92   0
  -1  -6   4   77.08    3.30   0
   0   6   1  251.83    6.13   0
   1   3  -1  354.58    5.95   0
   1   7   1  204.77    4.75   0
   2  -6   1   66.23    5.10   0
   4   1  -3  904.81    7.96   0
   4   2  -3  124.15    3.99   0
   6   4  -3    7.68    3.31   0
   7  -3  -3  191.12    5.14   0
   8  -3  -3    7.10    3.76   0
  -5  -5  11  221.95    4.48   0
  -5  -4  10  124.29    3.54   0
  -5   3   9   64.91    5.07   0
  -4  -3   7  144.96    3.98   0
  -4  -1   6  140.03    3.80   0
  -3   0   4  843.40    9.28   0
  -1  -8   6   13.95    3.13   0
  -1  -7   5  627.62    6.53   0
  -1   1   1  960.03   20.77   0
  -1   7   3  138.19    6.42   0
   0 -10   7   13.16    3.29   0
   1   6   0  294.82    5.55   0
   1   8   2  140.22    4.99   0
   2   7   0   30.88    3.39   0
   4   3  -3  678.98    6.68   0
   4   7  -1  144.72    4.15   0
   5   4  -3   97.80    3.32   0
   5   6  -2   95.49    3.71   0
   7   4  -3   13.69    2.88   0
  -5  -2   9   29.88    3.31   0
  -4   0   6 1041.03    8.93   0
  -4   5   8 1117.38   16.00   0
  -2  -9   9  181.88    4.78   0
  -1   6   2  194.04    6.51   0
   0  -6   3  362.91    5.64   0
   0   4   0 1933.03   13.81   0
   0   8   3  272.85    6.11   0
   1  -6   2 2204.98   13.46   0
   1   4  -1  113.90    4.59   0
   2   2  -2 2448.55   12.86   0
   2   6  -1  130.59    3.95   0
   2   8   1   43.92    3.53   0
   3 -10   4   26.30    4.46   0
   3   5  -2   66.32    3.10   0
   4   0  -3   22.64    3.10   0
   4   6  -2  128.90    3.72   0
   5  -2  -3  456.09    6.72   0
   6  -5  -2    5.00    5.06   0
   6   5  -3   74.36    3.69   0
  -5  -3  10   14.71    3.50   0
  -4  -7  11   64.47    3.34   0
  -4  -6  10    7.71    3.40   0
  -4  -4   8   73.40    3.25   0
  -4   1   6   15.21    3.68   0
  -4   2   6 1409.89   11.06   0
  -3  -8  10  241.98    4.20   0
  -3  -4   6   19.19    3.15   0
  -3   1   4  356.46    6.70   0
  -3   2   4  769.46    9.75   0
  -2  -8   8  232.85    4.60   0
  -2  -5   5  845.60    6.37   0
   0  -9   6  159.60    4.36   0
   0  -7   4   32.65    3.80   0
   1 -10   6  444.11    6.22   0
   2 -10   5   67.96    4.34   0
   2   1  -2 1067.45    9.67   0
   2   3  -2   85.27    3.48   0
   3  -9   3  459.18    8.27   0
   3  -8   2    4.52    4.77   0
   3  -2  -2  568.53    9.24   0
   3   7  -1  201.97    4.50   0
   3   8   0  157.77    4.19   0
   4   4  -3  541.97    5.79   0
   5   5  -3  243.49    4.09   0
   6  -3  -3 2726.60   16.19   0
   6   1  -4   13.24    3.13   0
   6   2  -4  479.44    5.52   0
   7  -7  -1  175.83    8.81   0
   7   0  -4   47.56    3.50   0
   7   1  -4  211.98    4.11   0
   7   2  -4  176.58    3.76   0
   8   0  -4  265.18    4.89   0
   8   1  -4   51.06    3.20   0
   8   2  -4   39.43    3.46   0
  -5  -5  12    9.12    2.89   0
  -5  -4  11  223.99    4.24   0
  -5  -1   9  268.45    4.59   0
  -5   2   9    3.78    3.64   0
  -4  -5   9  400.07    4.92   0
  -4  -2   7   35.33    3.22   0
  -4   4   7  129.91    6.77   0
  -3  -7   9  242.45    4.45   0
  -2  -7   7   26.26    3.13   0
  -2  -6   6  309.30    4.49   0
  -1  -4   3  465.60    6.46   0
  -1   8   4   10.16    5.43   0
   0  -8   5   54.79    3.39   0
   1  -9   5   16.48    3.64   0
   2   4  -2  352.41    5.49   0
   5   7  -2   14.06    3.41   0
   6   0  -4  296.48    4.94   0
   6   3  -4  330.29    4.59   0
   7  -1  -4    2.97    3.14   0
   7   3  -4   66.38    3.20   0
   8  -4  -3   55.58    4.42   0
   8  -1  -4   45.77    3.63   0
  -5  -2  10  507.78    6.15   0
  -5   0   9  245.95    4.77   0
  -5   1   9    3.30    3.29   0
  -5   3  10   22.58    4.06   0
  -3  -6   8 1539.45    8.58   0
  -3  -5   7  402.01    5.06   0
  -3  -2   5  618.05    6.81   0
  -1  -9   8    9.16    3.30   0
  -1   4   1 1845.62   18.26   0
   1  -8   4  893.43    7.87   0
   1  -7   3   66.98    4.29   0
   1   5  -1 2041.18   11.48   0
   2  -9   4   30.84    4.01   0
   2  -8   3   20.42    3.86   0
   2  -7   2  374.78    6.87   0
   3   6  -2  441.26    5.17   0
   4  -1  -3  972.13    9.17   0
   4   5  -3  117.27    3.53   0
   6   4  -4    4.33    3.13   0
   6   6  -3   25.16    2.75   0
   7  -4  -3  114.15    5.47   0
   7   4  -4   64.73    3.20   0
  -5  -4  12  151.77    3.89   0
  -5  -3  11  411.16    5.68   0
  -4  -6  11   13.13    3.30   0
  -4  -3   8  133.52    4.06   0
  -3  -8  11   29.22    3.06   0
  -2  -9  10   14.56    3.06   0
  -2  -3   4 1190.20    8.58   0
  -2  -1   3 1666.47   11.77   0
  -1  -2   2 1276.28   11.13   0
   0 -10   8  159.18    4.24   0
   0   5   0 3374.83   16.50   0
   1   7   0  102.95    3.91   0
   1   8   1   21.18    3.44   0
   2   7  -1   68.82    3.40   0
   2   8   0  114.63    3.89   0
   3   2  -3  160.60    4.10   0
   3   3  -3  351.95    5.26   0
   4   7  -2   21.08    2.98   0
   5   1  -4   30.66    2.89   0
   5   2  -4  150.59    3.64   0
   5   3  -4   15.11    2.66   0
   5   6  -3   47.57    2.98   0
   6  -1  -4   26.79    3.48   0
   8  -2  -4  197.57    4.69   0
  -5  -1  10  254.98    5.29   0
  -5   2  10  200.74    5.54   0
  -4  -5  10  196.29    4.01   0
  -4  -4   9  779.21    6.44   0
  -4  -1   7   40.49    3.07   0
  -2  -8   9  339.45    5.05   0
  -1  -8   7  474.76    5.72   0
  -1  -5   4  475.11    6.00   0
   0   7   1   98.92    4.35   0
   0   8   2  343.08    7.04   0
   2   0  -2 1248.22   11.66   0
   2   5  -2  647.30    6.42   0
   3   1  -3  730.77    7.48   0
   3   4  -3   11.98    2.58   0
   3   8  -1   22.91    3.17   0
   4   6  -3  654.38    5.92   0
   5   4  -4  817.04    6.43   0
   6   5  -4  345.26    4.68   0
   7  -2  -4  225.14    4.87   0
   7   5  -4   22.98    2.98   0
  -5  -3  12    8.48    3.57   0
  -5  -2  11  932.36    7.64   0
  -5   0  10   50.99    3.72   0
  -5   1  10   -1.23    3.29   0
  -4  -6  12  145.00    4.17   0
  -4   3   7  123.63    5.45   0
  -3  -7  10  353.81    4.83   0
  -3  -3   6   33.19    2.84   0
  -3  -1   5  686.42    7.60   0
  -1  -7   6   61.56    3.41   0
  -1  -6   5  194.41    4.06   0
   0  -4   2   15.59    3.85   0
   3   7  -2   67.38    3.49   0
   5   0  -4  315.37    5.12   0
   5   5  -4  728.42    6.32   0
   5   7  -3  187.95    4.20   0
   8   1  -5  180.54    4.38   0
   8   2  -5  108.18    4.06   0
  -5  -1  11   63.16    3.75   0
  -5   2  11  154.07    5.24   0
  -4  -2   8  376.28    5.24   0
  -4   0   7  243.04    4.94   0
  -3  -6   9  218.52    4.14   0
  -3  -5   8    1.67    3.03   0
  -3  -4   7   20.81    2.76   0
  -2  -7   8    7.95    2.80   0
  -2  -4   5 1576.53    9.40   0
   0  -9   7  467.73    5.62   0
   1 -10   7   76.70    3.83   0
   1   6  -1   18.08    3.23   0
   2   6  -2  269.08    4.77   0
   3   5  -3  844.73    6.92   0
   4   8  -2   13.77    3.43   0
   5  -3  -3  237.50    5.88   0
   6   6  -4    7.61    2.90   0
   7  -6  -2  333.68    8.90   0
   7   1  -5   95.06    3.79   0
   7   2  -5    3.24    2.60   0
   7   3  -5  523.62    5.27   0
   8  -3  -4    6.81    3.83   0
   8   0  -5    4.62    3.11   0
   8   3  -5    7.31    2.72   0
  -5  -2  12   83.54    4.06   0
  -5   0  11  169.24    4.61   0
  -5   1  11  144.81    4.97   0
  -4  -5  11   51.02    3.17   0
  -4  -4  10  390.75    5.22   0
  -4  -3   9 1341.56    9.00   0
  -4   1   7  714.40    7.86   0
  -4   2   7  467.05    7.14   0
  -3  -7  11  505.61    5.58   0
  -2  -6   7  218.08    4.09   0
  -2  -5   6   48.55    2.80   0
  -1  -9   9  152.69    3.92   0
   4   2  -4    3.01    2.48   0
   4   3  -4   15.63    2.68   0
   4   4  -4   55.39    3.13   0
   4   7  -3    3.90    3.00   0
   5  -9   2  154.18    7.84   0
   5   6  -4    4.63    3.09   0
   6  -4  -3  929.28   10.87   0
   6  -2  -4  461.87    7.01   0
   6   2  -5    2.20    3.00   0
   6   3  -5   31.28    3.24   0
   7   0  -5    0.06    3.04   0
   7   4  -5  295.39    4.45   0
   8  -5  -3   97.79    5.42   0
  -5  -1  12   17.69    3.42   0
  -4   4   8  333.53    7.82   0
  -2  -8  10   64.24    3.18   0
  -2   0   3 2946.41   16.79   0
  -1   5   1 3533.95   22.04   0
  -1   7   2    1.74    5.06   0
   0  -8   6    2.50    2.65   0
   0   6   0   59.15    4.19   0
   1  -9   6  476.70    6.04   0
   1   8   0  211.32    4.78   0
   2 -10   6  509.06    6.34   0
   2   8  -1    5.29    3.00   0
   2   9   0    4.22    3.32   0
   3   0  -3 2794.06   14.81   0
   3   6  -3 1176.45    8.23   0
   4 -10   4   -0.66    4.50   0
   4  -2  -3 2694.16   15.94   0
   4   1  -4   81.35    3.64   0
   4   5  -4   36.06    3.39   0
   5  -1  -4  669.65    7.20   0
   6   1  -5   87.30    3.65   0
   6   4  -5   -1.31    2.80   0
   7  -3  -4  109.37    4.64   0
   7   5  -5    2.93    2.75   0
   8  -1  -5   61.21    3.60   0
  -5   0  12    4.11    3.67   0
  -4  -5  12   35.94    3.02   0
  -4  -1   8    7.97    3.10   0
  -3  -6  10  394.92    4.99   0
  -3  -2   6  290.51    4.81   0
  -3   0   5   48.03    3.66   0
  -2  -2   4 1660.82   10.53   0
  -1  -8   8  315.26    4.58   0
  -1   8   3  187.78    6.79   0
   0  -7   5   83.55    3.56   0
   0  -5   3 3063.21   13.92   0
   1   9   1  132.52    4.80   0
   3 -10   5  325.07    6.03   0
   3   8  -2  109.51    3.49   0
   6   5  -5  341.92    4.70   0
  -4  -4  11    0.31    2.83   0
  -4  -3  10  872.82    7.68   0
  -4  -2   9  716.52    6.71   0
  -3  -5   9  321.19    4.64   0
  -3  -3   7  399.34    5.28   0
  -3   4   5  377.49    9.57   0
  -2  -8  11    1.03    3.23   0
  -2  -7   9   69.18    3.17   0
  -1  -9  10   12.45    3.09   0
   0  -9   8  291.01    4.81   0
   0  -6   4 1468.82    8.91   0
   0   8   1   27.21    4.56   0
   1  -4   1  130.85    5.33   0
   1   7  -1  501.31    6.17   0
   2   7  -2  522.08    5.96   0
   3   7  -3   -0.68    3.12   0
   4  -4  -2 1008.21   15.80   0
   4   6  -4  716.37    6.38   0
   4   8  -3  219.75    4.66   0
   5  -5  -2   12.20    6.47   0
   5   3  -5  951.63    7.01   0
   5   4  -5   63.51    3.46   0
   5   7  -4   83.94    3.43   0
   6   0  -5    7.85    3.12   0
   6   6  -5    8.27    3.28   0
   7  -1  -5   99.38    3.98   0
  -4   0   8 1121.67    8.20   0
  -4   3   8  371.24    6.98   0
  -3  -6  11   -1.98    3.34   0
  -3  -4   8  279.13    4.88   0
  -2  -6   8  317.08    5.21   0
  -1  -7   7 1637.85    8.91   0
   0   9   2   33.87    4.98   0
   1 -10   8   76.36    3.50   0
   1  -8   5   14.20    3.17   0
   2  -9   5   -0.26    3.21   0
   5  -8   1   70.67    7.28   0
   5   2  -5    7.36    2.63   0
   5   5  -5 3154.61   11.73   0
   7  -5  -3  212.97    7.25   0
   8  -4  -4  571.44    8.70   0
   8  -2  -5   27.39    3.62   0
   8   2  -6   48.10    3.18   0
   8   3  -6   10.43    2.85   0
  -4  -4  12   65.74    3.39   0
  -4  -1   9 1576.26   10.76   0
  -4   1   8   67.55    3.85   0
  -4   2   8   95.89    4.37   0
  -4   4   9  171.53    6.21   0
  -3   1   5  196.84    4.87   0
  -2  -5   7  173.23    4.26   0
  -2  -3   5    0.11    2.50   0
  -1  -8   9  537.20    6.60   0
  -1  -6   6  697.51    5.75   0
  -1  -4   4 1876.43   10.60   0
   0  -2   1 1676.72   15.58   0
   0   7   0  115.34    4.96   0
   1   4  -2 1103.01    9.00   0
   2   3  -3   97.05    3.60   0
   2   4  -3   16.99    2.90   0
   2   5  -3  311.82    4.85   0
   2   9  -1    5.69    3.76   0
   3  -9   4    0.34    4.16   0
   3   9  -2  346.76    5.41   0
   4  -9   3   39.09    4.81   0
   4   0  -4 1195.45    8.66   0
   4   7  -4    4.65    3.09   0
   5  -7   0  198.22   11.13   0
   5   1  -5 1437.13    8.76   0
   5   6  -5   95.24    3.72   0
   7   2  -6  274.06    4.37   0
   7   3  -6  117.31    3.59   0
   7   4  -6 1250.66    7.65   0
   8   1  -6   -0.51    2.97   0
  -4  -3  11  298.74    4.93   0
  -4  -2  10   49.85    3.40   0
  -3  -6  12   18.16    2.94   0
  -3  -5  10  157.59    3.79   0
  -3  -1   6  782.14    7.05   0
  -2  -7  10   60.54    3.16   0
  -2  -4   6  320.82    4.89   0
  -1  -5   5    8.20    2.42   0
   0  -8   7    5.24    3.34   0
   1  -7   4  431.63    5.86   0
   1  -5   2 1228.10   10.28   0
   1   3  -2  357.92    5.85   0
   1   5  -2    1.64    2.94   0
   1   9   0   18.72    3.96   0
   2 -10   7  154.82    4.40   0
   2  -8   4   15.30    3.52   0
   2  -4   0  635.32   13.33   0
   2   8  -2   11.40    3.31   0
   3   3  -4    6.90    2.73   0
   3   4  -4 2086.87   11.56   0
   3   5  -4   18.51    3.16   0
   3   8  -3  133.76    4.08   0
   6  -3  -4  913.15    9.51   0
   7   1  -6    4.86    3.18   0
   7   5  -6   13.51    2.89   0
   8   0  -6  110.36    3.87   0
  -4  -3  12    2.45    2.85   0
  -4   0   9   41.35    3.49   0
  -3  -4   9   14.57    2.96   0
  -3   2   5    1.12    3.65   0
  -3   3   5   89.86    5.15   0
  -2   1   3 1148.34   11.82   0
  -1   6   1   16.72    4.34   0
   0  -9   9   60.77    3.36   0
   1  -9   7  219.26    4.42   0
   1  -6   3  715.69    7.40   0
   1   8  -1   38.89    3.85   0
   2   2  -3   89.22    3.56   0
   2   6  -3  135.41    3.84   0
   3   6  -4 4626.42   16.23   0
   5  -2  -4  164.75    4.97   0
   5   7  -5  704.24    6.26   0
   6  -1  -5  752.03    7.18   0
   6   3  -6   10.00    2.64   0
   6   4  -6    6.31    2.66   0
   6   5  -6  395.94    5.27   0
   7  -2  -5  181.11    4.77   0
  -4  -2  11  137.50    3.85   0
  -4  -1  10   24.53    3.53   0
  -4   1   9  926.28    8.01   0
  -4   3   9   85.08    5.00   0
  -3  -5  11  210.42    4.24   0
  -3  -3   8   34.41    2.88   0
  -3  -2   7    7.98    2.44   0
  -3   6   7  217.56    9.36   0
  -2  -7  11  300.64    4.44   0
  -2  -6   9  224.09    4.38   0
  -2  -1   4  302.00    5.62   0
  -1  -8  10  394.85    5.40   0
  -1  -7   8  310.23    4.19   0
   0  -7   6  336.08    4.77   0
   1   6  -2  864.57    7.28   0
   3 -10   6   86.69    4.37   0
   3  -8   3  369.96    7.01   0
   3  -1  -3  411.65    6.99   0
   3   2  -4 4761.08   16.98   0
   4   3  -5 1719.33   10.27   0
   4   4  -5    2.21    2.72   0
   4   5  -5   21.41    2.82   0
   4   8  -4  184.81    4.05   0
   5   0  -5  622.28    6.56   0
   6   2  -6  561.12    5.69   0
   6   6  -6  136.27    4.02   0
   7  -4  -4   73.26    5.45   0
   7   0  -6  331.53    5.41   0
  -4  -2  12  369.57    5.34   0
  -4   2   9  102.67    4.36   0
  -3  -5  12    1.87    3.23   0
  -3   0   6 2214.31   12.16   0
  -2  -7  12  123.85    4.44   0
  -2  -5   8 1064.27    8.29   0
   0  -9  10   -2.52    3.59   0
   0   4  -1   65.19    4.32   0
   0   5  -1   56.56    3.99   0
   1   2  -2 1225.83   10.67   0
   2  -7   3 1335.40   10.17   0
   2   7  -3 1494.14    8.91   0
   3   7  -4  326.32    5.07   0
   4  -8   2  696.03    9.96   0
   4   6  -5  463.86    5.31   0
   5   8  -5   39.21    3.50   0
   6  -8   0   -0.26    2.37   0
   6   1  -6   13.35    3.25   0
   8  -3  -5  119.40    4.85   0
   8  -1  -6    5.34    3.24   0
   8   3  -7    0.81    2.85   0
  -4  -1  11  111.94    4.03   0
  -4   0  10   64.91    3.80   0
  -4   3  10  125.91    5.00   0
  -3  -4  10 1078.04    8.42   0
  -3   5   6    5.34    6.16   0
  -2  -6  10   20.15    3.31   0
  -1  -8  11    5.31    3.25   0
  -1  -6   7   70.77    3.03   0
  -1   8   2  169.58    6.76   0
   0  -8   8  178.46    4.15   0
   0  -6   5  130.58    3.92   0
   0   8   0   31.52    4.16   0
   0   9   1   44.75    4.53   0
   1  -8   6 1346.93    8.51   0
   1   7  -2 2339.05   11.85   0
   2  -9   6    2.90    3.30   0
   2   9  -2  162.60    4.47   0
   3   9  -3  177.63    4.44   0
   4  -1  -4  568.39    7.09   0
   4   2  -5  212.95    4.15   0
   4   7  -5  208.49    4.14   0
   5   4  -6   57.49    3.04   0
   5   5  -6    1.86    2.69   0
   7   4  -7    1.73    3.12   0
   8   2  -7    1.87    2.99   0
  -4  -1  12   26.48    3.39   0
  -4   0  11  140.60    4.00   0
  -4   1  10   47.52    3.70   0
  -4   2  10  180.39    4.93   0
  -3  -4  11  102.23    4.09   0
  -3  -3   9  745.19    7.06   0
  -3  -1   7   91.40    3.47   0
  -2  -4   7    9.39    2.57   0
  -2  -3   6  109.83    3.77   0
  -2  -2   5  971.19    7.96   0
  -1  -7   9  473.62    5.03   0
   0  -3   2  391.51    6.51   0
   0   3  -1 2350.56   15.79   0
   0   6  -1  375.25    6.06   0
   1  -9   8  569.30    5.90   0
   2  -6   2  936.29    9.48   0
   2  -5   1   15.20    4.60   0
   2   1  -3 1771.92   11.66   0
   3   1  -4 2600.78   13.47   0
   5  -4  -3  103.14    6.21   0
   5   3  -6   58.94    2.97   0
   5   6  -6   -1.44    2.74   0
   7   3  -7   51.55    3.20   0
   7   5  -7   22.33    2.95   0
   8   1  -7  173.49    4.33   0
  -4   0  12   19.53    3.48   0
  -4   1  11  213.15    4.74   0
  -4   2  11    7.21    3.88   0
  -3  -2   8  701.60    6.78   0
  -3   1   6  538.18    6.80   0
  -2  -6  11   57.24    3.73   0
  -1  -5   6    7.27    2.36   0
  -1  -2   3 7517.14   23.33   0
  -1   7   1  368.52    7.91   0
   0  -5   4 2092.40   10.81   0
   1   9  -1   33.18    3.50   0
   2   8  -3    3.30    3.33   0
   3  -7   2  380.71    7.44   0
   3   8  -4  678.80    6.30   0
   4   1  -5  274.92    4.64   0
   4   8  -5   20.15    3.44   0
   5   2  -6  639.46    6.76   0
   5   7  -6   21.99    3.00   0
   6  -2  -5   10.56    3.69   0
   6   0  -6  106.12    3.80   0
   7  -1  -6   79.23    3.90   0
   7   2  -7   38.15    2.95   0
  -3  -4  12  395.85    5.56   0
  -3  -4  13    9.93    3.31   0
  -3  -3  10 1586.68    9.71   0
  -2  -6  12  101.40    3.92   0
  -2  -5   9  788.38    6.87   0
  -2   2   3  991.56   12.67   0
  -1  -7  10    7.35    3.02   0
  -1  -4   5   63.62    3.44   0
   0  -8   9  105.56    3.89   0
   0  -7   7  345.07    5.05   0
   0  -4   3 1887.67   11.44   0
   1  -7   5  602.02    6.18   0
   1   8  -2    2.89    3.64   0
   3  -9   5  722.53    7.39   0
   3  -3  -2  185.43    8.62   0
   4  -7   1  238.47    7.98   0
   6   3  -7  101.00    3.69   0
   6   4  -7    6.50    2.75   0
   6   5  -7   37.55    2.96   0
   6   6  -7   79.08    3.54   0
   7  -3  -5   62.69    4.33   0
   7   1  -7  144.12    4.17   0
   8  -5  -4  272.25    7.97   0
   8  -2  -6  179.60    4.93   0
   8   0  -7    1.43    2.99   0
  -1  -6   8  940.27    6.51   0
  -1  -3   4  176.98    4.16   0
   0   7  -1  281.83    5.62   0
   1  -9   9  323.11    4.86   0
   2  -8   5  129.22    4.33   0
   2   5  -4  110.42    3.50   0
   2   6  -4   14.44    2.97   0
   3   4  -5  179.33    4.04   0
   3   5  -5   -0.23    2.50   0
   3   6  -5   21.67    3.25   0
   3   9  -4  109.52    3.82   0
   4  -3  -3   34.30    4.75   0
   5  -1  -5  218.36    4.73   0
   5   8  -6   89.90    3.31   0
   6  -5  -3  212.98    8.37   0
  -3  -3  11   88.30    3.61   0
  -3  -2   9  416.32    5.54   0
  -3  -1   8  444.06    5.32   0
  -3   0   7 1124.53    8.32   0
  -3   2   6 2934.89   15.05   0
  -3   4   6 1098.59   11.92   0
  -2  -5  10    7.48    2.71   0
  -2  -4   8 1593.57    9.62   0
  -2   0   4  156.29    4.89   0
  -1  -7  11   19.13    2.94   0
   0  -8  10  525.67    5.97   0
   1  -8   7  116.74    3.99   0
   2  -9   7  123.03    3.99   0
   2   4  -4 3723.12   14.57   0
   2   9  -3  283.40    5.34   0
   3  -6   1  766.41   10.53   0
   3   7  -5   59.31    3.34   0
   4  -9   4   46.46    4.45   0
   4   4  -6  180.90    4.15   0
   4   5  -6   33.60    2.86   0
   4   6  -6  166.37    3.81   0
   5   1  -6  666.54    6.97   0
   6   2  -7  153.50    4.06   0
  -3  -3  12    5.77    2.87   0
  -3  -3  13   69.75    3.59   0
  -3  -2  10  664.08    6.41   0
  -3   3   6   25.71    4.35   0
  -2  -5  11  156.19    4.28   0
  -2  -3   7 1211.23    8.09   0
  -1  -7  12  179.77    4.06   0
  -1  -5   7  173.22    4.01   0
   0  -6   6  234.44    4.10   0
   0   9   0    3.44    4.12   0
   1  -6   4  120.06    4.09   0
   1   5  -3 3684.04   14.29   0
   2   7  -4  481.57    5.41   0
   3   3  -5 1423.59    9.70   0
   4   7  -6   60.09    3.04   0
   5  -9   3   49.36    5.09   0
   5   5  -7  187.18    4.02   0
   5   6  -7   72.55    3.53   0
   7   0  -7  342.23    5.59   0
   7   4  -8  123.63    3.54   0
   7   5  -8   34.30    2.96   0
   8  -4  -5  195.26    6.17   0
   8   2  -8   33.73    3.10   0
  -3   5   7  450.27    9.10   0
  -2  -5  12   62.06    3.34   0
  -2  -4   9 1976.35   10.19   0
  -2  -2   6  117.84    4.03   0
  -2  -1   5 3214.97   14.00   0
  -1  -6   9   13.29    2.81   0
   0  -8  11   95.35    3.37   0
   0  -7   8  156.57    3.55   0
   1   4  -3  513.47    6.46   0
   1   6  -3  356.55    5.17   0
   1   9  -2  128.06    4.80   0
   2   3  -4 1225.45    8.51   0
   3   0  -4  995.70    8.91   0
   3   8  -5   20.43    3.42   0
   4   0  -5   62.23    3.42   0
   4   3  -6  422.14    5.59   0
   4   8  -6  299.91    4.80   0
   5  -3  -4   21.64    4.25   0
   5   4  -7    2.57    2.66   0
   5   7  -7   55.29    3.08   0
   6  -4  -4   21.45    5.04   0
   6  -1  -6   12.98    3.26   0
   7  -2  -6   36.65    3.89   0
   7   3  -8   23.50    2.90   0
   8  -1  -7   43.67    3.63   0
  -3  -2  11   13.65    2.90   0
  -3  -2  12  226.76    4.31   0
  -3  -1   9   60.68    3.23   0
  -3   0   8    1.43    3.02   0
  -3   1   7    5.25    3.28   0
  -1  -6  10  233.85    4.47   0
  -1   9   2   75.49    6.59   0
   0   2  -1 1655.46   15.71   0
   0   8  -1  297.89    5.43   0
   1  -8   8  346.47    4.87   0
   1   7  -3 7199.46   18.88   0
   2  -9   8   81.45    3.71   0
   2  -7   4  134.23    4.57   0
   2   8  -4  346.59    4.78   0
   3  -9   6    1.06    3.77   0
   3  -8   4  210.14    4.88   0
   5   3  -7   55.34    3.42   0
   5   8  -7   -0.18    3.06   0
   6   1  -7   17.04    2.84   0
   6   5  -8   -0.03    3.14   0
   6   6  -8   78.92    3.52   0
   7   2  -8   40.38    3.40   0
   8   1  -8   55.99    3.21   0
  -3  -1  10  449.37    5.36   0
  -3   2   7  684.91    7.76   0
  -3   5   8   23.88    5.26   0
  -2  -4  10  605.68    5.96   0
  -2  -3   8 1890.70   10.36   0
  -2   3   3  167.06    7.73   0
  -1  -4   6  794.99    6.28   0
  -1   8   1  115.95    6.02   0
   0  -7   9   -0.19    3.00   0
   0  -5   5  279.76    4.52   0
   1  -7   6  168.24    3.68   0
   3  -5   0  136.54    6.98   0
   3   2  -5  642.31    6.66   0
   3   9  -5   98.83    4.00   0
   4  -6   0   25.51    6.31   0
   4   2  -6    6.60    2.69   0
   5   0  -6  227.42    4.61   0
   6   4  -8  127.65    3.45   0
   8  -3  -6   13.70    3.89   0
  -3  -1  11   18.77    2.87   0
  -3  -1  12   31.41    3.09   0
  -3   0   9    3.58    3.15   0
  -3   1   8   11.67    3.73   0
  -3   3   7  400.29    6.84   0
  -3   4   7  760.79    9.72   0
  -2  -4  11    9.53    2.91   0
  -2  -4  12   78.09    3.64   0
  -1  -6  11    1.96    2.73   0
  -1  -6  12  207.06    4.11   0
  -1  -5   8    9.04    2.73   0
  -1   0   2 1691.12   15.53   0
   0  -6   7 1006.79    6.99   0
   1  -8   9   32.53    3.49   0
   1  -5   3 1435.06    9.90   0
   1   3  -3 9865.18   24.79   0
   1   8  -3  783.56    6.88   0
   2  -9   9  576.22    5.75   0
   2  -8   6  193.70    4.06   0
   2   0  -3 3075.51   16.43   0
   2   9  -4   19.81    3.28   0
   4  -2  -4  659.76    8.44   0
   5   2  -7    5.31    2.99   0
   6   3  -8   28.02    3.15   0
  -3   0  10  527.92    5.82   0
  -3   0  11  171.37    4.21   0
  -3   0  12  345.48    4.99   0
  -2  -2   7   87.63    3.43   0
  -2   1   4  605.29    7.92   0
  -1  -3   5  270.11    4.41   0
  -1   5   0   22.03    4.61   0
   0  -7  10   93.18    3.31   0
   1  10  -2  159.38    5.09   0
   2   2  -4 1621.19   10.00   0
   3   5  -6   46.73    3.33   0
   3   6  -6  274.40    5.01   0
   3   7  -6  109.65    3.54   0
   4  -9   5   75.13    4.26   0
   4  -8   3   59.27    4.70   0
   4   5  -7  181.57    4.46   0
   4   6  -7    1.72    2.72   0
   4   7  -7  145.20    3.98   0
   6  -3  -5  269.47    5.99   0
   7  -1  -7   10.64    3.10   0
   7   1  -8   10.12    3.16   0
   8   0  -8   11.42    3.10   0
  -3   1   9  565.85    6.17   0
  -3   2   8  153.74    4.64   0
  -3   4   8   31.72    4.96   0
  -3   4   9   78.02    5.24   0
  -2  -3   9  106.27    3.62   0
  -1  -5   9 2297.23    9.46   0
  -1   6   0 1628.04   13.56   0
   0  -7  11  216.91    3.89   0
   0  -4   4   33.66    3.66   0
   0   5  -2    1.76    3.38   0
   0   6  -2  795.54    7.56   0
   0   9  -1    8.16    3.83   0
   1  -8  10   31.73    3.10   0
   1  -7   7 1206.33    7.53   0
   1  -1  -1  788.35   18.87   0
   2   6  -5   54.16    3.26   0
   2   7  -5  494.42    5.64   0
   3  -9   7  192.48    4.46   0
   3  -2  -3  126.84    5.55   0
   3   8  -6   56.18    3.70   0
   4   8  -7    4.96    3.07   0
   5  -2  -5   92.42    4.26   0
   5   5  -8   12.77    3.15   0
   5   6  -8    2.78    2.83   0
   5   7  -8   -1.40    3.15   0
   6   0  -7   11.03    2.67   0
   7  -5  -4   36.54    5.77   0
   7   4  -9    2.50    2.78   0
   8  -2  -7    2.24    3.22   0
  -3   1  10  685.95    6.54   0
  -3   1  11    6.17    3.34   0
  -3   2   9   21.07    3.64   0
  -3   2  10    8.70    3.65   0
  -3   2  11   50.50    4.27   0
  -3   3   8   26.61    3.83   0
  -3   3   9   33.45    4.43   0
  -3   3  10   63.77    4.73   0
  -2  -3  10  407.43    5.13   0
  -2  -3  11  580.69    5.84   0
  -2  -3  12   12.69    3.18   0
  -2  -1   6  563.50    6.10   0
  -2   0   5  329.92    5.75   0
  -2   4   3  527.87   13.72   0
  -1  -5  10  316.99    4.73   0
  -1  -4   7   19.51    2.63   0
  -1  -2   4  575.45    6.47   0
  -1  -1   3 5222.02   21.16   0
   0  -6   8 1484.65    8.14   0
   0   7  -2  153.33    4.85   0
   1  -6   5    0.66    2.94   0
   1  -4   2 6294.84   22.37   0
   1   9  -3  568.21    6.28   0
   2  -8   7   20.33    3.29   0
   2  -6   3 1032.24    8.67   0
   2   5  -5  785.34    6.52   0
   2   8  -5   25.29    3.28   0
   2  10  -4    3.80    3.25   0
   3   4  -6   18.13    2.73   0
   4   1  -6  159.06    3.86   0
   4   4  -7    9.95    2.67   0
   6   2  -8  102.80    3.47   0
   7  -4  -5    1.29    4.55   0
   7   3  -9   24.70    3.10   0
  -2  -2   8 2558.51   10.55   0
  -1  -5  11  639.90    5.61   0
  -1  -5  12   32.18    2.97   0
  -1   4   0  626.95   10.79   0
  -1   7   0   10.95    4.43   0
   0  -5   6   81.24    3.15   0
   2  -7   5  231.21    4.71   0
   2   4  -5 1785.56    9.45   0
   3  -9   8   21.78    3.39   0
   3  -8   5  168.71    4.35   0
   3  -7   3  184.40    4.94   0
   3   1  -5  823.75    7.23   0
   3   9  -6   -0.43    2.81   0
   5  -9   4  150.98    5.49   0
   5  -8   2   69.14    5.31   0
   5   1  -7  238.14    4.87   0
   5   4  -8   98.64    3.40   0
   6  -8   1   25.62    5.74   0
   6  -2  -6   30.09    3.59   0
   6   5  -9   17.76    2.73   0
   6   6  -9   19.46    2.79   0
  -1  -4   8 1984.62    9.69   0
   0  -6   9    6.93    2.67   0
   0  -3   3 3319.04   15.12   0
   0   4  -2   14.77    3.56   0
   0   8  -2 1513.87   10.18   0
   1  -7   8   26.39    3.14   0
   1   6  -4   67.87    3.20   0
   1   7  -4  173.16    4.08   0
   2  -8   8    2.63    3.09   0
   2   9  -5  397.08    5.71   0
   3   3  -6   34.52    2.88   0
   4  -1  -5    5.35    3.39   0
   4   3  -7  101.61    3.54   0
   5  -1  -6  171.18    4.80   0
   5   3  -8   26.85    3.13   0
   6   4  -9   10.79    3.16   0
   7  -3  -6   12.59    4.19   0
   7   0  -8   70.44    3.75   0
   7   2  -9   19.51    3.35   0
   8  -1  -8    2.09    3.22   0
  -2  -2   9  122.25    3.55   0
  -2  -2  10  229.67    4.19   0
  -2  -2  11   46.17    3.44   0
  -2  -2  12  335.10    4.91   0
  -2  -1   7 3967.07   13.66   0
  -1  -3   6   30.81    2.81   0
  -1   9   1  164.71    6.63   0
   0  -6  10  446.54    4.70   0
   0  -6  11   43.04    3.40   0
   0  -6  12  501.59    5.56   0
   0  10  -1  134.68    5.55   0
   1  -7   9  200.85    4.14   0
   1  -3   1 3748.17   21.87   0
   1   2  -3 7707.86   23.34   0
   1   5  -4  590.45    5.77   0
   1   8  -4  164.96    4.05   0
   1  10  -3  149.70    4.68   0
   4  -9   6   -0.85    3.28   0
   6   1  -8    9.01    3.14   0
  -1  -4   9 2007.12    9.09   0
  -1  -4  12  175.21    4.15   0
  -1   8   0  268.08    6.96   0
   0  -5   7 1356.19    7.83   0
   1  -7  10   43.06    3.37   0
   1  -6   6   68.92    3.21   0
   2  -8   9   27.91    3.02   0
   2   1  -4  334.31    5.69   0
   2   3  -5    0.44    2.90   0
   2  10  -5   58.16    3.64   0
   3  -1  -4  399.76    6.51   0
   3   6  -7   64.41    3.38   0
   3   7  -7    3.91    2.97   0
   4   6  -8   33.04    2.80   0
   4   7  -8   91.30    3.22   0
   4   8  -8   37.02    3.15   0
   5   7  -9  442.49    5.39   0
   6  -1  -7  345.43    5.46   0
   6   3  -9    5.54    2.62   0
   7  -2  -7   47.03    3.91   0
  -2  -1   8    6.65    2.76   0
  -2  -1  12   -4.23    3.50   0
  -2   0   6 1085.22    8.12   0
  -2   2   4  982.32   10.21   0
  -1  -4  10   10.71    2.75   0
  -1  -4  11    2.81    2.76   0
   0  -4   5  503.92    5.62   0
   0  -2   2 1672.35   12.99   0
   0   9  -2   78.93    4.14   0
   1  -7  11  245.52    3.99   0
   1  -5   4  141.86    3.52   0
   1   4  -4 2068.42   10.51   0
   1   9  -4    2.42    3.14   0
   2  -7   6  437.46    5.29   0
   3  -8   6  700.45    6.41   0
   3   5  -7  424.83    5.47   0
   3   8  -7    7.99    2.58   0
   4  -8   4  182.85    4.90   0
   4   2  -7   34.40    3.06   0
   4   5  -8   40.75    2.91   0
   5   2  -8  237.28    4.36   0
   5   6  -9   96.74    3.39   0
   7   1  -9   83.38    3.73   0
   8  -4  -6   42.85    5.05   0
   8   0  -9    1.68    3.24   0
  -2  -1   9  111.17    3.76   0
  -2  -1  10  152.90    3.87   0
  -2  -1  11   22.46    2.90   0
  -2   1   5 4089.29   17.06   0
  -1  -3   7 1128.73    7.33   0
  -1  -2   5 1001.98    7.65   0
   0  -5   8 2234.63    9.75   0
   1  -2   0  287.38   11.12   0
   2  -5   2  410.64    6.61   0
   2   6  -6  324.99    4.56   0
   2   7  -6    6.64    2.47   0
   2   8  -6  246.11    4.34   0
   3   2  -6  292.62    4.71   0
   3   9  -7   15.84    2.87   0
   4  -7   2  164.92    5.52   0
   4   0  -6 1343.83    8.84   0
   5   0  -7  194.69    4.38   0
   5   5  -9  836.42    6.44   0
   7   3 -10   52.71    3.71   0
   8  -3  -7   23.96    4.32   0
  -2   0  12  192.50    4.02   0
  -1  -3  12  223.62    4.25   0
   0  -5   9 1005.79    6.75   0
   0  -5  12   51.61    3.02   0
   0   3  -2  404.39    6.59   0
   1  -6   7   43.55    3.05   0
   1  10  -4  192.06    4.87   0
   2  -6   4   40.99    3.42   0
   2   5  -6   56.70    3.00   0
   2   9  -6   -1.46    2.83   0
   3  -8   7   45.86    3.36   0
   3  -7   4    5.67    3.42   0
   3  -6   2  602.78    7.78   0
   3   4  -7   18.72    3.04   0
   4   4  -8   45.66    3.19   0
   5   4  -9   23.57    2.70   0
   6   0  -8   85.74    3.93   0
   6   2  -9   60.43    3.34   0
   6   5 -10    6.13    2.66   0
   7  -1  -8    3.37    3.04   0
  -2   0   7   26.18    2.71   0
  -2   0  11    4.66    2.88   0
  -1  -3   8  786.19    6.12   0
  -1  -3   9 2287.81    9.97   0
  -1  -3  11  402.80    4.55   0
   0  -5  10   47.99    3.01   0
   0  -5  11  214.42    3.82   0
   0   6  -3  382.30    5.31   0
   0   7  -3    7.99    3.14   0
   0  10  -2  349.38    6.45   0
   1  -6   8 1749.05    8.26   0
   2  -7   7  982.01    6.68   0
   3   0  -5   49.69    3.49   0
   6   4 -10  226.17    4.47   0
   8  -2  -8   44.47    4.12   0
  -2   0   8 1796.83    9.22   0
  -2   0   9   25.62    3.44   0
  -2   0  10  673.09    5.94   0
  -2   1   6 1655.62   10.37   0
  -2   1  11  234.48    4.51   0
  -2   7   5    4.16    6.30   0
  -1  -3  10    5.29    2.67   0
  -1  -1   4  640.92    7.00   0
  -1   9   0    7.92    5.56   0
   0  -4   6 1605.14    8.33   0
   0   8  -3  290.51    5.39   0
   1  -6   9  242.82    4.10   0
   1  -6  10  595.92    5.33   0
   1  -6  11   67.87    3.15   0
   1  -5   5  635.98    5.82   0
   1   0  -2 1776.39   15.63   0
   1   3  -4  199.62    4.40   0
   1   7  -5  848.64    6.48   0
   1   8  -5  117.13    3.67   0
   2  -7   8   73.35    3.59   0
   2   2  -5 1071.54    8.19   0
   2  10  -6  307.35    5.31   0
   3  -8   8  105.43    3.51   0
   3  -8   9  103.71    3.86   0
   4  -8   5  201.78    4.93   0
   4   3  -8  152.04    3.88   0
   4   7  -9  101.78    3.70   0
   4   8  -9   44.74    3.39   0
   5  -8   3   10.53    4.07   0
   7   2 -10  114.34    4.01   0
  -2   1  10    2.49    3.18   0
  -2   2  11   63.01    3.74   0
  -2   3   4   27.79    4.34   0
  -2   7   6    1.81    5.34   0
  -1  -2   6   38.54    2.75   0
  -1  -2  12  375.95    4.73   0
   0  -4  12  659.16    5.70   0
   0  -3   4 2769.19   12.36   0
   0   5  -3 3012.81   13.32   0
   1  -4   3   31.46    3.71   0
   1   6  -5  243.05    3.76   0
   2  -7   9  535.55    5.14   0
   2  -7  10   -1.77    2.66   0
   2   4  -6  330.23    4.85   0
   3   7  -8  361.87    4.47   0
   3   8  -8 1077.16    7.19   0
   4   1  -7   46.90    3.02   0
   4   6  -9    9.58    2.74   0
   5  -7   1  281.52    7.52   0
   5   1  -8    6.04    2.55   0
   5   3  -9  412.17    4.70   0
   5   6 -10  164.62    3.97   0
   5   7 -10   11.41    2.81   0
   7   0  -9    1.47    3.03   0
  -2   1   7  357.01    5.24   0
  -2   1   8  120.69    3.79   0
  -2   1   9  255.61    4.50   0
  -2   2   5  289.55    5.86   0
  -2   2  10  313.31    4.91   0
  -1  -2  11  108.10    3.22   0
  -1   6  -1   53.72    4.54   0
  -1   7  -1  557.81    8.05   0
   0  -4   7 2483.90    9.82   0
   0  -4  11    3.66    3.00   0
   0   9  -3  347.23    5.62   0
   1   5  -5    8.79    2.66   0
   1   9  -5   78.27    3.56   0
   2  -6   5  120.40    3.65   0
   3  -7   5   43.55    3.30   0
   3   3  -7  401.30    4.84   0
   3   6  -8  933.69    8.65   0
   3   9  -8    6.15    2.87   0
   4   5  -9  244.86    4.89   0
   6   1  -9   42.26    3.23   0
   6   3 -10  140.70    3.79   0
  -2   3  10   11.01    3.46   0
  -1  -2   7  412.14    4.73   0
  -1  -2   8   36.82    3.18   0
  -1  -2   9  460.70    5.12   0
  -1  -2  10    8.48    2.54   0
  -1  -1  12  105.22    3.46   0
  -1   0   3  906.98    9.65   0
  -1   8  -1 2528.96   15.49   0
   0  -4   8  299.37    4.28   0
   0  -4   9  736.99    5.79   0
   0  -4  10  924.56    6.08   0
   1  -5   6    0.78    2.60   0
   1  10  -5   -0.45    3.65   0
   2   7  -7   23.56    2.64   0
   2   8  -7  237.58    4.02   0
   2   9  -7    3.95    3.11   0
   3   1  -6  943.18    7.06   0
   3   5  -8    3.78    2.90   0
   4  -8   6  667.10    6.31   0
   5  -3  -5  321.43    6.93   0
   5  -2  -6   20.77    3.71   0
   5   5 -10   57.31    3.03   0
   6  -8   2   16.92    4.49   0
   6  -3  -6    3.94    4.03   0
   6   5 -11    0.13    2.99   0
  -2   2   6  152.31    4.37   0
  -2   2   9  138.02    4.11   0
  -2   3   9  556.60    6.60   0
  -2   4   9   13.77    3.33   0
  -2   6   7  212.21    6.65   0
  -1   3   0   14.66    4.81   0
  -1   5  -1 1216.62   11.41   0
   0  -3  12   12.65    2.78   0
   0  10  -3   15.65    4.25   0
   1  -5  11  222.03    3.76   0
   1   1  -3 5343.53   20.65   0
   2  -1  -3  990.00   10.62   0
   2   6  -7  228.95    4.11   0
   3  -7   6   65.85    3.60   0
   4  -8   7  110.60    4.05   0
   4  -7   3    7.00    3.17   0
   4   2  -8  444.90    5.05   0
   5  -8   4   37.27    3.89   0
   5   2  -9   20.36    3.09   0
   6  -4  -5   34.23    5.36   0
   6  -2  -7    1.64    2.98   0
   7   1 -10    7.85    2.73   0
  -2   2   7  947.47    7.95   0
  -2   2   8  262.88    4.64   0
  -2   3   5  347.31    6.49   0
  -2   4   4  845.94   11.26   0
  -2   5   8   23.03    3.91   0
  -1  -1   5 3278.39   13.56   0
  -1  -1  11  476.29    4.99   0
   0  -3   5  749.84    6.40   0
   0   4  -3 1918.95   11.31   0
   1  -5   7 3272.82   11.05   0
   1  -5  10    3.45    2.76   0
   2  -6   6  485.76    5.03   0
   2  -5   3  156.35    4.52   0
   2  -4   1  551.70    8.51   0
   2  -2  -2   17.44    5.18   0
   2   0  -4  163.04    4.76   0
   2   3  -6  111.19    3.29   0
   2  10  -7   -5.11    3.10   0
   4  -2  -5    5.28    3.44   0
   4   4  -9  537.21    6.19   0
   4   8 -10  137.51    3.80   0
   5  -4  -4   24.32    5.60   0
   5  -1  -7  915.74    7.84   0
   5   4 -10   68.52    3.22   0
   6  -7   0    8.26    5.27   0
   6  -1  -8  101.54    3.84   0
   6   2 -10  906.52    6.88   0
   6   4 -11   27.78    3.59   0
   7  -3  -7    0.55    4.07   0
   7  -2  -8  192.16    5.72   0
  -2   3   8  167.49    4.41   0
  -2   4   8   79.40    4.32   0
  -2   5   7   -1.08    4.48   0
  -2   6   6   12.38    5.47   0
  -1  -1  10  231.73    4.01   0
  -1   0  11   30.08    3.35   0
  -1   1   2 1331.91   15.24   0
   0  -3  11  374.68    4.49   0
   0  -2   3 1522.38   10.68   0
   0   7  -4   30.93    3.41   0
   0   8  -4  624.66    6.38   0
   1  -5   8  874.00    6.21   0
   1  -5   9    8.03    2.75   0
   1   4  -5   71.93    3.05   0
   1   8  -6   15.40    2.96   0
   2  -6   7 1017.59    6.97   0
   2  -6   9   19.05    3.13   0
   2  -6  10  158.70    3.47   0
   2   5  -7  198.48    3.96   0
   3  -7   7  466.90    5.12   0
   3  -7   8   92.17    3.74   0
   3  -7   9  196.90    4.06   0
   3  -6   3  333.69    5.77   0
   3   2  -7    5.06    2.30   0
   3   4  -8  284.63    4.67   0
   3   8  -9   11.64    3.11   0
   3   9  -9   91.80    3.64   0
   4  -3  -4   17.53    4.56   0
   4  -1  -6   13.22    3.05   0
   4   7 -10  184.56    3.88   0
   5   0  -8  162.16    3.97   0
   7  -4  -6  135.15    5.85   0
   7  -1  -9   72.74    4.55   0
  -2   3   6  480.99    6.80   0
  -2   3   7  706.85    7.41   0
  -2   4   5  305.14    7.16   0
  -2   4   7 3760.32   16.64   0
  -2   5   6   52.46    5.70   0
  -1  -1   6 3369.96   12.77   0
  -1  -1   7    5.80    2.80   0
  -1  -1   8   19.01    2.89   0
  -1  -1   9 1274.32    7.29   0
  -1   1  11  555.37    5.70   0
  -1   9  -1    2.31    4.65   0
   0  -3   6  691.72    5.98   0
   0  -3  10  141.59    3.30   0
   0  -2  12  272.38    4.11   0
   0   6  -4 1449.87    8.85   0
   0   9  -4    2.81    3.38   0
   1  -4   4  616.96    6.33   0
   1   2  -4  617.83    6.39   0
   1   7  -6   62.09    2.91   0
   1   9  -6   61.75    3.35   0
   2  -6   8  760.51    5.85   0
   2   1  -5 3253.69   13.97   0
   3   7  -9  181.61    4.26   0
   4  -6   1   21.30    4.07   0
   4   0  -7  279.34    4.96   0
   4   6 -10    8.10    2.71   0
   5  -8   5   51.90    3.88   0
   5   3 -10   10.76    3.28   0
   5   6 -11   65.08    3.05   0
   6   0  -9   -1.21    3.10   0
  -2   4   6  369.03    6.94   0
  -1   0  10    9.67    3.22   0
  -1  10   0    4.99    4.65   0
   0  -3   7 1846.66    8.78   0
   0  -3   8  287.69    4.45   0
   0  -3   9  251.65    3.91   0
   0  -2  11   -0.29    3.05   0
   0   2  -2 1764.20   13.30   0
   1  -4  11  172.02    3.56   0
   1   6  -6  772.25    5.83   0
   1  10  -6   48.23    3.37   0
   2   4  -7   11.16    2.84   0
   2   8  -8  292.48    4.44   0
   2   9  -8   30.35    3.31   0
   3  -5   1 1487.24   12.35   0
   3   6  -9  130.39    4.04   0
   4  -7   4   49.54    3.52   0
   4   3  -9 1535.02    8.32   0
   4   5 -10   77.34    4.07   0
   5  -8   6  146.32    4.19   0
   5   5 -11  140.56    3.86   0
   6  -8   3   25.64    3.97   0
   6   3 -11  152.52    4.38   0
   7   0 -10   47.48    4.05   0
  -1   0   4  810.23    8.11   0
   0  10  -4  633.05    6.90   0
   1  -4  10  676.92    5.66   0
   1  -3   2 2571.42   14.78   0
   2   7  -8    8.65    2.71   0
   3   3  -8   42.36    3.05   0
   4   1  -8    6.38    2.81   0
   5   1  -9  327.57    4.72   0
   6   1 -10   59.51    3.53   0
  -1   0   9 1219.61    7.53   0
  -1   1  10   27.81    3.19   0
  -1   7  -2  415.01    6.47   0
   0  -2  10   20.73    2.90   0
   0   5  -4 1985.58   10.13   0
   1  -4   5   28.37    2.64   0
   1  -4   9    7.87    2.99   0
   1   3  -5  263.50    4.50   0
   1   5  -6    1.12    2.23   0
   2  -5   4  471.69    5.52   0
   2  -5  10   55.31    3.51   0
   2   2  -6  123.45    3.60   0
   2   6  -8  374.17    4.84   0
   3  -6   4  271.91    4.84   0
   3  -1  -5  196.15    4.86   0
   3   5  -9  225.17    4.49   0
   4  -7   5  148.70    4.14   0
   5  -7   2  166.79    5.03   0
  -1   0   8  845.13    6.50   0
  -1   2  10  265.02    5.02   0
  -1   3  10   53.57    4.00   0
  -1   4  -1  102.04    4.66   0
  -1   8  -2 2618.78   14.02   0
   0  -2   4 3274.08   13.51   0
   0  -1  11  283.80    4.45   0
   0   3  -3 2941.26   14.07   0
   1  -4   6 1065.38    6.83   0
   1  -4   7  816.15    6.10   0
   1  -4   8 2758.59   10.22   0
   1  -3  11  420.27    4.86   0
   3  -6   9   20.04    3.26   0
   3   0  -6 2368.87   11.50   0
   3   8 -10  151.28    3.95   0
   4  -7   6  278.96    4.65   0
   4  -7   7  260.03    4.56   0
   4  -7   8    4.04    2.87   0
   4   4 -10  234.50    4.65   0
   4   7 -11   44.18    2.86   0
   5   2 -10  374.29    6.05   0
   5   4 -11  132.88    3.75   0
  -1   0   5 2797.86   13.00   0
  -1   0   7  299.73    4.36   0
  -1   1   9    3.58    3.12   0
  -1   6  -2 1546.31   10.96   0
   0  -2   9   34.52    2.89   0
   0   7  -5   79.81    3.41   0
   0   8  -5   49.32    3.24   0
   0   9  -5  140.29    4.00   0
   1   7  -7 1967.34    8.75   0
   1   8  -7  549.14    5.09   0
   1   9  -7 1029.34    6.81   0
   1  10  -7    3.63    3.06   0
   2  -5   5  561.23    5.56   0
   2  -5   8  436.66    4.96   0
   2  -5   9 1065.94    6.44   0
   2   5  -8 1240.49    7.89   0
   3  -6   5   20.76    3.14   0
   3  -6   8    1.11    3.04   0
   3   1  -7   91.69    3.22   0
   3   4  -9    9.63    3.19   0
   3   7 -10  150.41    4.76   0
   4   2  -9  719.22    6.20   0
   4   6 -11   12.87    2.60   0
   6   2 -11  246.71    4.58   0
  -1   0   6    1.39    2.99   0
   0  -2   5  709.02    6.38   0
   0  -2   8  272.64    4.32   0
   0  -1  10    6.37    3.05   0
   0   0  11   44.70    3.64   0
   1  -3  10  149.90    3.79   0
   1   4  -6  844.73    6.45   0
   2  -5   6 1335.56    7.47   0
   2  -5   7  270.22    4.38   0
   2   3  -7 1063.71    7.17   0
   2   8  -9  427.71    4.99   0
   2   9  -9  202.83    4.21   0
   3  -6   6 3174.29   11.40   0
   3  -6   7  229.71    4.32   0
   3   6 -10  430.00    5.05   0
   0   4  -4   30.03    3.13   0
   1   6  -7   63.35    2.84   0
   2   7  -9   84.76    3.02   0
   3   2  -8  783.10    6.43   0
   4   5 -11   29.57    2.88   0
   5   3 -11  470.84    5.14   0
   5   5 -12    8.26    2.57   0
  -4  -7   9  179.50    4.26   0
  -4   1  -7  216.81    4.82   0
  -3  -6   3 1626.47   12.15   0
  -3  -3  12    3.60    3.27   0
  -3  -1  -5  426.73    6.42   0
  -3   4  -8   23.36    3.50   0
  -3   9  -8   16.40    3.05   0
  -2  -5   3  280.93    5.79   0
  -2  -2  10  186.39    4.06   0
  -2  -1  -4   78.96    4.47   0
  -2   0  -5  343.52    5.55   0
  -2   2  10  291.42    5.56   0
  -2   4   9   20.52    4.49   0
  -2   8  -7   16.11    3.01   0
  -2   9  -6    4.18    3.58   0
  -1  -3   6   35.60    3.26   0
  -1  -2   7  368.46    4.82   0
  -1   2  -5 2838.46   12.91   0
  -1   5  -6    2.86    2.79   0
  -1   7  -5  548.23    5.72   0
  -1   8  -4  817.41    7.13   0
   0   0   3 2465.93   16.17   0
  -4  -7   4    1.97    4.71   0
  -4  -7  10  380.28    5.11   0
  -4   3  -8    3.21    3.44   0
  -3  -6   9  303.14    4.57   0
  -3   2  -7  432.32    5.56   0
  -3   8  -8  111.11    3.71   0
  -2  -5   7  213.95    3.87   0
  -2  -4   9 2161.18    9.83   0
  -2  -3  10  389.17    5.38   0
  -2   4  -7  135.33    3.80   0
  -2   7  -7 1012.70    7.13   0
  -2  10  -4   35.83    3.71   0
  -2  10   0    5.91    4.65   0
  -1   0   8  810.76    7.05   0
  -1   1   8   16.17    3.82   0
  -1   8  -3  172.93    4.68   0
  -1   8   0  211.84    6.84   0
   0   1   4    0.27    3.80   0
   0   2  -2 1237.21   11.76   0
   0   4  -2   12.06    3.92   0
  -4  -6  12  176.59    3.97   0
  -4   0  -6 1001.56    8.68   0
  -3  -5  11  237.80    4.47   0
  -3  -4  12  426.66    5.73   0
  -3   5  -8   13.01    3.13   0
  -3   6  -8   -2.62    2.86   0
  -3   7  -8   82.88    3.64   0
  -2  -5   8 1514.09    8.23   0
  -2   2  -6  707.78    6.81   0
  -2   5  -7  273.99    4.43   0
  -2   6  -7  962.75    6.73   0
  -2  10  -3   19.03    3.73   0
  -2  10  -2  201.55    5.60   0
  -2  10  -1  118.61    5.58   0
  -1  -1   8   17.27    2.72   0
  -1   6  -5    0.18    3.07   0
  -1   8  -2 2906.49   14.26   0
  -1   8  -1 1889.60   12.75   0
   0   2   4  149.72    5.68   0
   0   3  -2  299.99    6.22   0
  -5  -8   6  124.43    5.00   0
  -4  -7  11   81.25    3.85   0
  -4  -6   1   13.76    7.43   0
  -4  -3  -3   25.27    5.67   0
  -4   4  -8   50.98    3.69   0
  -3  -6  10  523.36    5.08   0
  -3   9  -7  164.00    3.99   0
  -3  10  -6   52.42    4.22   0
  -2  -5   2  673.91    8.93   0
  -2  -2  11   37.83    3.67   0
  -2  -1  11   20.47    3.43   0
  -2   0  11    4.13    3.32   0
  -2   3  10   10.75    4.17   0
  -2   8  -6  188.81    3.94   0
  -2   9  -5    2.81    3.08   0
  -1  -3   7 1012.66    7.12   0
  -1  -2   8   35.15    2.90   0
  -1   1  -4 1408.61   10.41   0
  -1   2   8   15.07    3.81   0
  -1   3  -5   38.26    3.15   0
  -1   5  -5  641.49    6.16   0
  -1   5   6  259.87    8.84   0
  -1   7  -4  420.55    5.50   0
   0   0   4 6600.53   23.19   0
   0   4  -1   45.85    4.74   0
   0   4   1 1403.86   20.71   0
  -5   0  -6  138.10    4.98   0
  -4  -2  -4  543.33    8.36   0
  -4  -1  -5    9.29    4.10   0
  -4   2  -7   59.32    3.78   0
  -4   5  -8   52.68    4.05   0
  -3  -5  12    2.17    3.38   0
  -3  -3  13   57.17    3.64   0
  -3   1  -6  275.57    5.08   0
  -3   3  -7 1100.54    8.51   0
  -3   8  -7   45.23    3.85   0
  -2  -5   9 1074.60    7.16   0
  -2  -4  10  706.47    5.89   0
  -2   1  11  204.20    4.67   0
  -1  -4   4 1929.47   11.11   0
  -1  -4   5   67.43    3.29   0
  -1   4  -5   27.68    3.05   0
  -1   4   7   85.58    5.72   0
   0   4   0 1549.94   16.24   0
  -5  -4  -2  150.39    8.12   0
  -5   2  -7    0.40    3.70   0
  -4   6  -8  517.78    5.81   0
  -4   7  -8   12.41    3.11   0
  -3  -7   6  103.00    3.92   0
  -3  -7   7    9.57    3.37   0
  -3  -7   8  442.99    5.45   0
  -3  -6  11    1.42    2.85   0
  -3  -4  13    2.40    3.40   0
  -3   4  -7    7.78    3.34   0
  -3  10  -5  245.90    5.36   0
  -2  -3  11  534.14    5.67   0
  -2   1  -5 1162.66    8.69   0
  -2   3  -6   44.70    2.99   0
  -2   7  -6  425.18    5.15   0
  -2   9  -4   35.14    3.76   0
  -1  -4   3  459.56    6.77   0
  -1  -4   6  720.87    6.30   0
  -1  -3   8  747.69    6.18   0
  -1  -1   9 1189.19    8.19   0
  -1   0  -3 1336.78   11.44   0
  -1   0   9 1083.58    8.07   0
  -1   6  -4   88.35    3.54   0
  -1   7  -3   74.23    4.20   0
  -1   7   2    4.71    7.11   0
   0  -1   2 3454.78   20.90   0
   0  -1   3   37.83    3.79   0
  -5  -1  -5  194.49    5.69   0
  -4  -8   7    4.00    3.79   0
  -4  -8   8   59.36    3.78   0
  -4  -8   9   71.58    3.93   0
  -3  -7   9  317.56    4.60   0
  -3  -6   2  517.35    8.86   0
  -3   0  -5    2.72    4.02   0
  -3   5  -7  811.31    8.09   0
  -3   6  -7  150.70    4.65   0
  -3   7  -7  654.67    6.01   0
  -3   9  -6    8.52    3.32   0
  -2  -6   5   57.99    3.92   0
  -2  -6   6  330.48    5.03   0
  -2  -6   7  287.16    4.51   0
  -2  -5  10    8.51    3.23   0
  -2  -4  11    7.30    3.41   0
  -2   2  11   57.37    4.02   0
  -2   4  -6  705.47    6.32   0
  -2   5  -6 1176.18    8.47   0
  -2   6  -6  681.14    5.93   0
  -2   8  -5  100.02    3.62   0
  -1  -4   7   15.99    2.88   0
  -1  -2   9  390.84    5.30   0
  -1  -1  -2   11.77    4.68   0
  -1   1   9    3.69    3.46   0
  -1   2  -4 3141.73   14.48   0
  -1   3   8  110.63    5.21   0
   0  -1   4  617.73    7.23   0
   0   0   5 3783.22   16.15   0
   0   1   5  385.87    6.38   0
   0   3   4  111.44    6.02   0
  -5  -3  -3  142.90    6.71   0
  -5  -2  -4   26.56    4.81   0
  -4  -8  10  147.48    3.91   0
  -4  -7   3    0.45    5.04   0
  -4   1  -6   35.91    3.73   0
  -4   3  -7   82.14    4.02   0
  -3  -7   5   79.86    3.88   0
  -3  -7  10  510.75    5.49   0
  -3  -6  12   25.80    3.10   0
  -3   2  -6  867.72    7.98   0
  -2  -6   8  449.49    4.75   0
  -2  -2  12  232.13    5.20   0
  -2  -1  12    0.77    3.54   0
  -2   0  12  179.15    4.58   0
  -2   9  -3  279.76    5.33   0
  -2   9   2   14.68    5.94   0
  -1   5  -4  165.08    4.17   0
   0  -1   5 3012.85   14.08   0
   0   2   5  386.56    7.31   0
   0   3  -1 1841.13   15.29   0
  -5   3  -7   16.33    3.52   0
  -4  -8   6  455.61    6.43   0
  -4   4  -7    2.30    3.35   0
  -4   8  -7   91.40    3.74   0
  -3  -7  11  654.76    5.82   0
  -3   8  -6  648.98    6.36   0
  -3  10  -4   31.32    4.02   0
  -2  -6   4   18.66    4.02   0
  -2  -6   9  330.07    4.47   0
  -2  -5  11  206.50    4.38   0
  -2  -3  12   15.25    3.10   0
  -2   0  -4 1080.78    9.31   0
  -2   7  -5  216.46    4.58   0
  -1  -4   8 1858.56    9.21   0
  -1  -3   9 2156.22    9.67   0
  -1   2   9  310.57    5.80   0
  -1   3  -4  308.31    5.37   0
  -1   4  -4  611.74    6.46   0
  -1   7  -2  352.28    5.95   0
   0   2  -1 1303.06   14.37   0
  -5  -7   2   15.95    7.68   0
  -5   1  -6   97.97    4.40   0
  -4   5  -7   37.26    3.73   0
  -4   6  -7   68.29    3.94   0
  -4   7  -7  250.96    4.45   0
  -3  -7   4  474.07    6.88   0
  -3  -1  -4  213.32    5.65   0
  -3   9  -5  551.78    6.06   0
  -2  -6  10   32.34    3.43   0
  -2  -4  12   86.63    3.93   0
  -2   2  -5  295.72    4.98   0
  -2   8  -4   14.86    3.49   0
  -2   9  -2  120.15    4.63   0
  -1  -4   2 1087.39   10.48   0
  -1  -2  10    7.02    3.22   0
  -1  -1  10  201.97    4.57   0
  -1   0  10   14.74    3.56   0
  -1   6  -3  659.63    6.58   0
  -1   7  -1  484.46    7.46   0
   0  -2   4 3006.47   14.02   0
   0  -1   6   57.14    3.73   0
   0   0   6 1306.58    9.34   0
   0   1   6 1077.02    9.17   0
  -5   4  -7   95.72    4.42   0
  -4  -8   5   29.50    4.30   0
  -4   0  -5   34.12    4.25   0
  -4   9  -6    1.99    2.95   0
  -3  -7  12   31.64    3.17   0
  -3   3  -6   49.29    3.41   0
  -3   7  -6   90.66    3.55   0
  -3  10  -3  110.15    4.38   0
  -2   6  -5  135.69    4.11   0
  -2   9  -1  724.61    8.08   0
  -2   9   0   64.58    5.08   0
  -2   9   1   29.58    5.19   0
  -1  -5   5    7.76    2.92   0
  -1  -5   6    3.14    2.41   0
  -1  -5   7  183.08    3.76   0
  -1  -4   9 1885.34    8.89   0
  -1  -3  10    5.58    3.11   0
  -1   7   0    7.78    4.83   0
  -1   7   1  306.64    7.84   0
   0  -2   3 1389.08   10.62   0
   0  -2   5  634.00    6.54   0
  -5   5  -7   -1.93    3.39   0
  -5   6  -7   10.37    3.56   0
  -5   7  -7   19.68    3.24   0
  -4   2  -6  357.39    6.37   0
  -3  -8   8 1201.00    7.64   0
  -3  -8   9   17.88    3.41   0
  -3  -2  -3  602.75    8.77   0
  -3   1  -5    1.17    3.65   0
  -3   4  -6  342.51    5.42   0
  -3   5  -6  183.70    4.79   0
  -3   6  -6 2949.36   11.26   0
  -2  -6  11   88.29    3.41   0
  -2  -5  12   78.95    3.46   0
  -2   3  -5 2783.19   12.22   0
  -2   5  -5  504.61    5.86   0
  -2   8  -3   25.44    4.05   0
  -1  -5   4  582.40    6.29   0
  -1  -5   8    9.28    3.06   0
  -1   1  -3   57.01    4.05   0
  -1   1  10   23.13    3.62   0
  -1   4   8  172.69    6.53   0
   0  -2   6 6343.58   17.78   0
  -5   0  -5    4.55    3.93   0
  -5   2  -6   35.42    3.61   0
  -4   8  -6  609.38    6.05   0
  -3  -8   7   16.98    3.36   0
  -3  -8  10  282.61    4.60   0
  -3  -8  11   33.94    3.53   0
  -3  -3  -2   44.53    5.85   0
  -3   8  -5  212.74    4.27   0
  -3   9  -4    2.67    3.64   0
  -3  10  -2    5.35    3.76   0
  -2  -7   7   27.55    2.98   0
  -2  -7   8   12.98    2.87   0
  -2  -7   9  102.37    3.43   0
  -2  -6   3  122.89    5.05   0
  -2  -1  -3   20.02    3.89   0
  -2   4  -5  686.59    6.44   0
  -2   7  -4  134.89    4.03   0
  -1  -5   9 2373.21    9.71   0
  -1  -4  10   11.66    2.95   0
  -1   3   9   13.31    4.16   0
  -1   5  -3 1377.51    9.20   0
  -1   5   7   79.22    6.59   0
  -1   6  -2 2169.16   11.94   0
   0  -1   7 1488.11    8.78   0
   0   0   7   93.52    4.13   0
   0   2   6 1994.58   13.14   0
   0   3   5  359.68    7.96   0
  -4   3  -6   10.72    3.30   0
  -4   7  -6  191.45    5.37   0
  -4   9  -5   90.76    4.05   0
  -4  10  -4    0.80    3.82   0
  -3  -8   6  106.41    4.32   0
  -3  10  -1  317.88    6.32   0
  -2  -7   6    9.47    2.88   0
  -2  -7  10   83.47    3.36   0
  -2  -6  12  143.75    3.63   0
  -2  -5   1  334.56    8.52   0
  -1  -3  11  395.83    4.90   0
  -1  -2  11   95.39    3.61   0
  -1  -1  11  472.35    5.21   0
  -1   0  11   27.39    3.65   0
  -1   2  10  245.33    5.60   0
   0  -3   5  759.10    6.72   0
   0  -3   6  678.06    6.36   0
   0  -2   2 1669.69   13.25   0
   0  -2   7  115.16    3.29   0
   0   1   7  842.54    8.24   0
   0   3   0  964.76   14.05   0
  -5   8  -6  149.97    4.80   0
  -4  -8   4  289.84    6.99   0
  -4  -1  -4 2805.40   14.03   0
  -4   4  -6  260.78    5.43   0
  -4   6  -6   83.99    4.22   0
  -3  -7   3    3.01    4.88   0
  -3   7  -5   62.98    3.37   0
  -3  10   0    1.25    4.23   0
  -2  -7   5  550.89    6.25   0
  -2  -7  11  367.03    4.47   0
  -2   1  -4 2337.05   12.35   0
  -2   8  -2    4.04    3.93   0
  -1  -6   7   72.20    3.48   0
  -1  -5   3 3664.27   15.79   0
  -1  -5  10  331.69    4.39   0
  -1  -4  11    0.63    2.86   0
  -1   2  -3 2265.96   12.69   0
  -1   4  -3   32.08    3.97   0
   0  -3   4 2634.77   12.37   0
   0  -3   7 1743.05    8.97   0
   0  -1   8   25.35    3.48   0
  -5   3  -6   86.70    3.70   0
  -5   7  -6   29.57    3.86   0
  -4  -7   2   24.24    6.77   0
  -4   1  -5  471.34    5.90   0
  -4   5  -6   32.99    3.28   0
  -3   2  -5  236.86    4.86   0
  -3   8  -4  202.97    4.43   0
  -3   9  -3  373.76    5.30   0
  -2  -2  -2 1944.42   16.93   0
  -2   6  -4   59.45    3.16   0
  -1  -6   6  728.26    5.92   0
  -1  -6   8  950.78    6.61   0
  -1  -6   9   18.30    3.41   0
  -1   1  11  558.49    6.61   0
  -1   3  -3    2.16    3.02   0
   0  -2   8  269.90    4.14   0
   0   0   8  412.78    5.67   0
  -6  -1  -4   -1.19    3.80   0
  -6   4  -6   20.31    3.69   0
  -5  -1  -4   21.35    4.09   0
  -5   4  -6  432.01    5.75   0
  -5   5  -6    3.70    3.42   0
  -5   6  -6  156.50    4.85   0
  -4   8  -5  194.74    4.15   0
  -4   9  -4   48.32    3.77   0
  -4  10  -3   -0.29    3.20   0
  -3  -9   9   96.94    4.03   0
  -3  -8   5   41.30    4.14   0
  -3   0  -4 1818.55   10.89   0
  -3   3  -5   35.71    3.46   0
  -3   6  -5   18.84    3.07   0
  -2  -7  12  236.91    4.11   0
  -2   2  -4 4045.35   15.99   0
  -2   5  -4  704.21    6.41   0
  -2   7  -3 1116.44    7.69   0
  -1  -6   5  250.47    4.71   0
  -1  -6  10  291.42    4.50   0
  -1  -5  11  626.42    5.59   0
  -1  -4  12  176.24    4.44   0
  -1  -3  12  212.79    4.38   0
  -1  -2  12  350.50    4.85   0
  -1  -1  12   87.92    4.00   0
  -1   6  -1   50.01    4.19   0
   0  -4   6 1505.27    8.61   0
   0  -3   3 3004.15   14.39   0
   0  -3   8  268.91    4.17   0
   0   1   8  103.48    4.29   0
   0   2   7  129.39    4.86   0
   0   3   6 6307.10   25.63   0
   0   4   4  348.70   13.58   0
  -6   1  -5  209.49    5.74   0
  -5   1  -5   57.40    3.82   0
  -4  -2  -3  473.58    7.65   0
  -3  -9   8   13.41    3.32   0
  -3   4  -5  192.62    4.25   0
  -3   5  -5  864.70    7.94   0
  -3   9  -2   84.79    4.14   0
  -2  -8   8  306.32    4.40   0
  -2  -8   9  453.55    5.12   0
  -2  -8  10   83.48    3.31   0
  -2   8  -1   21.35    3.68   0
  -2   8   4   38.20    6.98   0
  -1  -4   1  132.48    6.46   0
  -1   3  10   55.76    5.15   0
  -1   4   9   79.05    6.02   0
  -1   5  -2 1212.91    9.15   0
   0  -4   5  471.40    5.34   0
   0  -4   7 2257.40    9.77   0
   0  -2   9   40.27    3.26   0
   0  -1   9 1060.76    7.40   0
  -5   8  -5   50.36    3.57   0
  -4   2  -5   24.14    3.62   0
  -4   7  -5  194.38    4.11   0
  -4  10  -2   93.37    4.16   0
  -3   7  -4    1.10    3.38   0
  -2  -8   7  272.74    4.69   0
  -2  -8  11    5.01    2.74   0
  -2  -7   4  476.66    6.56   0
  -2   3  -4   46.75    3.30   0
  -2   4  -4  801.16    7.12   0
  -1  -6  11    5.91    2.81   0
  -1  -5  12   26.98    3.03   0
  -1   0  -2 1675.11   14.17   0
   0  -4   4   32.07    3.80   0
   0  -4   8  311.50    4.58   0
   0  -3   9  247.93    3.90   0
   0   0   9   43.29    3.67   0
  -6  -2  -3   47.99    4.44   0
  -6   2  -5   34.86    3.76   0
  -5  -2  -3  102.70    5.41   0
  -5   2  -5   99.98    4.49   0
  -5   9  -4   94.16    4.25   0
  -4   3  -5  240.44    5.31   0
  -4   6  -5  425.18    5.11   0
  -4   8  -4  209.70    4.52   0
  -3  -9   7   31.57    3.58   0
  -3  -6   1   61.49    8.40   0
  -3   8  -3  382.09    4.99   0
  -2  -8   6  278.75    5.00   0
  -2  -6   2  366.84    7.28   0
  -2   0  -3   29.29    4.08   0
  -2   6  -3 1038.10    7.36   0
  -2   7  -2  344.63    5.31   0
  -2   8   0   59.15    4.17   0
  -1  -7   7 1898.74    9.02   0
  -1  -7   8  325.07    4.17   0
  -1  -7   9  534.64    4.92   0
  -1  -7  10   11.04    3.22   0
  -1  -6   4   70.08    3.59   0
  -1   5   8   45.94    7.17   0
  -1   6   0 1385.59   11.30   0
   0  -4   9  711.68    5.76   0
   0  -2  10   18.21    3.35   0
  -5   7  -5  943.75    8.39   0
  -4   0  -4 2160.57   11.68   0
  -4   4  -5   33.88    3.60   0
  -4   5  -5  299.34    4.69   0
  -4   9  -3   23.79    3.51   0
  -4  10  -1   62.68    4.10   0
  -3  -8   4 1088.57   10.24   0
  -3   1  -4  523.45    6.15   0
  -3   6  -4  315.88    5.02   0
  -3   9  -1 1260.74    9.10   0
  -2   8   1    8.87    4.29   0
  -1  -7   6   66.35    3.47   0
  -1  -7  11   14.78    3.40   0
  -1  -6  12  250.54    3.99   0
  -1  -5   2    3.63    3.96   0
  -1   4  -2 6984.24   21.23   0
   0  -5   6   74.05    3.01   0
   0  -5   7 1360.85    7.71   0
   0  -5   8 2199.61    9.12   0
   0  -4  10  901.57    6.39   0
   0  -3   2  380.26    6.51   0
   0  -3  10  140.92    3.55   0
   0  -1  10    5.44    3.25   0
   0   1   9  572.93    6.66   0
   0   2   8 1500.23   10.69   0
  -6   0  -4   -2.17    3.57   0
  -6   3  -5  130.82    4.77   0
  -6   7  -5   32.89    3.51   0
  -5   0  -4  320.39    5.67   0
  -5   3  -5  381.61    6.28   0
  -5   6  -5   35.22    3.29   0
  -4  -3  -2   62.19    5.38   0
  -3  -9   6    6.54    3.81   0
  -3  -1  -3  879.79    8.59   0
  -2  -9   9  257.49    4.60   0
  -2  -9  10   20.85    3.50   0
  -2  -3  -1  956.30   16.90   0
  -2   8   2   18.39    5.07   0
  -2   8   3    0.73    5.06   0
   0  -5   5  296.90    4.59   0
   0  -5   9  914.77    6.16   0
   0  -2   1 1627.07   15.57   0
   0   0  10  141.45    4.51   0
   0   3   7   67.64    5.50   0
   0   4   5  150.35    8.90   0
  -6  -3  -2   48.78    4.71   0
  -6   4  -5    4.36    3.66   0
  -6   5  -5  135.44    4.47   0
  -6   6  -5    5.44    2.95   0
  -5   4  -5    2.77    2.68   0
  -5   5  -5  123.04    4.03   0
  -5   8  -4   30.34    3.25   0
  -4  -6   1    0.57    1.77   0
  -4   7  -4   73.69    3.31   0
  -4  10   0  305.20    5.66   0
  -3   2  -4   76.33    3.46   0
  -3   5  -4    1.85    2.85   0
  -3   7  -3  188.04    4.20   0
  -3   8  -2    4.78    3.31   0
  -3   9   0 1203.60    9.31   0
  -2  -9   8   39.05    3.33   0
  -2   5  -3  162.23    3.78   0
  -1  -7  12  230.82    3.95   0
  -1   5  -1 1001.99    8.97   0
  -1   6   1   13.85    4.26   0
   0  -5  10   46.39    3.00   0
   0  -4   3 1735.63   10.71   0
   0  -4  11    1.57    3.24   0
   0  -3  11  399.32    4.92   0
   0  -2  11    5.56    3.32   0
  -6   8  -4   23.11    3.71   0
  -5  -3  -2    2.05    4.81   0
  -5   9  -3   39.74    3.70   0
  -4   1  -4   24.79    3.31   0
  -4   8  -3   59.61    3.81   0
  -4   9  -2   34.32    3.30   0
  -3   3  -4  968.76    7.52   0
  -3   4  -4   28.14    3.02   0
  -3   9   1   53.71    4.29   0
  -2  -8   5   38.93    3.47   0
  -2   1  -3 3931.15   16.44   0
  -2   7  -1  640.53    6.85   0
  -1  -8   8  338.19    4.76   0
  -1  -8   9  820.50    5.83   0
  -1  -8  10  532.32    4.95   0
  -1  -8  11    8.13    3.19   0
  -1  -7   5  791.72    6.73   0
  -1   1  -2    4.96    3.60   0
  -1   3  -2 3034.17   14.41   0
   0  -6   7 1072.85    6.67   0
   0  -6   8 1464.63    7.52   0
   0  -6   9    3.69    3.14   0
   0  -5  11  220.08    4.10   0
   0  -1  11  278.93    4.81   0
  -6   1  -4   11.99    3.53   0
  -5   1  -4   70.87    3.92   0
  -5   7  -4   89.15    3.67   0
  -4  -8   3  307.07    8.65   0
  -4   6  -4  165.87    3.72   0
  -3   9   2   21.37    4.05   0
  -3   9   3   50.67    5.08   0
  -2  -9   7    6.56    3.14   0
  -2  -7   3 1604.30   11.43   0
  -2   4  -3 2060.30   10.18   0
  -2   6  -2  741.64    6.41   0
  -1  -8   7  560.59    5.57   0
  -1  -6   3  342.71    5.47   0
  -1   2  -2 7541.72   23.73   0
   0  -6   6  236.32    4.13   0
   0  -6  10  429.97    4.55   0
   0  -5   4 1957.39    9.97   0
   0  -3  12   12.98    3.46   0
   0   1  10   87.69    4.47   0
   0   2   9    1.99    3.90   0
  -6  -4  -1   -0.14    4.98   0
  -6  -1  -3  141.76    5.03   0
  -6   7  -4   86.45    3.65   0
  -4  -4  -1   77.02    6.47   0
  -4  -1  -3 1607.55   10.76   0
  -4   2  -4  341.72    5.50   0
  -4   5  -4  170.16    4.65   0
  -4   9  -1    7.74    3.37   0
  -3  -7   2   91.77    6.66   0
  -3   6  -3  332.48    4.83   0
  -3   8  -1  128.00    4.25   0
  -2   2  -3  183.95    4.51   0
  -2   3  -3 1945.09   10.19   0
  -1   6   2  148.64    6.23   0
  -1   6   4  538.78   13.47   0
   0  -6  11   44.53    3.06   0
   0  -5  12   60.47    3.45   0
   0  -4  12  652.59    5.57   0
   0  -2  12  271.19    4.62   0
   0   0  11   44.28    3.70   0
   0   3   8   15.95    4.89   0
   1  -2   5 2879.45   11.98   0
   1  -2   6    3.14    2.82   0
   1  -1   5   23.42    3.50   0
   1  -1   6  776.63    6.76   0
  -6   2  -4  150.97    4.34   0
  -5  -1  -3  722.11    7.62   0
  -5   2  -4   10.23    3.19   0
  -5   6  -4  601.87    5.81   0
  -5   8  -3    5.20    2.93   0
  -5   9  -2  126.47    4.12   0
  -4   3  -4   34.67    3.36   0
  -4   4  -4  676.67    6.45   0
  -4   7  -3    9.06    3.24   0
  -3  -9   5  179.32    5.22   0
  -3   0  -3  215.06    4.99   0
  -3   7  -2  365.13    5.05   0
  -2   7   0  108.77    4.65   0
  -1  -8   6   17.22    3.12   0
  -1  -7   4  170.69    4.68   0
  -1   6   3   43.20    6.16   0
   0  -7   8  155.86    3.80   0
   0  -7   9    3.90    2.66   0
   0  -7  10   95.54    3.52   0
   0  -6   5  119.66    3.12   0
   0   4   6  156.37    8.11   0
   1  -3   6  358.76    4.51   0
   1  -3   7  187.95    3.93   0
   1  -2   7  130.49    3.25   0
   1  -1   4 1551.73   10.30   0
   1  -1   7  986.32    7.22   0
   1   0   5 1784.10   10.72   0
   1   0   6   52.55    3.70   0
  -7   4  -4  132.78    4.02   0
  -6   3  -4   -3.03    3.36   0
  -6   5  -4   28.39    3.42   0
  -6   6  -4   91.66    3.60   0
  -6   8  -3   28.14    3.04   0
  -5  -4  -1  126.52    6.06   0
  -5   3  -4   36.92    3.56   0
  -5   5  -4   33.52    3.19   0
  -4   8  -2  637.46    6.07   0
  -3  -2  -2 1526.31   12.19   0
  -2  -9   6    6.01    3.16   0
  -2  -8   4  364.32    6.07   0
  -2  -1  -2    2.52    3.96   0
  -1  -9   9  215.91    4.23   0
  -1  -9  10   14.10    2.87   0
  -1   4  -1  109.66    4.60   0
  -1   5   0   24.35    3.86   0
   0  -7   7  341.59    4.14   0
   0  -7  11  224.20    3.71   0
   0  -6  12  563.90    4.99   0
   1  -4   7  761.38    6.13   0
   1  -3   5   39.44    2.94   0
   1  -3   8   75.82    3.07   0
   1  -2   4 3143.87   13.26   0
   1  -2   8 1966.79    8.97   0
   1  -1   8  972.86    7.04   0
   1   0   4 2498.11   13.35   0
  -6   4  -4  100.90    3.62   0
  -5   4  -4  121.78    3.56   0
  -4   9   0    1.44    3.45   0
  -3   5  -3  503.69    5.21   0
  -3   8   0  186.70    4.57   0
  -2   5  -2  433.00    5.22   0
  -2   6  -1   50.48    3.27   0
  -1  -9   8    6.79    3.16   0
   0  -7   6  333.71    4.46   0
   0  -5   3 2993.50   12.91   0
   0  -4   2   15.47    3.56   0
   0   2  10  422.24    6.80   0
   1  -4   6  992.74    6.76   0
   1  -4   8 2568.28    9.71   0
   1  -4   9    0.15    3.00   0
   1  -3   9   25.52    2.76   0
   1  -2   9  181.40    4.01   0
   1   0   7  121.69    4.06   0
  -6   0  -3  842.25    7.34   0
  -6   7  -3   46.10    3.59   0
  -5   7  -3  123.70    3.73   0
  -5   8  -2   83.31    3.88   0
  -5   9  -1   12.35    3.26   0
  -4   0  -3   18.43    3.66   0
  -4   6  -3  372.48    4.83   0
  -3  -8   3  194.94    6.65   0
  -3   1  -3 1547.17   10.04   0
  -3   4  -3  119.33    3.91   0
  -2   7   1    2.26    3.57   0
  -1  -8   5  119.17    3.90   0
   0  -8   9  115.16    3.64   0
   0  -8  10  620.97    5.24   0
   0  -6   4 1429.20    8.52   0
   1  -5   7 3214.23   10.98   0
   1  -5   8  832.87    5.84   0
   1  -5   9    7.44    3.15   0
   1  -4   5   26.89    2.70   0
   1  -3   4  306.47    4.57   0
   1  -3  10  155.53    3.82   0
   1  -1   3   62.74    3.80   0
   1  -1   9   27.76    3.33   0
   1   0   8   13.07    3.34   0
   1   1   5 1863.54   11.79   0
   1   1   6   44.30    4.41   0
  -7   1  -3   80.88    4.00   0
  -6  -2  -2   52.31    4.16   0
  -5   0  -3   33.63    3.38   0
  -4  -5   0   17.30    6.64   0
  -4   7  -2  219.31    4.12   0
  -4   8  -1  202.74    4.43   0
  -4   9   1    8.37    3.41   0
  -3   6  -2  825.09    6.50   0
  -3   7  -1  699.86    6.31   0
  -1  -9   7 1084.22    7.04   0
   0  -8   8  187.43    3.66   0
   0  -8  11   98.17    3.12   0
   0   3   9   79.41    5.05   0
   1  -5   6    1.01    2.89   0
   1  -5  10    5.94    2.94   0
   1  -4  10  614.83    5.22   0
   1  -2   3 2323.52   11.95   0
   1  -2  10  596.30    5.53   0
   1   0   3 1298.65   10.78   0
   1   1   4  446.66    6.79   0
  -7   6  -3    0.51    2.73   0
  -6   6  -3   72.10    3.72   0
  -6   8  -2   13.81    2.74   0
  -5  -5   0  161.78    6.86   0
  -5  -2  -2 1041.80    9.16   0
  -5   6  -3    6.36    2.76   0
  -4  -2  -2  167.23    5.07   0
  -4   5  -3  313.18    4.51   0
  -3   2  -3  224.21    4.50   0
  -3   3  -3 2115.30   11.41   0
  -3   8   1   53.35    3.63   0
  -2 -10   7    6.75    3.05   0
  -2  -9   5  658.10    6.71   0
  -2   4  -2  877.24    7.16   0
   0  -8   7    1.36    3.07   0
   0  -7   5   86.85    3.32   0
   0  -3   1 2234.18   15.27   0
   0   4   7   17.30    5.51   0
   1  -6   8 1682.16    7.81   0
   1  -6   9  240.31    4.09   0
   1  -5  11  224.02    4.08   0
   1  -4  11  176.53    3.94   0
   1  -3  11  430.49    5.16   0
   1  -1  10   13.77    3.41   0
   1   0   9    3.56    3.41   0
   1   1   7    9.23    3.44   0
  -7  -1  -2   26.53    3.81   0
  -7   2  -3   60.17    3.22   0
  -7   3  -3   36.04    3.55   0
  -7   5  -3   80.26    3.32   0
  -6   1  -3  441.26    7.80   0
  -5   1  -3  521.01    7.00   0
  -5   5  -3   50.71    3.43   0
  -5   9   0   11.36    2.95   0
  -4   1  -3  898.95    7.21   0
  -4   4  -3  348.55    5.56   0
  -4   9   2   -2.01    3.64   0
  -2   7   2  287.14    5.89   0
  -1  -6   2  843.93    8.59   0
  -1  -1  -1 1026.82   14.67   0
  -1   3  -1 5117.10   19.60   0
   0  -9  10    7.62    2.93   0
   1  -6   7   42.19    2.86   0
   1  -6  10  591.20    5.04   0
   1  -5   5  591.93    5.20   0
   1  -4   4  574.77    5.60   0
   1  -2  11   76.51    3.50   0
  -7   4  -3   17.94    2.97   0
  -6   2  -3   -3.21    3.04   0
  -6   5  -3  146.58    3.94   0
  -5   7  -2  227.86    4.00   0
  -5   8  -1   45.11    3.55   0
  -4   2  -3  242.14    4.77   0
  -4   3  -3 1312.19    9.10   0
  -4   8   0  210.61    4.48   0
  -3  -9   4  168.50    5.72   0
  -3   8   2  134.17    4.55   0
  -2   0  -2 1728.43   11.76   0
  -2   3  -2  414.79    5.56   0
  -2   6   0   92.37    3.69   0
  -2   7   6    5.36    6.37   0
  -1 -10   8   90.62    3.44   0
  -1  -9   6   69.43    3.28   0
  -1  -7   3 6893.48   20.16   0
  -1  -5   1 2133.98   15.57   0
  -1   5   1 3772.80   18.45   0
   0  -9   9   60.08    3.08   0
   0  -8   6    4.01    2.88   0
   1  -7   9  200.69    3.85   0
   1  -6   6   59.63    2.74   0
   1  -6  11   59.67    2.88   0
   1  -3   3    3.20    2.62   0
   1   1   3 1292.85   11.64   0
   1   1   8  551.84    6.39   0
  -7   7  -2    1.97    2.82   0
  -6   3  -3  145.08    3.61   0
  -6   4  -3    3.36    2.47   0
  -6   7  -2   81.07    3.28   0
  -6   8  -1   23.72    3.44   0
  -5   2  -3   52.65    3.20   0
  -5   3  -3   26.42    3.28   0
  -5   4  -3  199.32    4.54   0
  -5   9   1   59.03    3.69   0
  -4   6  -2  204.16    3.70   0
  -4   9   3    0.41    3.64   0
  -3   5  -2   18.70    2.51   0
  -3   7   0  116.81    3.85   0
  -2   5  -1   11.04    2.67   0
  -2   7   3  436.15    7.62   0
  -1  -8   4  166.33    4.21   0
   0  -9   8  329.81    4.55   0
   0  -6   3  392.56    5.40   0
   1  -7   8   26.01    2.69   0
   1  -7  10   33.39    2.73   0
   1  -7  11  241.07    3.70   0
   1  -1  11  237.20    4.32   0
   1   0  10  703.24    6.42   0
  -7   0  -2  204.51    4.60   0
  -7   6  -2   51.95    3.44   0
  -6  -3  -1   77.37    4.43   0
  -6  -1  -2  144.21    4.88   0
  -4   7  -1  243.52    4.15   0
  -3  -1  -2  142.05    4.52   0
  -3   6  -1  743.10    6.07   0
  -3   8   3    5.87    3.84   0
  -2 -10   6  481.39    5.83   0
  -2  -7   2  738.36    9.46   0
  -2   1  -2  748.70    7.65   0
  -2   2  -2   12.43    2.77   0
  -1   4   0  510.62    7.01   0
   0  -7   4   31.93    3.04   0
   0  -5   2    1.93    3.25   0
   1  -7   7 1156.47    6.60   0
   1  -6   5    0.06    2.64   0
   1  -5   4  163.48    3.40   0
   1   1   9  425.77    5.81   0
   1   2   5  610.85    7.98   0
   1   2   6  262.41    5.88   0
  -6   6  -2   50.17    3.00   0
  -5  -1  -2  325.60    5.35   0
  -5   6  -2  140.93    3.39   0
  -5   8   0  168.28    4.46   0
  -5   9   2   59.45    4.09   0
  -4   8   1  109.27    4.07   0
  -3   4  -2    4.07    2.93   0
  -3   8   4  103.95    4.98   0
  -3   8   5   91.72    6.06   0
  -2  -8   3    8.92    4.19   0
  -2  -6   1  168.79    7.62   0
  -2   7   4  110.85    5.96   0
  -2   7   5    1.70    5.15   0
  -1 -10   7    5.20    2.88   0
  -1   2  -1 9999.99   28.47   0
   0  -9   7  500.13    5.00   0
   0  -8   5   47.43    3.30   0
   1  -8   9   28.84    2.69   0
   1  -8  10   29.84    2.63   0
   1  -7   6  165.87    3.59   0
   1  -4   3   34.06    3.02   0
   1  -1   2    4.06    3.23   0
   1   2   7   90.10    4.68   0
  -7  -2  -1    2.02    3.43   0
  -7   1  -2   -0.22    3.08   0
  -7   5  -2   63.57    3.03   0
  -5  -6   1    1.89    5.79   0
  -5   7  -1  322.36    4.31   0
  -4  -1  -2   13.07    3.36   0
  -4   5  -2  225.66    3.88   0
  -3  -3  -1   93.38    5.08   0
  -1  -9   5   75.06    3.32   0
   0   4   8  401.72    9.02   0
   1  -8   8  347.52    4.03   0
   1  -2   2 7730.62   22.58   0
   1   0   2 1667.89   12.97   0
   1   2   4 1443.69   12.37   0
   2  -4   8  110.02    3.29   0
   2  -3   7  540.94    5.06   0
   2  -3   8    0.41    2.79   0
  -7   2  -2  233.64    4.53   0
  -7   4  -2   22.05    2.81   0
  -7   7  -1   23.31    2.81   0
  -6   0  -2  985.55    8.13   0
  -6   5  -2  210.14    4.10   0
  -6   7  -1   59.35    3.00   0
  -6   8   0   61.63    3.32   0
  -5  -3  -1  871.22    8.70   0
  -5   5  -2   74.19    2.99   0
  -3   7   1  783.26    7.00   0
  -2  -9   4   37.38    4.11   0
  -2   4  -1  832.63    7.15   0
  -2   6   1  860.37    7.77   0
   1  -8   7  122.36    3.46   0
   1   1  10  170.10    4.73   0
   1   2   8   73.58    4.59   0
   2  -5   8  398.89    4.34   0
   2  -5   9  928.26    5.85   0
   2  -4   7  155.18    3.31   0
   2  -4   9  216.76    3.63   0
   2  -3   6   46.59    2.63   0
   2  -3   9   35.11    3.03   0
   2  -2   6  770.68    5.94   0
   2  -2   7    1.20    2.74   0
   2  -2   8  622.18    5.48   0
  -7   3  -2   10.97    2.70   0
  -6   4  -2  465.64    5.55   0
  -4  -3  -1   21.26    4.03   0
  -4   4  -2  793.35    6.00   0
  -4   6  -1   28.97    2.63   0
  -4   7   0   68.58    3.37   0
  -3   0  -2 1146.77    9.06   0
  -3   3  -2  584.18    6.23   0
  -1 -10   6   57.05    3.59   0
  -1   1  -1  183.67    5.77   0
   0 -10   8  207.11    3.52   0
   0  -9   6  174.61    3.37   0
   0  -4   1   60.01    3.83   0
   1  -9   9  301.76    3.95   0
   1  -7   5  592.81    5.15   0
   1  -6   4  106.36    2.81   0
   1  -3   2 3047.29   13.38   0
   2  -6   8  696.61    5.38   0
   2  -6   9   15.29    2.63   0
   2  -6  10  148.88    3.49   0
   2  -5   7  273.61    3.79   0
   2  -5  10   61.09    2.80   0
   2  -4   6  749.10    5.55   0
   2  -4  10  323.10    4.18   0
   2  -3   5 2998.03   10.77   0
   2  -3  10   10.34    2.87   0
   2  -2   9    7.12    2.85   0
   2  -1   7  658.78    5.93   0
  -7   6  -1   25.20    2.77   0
  -6   1  -2   14.96    2.69   0
  -6   2  -2  261.33    4.54   0
  -6   3  -2    6.47    2.87   0
  -5   0  -2  146.94    4.57   0
  -5   4  -2  827.13    6.26   0
  -5   6  -1   10.77    2.98   0
  -5   8   1   73.36    3.43   0
  -4   0  -2   52.73    3.07   0
  -4   8   2    4.06    3.09   0
  -3   1  -2  337.64    5.46   0
  -3   2  -2    4.05    2.62   0
  -3   5  -1 2229.98    9.71   0
  -3   6   0  555.61    5.65   0
  -2 -10   5   96.64    4.44   0
  -2   5   0  119.62    3.61   0
  -1   5   2  498.57    7.79   0
   1  -9   8  586.36    5.08   0
   1  -8   6 1304.38    6.99   0
   1  -5   3 1334.55    7.90   0
   2  -6   7  926.02    5.87   0
   2  -5   6 1279.76    6.91   0
   2  -5  11  449.41    4.50   0
   2  -4   5  728.27    5.91   0
   2  -2   5  320.30    4.17   0
   2  -2  10  353.83    4.61   0
   2  -1   6   66.47    3.15   0
   2  -1   8  100.73    3.46   0
  -8   4  -1    3.26    3.02   0
  -7  -1  -1  242.96    5.21   0
  -7   7   0    3.22    2.86   0
  -6  -4   0   32.77    4.10   0
  -6  -2  -1   48.12    3.58   0
  -6   6  -1    1.67    2.52   0
  -6   8   1   16.05    3.37   0
  -5   1  -2   66.03    3.17   0
  -5   2  -2  445.38    5.99   0
  -5   3  -2   80.14    2.92   0
  -5   7   0  219.14    4.27   0
  -4   1  -2   34.01    2.86   0
  -4   3  -2   90.22    3.16   0
   0 -10   7   20.86    2.84   0
   0  -8   4  599.41    5.59   0
   0  -7   3    8.28    3.01   0
   1   2   9    7.49    3.49   0
   2  -7   8   61.53    2.74   0
   2  -7   9  514.19    4.56   0
   2  -7  10    2.24    2.34   0
   2  -1   5 1123.63    7.41   0
   2  -1   9   65.77    3.27   0
  -8   2  -1   -2.33    2.82   0
  -8   3  -1   71.11    3.14   0
  -7  -3   0   39.26    3.94   0
  -7   5  -1  165.69    3.66   0
  -6   7   0    4.06    2.65   0
  -4   2  -2 1234.53    8.86   0
  -4   8   3  156.34    4.31   0
  -3   7   2   21.86    3.25   0
  -2  -2  -1  857.12   10.79   0
  -1  -8   3  749.11    7.32   0
   0  -9   5  151.60    3.68   0
   0  -6   2  798.03    7.27   0
   1  -9   7  214.19    3.52   0
   1  -4   2 7014.30   19.00   0
   1   1   2   11.74    3.47   0
   1   2   3  453.68    8.44   0
   2  -8  10   87.81    3.25   0
   2  -7   7 1107.72    6.43   0
   2  -6   6  664.46    5.10   0
   2  -5   5  544.87    4.87   0
   2  -3   4   55.21    2.74   0
   2  -2   4 4196.30   13.56   0
   2   0   6  743.84    6.67   0
   2   0   7   11.66    3.06   0
  -7   0  -1  148.81    4.09   0
  -7   4  -1   16.03    2.92   0
  -6   5  -1  168.27    3.83   0
  -5   8   2  273.52    4.43   0
  -4  -6   1    0.07    1.46   0
  -4   5  -1  345.97    4.29   0
  -4   7   1  102.60    3.39   0
  -2   3  -1  244.60    4.23   0
  -2   6   2   11.75    3.63   0
  -1  -9   4    5.03    3.05   0
  -1  -7   2 2508.55   13.79   0
   1  -8   5   14.59    2.72   0
   1  -7   4  427.25    4.63   0
   2  -8   8   -3.70    2.56   0
   2  -8   9   32.06    2.58   0
   2  -4   4  862.38    6.13   0
   2  -1   4 2404.13   10.90   0
   2  -1  10   34.57    3.11   0
   2   0   8  504.79    5.36   0
  -7   1  -1   37.98    3.03   0
  -7   3  -1  182.24    3.97   0
  -7   6   0   15.38    2.96   0
  -6  -1  -1   94.59    3.79   0
  -6   8   2   17.94    3.31   0
  -5  -2  -1    1.85    2.92   0
  -5   5  -1   22.20    2.58   0
  -4   6   0   29.11    2.46   0
  -4   8   4  126.78    4.24   0
  -3   4  -1  273.91    4.11   0
  -1 -10   5   -1.04    3.18   0
  -1   3   0   18.01    3.33   0
   0 -10   6   10.30    2.73   0
   1 -10   8   83.18    2.81   0
   1  -9   6  489.81    4.75   0
   1  -6   3  714.41    5.86   0
   1   3   6  259.40    7.10   0
   2  -7   6  420.23    4.25   0
   2  -6   5  133.54    2.97   0
   2   0   5  363.58    4.90   0
   2   0   9  128.27    4.01   0
  -8   5   0   63.44    3.11   0
  -7   2  -1   20.17    2.65   0
  -7   7   1  139.84    3.47   0
  -6   4  -1   93.94    3.15   0
  -6   6   0  105.65    3.49   0
  -5   6   0  453.76    5.40   0
  -5   7   1   67.40    3.45   0
   1   3   7  185.25    5.92   0
   2  -9   9  499.19    4.46   0
   2  -8   7   21.11    2.28   0
   2  -5   4  765.06    5.39   0
  -8   4   0  140.73    3.69   0
  -6   0  -1    1.60    2.75   0
  -6   7   1   22.93    2.79   0
  -5  -4   0  734.41    8.39   0
  -5   4  -1  177.03    3.41   0
  -5   8   3   18.49    3.08   0
  -4  -6   1   14.10    5.49   0
  -4  -2  -1  159.49    4.48   0
  -4   4  -1    3.68    2.36   0
  -4   8   5   33.43    3.79   0
  -3  -9   3  283.45    8.35   0
  -3   5   0  176.13    3.61   0
  -3   6   1   21.70    2.92   0
  -3   7   3  159.17    3.98   0
  -1   4   1 1749.46   11.95   0
   1 -10   7   91.73    3.20   0
   1  -5   2 1198.64    7.77   0
   1   3   5 1286.97   13.35   0
   2  -9   8   72.63    2.72   0
   2  -3   3 1920.33    9.01   0
   2  -2   3  189.03    3.89   0
   2   0   4 1030.59    7.70   0
   3  -5   9  500.93    4.99   0
  -8   0   0   76.73    3.19   0
  -8   3   0   45.35    3.35   0
  -7  -2   0  251.08    4.90   0
  -7   5   0   31.99    2.75   0
  -6  -5   1  227.75    5.93   0
  -6   1  -1   97.50    3.26   0
  -6   2  -1   41.33    2.99   0
  -6   3  -1  527.10    5.05   0
  -6   8   3   21.76    3.18   0
  -4   7   2  141.86    3.75   0
  -3  -2  -1  220.17    5.12   0
  -3   3  -1 1589.66    8.32   0
  -2   2  -1 2050.54   10.90   0
  -2   4   0  647.60    6.46   0
  -2   5   1  769.31    6.89   0
  -1  -6   1   25.72    4.14   0
   0  -5   1   54.54    3.52   0
   1   3   8  102.77    5.36   0
   2  -8   6  214.50    3.30   0
   2  -7   5  217.86    3.36   0
   2  -6   4   55.19    2.84   0
   2  -4   3 2004.77    9.05   0
   2   1   6   74.95    3.62   0
   2   1   7 1627.37    9.52   0
   3  -6   8    3.40    2.39   0
   3  -6   9   16.41    2.32   0
   3  -5   7 1005.04    6.22   0
   3  -5   8   16.64    2.34   0
   3  -5  10   74.92    2.90   0
   3  -4   7    6.98    2.24   0
   3  -4   8   29.40    2.49   0
   3  -4   9  145.93    3.35   0
   3  -4  10  209.75    3.99   0
   3  -3   8  204.31    3.86   0
  -8   1   0    9.73    2.58   0
  -8   2   0   64.26    3.14   0
  -7   6   1    8.09    2.94   0
  -7   7   2   27.06    2.99   0
  -6  -3   0   13.60    3.26   0
  -6   5   0    0.14    2.69   0
  -5  -7   2    7.31    5.36   0
  -5  -1  -1  397.38    6.85   0
  -5   3  -1    5.39    2.31   0
  -5   8   4   47.78    3.36   0
  -4   3  -1   38.44    2.87   0
  -4   5   0  436.73    4.69   0
  -3   7   4   15.15    3.57   0
  -2  -9   3  434.40    7.12   0
  -2  -1  -1 1537.00   11.61   0
  -2   6   3   31.06    3.58   0
   0 -10   5    4.64    3.01   0
   0  -9   4    2.51    2.54   0
   0  -8   3  275.96    4.46   0
   1  -9   5   19.80    2.78   0
   1  -8   4  890.04    5.88   0
   1  -7   3   70.16    3.04   0
   1  -2   1 9934.48   26.63   0
   1  -1   1  199.39    5.89   0
   2  -9   7  114.96    3.02   0
   2  -1   3 3834.19   14.03   0
   2   1   5 3299.88   13.98   0
   2   1   8    5.82    3.10   0
   3  -7   8   70.60    2.84   0
   3  -7   9  300.28    3.67   0
   3  -6   7  180.29    3.42   0
   3  -5   6  238.62    3.74   0
   3  -4   6  376.49    4.19   0
   3  -3   6   65.17    2.94   0
   3  -3   7 1193.39    6.93   0
   3  -3   9  597.78    5.14   0
  -8   5   1   68.86    2.89   0
  -7  -1   0    7.20    2.96   0
  -7   4   0    4.88    2.40   0
  -6   6   1  112.49    3.46   0
  -6   7   2    5.68    3.04   0
  -5   0  -1   18.79    2.81   0
  -5   2  -1   52.58    3.11   0
  -5   5   0   35.73    2.61   0
  -5   7   2   13.68    2.63   0
  -4   6   1    3.42    2.23   0
  -2 -10   4    1.27    3.41   0
  -2   1  -1 3622.52   15.40   0
  -1   5   3   24.62    3.64   0
   1 -10   6  545.85    4.71   0
   2  -5   3  166.95    3.37   0
   2   1   9  379.15    5.57   0
   3  -8   9   71.02    2.83   0
   3  -7   7  634.67    4.95   0
   3  -6   6 2872.09    9.56   0
   3  -2   6  970.00    6.46   0
   3  -2   7  429.30    4.77   0
   3  -2   8   19.69    2.67   0
   3  -2   9    0.30    2.53   0
  -7   3   0   37.43    2.80   0
  -5   1  -1  461.05    6.09   0
  -5   6   1  127.65    3.06   0
  -4  -4   0 1306.26   11.04   0
  -4  -1  -1  603.26    6.00   0
  -4   2  -1  152.65    3.77   0
  -4   7   3   10.53    2.88   0
  -3   2  -1  140.58    3.38   0
  -3   6   2 1106.70    7.93   0
  -3   7   5  112.89    4.79   0
  -2   0  -1 1808.00   11.71   0
   0  -7   2  143.52    4.04   0
   1  -3   1 5250.29   17.89   0
   1   3   4  569.70   11.18   0
   2  -9   6    4.30    2.25   0
   2  -8   5  122.01    2.89   0
   2  -7   4  126.12    3.10   0
   3  -8   8  100.11    2.90   0
   3  -5   5 1100.64    6.35   0
   3  -4   5  230.53    3.51   0
   3  -3   5   41.36    2.61   0
  -8   4   1    3.94    2.29   0
  -7   0   0  236.18    4.22   0
  -7   1   0    4.05    2.69   0
  -7   2   0  245.52    4.12   0
  -7   5   1   27.27    2.96   0
  -6  -2   0   13.09    3.02   0
  -6   4   0  115.70    3.05   0
  -4   0  -1    3.63    2.27   0
  -4   1  -1  146.20    3.73   0
  -3  -1  -1   56.32    3.43   0
  -3   4   0 4611.02   14.02   0
  -2  -8   2    9.02    4.51   0
  -1 -10   4  211.62    4.76   0
  -1  -9   3  615.30    7.12   0
   1  -6   2 2195.40    9.83   0
   2 -10   7  156.41    3.11   0
   2   0   3   30.77    2.98   0
   3  -8   7   36.72    2.45   0
   3  -7   6   80.97    2.80   0
   3  -2   5  279.91    4.07   0
   3  -1   7   53.78    3.18   0
   3  -1   8   14.39    2.97   0
  -8  -1   1    4.60    2.72   0
  -8   3   1   34.19    2.96   0
  -7   6   2  273.38    4.14   0
  -7   7   3   10.25    2.52   0
  -6   7   3  104.11    3.61   0
  -5   4   0  223.17    3.69   0
  -5   7   3  383.86    4.84   0
  -4   4   0   10.83    2.56   0
  -3   0  -1  283.62    5.11   0
  -3   1  -1  465.65    5.96   0
  -3   5   1   38.97    2.66   0
  -3   7   6  253.22    6.14   0
  -2   6   4  193.52    5.21   0
   1  -9   4  154.31    3.71   0
   1  -4   1  129.04    3.89   0
   2  -6   3 1035.33    6.01   0
   2  -3   2  458.93    5.03   0
   2  -2   2   15.93    2.68   0
   2   1   4   79.09    3.57   0
   3  -9   8   13.88    2.34   0
   3  -6   5   18.79    2.29   0
   3  -1   6  256.97    4.07   0
   3  -1   9  562.40    5.72   0
  -8   0   1    2.51    2.72   0
  -8   2   1    1.71    2.74   0
  -8   5   2   38.03    2.67   0
  -7  -3   1  322.28    5.42   0
  -6   3   0   32.93    2.62   0
  -6   5   1    5.86    2.35   0
  -6   6   2   52.23    3.03   0
  -5  -3   0    1.23    2.70   0
  -4   6   2  365.18    4.56   0
  -4   7   4   20.53    2.79   0
  -2   3   0   82.86    3.40   0
  -1  -8   2    1.36    3.88   0
  -1   2   0  421.89    6.69   0
   0  -3   0 1145.30   12.55   0
   1 -10   5   81.23    3.03   0
   1  -8   3  243.87    4.09   0
   2 -10   6  496.54    4.66   0
   2  -9   5    1.39    2.50   0
   2  -8   4   12.74    2.53   0
   2  -4   2  884.62    6.46   0
   3  -9   7  167.81    3.36   0
   3  -8   6  632.15    4.71   0
   3  -7   5   57.22    2.82   0
   3  -5   4    1.41    2.53   0
   3  -4   4   29.95    2.32   0
   3  -3   4 1078.34    6.40   0
  -8   1   1   39.11    2.76   0
  -7   4   1    4.80    2.33   0
  -6  -1   0    8.09    2.63   0
  -6   2   0   54.72    3.07   0
  -5   5   1 1444.82    7.54   0
  -5   6   2    9.37    2.23   0
  -4   5   1  208.03    3.36   0
  -2   5   2 1140.71    8.28   0
   0 -10   4  655.28    5.99   0
   2  -1   2  865.19    7.18   0
   3  -2   4   83.78    2.81   0
   3  -1   5   -0.20    2.41   0
   4  -6   8  606.11    4.90   0
   4  -5   9   88.20    3.29   0
  -8   4   2   32.49    2.95   0
  -7   5   2    2.86    2.75   0
  -6  -4   1    9.99    3.11   0
  -6   0   0  108.17    3.36   0
  -6   1   0    8.49    2.64   0
  -6   7   4  195.89    4.11   0
  -5  -5   1  176.59    5.54   0
  -5   3   0   36.65    2.52   0
  -5   7   4   46.19    3.08   0
  -4   7   5  111.96    4.02   0
  -3  -4   0    1.68    3.68   0
  -3   6   3  206.43    4.07   0
  -2   4   1  802.27    6.90   0
  -2   6   5   40.36    4.10   0
  -1   5   4  249.63    6.45   0
   0  -9   3  342.83    5.07   0
   0  -6   1  373.53    5.66   0
   0   3   2 1848.22   20.74   0
   2  -7   3 1351.23    6.98   0
   2  -5   2  455.27    4.71   0
   2   2   6   38.68    4.17   0
   2   2   7    1.86    3.76   0
   3  -6   4  319.54    3.72   0
   4  -7   8    6.54    2.24   0
   4  -6   7  102.43    3.03   0
   4  -5   7   53.65    2.86   0
   4  -5   8   79.23    2.81   0
   4  -4   8   56.11    3.09   0
   4  -4   9   27.99    2.98   0
  -7  -2   1   19.06    2.80   0
  -7   3   1    1.41    2.16   0
  -7   6   3   19.52    2.57   0
  -6   4   1  203.70    3.54   0
  -5  -2   0  116.69    4.21   0
  -4   3   0  802.35    5.78   0
  -3   3   0 1313.86    7.53   0
  -1   4   2    8.02    3.27   0
   0   2   1  379.51   10.79   0
   1  -7   2  457.91    5.05   0
   1  -5   1 1277.93    8.31   0
   2   2   8  100.96    4.32   0
   3  -9   6    3.42    2.25   0
   3  -8   5  184.26    3.19   0
   3   0   6   40.80    2.94   0
   3   0   7  354.08    4.56   0
   3   0   8  331.51    4.95   0
   4  -7   7  206.96    3.71   0
   4  -4   7    1.58    2.20   0
  -8   3   2   32.39    2.89   0
  -8   5   3   76.15    2.96   0
  -7  -1   1   74.15    3.12   0
  -7   2   1   45.66    2.85   0
  -6   6   3   40.56    3.00   0
  -6   7   5    0.42    2.63   0
  -5   2   0   62.23    2.49   0
  -5   7   5   20.09    2.82   0
  -4   6   3  710.25    5.79   0
  -4   7   6   28.21    3.36   0
  -2   6   6    6.90    4.09   0
   0  -8   2 1497.29    9.35   0
   2 -10   5   73.75    2.90   0
   2  -9   4   37.17    2.70   0
   3  -7   4    2.26    2.12   0
   3  -5   3  490.85    4.46   0
   3  -4   3  144.32    2.95   0
   3  -3   3 2580.87    9.78   0
   3  -1   4  500.56    5.00   0
   4  -8   7  109.72    3.04   0
   4  -6   6   84.74    2.78   0
   4  -5   6   49.84    2.41   0
   4  -4   6  330.43    4.04   0
   4  -3   7  110.93    3.37   0
   4  -3   8    3.64    2.22   0
  -7   0   1   84.90    3.23   0
  -7   1   1   19.16    2.72   0
  -7   4   2   82.74    3.12   0
  -6   5   2    4.88    2.36   0
  -5  -1   0  126.93    3.75   0
  -5   1   0  150.73    3.65   0
  -5   4   1  109.07    2.92   0
  -5   6   3    1.58    2.21   0
  -4  -3   0   18.73    3.24   0
  -3   5   2  161.47    3.51   0
   1 -10   4   18.68    2.63   0
   2  -6   2  878.19    5.97   0
   2   1   3   17.94    2.78   0
   3  -2   3  276.59    4.02   0
   3   0   5    1.24    2.93   0
   4  -7   6  260.89    3.71   0
   4  -5   5  368.46    4.00   0
   4  -3   6    8.52    2.48   0
  -8  -1   2    6.84    2.52   0
  -8   1   2   11.86    2.84   0
  -8   2   2  119.81    3.20   0
  -8   4   3   43.77    2.98   0
  -7  -4   2   87.81    3.70   0
  -7   5   3  188.02    3.64   0
  -7   6   4   87.87    3.18   0
  -6  -3   1  344.23    5.26   0
  -6   3   1  151.91    3.27   0
  -5   0   0   19.43    2.64   0
  -5   5   2   10.32    2.33   0
  -5   7   6    5.55    2.75   0
  -4   2   0  955.91    6.35   0
  -4   4   1    5.37    2.02   0
  -4   5   2  212.08    3.68   0
  -3  -6   1   60.26    6.40   0
  -3   4   1    1.41    2.30   0
  -3   6   4    4.34    2.50   0
  -2   2   0   41.82    3.25   0
  -2   6   7  264.62    6.37   0
   1  -9   3   49.74    2.88   0
   1   2   2  167.38    7.22   0
   2  -8   3   23.06    2.58   0
   2   0   2 1719.90   10.57   0
   3 -10   6   81.23    2.69   0
   3  -9   5  659.76    4.87   0
   3  -8   4  197.58    3.34   0
   3  -6   3  319.44    3.76   0
   4  -8   6  596.05    4.92   0
   4  -6   5  312.37    4.05   0
   4  -4   5   39.71    2.41   0
   4  -2   7   47.33    2.89   0
   4  -2   8   64.81    3.05   0
  -8   0   2   58.30    2.76   0
  -8   5   4  266.54    3.90   0
  -6   6   4   67.72    3.07   0
  -3   2   0  625.13    5.78   0
  -2  -4   0  301.85    9.48   0
  -2   5   3  249.62    4.58   0
   0  -4   0 2088.96   14.84   0
   4  -7   5  164.87    3.17   0
   4  -3   5  311.75    3.94   0
   4  -2   6  393.98    4.99   0
  -7   3   2    3.79    2.14   0
  -6   2   1  184.75    3.49   0
  -6   4   2  183.38    3.64   0
  -5   3   1  275.29    4.36   0
  -5   6   4   23.17    2.90   0
  -4  -2   0  369.40    6.10   0
  -4   1   0  775.94    7.15   0
  -4   6   4   34.01    2.80   0
  -1  -7   1  554.25    8.70   0
  -1   5   5 2063.58   15.36   0
   1  -8   2 3857.66   12.81   0
   1  -6   1   54.52    3.12   0
   2  -7   2  369.28    4.31   0
   2  -3   1  232.85    3.78   0
   3  -7   3  188.70    3.11   0
   3  -1   3 1784.99    8.60   0
   3   0   4 1639.63    9.31   0
   4  -9   6    0.97    2.04   0
   4  -5   4  222.07    3.54   0
   4  -4   4  712.77    5.63   0
  -8   3   3    6.46    2.29   0
  -7  -3   2    6.53    3.00   0
  -7   6   5   64.90    2.92   0
  -6  -5   2   -0.77    3.19   0
  -6  -2   1    1.21    2.53   0
  -6   1   1  348.96    4.92   0
  -6   5   3  144.56    3.28   0
  -5  -4   1   11.37    3.17   0
  -3   6   5   53.77    3.51   0
  -1 -10   3  254.27    5.56   0
   2 -10   4   40.72    2.66   0
   2  -4   1  861.47    6.32   0
   2  -2   1 2267.01   10.39   0
   2   2   4 1077.75    9.52   0
   3 -10   5  290.42    3.83   0
   3  -9   4    1.55    2.39   0
   3  -4   2    1.87    2.02   0
   3  -3   2  737.53    5.52   0
   3   1   6   16.99    3.20   0
   3   1   7  148.22    4.12   0
   3   1   8    4.82    3.25   0
   4  -8   5  181.15    3.06   0
   4  -6   4  162.09    3.04   0
   4  -3   4   43.49    2.63   0
   4  -2   5   17.68    2.33   0
   4  -1   8   74.74    3.52   0
  -8   2   3    7.63    2.73   0
  -8   4   4  488.07    4.91   0
  -7   2   2  311.18    4.08   0
  -7   4   3   92.86    2.88   0
  -7   5   4   37.38    2.48   0
  -6  -1   1  194.33    3.76   0
  -6   0   1    5.57    2.65   0
  -6   6   5  133.71    3.54   0
  -5   4   2  486.61    4.73   0
  -5   5   3  384.59    5.12   0
  -4  -1   0   20.58    2.57   0
  -4   0   0  961.70    7.83   0
   0 -10   3   10.50    3.23   0
   0  -7   1  275.93    5.33   0
   2  -9   3  352.21    4.24   0
   2  -5   1   13.80    2.32   0
   3  -5   2   17.64    2.10   0
   3  -2   2    1.54    2.50   0
   4  -7   4   60.71    2.59   0
   4  -1   6   24.78    2.78   0
   4  -1   7  168.10    3.66   0
   5  -7   7   17.65    2.34   0
   5  -6   7   15.15    2.15   0
   5  -5   7   -0.66    2.02   0
  -7  -2   2   14.11    2.54   0
  -7   1   2  201.64    3.73   0
  -6   3   2  236.55    4.20   0
  -5   2   1  138.93    3.36   0
  -5   6   5   33.96    2.85   0
  -4  -5   1  101.41    4.66   0
  -4   3   1  199.57    3.67   0
  -4   5   3  496.73    4.83   0
  -4   6   5    7.03    2.52   0
  -3  -3   0 1134.02    9.90   0
  -3   1   0 2287.28   10.56   0
  -3   5   3   68.02    2.99   0
  -3   6   6  997.38    8.40   0
  -2   3   1 4453.02   15.35   0
  -2   4   2 2116.28   10.67   0
   2  -1   1 3979.36   14.77   0
   3  -8   3  390.56    4.02   0
   3  -6   2  837.44    5.47   0
   3   1   5  458.22    5.89   0
   4  -9   5   73.44    2.69   0
   4  -2   4  405.00    4.59   0
   5  -7   6   32.08    2.39   0
   5  -6   6  124.75    3.47   0
   5  -5   6    7.80    2.16   0
   5  -4   7   70.56    3.11   0
  -8  -2   3    1.56    2.54   0
  -8   0   3   67.36    3.12   0
  -8   1   3  212.25    3.71   0
  -7  -1   2   99.78    3.29   0
  -7   0   2   72.36    3.00   0
  -6   5   4   36.37    2.87   0
  -5  -6   2  112.66    4.42   0
  -4  -7   2   19.86    4.79   0
  -4   4   2  863.33    6.17   0
  -3   3   1  584.56    5.29   0
  -2   1   0 5215.01   17.93   0
  -1  -9   2  201.08    5.78   0
  -1   5   6  350.75    7.76   0
   0  -9   2   65.33    4.22   0
   1 -10   3    2.42    2.81   0
   1  -3   0   20.92    2.89   0
   2  -8   2    4.05    2.65   0
   3   0   3  211.21    3.93   0
   4  -8   4  184.74    3.29   0
   4  -6   3  386.62    4.05   0
   4  -5   3  324.43    3.74   0
   4  -4   3  533.99    4.68   0
   4  -3   3 1978.76    8.21   0
   4  -1   5  351.88    4.79   0
   5  -8   6  157.03    3.08   0
   5  -4   6  343.45    5.10   0
  -8  -1   3   65.42    2.68   0
  -8   3   4    7.78    2.32   0
  -7   3   3  153.54    3.15   0
  -7   5   5    5.02    2.61   0
  -6   4   3  680.69    5.74   0
  -6   6   6   92.46    3.24   0
  -5  -3   1    1.89    2.65   0
  -4   6   6   60.06    3.45   0
  -3   0   0 1443.09   10.12   0
  -3   4   2 2229.23    9.68   0
  -3   6   7  143.76    4.90   0
  -2   5   4    5.95    3.10   0
   1  -7   1  574.20    5.89   0
   1  -2   0  427.42    6.39   0
   1   1   1 1035.22   13.10   0
   2  -6   1   64.85    2.78   0
   3 -10   4   18.56    2.52   0
   3  -7   2  365.07    4.04   0
   3  -1   2  405.40    4.87   0
   5  -7   5 1260.03    6.52   0
   5  -6   5   38.21    2.33   0
   5  -5   5  175.22    3.41   0
   5  -4   5   -0.31    2.18   0
   5  -3   6  122.71    3.32   0
   5  -3   7    8.80    2.16   0
  -8   4   5  177.13    3.49   0
  -7   4   4   67.61    2.62   0
  -6  -4   2   41.38    3.13   0
  -6   2   2   11.17    2.17   0
  -5   1   1  824.66    6.36   0
  -5   5   4  356.92    4.36   0
  -5   6   6    5.14    2.61   0
  -3  -2   0   28.07    3.10   0
  -1   4   3  488.20    7.09   0
   1  -9   2  680.45    6.23   0
   1  -4   0  671.15    6.80   0
   2   1   2    1.02    2.62   0
   3  -9   3  468.15    4.56   0
   3   1   4  190.31    4.46   0
   4  -9   4   41.00    2.40   0
   4  -7   3    2.84    1.98   0
   4  -2   3  371.27    4.04   0
   4  -1   4   19.04    2.54   0
   4   0   7    5.29    2.93   0
   5  -8   5   73.31    2.83   0
  -8   2   4  162.62    3.35   0
  -7   2   3    4.57    2.24   0
  -6   6   7   78.20    3.21   0
  -5  -2   1  257.81    5.80   0
  -5   0   1 1638.70    8.11   0
  -5   3   2  512.00    4.92   0
  -4   2   1 1476.66    8.90   0
  -4   6   7   26.30    3.49   0
  -3  -1   0 3789.49   16.86   0
  -3   5   4  237.80    4.40   0
   2 -10   3   13.25    2.66   0
   4   0   6  587.56    7.29   0
   5  -6   4  445.07    4.82   0
   5  -5   4   31.25    2.42   0
   5  -3   5  349.62    5.38   0
   5  -2   7    7.21    2.59   0
  -7  -4   3    9.19    2.69   0
  -7   5   6    7.78    2.46   0
  -6  -6   3   19.10    3.62   0
  -6  -3   2    0.91    2.74   0
  -6   1   2   67.32    2.71   0
  -6   5   5   28.34    2.52   0
  -5  -1   1   39.19    2.88   0
  -5   4   3   99.19    2.71   0
  -5   6   7    4.29    2.73   0
  -4   5   4  392.85    4.73   0
   2   3   7  671.65    9.55   0
   3  -8   2    2.23    2.35   0
   3  -5   1 2366.67    9.02   0
   3  -4   1  282.21    3.71   0
   3  -3   1 1605.05    7.89   0
   4  -8   3   68.57    2.61   0
   4  -5   2  210.54    3.32   0
   4  -4   2  701.68    5.48   0
   4   0   5   20.75    3.03   0
   5  -7   4   97.41    2.95   0
   5  -4   4  152.38    3.22   0
   5  -2   6   32.43    2.63   0
  -8   1   4   35.95    2.53   0
  -8   3   5  116.15    3.07   0
  -8   4   6   38.33    2.63   0
  -7   1   3  127.74    3.06   0
  -7   3   4  108.42    3.03   0
  -7   4   5    2.08    2.43   0
  -6   0   2  469.90    5.21   0
  -6   3   3 2377.34    9.44   0
  -6   4   4   13.32    2.37   0
  -2   0   0 4131.74   17.47   0
   1  -5   0   24.98    3.26   0
   2  -9   2  151.92    3.54   0
   2  -7   1  695.88    5.77   0
   2   0   1 2001.63   11.62   0
   2   2   3   65.67    3.89   0
   4 -10   4    5.34    2.14   0
   4  -6   2  172.01    3.19   0
   4  -3   2  115.44    2.81   0
   5  -8   4   37.32    2.30   0
   5  -3   4   38.35    2.47   0
   5  -2   5  127.68    3.51   0
  -8  -2   4   35.73    2.68   0
  -8  -1   4   40.11    2.89   0
  -8   0   4  220.58    3.63   0
  -7  -3   3   66.64    2.98   0
  -7   0   3  101.40    3.13   0
  -7   5   7    5.12    2.73   0
  -6  -2   2  154.76    3.47   0
  -6  -1   2  189.89    3.97   0
  -5   2   2  363.24    4.71   0
  -5   5   5   48.96    2.98   0
  -4  -4   1    0.04    3.04   0
  -4   1   1  791.78    5.81   0
  -4   3   2 2762.24   10.04   0
  -4   4   3  176.49    3.33   0
  -3   2   1 1907.43    9.21   0
  -2   5   5  350.44    5.48   0
   3 -10   3  115.72    2.96   0
   3  -6   1  734.17    5.30   0
   3  -2   1  167.65    3.31   0
   3   0   2 1264.92    8.03   0
   3   2   7   44.14    3.77   0
   4  -9   3   35.23    2.70   0
   4  -7   2  228.47    3.44   0
   4  -1   3  774.14    6.35   0
   5  -6   3    8.54    2.17   0
   5  -5   3   44.48    2.50   0
   6  -5   6    1.57    2.12   0
  -8   2   5   25.65    2.50   0
  -7  -2   3    1.74    2.11   0
  -7  -1   3  186.54    3.54   0
  -6   5   6    8.07    2.23   0
  -5  -5   2   16.36    3.29   0
  -4   5   5  336.98    4.67   0
  -3   4   3 1282.68    7.60   0
  -2   4   3  813.65    7.22   0
   1  -8   1 2527.24   11.49   0
   2  -4   0  680.83    6.18   0
   2  -3   0   86.72    3.28   0
   3   1   3  783.25    7.53   0
   3   2   6  171.33    4.88   0
   4  -2   2 1679.40    8.26   0
   4   0   4 1679.84   10.49   0
   5  -9   4  116.69    3.03   0
   5  -7   3   92.02    2.90   0
   5  -4   3  352.44    3.92   0
   5  -2   4   13.41    2.41   0
   5  -1   6   58.86    3.21   0
   6  -7   5   35.95    2.45   0
   6  -6   5    3.94    2.12   0
   6  -5   5  196.46    3.41   0
   6  -4   6   15.46    2.65   0
  -8   3   6   18.19    2.30   0
  -7   2   4  201.76    3.35   0
  -7   4   6  130.50    3.39   0
  -6   2   3   10.62    2.42   0
  -5   3   3  147.19    3.77   0
  -5   4   4   28.40    2.64   0
  -3   3   2  172.41    3.84   0
  -3   5   5   62.07    3.30   0
  -2   2   1 6644.52   18.93   0
  -1   2   1  223.81    5.28   0
   3  -9   2   94.57    3.15   0
   3  -7   1  764.40    5.53   0
   4  -8   2  691.21    5.19   0
   5  -8   3   13.73    2.51   0
   5  -3   3   35.76    2.49   0
   6  -4   5    2.99    2.53   0
  -8   1   5   62.64    2.60   0
  -7   3   5   65.78    2.71   0
  -6   3   4  661.65    5.95   0
  -6   4   5   29.73    2.37   0
  -6   5   7   95.41    3.11   0
  -5   1   2   46.38    2.38   0
  -5   5   6   41.61    3.10   0
  -4   0   1  249.99    4.62   0
  -2  -1   0  767.01    8.44   0
   2  -8   1   20.51    2.66   0
   2  -5   0  128.12    3.31   0
   2  -2   0   42.02    2.96   0
   3  -1   1  574.88    5.63   0
   4 -10   3    5.26    2.50   0
   4  -5   1  381.83    4.15   0
   4  -4   1    6.23    2.37   0
   5  -1   5   45.33    2.91   0
   6  -7   4   80.31    2.74   0
   6  -6   4  104.72    2.84   0
   6  -5   4   28.39    2.62   0
   6  -3   6    7.04    2.64   0
  -7   1   4    2.75    2.23   0
  -6   1   3  759.18    5.78   0
   5  -9   3   38.32    2.60   0
   5  -6   2  118.74    2.97   0
   5  -5   2   55.97    2.55   0
   5  -4   2 1090.09    6.12   0
   6  -8   4   24.87    2.43   0
;
_shelx_hkl_checksum              30512
_shelx_res_file
;
    mhne3_10.res created by SHELXL-2014/7
TITL mhne3_10 in P-1
CELL 0.71073   7.2516   8.9841  10.736 109.275 109.132  97.283
ZERR    2.00   0.0016   0.0017   0.002   0.016   0.017   0.017
LATT  1
SFAC C H N O S
UNIT 18 30 6 6 2
SIZE 0.42 0.28 0.21
REM colorless block
ACTA 50
L.S. 10
BOND $H
CONF
FMAP 2
PLAN 10
TEMP -100
EQIV $1 -x+1, -y, -z+1
RTAB DIS1 C1X S21A
RTAB DIS2 H1X S21A
RTAB ANG1 C1X H1X S21A
HTAB
HTAB N1A O11X
HTAB N3A O41A_$1
DFIX 0.88 0.02 N1A H1A N3A H3A
MPLA N1A > C9A
MPLA C1X > C4X
WGHT    0.068000    0.140500
FVAR       1.94263
N1A   3    0.742493    0.460563    0.525765    11.00000    0.03451    0.02583 =
         0.02214    0.01281    0.00913    0.00572
H1A   2    0.765101    0.536440    0.492122    11.00000   -1.20000
C2A   1    0.616349    0.311063    0.433891    11.00000    0.03123    0.02852 =
         0.02153    0.01145    0.01043    0.00759
S21A  5    0.501092    0.261652    0.257759    11.00000    0.03959    0.03359 =
         0.01914    0.01265    0.00695    0.00593
N3A   3    0.591139    0.202457    0.493459    11.00000    0.04167    0.02561 =
         0.02071    0.00955    0.00851    0.00113
H3A   2    0.512335    0.104605    0.436446    11.00000   -1.20000
C4A   1    0.681189    0.232374    0.638175    11.00000    0.04377    0.03179 =
         0.02242    0.01317    0.00984    0.00470
O41A  4    0.648982    0.121011    0.678498    11.00000    0.07417    0.03270 =
         0.02483    0.01566    0.00806   -0.00552
C5A   1    0.810303    0.393582    0.728917    11.00000    0.03890    0.02952 =
         0.02078    0.01139    0.00747    0.00497
AFIX  43
H5A   2    0.875614    0.423982    0.829515    11.00000   -1.20000
AFIX   0
C6A   1    0.838462    0.501667    0.670718    11.00000    0.03052    0.02853 =
         0.02215    0.01053    0.00888    0.00774
C7A   1    0.977576    0.670948    0.752691    11.00000    0.03605    0.02906 =
         0.02352    0.01248    0.00897    0.00415
AFIX  23
H7A1  2    1.078654    0.685192    0.711188    11.00000   -1.20000
H7A2  2    0.899198    0.752694    0.746511    11.00000   -1.20000
AFIX   0
O8A   4    1.075709    0.693863    0.896691    11.00000    0.05687    0.03329 =
         0.02038    0.01030    0.00428   -0.00596
C9A   1    1.202753    0.856759    0.981928    11.00000    0.04953    0.03407 =
         0.02488    0.00673    0.00933   -0.00180
AFIX 137
H9A1  2    1.307725    0.876554    0.946193    11.00000   -1.50000
H9A2  2    1.266458    0.870219    1.082177    11.00000   -1.50000
H9A3  2    1.121049    0.935020    0.975765    11.00000   -1.50000
AFIX   0
C1X   1    0.759492    0.658056    0.296525    11.00000    0.04466    0.03314 =
         0.03318    0.01905    0.01500    0.01148
AFIX  43
H1X   2    0.719848    0.544072    0.239422    11.00000   -1.20000
AFIX   0
O11X  4    0.799450    0.700154    0.425902    11.00000    0.06502    0.03588 =
         0.02997    0.01969    0.01563    0.01042
N2X   3    0.767114    0.758168    0.230340    11.00000    0.04975    0.03870 =
         0.03221    0.02344    0.01436    0.01443
C3X   1    0.824726    0.933662    0.306858    11.00000    0.07727    0.03792 =
         0.05340    0.02947    0.02146    0.01702
AFIX 137
H3X1  2    0.828308    0.960526    0.403967    11.00000   -1.50000
H3X2  2    0.725964    0.980347    0.255750    11.00000   -1.50000
H3X3  2    0.958978    0.979131    0.312749    11.00000   -1.50000
AFIX   0
C4X   1    0.726004    0.696826    0.078146    11.00000    0.07655    0.06551 =
         0.03445    0.02989    0.02281    0.02086
AFIX 137
H4X1  2    0.698572    0.577423    0.039409    11.00000   -1.50000
H4X2  2    0.843729    0.743571    0.064329    11.00000   -1.50000
H4X3  2    0.607958    0.728068    0.027948    11.00000   -1.50000
AFIX   0
HKLF 4
REM  mhne3_10 in P-1
REM R1 =  0.0422 for    2024 Fo > 4sig(Fo)  and  0.0453 for all    2227 data
REM    154 parameters refined using      2 restraints
END
WGHT      0.0680      0.1405
REM Instructions for potential hydrogen bonds
HTAB N1A O11X
HTAB N3A O41A_$1
EQIV $2 -x+2, -y+1, -z+1
HTAB C7A S21A_$2
EQIV $3 -x+1, -y+1, -z+1
HTAB C7A S21A_$3
HTAB C9A S21A_$2
EQIV $4 -x+2, -y+1, -z+2
HTAB C9A O41A_$4
HTAB C1X S21A
EQIV $5 -x+1, -y+1, -z
HTAB C4X S21A_$5
REM Highest difference peak  0.521,  deepest hole -0.306,  1-sigma level  0.052
Q1    1   0.3750  0.2369  0.2573  11.00000  0.05    0.52
Q2    1   0.6295  0.2921  0.2651  11.00000  0.05    0.42
Q3    1   0.5770  0.3822  0.2741  11.00000  0.05    0.32
Q4    1   0.4925  0.3610  0.2441  11.00000  0.05    0.29
Q5    1   0.9106  0.5702  0.7086  11.00000  0.05    0.28
Q6    1   0.5366  0.2983  0.3457  11.00000  0.05    0.26
Q7    1   0.7177  0.3320  0.7047  11.00000  0.05    0.24
Q8    1   0.7087  0.2373  0.5031  11.00000  0.05    0.21
Q9    1   0.9432  0.6580  0.8818  11.00000  0.05    0.20
Q10   1   0.7464  0.1432  0.6757  11.00000  0.05    0.20
;
_shelx_res_checksum              32338
loop_
_space_group_symop_operation_xyz
'x, y, z'
'-x, -y, -z'
loop_
_atom_site_type_symbol
_atom_site_label
_atom_site_fract_x
_atom_site_fract_y
_atom_site_fract_z
_atom_site_U_iso_or_equiv
_atom_site_adp_type
_atom_site_calc_flag
_atom_site_occupancy
N N1A 0.7425(2) 0.46056(17) 0.52577(14) 0.0274(3) Uani d 1
H H1A 0.765(3) 0.536(2) 0.492(2) 0.033 Uiso d 1
C C2A 0.6163(2) 0.3111(2) 0.43389(17) 0.0267(3) Uani d 1
S S21A 0.50109(6) 0.26165(5) 0.25776(4) 0.03182(18) Uani d 1
N N3A 0.5911(2) 0.20246(17) 0.49346(15) 0.0311(3) Uani d 1
H H3A 0.512(3) 0.105(2) 0.436(2) 0.037 Uiso d 1
C C4A 0.6812(3) 0.2324(2) 0.63817(18) 0.0334(4) Uani d 1
O O41A 0.6490(2) 0.12101(16) 0.67850(14) 0.0479(4) Uani d 1
C C5A 0.8103(3) 0.3936(2) 0.72892(17) 0.0309(4) Uani d 1
H H5A 0.8756 0.4240 0.8295 0.037 Uiso calc 1
C C6A 0.8385(2) 0.50167(19) 0.67072(16) 0.0274(4) Uani d 1
C C7A 0.9776(3) 0.6709(2) 0.75269(17) 0.0302(4) Uani d 1
H H7A1 1.0787 0.6852 0.7112 0.036 Uiso calc 1
H H7A2 0.8992 0.7527 0.7465 0.036 Uiso calc 1
O O8A 1.0757(2) 0.69386(15) 0.89669(13) 0.0418(4) Uani d 1
C C9A 1.2028(3) 0.8568(2) 0.98193(19) 0.0403(4) Uani d 1
H H9A1 1.3077 0.8766 0.9462 0.060 Uiso calc 1
H H9A2 1.2665 0.8702 1.0822 0.060 Uiso calc 1
H H9A3 1.1210 0.9350 0.9758 0.060 Uiso calc 1
C C1X 0.7595(3) 0.6581(2) 0.29652(19) 0.0353(4) Uani d 1
H H1X 0.7198 0.5441 0.2394 0.042 Uiso calc 1
O O11X 0.7994(2) 0.70015(16) 0.42590(14) 0.0429(3) Uani d 1
N N2X 0.7671(2) 0.75817(19) 0.23034(17) 0.0378(4) Uani d 1
C C3X 0.8247(4) 0.9337(3) 0.3069(3) 0.0540(6) Uani d 1
H H3X1 0.8283 0.9605 0.4040 0.081 Uiso calc 1
H H3X2 0.7260 0.9803 0.2558 0.081 Uiso calc 1
H H3X3 0.9590 0.9791 0.3127 0.081 Uiso calc 1
C C4X 0.7260(4) 0.6968(3) 0.0781(2) 0.0556(6) Uani d 1
H H4X1 0.6986 0.5774 0.0394 0.083 Uiso calc 1
H H4X2 0.8437 0.7436 0.0643 0.083 Uiso calc 1
H H4X3 0.6080 0.7281 0.0279 0.083 Uiso calc 1
loop_
_atom_site_aniso_label
_atom_site_aniso_U_11
_atom_site_aniso_U_22
_atom_site_aniso_U_33
_atom_site_aniso_U_12
_atom_site_aniso_U_13
_atom_site_aniso_U_23
N1A 0.0345(7) 0.0258(7) 0.0221(7) 0.0057(6) 0.0091(6) 0.0128(6)
C2A 0.0312(8) 0.0285(8) 0.0215(8) 0.0076(6) 0.0104(6) 0.0115(6)
S21A 0.0396(3) 0.0336(3) 0.0191(2) 0.00593(19) 0.0069(2) 0.01265(19)
N3A 0.0417(8) 0.0256(7) 0.0207(7) 0.0011(6) 0.0085(6) 0.0096(6)
C4A 0.0438(10) 0.0318(9) 0.0224(8) 0.0047(7) 0.0098(7) 0.0132(7)
O41A 0.0742(10) 0.0327(7) 0.0248(6) -0.0055(6) 0.0081(6) 0.0157(5)
C5A 0.0389(9) 0.0295(9) 0.0208(8) 0.0050(7) 0.0075(7) 0.0114(7)
C6A 0.0305(8) 0.0285(8) 0.0221(8) 0.0077(7) 0.0089(7) 0.0105(7)
C7A 0.0360(9) 0.0291(8) 0.0235(8) 0.0042(7) 0.0090(7) 0.0125(7)
O8A 0.0569(8) 0.0333(7) 0.0204(6) -0.0060(6) 0.0043(6) 0.0103(5)
C9A 0.0495(11) 0.0341(9) 0.0249(8) -0.0018(8) 0.0093(8) 0.0067(7)
C1X 0.0447(10) 0.0331(9) 0.0332(9) 0.0115(7) 0.0150(8) 0.0191(8)
O11X 0.0650(9) 0.0359(7) 0.0300(7) 0.0104(6) 0.0156(6) 0.0197(6)
N2X 0.0498(9) 0.0387(8) 0.0322(8) 0.0144(7) 0.0144(7) 0.0234(7)
C3X 0.0773(16) 0.0379(11) 0.0534(13) 0.0170(10) 0.0215(11) 0.0295(10)
C4X 0.0765(16) 0.0655(14) 0.0344(11) 0.0209(12) 0.0228(11) 0.0299(11)
loop_
_atom_type_symbol
_atom_type_description
_atom_type_scat_dispersion_real
_atom_type_scat_dispersion_imag
_atom_type_scat_source
C C 0.0033 0.0016 'International Tables Vol C Tables 4.2.6.8 and 6.1.1.4'
H H 0.0000 0.0000 'International Tables Vol C Tables 4.2.6.8 and 6.1.1.4'
N N 0.0061 0.0033 'International Tables Vol C Tables 4.2.6.8 and 6.1.1.4'
O O 0.0106 0.0060 'International Tables Vol C Tables 4.2.6.8 and 6.1.1.4'
S S 0.1246 0.1234 'International Tables Vol C Tables 4.2.6.8 and 6.1.1.4'
loop_
_geom_angle_atom_site_label_1
_geom_angle_atom_site_label_2
_geom_angle_atom_site_label_3
_geom_angle
C2A N1A C6A 122.65(14)
C2A N1A H1A 119.5(13)
C6A N1A H1A 117.8(13)
N1A C2A N3A 115.86(14)
N1A C2A S21A 122.40(12)
N3A C2A S21A 121.74(13)
C2A N3A C4A 125.72(15)
C2A N3A H3A 117.8(14)
C4A N3A H3A 116.5(14)
O41A C4A N3A 119.34(16)
O41A C4A C5A 125.40(16)
N3A C4A C5A 115.25(14)
C6A C5A C4A 119.53(15)
C6A C5A H5A 120.2
C4A C5A H5A 120.2
C5A C6A N1A 120.98(15)
C5A C6A C7A 124.70(15)
N1A C6A C7A 114.29(14)
O8A C7A C6A 108.71(13)
O8A C7A H7A1 109.9
C6A C7A H7A1 109.9
O8A C7A H7A2 109.9
C6A C7A H7A2 109.9
H7A1 C7A H7A2 108.3
C7A O8A C9A 111.19(13)
O8A C9A H9A1 109.5
O8A C9A H9A2 109.5
H9A1 C9A H9A2 109.5
O8A C9A H9A3 109.5
H9A1 C9A H9A3 109.5
H9A2 C9A H9A3 109.5
O11X C1X N2X 125.54(17)
O11X C1X H1X 117.2
N2X C1X H1X 117.2
C1X N2X C3X 121.77(17)
C1X N2X C4X 121.46(17)
C3X N2X C4X 116.72(17)
N2X C3X H3X1 109.5
N2X C3X H3X2 109.5
H3X1 C3X H3X2 109.5
N2X C3X H3X3 109.5
H3X1 C3X H3X3 109.5
H3X2 C3X H3X3 109.5
N2X C4X H4X1 109.5
N2X C4X H4X2 109.5
H4X1 C4X H4X2 109.5
N2X C4X H4X3 109.5
H4X1 C4X H4X3 109.5
H4X2 C4X H4X3 109.5
loop_
_geom_bond_atom_site_label_1
_geom_bond_atom_site_label_2
_geom_bond_distance
N1A C2A 1.355(2)
N1A C6A 1.374(2)
N1A H1A 0.892(15)
C2A N3A 1.356(2)
C2A S21A 1.6695(16)
N3A C4A 1.388(2)
N3A H3A 0.873(16)
C4A O41A 1.239(2)
C4A C5A 1.432(2)
C5A C6A 1.345(2)
C5A H5A 0.9500
C6A C7A 1.500(2)
C7A O8A 1.4037(19)
C7A H7A1 0.9900
C7A H7A2 0.9900
O8A C9A 1.432(2)
C9A H9A1 0.9800
C9A H9A2 0.9800
C9A H9A3 0.9800
C1X O11X 1.232(2)
C1X N2X 1.324(2)
C1X H1X 0.9500
N2X C3X 1.445(3)
N2X C4X 1.452(2)
C3X H3X1 0.9800
C3X H3X2 0.9800
C3X H3X3 0.9800
C4X H4X1 0.9800
C4X H4X2 0.9800
C4X H4X3 0.9800
loop_
_geom_hbond_atom_site_label_D
_geom_hbond_atom_site_label_H
_geom_hbond_atom_site_label_A
_geom_hbond_site_symmetry_A
_geom_hbond_distance_DH
_geom_hbond_distance_HA
_geom_hbond_distance_DA
_geom_hbond_angle_DHA
N1A H1A O11X . 0.892(15) 1.856(15) 2.7462(19) 176.2(19)
N3A H3A O41A 2_656 0.873(16) 1.950(16) 2.820(2) 175(2)
loop_
_geom_torsion_atom_site_label_1
_geom_torsion_atom_site_label_2
_geom_torsion_atom_site_label_3
_geom_torsion_atom_site_label_4
_geom_torsion
C6A N1A C2A N3A -0.6(2)
C6A N1A C2A S21A -179.70(12)
N1A C2A N3A C4A 0.6(3)
S21A C2A N3A C4A 179.71(14)
C2A N3A C4A O41A -178.41(17)
C2A N3A C4A C5A 0.2(3)
O41A C4A C5A C6A 177.48(18)
N3A C4A C5A C6A -1.1(3)
C4A C5A C6A N1A 1.1(3)
C4A C5A C6A C7A -176.78(16)
C2A N1A C6A C5A -0.3(3)
C2A N1A C6A C7A 177.82(14)
C5A C6A C7A O8A 1.9(2)
N1A C6A C7A O8A -176.14(14)
C6A C7A O8A C9A -176.91(14)
O11X C1X N2X C3X -0.3(3)
O11X C1X N2X C4X 177.15(19)

_cod_database_fobs_code 2020557
