#------------------------------------------------------------------------------
#$Date: 2015-11-08 03:49:41 +0200 (Sun, 08 Nov 2015) $
#$Revision: 170205 $
#$URL: svn://www.crystallography.net/cod/cif/2/02/02/2020286.cif $
#------------------------------------------------------------------------------
#
# This file is available in the Crystallography Open Database (COD),
# http://www.crystallography.net/. The original data for this entry
# were provided by IUCr Journals, http://journals.iucr.org/.
#
# The file may be used within the scientific community so long as
# proper attribution is given to the journal article from which the
# data were obtained.
#
data_2020286
loop_
_publ_author_name
'Sridhar, Balasubramanian'
_publ_section_title
;
 Synthon preference in a hydrated \b-resorcylic acid structure and its
 cocrystal with thymine
;
_journal_coeditor_code           CU3091
_journal_issue                   12
_journal_name_full               'Acta Crystallographica Section C'
_journal_page_first
;
;
_journal_paper_doi               10.1107/S2053229615020628
_journal_volume                  71
_journal_year                    2015
_chemical_formula_iupac          'C7 H6 O4 , H2 O'
_chemical_formula_moiety         'C7 H6 O4, H2 O'
_chemical_formula_sum            'C7 H8 O5'
_chemical_formula_weight         172.13
_chemical_name_common
;
\b-Resorcylic acid monohydrate
;
_chemical_name_systematic
;
2,4-Dihydroxybenzoic acid monohydrate
;
_space_group_crystal_system      triclinic
_space_group_IT_number           2
_space_group_name_Hall           '-P 1'
_space_group_name_H-M_alt        'P -1'
_symmetry_space_group_name_Hall  '-P 1'
_symmetry_space_group_name_H-M   'P -1'
_atom_sites_solution_hydrogens   mixed
_audit_creation_method           SHELXL-2014/7
_cell_angle_alpha                75.011(6)
_cell_angle_beta                 89.036(6)
_cell_angle_gamma                81.735(6)
_cell_formula_units_Z            2
_cell_length_a                   3.8229(15)
_cell_length_b                   8.972(3)
_cell_length_c                   11.645(4)
_cell_measurement_reflns_used    2030
_cell_measurement_temperature    294(2)
_cell_measurement_theta_max      27.74
_cell_measurement_theta_min      2.38
_cell_volume                     381.7(2)
_computing_cell_refinement
;
SAINT (Bruker, 2001)
;
_computing_data_collection
;
SMART (Bruker, 2001)
;
_computing_data_reduction
;
SAINT (Bruker, 2001)
;
_computing_molecular_graphics
;
DIAMOND (Brandenburg & Putz, 2005)
;
_computing_publication_material
;
SHELXL2014 (Sheldrick, 2015)
;
_computing_structure_refinement
;
SHELXL2014 (Sheldrick, 2015)
;
_computing_structure_solution
;
SHELXS97 (Sheldrick, 2008)
;
_diffrn_ambient_temperature      294(2)
_diffrn_measured_fraction_theta_full 0.994
_diffrn_measured_fraction_theta_max 0.933
_diffrn_measurement_device_type  'Bruker SMART APEX CCD area-detector'
_diffrn_measurement_method       \w
_diffrn_radiation_type           MoK\a
_diffrn_radiation_wavelength     0.71073
_diffrn_reflns_av_R_equivalents  0.0164
_diffrn_reflns_limit_h_max       4
_diffrn_reflns_limit_h_min       -5
_diffrn_reflns_limit_k_max       11
_diffrn_reflns_limit_k_min       -11
_diffrn_reflns_limit_l_max       14
_diffrn_reflns_limit_l_min       -14
_diffrn_reflns_number            4459
_diffrn_reflns_theta_full        25.242
_diffrn_reflns_theta_max         28.356
_diffrn_reflns_theta_min         1.811
_exptl_absorpt_coefficient_mu    0.130
_exptl_absorpt_correction_T_max  0.98
_exptl_absorpt_correction_T_min  0.92
_exptl_absorpt_correction_type   multi-scan
_exptl_absorpt_process_details
;
(SADABS; Bruker, 2001)
;
_exptl_crystal_colour            colourless
_exptl_crystal_density_diffrn    1.498
_exptl_crystal_description       block
_exptl_crystal_F_000             180
_exptl_crystal_size_max          0.170
_exptl_crystal_size_mid          0.140
_exptl_crystal_size_min          0.090
_refine_diff_density_max         0.270
_refine_diff_density_min         -0.223
_refine_ls_extinction_method     none
_refine_ls_goodness_of_fit_ref   1.103
_refine_ls_hydrogen_treatment    mixed
_refine_ls_matrix_type           full
_refine_ls_number_parameters     129
_refine_ls_number_reflns         1769
_refine_ls_number_restraints     0
_refine_ls_restrained_S_all      1.103
_refine_ls_R_factor_all          0.0542
_refine_ls_R_factor_gt           0.0480
_refine_ls_shift/su_max          0.000
_refine_ls_shift/su_mean         0.000
_refine_ls_structure_factor_coef Fsqd
_refine_ls_weighting_details
'w = 1/[\s^2^(Fo^2^)+(0.0687P)^2^+0.0752P] where P=(Fo^2^+2Fc^2^)/3'
_refine_ls_weighting_scheme      calc
_refine_ls_wR_factor_gt          0.1272
_refine_ls_wR_factor_ref         0.1325
_reflns_number_gt                1571
_reflns_number_total             1769
_reflns_threshold_expression     I>2\s(I)
_cod_data_source_file            cu3091sup1.cif
_cod_data_source_block           I
_cod_original_cell_volume        381.7(3)
_cod_database_code               2020286
_shelx_space_group_comment
;
The symmetry employed for this shelxl refinement is uniquely defined
by the following loop, which should always be used as a source of
symmetry information in preference to the above space-group names.
They are only intended as comments.
;
_shelx_estimated_absorpt_t_min   0.977
_shelx_estimated_absorpt_t_max   0.988
_shelx_hkl_file
;
  -1   0   0  708.03   11.71
  -1   0   0  717.58   11.63
   1   0   0  704.79   11.21
   1   0   0  702.35   12.03
   2   0   0   75.41    1.40
  -2   0   0   72.40    1.79
   2   0   0   73.54    1.70
  -2   0   0   71.81    1.72
   3   0   0    0.35    0.30
  -3   0   0    0.70    0.25
  -3   0   0    0.53    0.26
  -4   0   0    2.58    0.48
  -4   0   0    2.48    0.50
   4   0   0    2.68    0.56
  -5   0   0    1.18    0.46
  -4   1   0    1.03    0.31
   4  -1   0    0.85    0.41
  -4   1   0    0.61    0.33
  -3   1   0   56.98    1.77
  -3   1   0   57.81    1.80
   3  -1   0   59.33    1.73
   2  -1   0   55.68    1.41
  -2   1   0   55.09    1.48
  -2   1   0   55.30    1.53
   1  -1   0  316.20    5.23
  -1   1   0  313.33    5.50
  -1   1   0  322.41    5.53
   0   1   0  217.20    3.67
   0   1   0  210.24    3.72
   0  -1   0  225.96    3.70
   1   1   0   28.07    0.71
  -1  -1   0   29.56    0.74
   1   1   0   28.70    0.71
  -1  -1   0   27.92    0.71
  -2  -1   0   18.48    0.74
   2   1   0   18.22    0.71
  -2  -1   0   18.20    0.68
   2   1   0   18.75    0.59
  -3  -1   0   52.74    1.56
  -3  -1   0   48.79    1.59
   3   1   0   50.66    1.54
  -4  -1   0   11.02    0.77
  -4  -1   0   10.13    0.78
   4   1   0   10.65    0.82
  -5  -1   0    6.18    0.81
   4  -2   0    1.03    0.47
  -4   2   0    0.81    0.34
  -4   2   0    1.33    0.35
  -3   2   0   47.22    1.66
  -3   2   0   49.28    1.67
   3  -2   0   47.00    1.55
  -2   2   0    3.96    0.44
  -2   2   0    5.17    0.50
   2  -2   0    4.15    0.40
   1  -2   0   24.57    0.67
  -1   2   0   24.95    0.80
  -1   2   0   23.85    0.80
   0   2   0    8.11    0.33
   0   2   0    7.16    0.34
   0  -2   0    8.28    0.37
  -1  -2   0 1453.04   23.48
  -1  -2   0 1490.32   25.15
   1   2   0 1450.65   24.32
   1   2   0 1439.35   23.97
   2   2   0  140.47    2.72
  -2  -2   0  138.18    2.81
   2   2   0  138.08    2.73
  -2  -2   0  134.00    2.77
  -3  -2   0   68.46    1.96
  -3  -2   0   71.52    1.92
   3   2   0   74.71    1.94
  -4  -2   0   13.47    0.87
   4   2   0   12.78    0.88
  -5  -2   0    2.36    0.50
   4  -3   0   13.41    1.00
  -4   3   0   13.54    0.97
  -3   3   0    7.95    0.70
   3  -3   0    7.00    0.65
  -3   3   0    8.61    0.69
  -2   3   0    4.20    0.50
  -2   3   0    3.83    0.48
   2  -3   0    3.34    0.38
   1  -3   0   33.82    0.85
   1  -3   0   34.84    1.02
  -1   3   0   36.27    0.83
  -1   3   0   33.03    1.07
   0  -3   0    2.13    0.25
   0   3   0    1.81    0.23
   0   3   0    1.92    0.24
  -1  -3   0  286.31    5.11
  -1  -3   0  288.91    5.06
   1   3   0  293.36    5.26
   1   3   0  291.82    4.73
  -2  -3   0   17.29    0.71
  -2  -3   0   16.93    0.70
   2   3   0   16.84    0.67
   2   3   0   16.94    0.72
  -3  -3   0   -0.12    0.16
   3   3   0    0.18    0.20
   3   3   0    0.21    0.26
  -3  -3   0    0.49    0.23
   4   3   0    2.96    0.58
  -4  -3   0    2.97    0.52
  -4   4   0    0.27    0.32
  -4   4   0    0.63    0.32
   4  -4   0   -0.71    0.41
  -3   4   0    9.87    0.79
  -3   4   0   11.71    0.84
   3  -4   0    9.68    0.72
   2  -4   0    1.66    0.36
   2  -4   0    1.76    0.33
  -2   4   0    2.56    0.43
  -1   4   0   25.62    0.76
  -1   4   0   25.45    0.99
   1  -4   0   25.18    0.91
   1  -4   0   25.67    0.71
   0  -4   0    5.68    0.44
   0   4   0    5.70    0.40
   0   4   0    4.83    0.38
  -1  -4   0  338.81    6.09
  -1  -4   0  351.14    6.06
   1   4   0  340.96    6.25
   1   4   0  342.38    5.51
  -2  -4   0   80.85    1.94
   2   4   0   80.14    2.02
  -2  -4   0   79.80    1.93
   2   4   0   80.71    1.77
  -3  -4   0   30.16    1.13
  -3  -4   0   27.54    1.15
   3   4   0   28.46    1.12
   3   4   0   29.03    1.10
  -4  -4   0    0.64    0.28
   4   4   0    0.74    0.39
  -4   5   0    4.74    0.75
   4  -5   0    6.18    0.74
   3  -5   0    4.30    0.59
  -3   5   0    4.52    0.69
   3  -5   0    4.14    0.59
  -2   5   0    2.79    0.48
   2  -5   0    2.76    0.47
   2  -5   0    3.20    0.43
  -1   5   0  354.41    6.78
  -1   5   0  364.14    6.44
   1  -5   0  361.58    5.95
   1  -5   0  369.77    6.72
   0  -5   0  379.59    6.81
   0   5   0  375.32    6.84
   0   5   0  370.17    6.76
  -1  -5   0   28.24    0.96
   1   5   0   26.84    0.61
  -1  -5   0   26.73    0.96
   1   5   0   26.87    1.03
  -2  -5   0   17.25    0.80
   2   5   0   17.30    0.68
  -2  -5   0   17.92    0.79
   2   5   0   18.53    0.90
  -3  -5   0    0.48    0.24
   3   5   0    0.50    0.30
  -3  -5   0    0.61    0.22
   3   5   0    0.56    0.28
  -4  -5   0   15.39    0.95
   4   5   0   16.59    1.01
   3  -6   0    4.18    0.62
  -3   6   0    5.60    0.77
   2  -6   0    4.57    0.60
  -2   6   0    3.94    0.58
   1  -6   0    0.19    0.31
  -1   6   0    0.12    0.20
  -1   6   0    0.09    0.17
   0   6   0   26.04    1.01
   0   6   0   24.23    1.08
   0  -6   0   26.68    1.08
   1   6   0    0.34    0.27
  -1  -6   0    0.13    0.22
  -1  -6   0    0.51    0.22
   2   6   0    4.26    0.56
  -2  -6   0    4.03    0.46
  -2  -6   0    3.67    0.44
   3   6   0   26.08    1.23
  -3  -6   0   23.88    1.10
  -3  -6   0   27.16    1.17
  -3   7   0   13.86    1.06
   3  -7   0   13.77    1.03
  -2   7   0    4.88    0.70
   2  -7   0    3.97    0.66
   1  -7   0    4.75    0.62
  -1   7   0    5.36    0.66
  -1   7   0    5.12    0.45
   0  -7   0   12.39    0.85
   0   7   0   12.47    0.75
   0   7   0   12.52    0.80
   1   7   0  107.75    2.77
  -1  -7   0  106.56    2.63
  -1  -7   0  110.82    2.70
  -2  -7   0    0.87    0.28
  -2  -7   0    0.77    0.26
   2   7   0    0.94    0.35
  -3  -7   0    6.40    0.63
   3   7   0    5.95    0.75
   2  -8   0    3.87    0.72
  -2   8   0    4.30    0.71
  -1   8   0   19.23    1.15
   1  -8   0   19.90    1.13
   0  -8   0    8.42    0.73
   0   8   0    7.43    0.66
   0   8   0    8.05    0.79
   1   8   0   25.25    1.21
  -1  -8   0   25.27    1.17
  -1  -8   0   25.40    1.14
  -2  -8   0    0.50    0.25
   2   8   0    0.69    0.34
  -2  -8   0    0.73    0.29
  -3  -8   0    1.17    0.35
   3   8   0    0.77    0.37
   2  -9   0    0.35    0.47
  -2   9   0    1.24    0.40
  -1   9   0   18.06    1.18
   1  -9   0   18.05    1.20
   0   9   0   38.68    1.55
   0   9   0   39.71    1.74
   0  -9   0   38.52    1.63
  -1  -9   0    3.18    0.55
  -1  -9   0    2.64    0.51
   1   9   0    3.94    0.63
  -2  -9   0    0.59    0.26
  -2  -9   0    0.27    0.24
   2   9   0    0.36    0.31
   3   9   0    1.72    0.44
   1 -10   0    7.11    0.91
  -1  10   0    7.79    0.99
   0  10   0    1.09    0.40
   0  10   0    0.44    0.37
   0 -10   0    1.06    0.47
  -1 -10   0   32.70    1.47
   1  10   0   30.24    1.49
  -1 -10   0   30.70    1.46
   2  10   0    0.06    0.34
  -2 -10   0    0.65    0.28
  -2 -10   0    0.56    0.32
   0 -11   0    5.54    0.83
   0  11   0    7.20    0.93
   0  11   0    8.59    0.89
  -1 -11   0    5.29    0.75
  -1 -11   0    6.22    0.77
   1  11   0    5.21    0.78
   1  11  -1   10.44    0.90
  -1 -11   1    9.65    0.84
  -1 -11   1    7.50    0.91
   0  11  -1    0.76    0.39
   0 -11   1    0.94    0.43
  -2 -10   1    1.41    0.41
   2  10  -1    0.56    0.37
   1  10  -1    3.95    0.66
  -1 -10   1    3.67    0.61
  -1 -10   1    3.59    0.59
   0 -10   1    1.28    0.47
   0  10  -1    2.61    0.52
   0  10  -1    1.89    0.49
   1 -10   1    0.65    0.47
  -1  10  -1    0.56    0.39
   3   9  -1    2.21    0.51
  -2  -9   1   23.02    1.24
  -2  -9   1   23.43    1.16
   2   9  -1   21.13    1.25
  -1  -9   1   28.74    1.34
  -1  -9   1   28.14    1.32
   1   9  -1   29.21    1.39
   0  -9   1    1.35    0.47
   0   9  -1    0.33    0.30
   0   9  -1    0.88    0.33
   1  -9   1    2.21    0.59
  -1   9  -1    2.16    0.53
   2  -9   1    0.00    0.44
  -2   9  -1    0.82    0.33
  -3  -8   1    1.24    0.37
   3   8  -1    0.99    0.35
   2   8  -1   16.32    1.04
  -2  -8   1   16.42    0.98
  -2  -8   1   14.99    0.90
  -1  -8   1   94.39    2.57
   1   8  -1   99.88    2.74
  -1  -8   1   96.62    2.64
   0   8  -1   44.48    1.77
   0   8  -1   43.61    1.57
   0  -8   1   43.52    1.62
  -1   8  -1    5.38    0.74
   1  -8   1    3.38    0.62
   2  -8   1   11.25    0.97
  -2   8  -1   10.35    1.03
   3   7  -1    1.31    0.42
  -3  -7   1    0.94    0.33
   2   7  -1    4.73    0.64
  -2  -7   1    5.52    0.62
  -2  -7   1    5.06    0.54
   1   7  -1    6.42    0.68
  -1  -7   1    6.66    0.61
  -1  -7   1    7.20    0.59
   0  -7   1  109.65    2.75
   0   7  -1  112.06    2.75
   0   7  -1  111.38    2.95
  -1   7  -1    6.56    0.52
  -1   7  -1    5.50    0.69
   1  -7   1    5.74    0.67
  -2   7  -1   12.82    0.94
   2  -7   1   13.42    0.98
   3  -7   1    3.86    0.71
  -3   7  -1    5.52    0.82
  -3  -6   1    2.39    0.43
  -3  -6   1    2.00    0.39
   3   6  -1    2.62    0.51
  -2  -6   1    5.84    0.51
   2   6  -1    7.59    0.70
  -2  -6   1    5.86    0.50
   1   6  -1  115.94    2.80
  -1  -6   1  116.74    2.67
  -1  -6   1  116.22    2.73
   0  -6   1    0.68    0.30
   0   6  -1    0.53    0.25
   0   6  -1    0.64    0.24
  -1   6  -1    9.25    0.56
  -1   6  -1    8.91    0.67
   1  -6   1    8.79    0.70
   2  -6   1   55.43    1.88
  -2   6  -1   57.77    2.01
   3  -6   1  102.59    3.00
  -3   6  -1  106.48    3.16
   4   5  -1   12.79    0.95
   3   5  -1    1.87    0.41
  -3  -5   1    1.20    0.28
   3   5  -1    1.55    0.42
  -3  -5   1    1.68    0.37
   2   5  -1    3.96    0.51
   2   5  -1    3.84    0.38
  -2  -5   1    3.45    0.44
  -2  -5   1    2.82    0.37
   1   5  -1  387.66    7.24
  -1  -5   1  390.77    7.09
  -1  -5   1  403.02    7.07
   0   5  -1   12.71    0.65
   0   5  -1   11.94    0.68
   0  -5   1   12.11    0.69
   1  -5   1  104.00    2.51
  -1   5  -1  106.72    2.28
  -1   5  -1  105.46    2.62
  -2   5  -1    0.51    0.21
   2  -5   1    0.42    0.26
   2  -5   1    0.31    0.30
  -3   5  -1    5.70    0.75
   3  -5   1    5.58    0.65
  -4   5  -1    0.48    0.32
   4   4  -1   -0.40    0.37
  -3  -4   1    0.31    0.18
   3   4  -1   -0.35    0.31
  -3  -4   1    0.05    0.18
   3   4  -1    0.29    0.26
   2   4  -1    1.79    0.34
  -2  -4   1    0.68    0.19
   2   4  -1    0.91    0.26
  -2  -4   1    0.64    0.21
   1   4  -1  721.62   12.43
  -1  -4   1  731.00   12.21
   1   4  -1  728.68   11.38
  -1  -4   1  714.39   12.16
   0  -4   1 1044.63   17.57
   0   4  -1 1065.65   17.66
   0   4  -1 1059.69   17.55
   1  -4   1   16.28    0.56
  -1   4  -1   16.61    0.78
   1  -4   1   17.17    0.75
  -1   4  -1   16.74    0.61
  -2   4  -1   17.67    0.92
   2  -4   1   17.72    0.75
  -3   4  -1    7.64    0.79
  -3   4  -1    6.83    0.75
   3  -4   1    6.50    0.64
   4  -4   1    3.41    0.66
  -4   4  -1    3.77    0.67
  -4   4  -1    4.20    0.67
   4   3  -1    7.58    0.77
  -4  -3   1    8.12    0.71
  -4  -3   1    7.72    0.63
   3   3  -1   11.69    0.65
  -3  -3   1   10.66    0.70
   3   3  -1   12.01    0.75
  -3  -3   1    9.69    0.61
   2   3  -1   13.43    0.62
  -2  -3   1   14.03    0.60
   2   3  -1   14.78    0.68
  -2  -3   1   13.45    0.67
   1   3  -1   99.20    2.16
   1   3  -1  101.80    1.81
  -1  -3   1  100.47    2.10
  -1  -3   1   99.63    2.02
   0   3  -1   24.60    0.78
   0   3  -1   27.25    0.52
   0   3  -1   26.83    0.87
   0  -3   1   24.97    0.77
   1  -3   1   66.31    1.61
  -1   3  -1   65.78    1.40
   1  -3   1   66.73    1.40
  -1   3  -1   66.54    1.67
   2  -3   1   90.50    2.03
  -2   3  -1   88.79    2.28
  -2   3  -1   85.71    2.26
   3  -3   1   15.93    0.87
  -3   3  -1   16.62    0.98
  -3   3  -1   15.35    0.92
  -4   3  -1    0.95    0.34
   4  -3   1    0.33    0.39
  -4   3  -1    0.25    0.28
  -4  -2   1    3.38    0.58
  -4  -2   1    3.40    0.50
   4   2  -1    3.77    0.63
   3   2  -1    2.28    0.45
  -3  -2   1    1.73    0.32
  -3  -2   1    2.02    0.38
   2   2  -1    0.24    0.16
   2   2  -1    0.11    0.19
  -2  -2   1    0.07    0.10
  -2  -2   1    0.23    0.15
   1   2  -1  541.78    9.30
   1   2  -1  544.69    8.72
  -1  -2   1  544.59    9.17
  -1  -2   1  563.92    9.17
   0   2  -1   80.49    1.71
   0   2  -1   79.76    1.65
   0   2  -1   85.31    1.41
   0  -2   1   83.74    1.61
   1  -2   1   70.89    1.46
  -1   2  -1   73.54    1.67
  -1   2  -1   73.17    1.39
  -1   2  -1   69.45    1.64
  -2   2  -1  124.02    2.80
   2  -2   1  123.43    2.59
  -2   2  -1  125.88    2.79
   3  -2   1   43.48    1.46
  -3   2  -1   45.66    1.61
  -3   2  -1   44.14    1.58
  -4   2  -1   16.39    1.05
  -4   2  -1   16.68    1.02
   4  -2   1   16.90    1.04
  -4  -1   1   19.27    1.10
   4   1  -1   22.51    1.17
  -4  -1   1   22.07    1.13
   3   1  -1    7.91    0.62
  -3  -1   1    7.06    0.57
  -3  -1   1    7.51    0.54
   2   1  -1  179.55    3.29
  -2  -1   1  179.00    3.43
   2   1  -1  182.25    3.38
  -2  -1   1  179.47    3.61
  -1  -1   1  257.23    4.37
   1   1  -1  253.72    4.23
  -1  -1   1  252.36    4.44
   1   1  -1  254.62    4.41
   0  -1   1 3038.36   49.85
   0   1  -1 2903.18   50.04
   0   1  -1 2916.84   49.71
  -1   1  -1   36.76    0.74
   1  -1   1   34.96    0.88
  -1   1  -1   36.45    0.95
  -1   1  -1   36.10    0.96
  -2   1  -1  168.82    3.36
   2  -1   1  163.00    3.20
   2  -1   1  166.48    2.89
  -2   1  -1  164.86    3.37
  -3   1  -1    6.08    0.60
  -3   1  -1    6.24    0.52
   3  -1   1    5.77    0.57
  -4   1  -1    0.28    0.29
   4  -1   1    1.08    0.41
  -4   1  -1    0.39    0.24
  -4   0   1    7.10    0.73
   4   0  -1    6.48    0.77
  -4   0   1    6.97    0.78
  -3   0   1    2.57    0.42
  -3   0   1    3.33    0.44
   3   0  -1    3.08    0.49
   2   0  -1  102.21    2.15
  -2   0   1  100.78    2.16
   2   0  -1  100.10    1.84
  -2   0   1   98.41    2.30
  -1   0   1 1389.42   23.12
   1   0  -1 1423.62   23.71
  -1   0   1 1364.59   23.78
   1   0  -1 1386.08   23.29
   0   0  -1    7.81    0.21
   0   0  -1    7.54    0.22
   0   0   1    8.02    0.21
   1   0   1    0.11    0.09
  -1   0  -1    0.29    0.11
  -1   0  -1    0.04    0.09
   1   0   1    0.48    0.10
  -2   0  -1   70.44    1.70
  -2   0  -1   67.27    1.67
   2   0   1   67.92    1.64
   2   0   1   69.95    1.39
  -3   0  -1   48.54    1.56
   3   0   1   46.52    1.51
  -3   0  -1   49.64    1.56
   4   0   1    1.46    0.43
  -4   0  -1    1.51    0.41
  -5   0  -1    0.02    0.36
  -4   1   1    0.09    0.28
   4  -1  -1    0.29    0.44
  -4   1   1    0.12    0.20
   3  -1  -1    9.88    0.73
  -3   1   1   10.11    0.70
  -3   1   1    9.22    0.66
   2  -1  -1  101.66    2.19
  -2   1   1  103.76    2.41
  -2   1   1  103.95    2.30
   1  -1  -1 9999.28  157.66
   0  -1  -1  193.99    3.19
   0  -1  -1  203.17    3.37
   0   1   1  196.24    3.33
   0   1   1  193.38    3.41
  -1  -1  -1   21.40    0.56
  -1  -1  -1   21.05    0.63
   1   1   1   20.98    0.61
   1   1   1   20.22    0.61
  -2  -1  -1   10.53    0.53
   2   1   1   11.33    0.46
  -2  -1  -1   11.03    0.53
   2   1   1   10.56    0.54
   3   1   1   57.21    1.67
  -3  -1  -1   54.82    1.64
  -3  -1  -1   58.39    1.69
   4   1   1   16.42    0.98
  -4  -1  -1   18.83    1.05
  -5  -1  -1    0.25    0.32
  -4   2   1   22.39    1.21
   4  -2  -1   21.98    1.23
  -4   2   1   22.33    1.23
   3  -2  -1   18.40    0.93
  -3   2   1   17.56    0.95
  -3   2   1   15.56    0.88
  -2   2   1   75.29    2.00
   2  -2  -1   76.26    1.77
  -2   2   1   76.31    1.91
  -1   2   1   -0.03    0.12
   1  -2  -1    0.13    0.17
  -1   2   1   -0.09    0.15
   0  -2  -1   50.03    0.90
   0   2   1   52.06    1.10
   0  -2  -1   53.04    1.13
   0   2   1   49.60    1.12
   1   2   1   38.99    1.03
  -1  -2  -1   41.78    1.01
   1   2   1   39.86    0.90
  -1  -2  -1   41.13    0.89
   2   2   1   38.78    1.10
  -2  -2  -1   39.41    1.10
   2   2   1   40.92    1.13
  -2  -2  -1   41.45    1.16
  -3  -2  -1   54.48    1.61
  -3  -2  -1   54.92    1.64
   3   2   1   55.34    1.62
  -4  -2  -1   30.57    1.35
   4   2   1   28.45    1.30
  -5  -2  -1    0.38    0.36
  -4   3   1    3.95    0.65
  -4   3   1    4.25    0.65
   4  -3  -1    2.90    0.66
  -3   3   1    2.75    0.49
   3  -3  -1    3.16    0.53
  -3   3   1    2.76    0.51
   2  -3  -1   91.90    2.07
  -2   3   1   94.43    2.42
  -2   3   1   95.26    2.33
  -1   3   1   19.47    0.78
   1  -3  -1   20.01    0.72
   1  -3  -1   19.49    0.61
  -1   3   1   20.28    0.56
   0  -3  -1  811.40   13.56
   0   3   1  803.14   13.37
   0   3   1  816.45   13.62
   0  -3  -1  828.26   13.00
   1   3   1  639.77   10.14
  -1  -3  -1  638.49   10.79
   1   3   1  639.69   10.94
  -1  -3  -1  643.41   10.53
   2   3   1   53.76    1.48
  -2  -3  -1   54.10    1.46
  -2  -3  -1   55.53    1.37
   2   3   1   55.31    1.38
  -3  -3  -1   21.46    0.97
   3   3   1   22.25    0.95
   3   3   1   22.51    0.89
  -3  -3  -1   21.28    0.93
   4   3   1    5.50    0.65
  -4  -3  -1    6.15    0.68
  -5  -3  -1    0.11    0.28
   4  -4  -1   -1.05    0.41
  -4   4   1    0.64    0.31
  -3   4   1    0.34    0.20
   3  -4  -1    0.14    0.37
   2  -4  -1    5.71    0.50
   2  -4  -1    4.75    0.50
  -2   4   1    5.63    0.59
   1  -4  -1  257.70    4.35
  -1   4   1  254.98    4.58
   1  -4  -1  261.52    4.86
  -1   4   1  258.49    4.95
   0  -4  -1  888.36   14.82
   0   4   1  893.55   14.88
   0   4   1  871.65   14.64
  -1  -4  -1   26.58    0.88
   1   4   1   27.05    0.96
  -1  -4  -1   26.55    0.81
   1   4   1   26.72    0.64
  -2  -4  -1   17.72    0.71
   2   4   1   17.45    0.68
  -2  -4  -1   16.81    0.74
   2   4   1   17.09    0.81
  -3  -4  -1    6.82    0.54
   3   4   1    7.55    0.56
   3   4   1    8.14    0.60
  -3  -4  -1    7.08    0.54
  -4  -4  -1    1.41    0.37
   4   4   1    1.59    0.43
  -5  -4  -1    1.86    0.49
  -4   5   1    0.33    0.33
   4  -5  -1    1.17    0.37
  -3   5   1    0.17    0.18
   3  -5  -1    0.20    0.37
   3  -5  -1    0.29    0.24
  -2   5   1    6.08    0.67
   2  -5  -1    5.88    0.60
   2  -5  -1    6.71    0.56
  -1   5   1   28.10    0.88
   1  -5  -1   27.15    1.05
  -1   5   1   26.67    1.09
   1  -5  -1   27.47    0.78
   0  -5  -1  605.46   10.52
   0   5   1  604.55   10.43
   0   5   1  608.62   10.53
   1   5   1   44.62    1.41
  -1  -5  -1   43.28    1.29
  -1  -5  -1   46.37    1.25
   1   5   1   45.48    0.90
   2   5   1   93.22    2.44
   2   5   1   97.86    2.03
  -2  -5  -1  101.38    2.23
  -2  -5  -1   95.36    2.32
   3   5   1   13.10    0.73
   3   5   1   14.41    0.84
  -3  -5  -1   14.30    0.80
   4   5   1   46.30    1.66
  -4  -5  -1   45.65    1.73
  -3   6   1    5.90    0.79
   3  -6  -1    5.77    0.69
  -2   6   1   27.56    1.31
   2  -6  -1   25.73    1.21
   1  -6  -1   10.60    0.75
  -1   6   1   10.10    0.57
  -1   6   1    9.62    0.70
   0   6   1   74.87    1.96
   0  -6  -1   76.16    2.03
   0   6   1   78.99    2.07
   1   6   1   22.59    1.01
  -1  -6  -1   22.19    0.95
  -2  -6  -1    3.43    0.41
  -2  -6  -1    2.26    0.40
   2   6   1    2.75    0.47
  -3  -6  -1  157.97    3.63
   3   6   1  156.58    3.71
  -4  -6  -1    1.47    0.36
  -3   7   1    0.26    0.30
   3  -7  -1    0.13    0.32
  -2   7   1    1.28    0.34
   2  -7  -1    0.53    0.37
  -1   7   1    6.39    0.69
   1  -7  -1    6.09    0.66
  -1   7   1    6.23    0.50
   0   7   1   -0.01    0.17
   0   7   1    0.07    0.25
   0  -7  -1    0.16    0.29
   1   7   1   30.19    1.19
  -1  -7  -1   28.16    1.18
   1   7   1   29.72    1.24
  -2  -7  -1   17.96    0.88
   2   7   1   16.32    0.97
  -2  -7  -1   17.65    0.92
   3   7   1  231.97    5.14
  -3  -7  -1  236.37    4.98
  -4  -7  -1   10.84    0.83
  -2   8   1    0.47    0.28
   2  -8  -1   -0.21    0.32
   1  -8  -1    6.40    0.75
  -1   8   1    8.82    0.86
   0   8   1  194.10    4.22
   0  -8  -1  191.88    4.30
   0   8   1  193.47    4.41
   1   8   1    8.33    0.72
  -1  -8  -1    8.77    0.69
  -2  -8  -1   -0.03    0.21
  -2  -8  -1    0.25    0.21
   2   8   1    0.06    0.27
  -3  -8  -1    5.57    0.66
   3   8   1    6.61    0.79
  -2   9   1    1.66    0.51
   2  -9  -1    1.62    0.60
  -1   9   1    0.67    0.33
   1  -9  -1   -0.15    0.34
   0   9   1   12.23    0.84
   0  -9  -1   11.41    0.92
   0   9   1   12.79    0.93
  -1  -9  -1    7.95    0.65
   1   9   1    6.36    0.75
  -1  -9  -1    6.67    0.72
   2   9   1   10.87    0.88
  -2  -9  -1   11.00    0.83
  -2  -9  -1   12.35    0.85
   3   9   1    6.53    0.84
  -3  -9  -1    5.90    0.70
   1 -10  -1    2.56    0.63
  -1  10   1    3.42    0.70
   0  10   1    2.46    0.52
   0 -10  -1    2.07    0.54
   0  10   1    2.44    0.56
  -1 -10  -1    3.55    0.57
   1  10   1    2.87    0.57
  -1 -10  -1    3.13    0.59
   2  10   1    9.64    0.99
  -2 -10  -1    8.80    0.77
  -3 -10  -1    5.52    0.73
   0  11   1    2.70    0.63
   0 -11  -1    2.14    0.58
   0  11   1    3.03    0.59
   1  11   1    0.90    0.41
  -1 -11  -1    0.60    0.27
  -1 -11  -1    0.85    0.36
  -2 -11  -1    0.59    0.30
   2  10  -2    2.56    0.59
  -2 -10   2    2.16    0.53
  -1 -10   2    4.64    0.73
   1  10  -2    7.26    0.86
   0  10  -2    1.49    0.48
   0 -10   2    1.12    0.44
   0  10  -2    2.20    0.53
   1 -10   2    1.50    0.56
   3   9  -2    0.81    0.40
  -3  -9   2    1.76    0.43
  -2  -9   2   -0.10    0.26
   2   9  -2    0.80    0.35
  -1  -9   2    7.18    0.80
   1   9  -2    7.40    0.81
  -1  -9   2    7.47    0.72
   0   9  -2    2.36    0.50
   0  -9   2    2.52    0.54
   0   9  -2    2.04    0.46
  -1   9  -2    6.23    0.86
   1  -9   2    7.88    0.90
   2  -9   2    7.83    0.98
   3   8  -2    1.37    0.41
  -3  -8   2    1.20    0.40
   2   8  -2   88.20    2.66
  -2  -8   2   85.52    2.59
  -1  -8   2    8.55    0.72
  -1  -8   2    7.59    0.69
   1   8  -2    7.63    0.77
   0   8  -2    0.80    0.34
   0  -8   2    0.73    0.37
   0   8  -2    0.54    0.33
   1  -8   2    5.35    0.70
  -1   8  -2    6.00    0.78
  -2   8  -2    0.47    0.28
   2  -8   2    0.55    0.43
  -3  -7   2    7.09    0.80
   3   7  -2    7.89    0.80
   2   7  -2   68.12    2.19
  -2  -7   2   68.52    2.16
  -2  -7   2   72.34    2.00
   1   7  -2   23.83    1.15
  -1  -7   2   27.26    1.12
  -1  -7   2   27.29    1.20
   0  -7   2    6.37    0.65
   0   7  -2    7.22    0.62
   0   7  -2    7.69    0.79
  -1   7  -2    5.08    0.69
  -1   7  -2    5.85    0.51
   1  -7   2    5.85    0.66
  -2   7  -2   17.45    1.12
   2  -7   2   17.27    1.09
   3  -7   2   42.34    1.88
  -3   7  -2   40.84    1.92
   3   6  -2    0.41    0.31
  -3  -6   2    0.28    0.27
  -2  -6   2    0.17    0.19
  -2  -6   2    0.24    0.18
   2   6  -2   -0.07    0.25
   1   6  -2  121.54    2.94
  -1  -6   2  121.48    2.89
  -1  -6   2  120.07    2.73
   0  -6   2    7.07    0.62
   0   6  -2    7.16    0.62
   0   6  -2    7.11    0.56
   1  -6   2   31.47    1.26
  -1   6  -2   30.83    1.33
  -1   6  -2   32.15    1.11
  -2   6  -2    4.04    0.65
   2  -6   2    2.91    0.55
  -3   6  -2   15.14    1.07
   3  -6   2   14.14    1.04
  -4  -5   2    2.04    0.46
   4   5  -2    1.01    0.47
   3   5  -2    0.88    0.36
  -3  -5   2    0.59    0.23
   3   5  -2    0.74    0.31
   2   5  -2   75.51    1.70
  -2  -5   2   68.48    1.98
   2   5  -2   73.58    2.07
  -2  -5   2   75.82    1.86
  -1  -5   2   55.13    1.47
   1   5  -2   54.38    1.62
  -1  -5   2   52.78    1.59
  -1   5  -2   85.78    2.01
   1  -5   2   87.43    2.19
  -1   5  -2   86.94    2.32
  -2   5  -2  155.71    3.74
   2  -5   2  162.02    3.65
  -3   5  -2   15.42    1.00
   3  -5   2   14.68    0.98
  -4   5  -2    0.08    0.29
  -4  -4   2    2.28    0.50
   4   4  -2    2.24    0.59
   3   4  -2    4.43    0.51
   3   4  -2    4.04    0.52
  -3  -4   2    4.34    0.56
  -3  -4   2    3.89    0.42
  -2  -4   2  438.45    8.02
   2   4  -2  453.79    8.13
   2   4  -2  436.18    7.44
  -2  -4   2  458.23    7.85
   1   4  -2   68.78    1.78
  -1  -4   2   69.50    1.59
   1   4  -2   68.19    1.36
  -1  -4   2   68.06    1.75
   0   4  -2  357.14    6.67
   0   4  -2  375.89    5.85
   0  -4   2  365.34    6.47
   0   4  -2  363.80    6.57
   1  -4   2   12.95    0.65
  -1   4  -2   11.85    0.68
   1  -4   2   12.17    0.48
  -1   4  -2   12.46    0.55
  -2   4  -2   13.74    0.79
  -2   4  -2   12.68    0.85
   2  -4   2   11.93    0.64
  -3   4  -2    6.07    0.73
  -3   4  -2    4.56    0.66
   3  -4   2    4.79    0.56
  -4   4  -2    0.94    0.39
  -4   4  -2    0.93    0.36
   4  -4   2    0.07    0.39
   4   3  -2   -0.10    0.41
  -4  -3   2    0.39    0.27
   3   3  -2    1.51    0.33
  -3  -3   2    1.38    0.28
   3   3  -2    0.97    0.42
  -3  -3   2    1.77    0.38
   2   3  -2  137.01    2.89
  -2  -3   2  133.69    2.98
  -2  -3   2  138.07    2.73
   2   3  -2  136.04    2.69
   1   3  -2  290.57    5.31
   1   3  -2  292.99    4.82
  -1  -3   2  293.06    5.09
  -1  -3   2  288.34    5.27
   0   3  -2  253.64    4.76
   0   3  -2  266.21    4.88
   0   3  -2  268.65    4.28
   0  -3   2  266.21    4.68
  -1   3  -2  202.43    3.97
  -1   3  -2  206.84    3.72
   1  -3   2  201.52    3.59
  -1   3  -2  203.17    3.98
   2  -3   2    6.46    0.47
  -2   3  -2    7.15    0.54
  -2   3  -2    7.11    0.62
  -3   3  -2   25.47    1.23
   3  -3   2   27.00    1.14
  -3   3  -2   29.30    1.28
  -4   3  -2    0.56    0.35
   4  -3   2    0.43    0.40
  -4  -2   2    0.70    0.34
   4   2  -2    0.33    0.43
   3   2  -2    0.53    0.39
  -3  -2   2    0.49    0.23
  -3  -2   2    0.26    0.18
  -2  -2   2  144.70    2.80
  -2  -2   2  143.43    3.07
   2   2  -2  142.03    2.81
   2   2  -2  141.49    2.85
  -1  -2   2   11.64    0.40
   1   2  -2   11.68    0.50
  -1  -2   2   12.39    0.54
   1   2  -2   11.01    0.46
   0  -2   2  362.59    6.09
   0   2  -2  359.18    6.21
   0   2  -2  358.99    5.75
   0   2  -2  357.96    6.22
  -1   2  -2   68.32    1.62
  -1   2  -2   70.07    1.41
   1  -2   2   66.55    1.46
  -1   2  -2   66.08    1.59
  -2   2  -2  484.23    8.61
  -2   2  -2  492.48    8.79
   2  -2   2  486.19    8.26
  -3   2  -2   21.15    1.08
  -3   2  -2   22.31    1.05
   3  -2   2   20.75    1.00
  -4   2  -2    0.48    0.37
   4  -2   2    0.34    0.34
  -4  -1   2   -0.10    0.22
  -4  -1   2   -0.21    0.20
   4   1  -2   -0.31    0.36
  -3  -1   2    5.85    0.62
  -3  -1   2    5.17    0.45
   3   1  -2    5.82    0.61
   2   1  -2  101.88    2.14
  -2  -1   2   97.89    2.06
  -2  -1   2   99.02    2.33
   2   1  -2   99.71    2.01
  -1  -1   2  131.72    2.34
   1   1  -2  133.30    2.49
  -1  -1   2  134.75    2.60
   1   1  -2  131.65    2.40
   0   1  -2  137.95    2.29
   0  -1   2  133.18    2.44
   0   1  -2  134.40    2.47
   1  -1   2  796.87   12.67
  -1   1  -2  804.35   13.12
  -1   1  -2  774.75   13.04
  -1   1  -2  806.58   13.28
  -2   1  -2   62.93    1.68
  -2   1  -2   64.86    1.63
   2  -1   2   62.70    1.60
   2  -1   2   63.17    1.35
  -3   1  -2   50.11    1.64
  -3   1  -2   53.66    1.72
   3  -1   2   53.43    1.66
   4  -1   2    1.11    0.42
  -4   1  -2    0.94    0.38
  -4   0   2    0.70    0.29
  -4   0   2    0.50    0.31
   4   0  -2    1.14    0.49
   3   0  -2   -0.09    0.35
  -3   0   2    0.41    0.21
  -3   0   2    0.34    0.19
  -2   0   2  279.14    5.31
   2   0  -2  280.59    4.97
  -2   0   2  280.54    5.07
   2   0  -2  277.44    4.79
   1   0  -2 7738.93  127.12
   1   0  -2 7522.32  121.70
  -1   0   2 7991.72  127.83
  -1   0   2 7481.43  126.67
   0   0  -2  247.78    4.11
   0   0  -2  248.02    4.34
   0   0  -2  256.96    4.32
   0   0   2  251.20    4.25
  -1   0  -2   17.20    0.57
  -1   0  -2   17.45    0.50
   1   0   2   17.75    0.53
   2   0   2    8.49    0.50
   2   0   2    7.95    0.38
  -2   0  -2    7.96    0.50
  -2   0  -2    8.99    0.47
  -3   0  -2    8.06    0.64
  -3   0  -2    9.30    0.60
   3   0   2    9.57    0.67
   4   0   2    0.30    0.34
  -4   0  -2    0.43    0.28
   4  -1  -2    1.81    0.53
  -4   1   2    2.32    0.46
  -4   1   2    1.82    0.46
  -3   1   2   30.04    1.29
   3  -1  -2   31.58    1.24
  -3   1   2   29.95    1.18
  -2   1   2  701.20   11.91
  -2   1   2  714.66   11.61
   2  -1  -2  683.70   11.39
  -2   1   2  693.77   12.01
   1  -1  -2  134.50    2.48
  -1   1   2  140.20    2.45
  -1   1   2  138.47    2.73
  -1   1   2  140.29    2.57
   0  -1  -2  213.74    3.47
   0   1   2  214.88    3.60
   0   1   2  209.30    3.72
   0  -1  -2  210.29    3.62
   1   1   2  104.41    2.08
  -1  -1  -2  105.59    1.85
  -1  -1  -2  101.76    1.95
  -1  -1  -2  102.37    2.05
  -2  -1  -2  679.42   11.60
  -2  -1  -2  690.53   11.30
   2   1   2  667.40   11.11
   2   1   2  678.11   11.49
  -3  -1  -2   26.64    1.01
  -3  -1  -2   25.70    1.07
   3   1   2   26.76    1.09
   4   1   2    1.06    0.33
  -4  -1  -2    0.08    0.23
  -4   2   2    0.32    0.28
  -4   2   2    0.32    0.26
   4  -2  -2   -0.21    0.46
  -3   2   2    1.41    0.39
   3  -2  -2    1.82    0.50
  -3   2   2    0.96    0.35
  -2   2   2  479.21    8.43
  -2   2   2  470.76    8.55
   2  -2  -2  474.72    7.99
   1  -2  -2  105.96    2.10
  -1   2   2  104.85    1.97
  -1   2   2  107.85    2.27
   1  -2  -2  105.46    2.00
   0   2   2  331.57    5.61
   0  -2  -2  326.72    5.33
   0  -2  -2  341.46    5.72
  -1  -2  -2   93.97    1.98
  -1  -2  -2   97.70    1.84
   1   2   2   96.36    2.07
  -1  -2  -2   99.92    1.74
  -2  -2  -2  594.18   10.32
  -2  -2  -2  608.07   10.00
   2   2   2  598.50   10.30
   2   2   2  592.91    9.86
  -3  -2  -2  141.79    3.19
  -3  -2  -2  137.44    2.98
   3   2   2  138.31    3.09
  -4  -2  -2    6.65    0.72
   4   2   2    7.24    0.71
  -5  -2  -2   -0.22    0.29
  -4   3   2    3.74    0.65
   4  -3  -2    3.84    0.69
  -4   3   2    3.48    0.63
  -3   3   2    6.25    0.66
   3  -3  -2    6.33    0.66
  -3   3   2    6.42    0.71
   2  -3  -2    0.65    0.33
  -2   3   2    1.09    0.31
   1  -3  -2    1.31    0.24
  -1   3   2    1.30    0.17
   1  -3  -2    1.04    0.23
  -1   3   2    1.10    0.26
   0   3   2    0.17    0.11
   0   3   2   -0.07    0.09
   0  -3  -2   -0.01    0.09
   0  -3  -2    0.16    0.15
  -1  -3  -2   71.85    1.40
  -1  -3  -2   71.28    1.62
   1   3   2   70.07    1.70
   2   3   2   47.97    1.27
  -2  -3  -2   46.83    1.18
  -2  -3  -2   47.48    1.36
   2   3   2   47.47    1.37
   3   3   2   53.31    1.61
  -3  -3  -2   53.83    1.69
   3   3   2   54.44    1.58
   4   3   2    4.29    0.59
  -4  -3  -2    4.63    0.60
  -5  -3  -2   -0.04    0.28
   4  -4  -2    1.46    0.32
   4  -4  -2   -0.18    0.52
  -4   4   2    1.04    0.39
   3  -4  -2    8.65    0.67
  -3   4   2    8.88    0.86
   3  -4  -2    8.98    0.77
   2  -4  -2    1.44    0.35
   2  -4  -2    2.04    0.42
  -2   4   2    1.32    0.34
   1  -4  -2   13.67    0.66
  -1   4   2   13.98    0.70
  -1   4   2   14.78    0.55
   1  -4  -2   14.01    0.57
   0  -4  -2  230.76    4.32
   0  -4  -2  236.80    3.75
   0   4   2  228.00    4.34
   0   4   2  226.89    4.23
  -1  -4  -2    1.51    0.19
   1   4   2    1.48    0.17
  -1  -4  -2    1.08    0.23
   1   4   2    1.42    0.28
  -2  -4  -2   16.10    0.63
   2   4   2   14.37    0.62
  -2  -4  -2   14.35    0.70
   2   4   2   14.62    0.75
   3   4   2    0.09    0.20
  -3  -4  -2    0.43    0.23
   3   4   2    0.33    0.24
   4   4   2    0.84    0.36
  -4  -4  -2    2.14    0.44
  -4   5   2    0.63    0.29
   4  -5  -2    0.80    0.36
   4  -5  -2   -0.11    0.58
   3  -5  -2    5.82    0.70
  -3   5   2    6.68    0.79
   3  -5  -2    5.35    0.65
   2  -5  -2  140.86    2.88
   2  -5  -2  136.15    3.19
  -2   5   2  139.82    3.41
  -1   5   2  381.87    6.66
   1  -5  -2  375.74    6.19
   1  -5  -2  372.25    6.89
  -1   5   2  369.13    6.95
   0  -5  -2   10.85    0.64
   0  -5  -2    9.48    0.28
   0   5   2   10.48    0.58
   0   5   2    9.68    0.55
  -1  -5  -2   15.96    0.73
   1   5   2   15.49    0.46
   1   5   2   15.14    0.76
   1   5   2   15.54    0.65
  -2  -5  -2   61.59    1.76
  -2  -5  -2   68.30    1.61
   2   5   2   66.61    1.54
   2   5   2   61.20    1.86
   3   5   2   17.75    0.84
  -3  -5  -2   15.95    0.88
   3   5   2   16.67    0.93
   4   5   2    1.88    0.46
  -4  -5  -2    1.91    0.43
  -3   6   2    1.03    0.40
   3  -6  -2    1.31    0.40
   2  -6  -2    5.73    0.64
  -2   6   2    7.14    0.77
   1  -6  -2  190.63    4.05
  -1   6   2  192.70    3.79
  -1   6   2  192.76    4.16
   0   6   2    4.61    0.48
   0  -6  -2    4.23    0.48
   0   6   2    5.07    0.50
   1   6   2   59.05    1.60
   1   6   2   55.54    1.74
  -1  -6  -2   58.93    1.68
   2   6   2   42.11    1.56
  -2  -6  -2   45.09    1.31
  -2  -6  -2   45.34    1.47
  -3  -6  -2  223.24    4.75
   3   6   2  217.16    4.79
  -4  -6  -2   12.17    0.86
   3  -7  -2    0.13    0.34
  -3   7   2    0.48    0.29
  -2   7   2    2.01    0.48
   2  -7  -2    1.30    0.43
   1  -7  -2   13.39    0.86
  -1   7   2   14.27    0.88
  -1   7   2   13.07    0.69
   0   7   2    0.37    0.24
   0  -7  -2    0.34    0.33
   0   7   2    0.66    0.28
   1   7   2   13.21    0.73
  -1  -7  -2   10.71    0.74
   1   7   2   12.46    0.81
   2   7   2  361.93    7.12
  -2  -7  -2  353.36    6.57
  -2  -7  -2  347.58    6.86
  -3  -7  -2   28.86    1.26
   3   7   2   27.46    1.33
  -4  -7  -2    0.48    0.28
   3  -8  -2   -0.30    0.34
  -2   8   2   11.06    0.91
   2  -8  -2    9.54    0.93
   1  -8  -2    1.25    0.47
  -1   8   2    0.93    0.36
   0   8   2   20.82    1.07
   0  -8  -2   17.43    1.04
   0   8   2   19.74    1.01
   1   8   2    2.13    0.42
  -1  -8  -2    1.00    0.34
   1   8   2    1.53    0.42
   2   8   2   89.00    2.65
  -2  -8  -2   92.46    2.57
   3   8   2    1.59    0.45
  -3  -8  -2    1.38    0.37
  -4  -8  -2    0.82    0.32
   2  -9  -2    9.81    1.01
  -2   9   2    8.99    1.03
  -1   9   2   91.33    2.82
   1  -9  -2   86.77    2.70
   0   9   2    2.46    0.49
   0  -9  -2    1.93    0.51
   0   9   2    3.19    0.58
  -1  -9  -2    2.36    0.50
   1   9   2    2.32    0.48
   1   9   2    1.99    0.49
   2   9   2    0.37    0.29
  -2  -9  -2    0.26    0.22
   3   9   2    4.45    0.71
  -3  -9  -2    4.19    0.65
   1 -10  -2    1.40    0.58
  -1  10   2    1.23    0.47
   0 -10  -2   12.72    1.01
   0  10   2   14.98    0.97
   0  10   2   14.81    1.04
   1  10   2    9.84    0.92
  -1 -10  -2    9.29    0.80
  -2 -10  -2    0.28    0.28
   2  10   2   -0.07    0.33
  -3 -10  -2    0.44    0.28
   3  10   2    0.34    0.34
   0  11   2    6.11    0.78
   0  11   2    4.58    0.75
   0 -11  -2    5.60    0.82
   1  11   2   11.15    0.95
  -1 -11  -2   11.64    0.88
  -1 -11  -2   11.17    0.92
  -2 -11  -2   12.30    0.96
  -2 -10   3    1.54    0.49
  -1 -10   3    6.69    0.86
   1  10  -3    6.30    0.82
   0 -10   3    0.50    0.31
   0  10  -3    0.32    0.34
   1 -10   3    8.01    0.95
  -3  -9   3    4.70    0.76
   2   9  -3    1.17    0.40
  -2  -9   3    0.36    0.28
  -1  -9   3    0.89    0.40
   1   9  -3    1.81    0.45
   0  -9   3    1.10    0.44
   0   9  -3    1.31    0.40
   0   9  -3    1.27    0.37
  -1   9  -3    4.41    0.78
   1  -9   3    5.21    0.79
  -3  -8   3    1.98    0.52
   3   8  -3    1.96    0.50
  -2  -8   3   10.54    0.85
   2   8  -3   12.63    0.95
  -1  -8   3   10.10    0.81
   1   8  -3   11.44    0.84
   0   8  -3   21.32    1.10
   0  -8   3   21.14    1.11
   0   8  -3   19.01    1.17
  -1   8  -3   43.58    1.88
   1  -8   3   42.38    1.68
   2  -8   3   -0.02    0.34
  -2   8  -3    0.05    0.24
   3   7  -3   54.33    2.00
  -3  -7   3   53.77    2.03
  -2  -7   3   10.23    0.77
   2   7  -3    9.43    0.79
  -1  -7   3   10.47    0.69
  -1  -7   3    9.93    0.74
   1   7  -3   12.36    0.84
   0   7  -3   10.03    0.77
   0  -7   3    9.40    0.73
   0   7  -3   10.22    0.72
  -1   7  -3    9.60    0.66
   1  -7   3    8.84    0.76
  -1   7  -3    7.90    0.82
   2  -7   3    0.14    0.40
  -2   7  -3    0.56    0.28
  -3   7  -3    4.54    0.79
  -4  -6   3    1.18    0.41
  -3  -6   3   13.17    0.93
   3   6  -3   16.22    0.98
  -2  -6   3    1.37    0.36
   2   6  -3    1.86    0.43
  -1  -6   3    2.09    0.37
  -1  -6   3    2.04    0.40
   1   6  -3    2.45    0.48
   0   6  -3    5.12    0.54
   0  -6   3    5.16    0.56
   0   6  -3    5.11    0.61
  -1   6  -3  110.81    3.02
   1  -6   3  114.39    2.79
  -2   6  -3  347.08    7.09
   2  -6   3  343.04    6.86
  -3   6  -3    6.34    0.84
   3  -6   3    5.62    0.77
  -4  -5   3    0.75    0.32
  -3  -5   3    0.28    0.24
   3   5  -3    0.31    0.26
   2   5  -3    1.36    0.39
  -2  -5   3    1.42    0.34
   1   5  -3   45.96    1.51
  -1  -5   3   48.18    1.33
  -1  -5   3   49.47    1.55
   0  -5   3    2.35    0.38
   0   5  -3    2.65    0.43
   0   5  -3    2.20    0.36
   1  -5   3    0.05    0.26
  -1   5  -3    0.62    0.23
  -1   5  -3    0.76    0.28
   2  -5   3    5.86    0.64
  -2   5  -3    8.06    0.68
   3  -5   3    0.86    0.33
  -3   5  -3    0.71    0.27
   4   4  -3    0.05    0.41
  -4  -4   3    0.73    0.34
  -3  -4   3    9.91    0.75
   3   4  -3    9.92    0.68
   3   4  -3    9.42    0.76
  -2  -4   3   73.60    1.66
   2   4  -3   69.42    1.67
   2   4  -3   66.91    1.91
  -1  -4   3   62.93    1.72
   1   4  -3   62.30    1.32
   1   4  -3   63.67    1.70
  -1  -4   3   60.85    1.46
   0   4  -3   62.43    1.22
   0  -4   3   59.31    1.48
   0   4  -3   60.22    1.71
   0   4  -3   58.29    1.57
  -1   4  -3    1.45    0.26
   1  -4   3    0.83    0.27
   1  -4   3    1.08    0.21
  -1   4  -3    1.53    0.34
  -2   4  -3    5.25    0.62
  -2   4  -3    6.50    0.64
   2  -4   3    5.17    0.48
  -3   4  -3    9.00    0.86
   3  -4   3    8.41    0.66
  -3   4  -3    9.86    0.76
  -4   4  -3   -0.59    0.25
   4  -4   3   -0.57    0.36
  -4  -3   3    0.57    0.28
   4   3  -3    0.59    0.43
   3   3  -3  110.76    2.61
   3   3  -3  112.98    2.60
  -3  -3   3  110.67    2.94
   2   3  -3   57.35    1.57
  -2  -3   3   57.33    1.69
   2   3  -3   56.30    1.48
  -2  -3   3   57.27    1.37
   1   3  -3  186.76    3.25
   1   3  -3  184.22    3.66
  -1  -3   3  183.39    3.67
  -1  -3   3  186.84    3.35
   0   3  -3   65.38    1.28
   0   3  -3   63.31    1.65
   0  -3   3   65.25    1.44
   0   3  -3   63.56    1.55
  -1   3  -3  162.29    3.35
  -1   3  -3  165.05    3.16
  -1   3  -3  165.81    3.40
   2  -3   3    0.64    0.20
  -2   3  -3   -0.13    0.24
  -2   3  -3    0.25    0.18
  -3   3  -3    1.34    0.32
   3  -3   3    0.92    0.33
  -3   3  -3    0.95    0.37
  -4   3  -3    1.42    0.46
   4  -3   3    0.75    0.41
  -4  -2   3    0.66    0.26
   4   2  -3   -0.01    0.41
  -3  -2   3    0.20    0.17
  -3  -2   3    0.12    0.22
   3   2  -3    0.18    0.37
  -2  -2   3    8.43    0.40
   2   2  -3    8.01    0.61
  -2  -2   3    7.57    0.55
   2   2  -3    8.57    0.49
   1   2  -3  361.42    6.30
   1   2  -3  360.45    5.88
  -1  -2   3  343.71    6.25
  -1  -2   3  353.64    5.96
   0   2  -3  205.89    3.45
   0  -2   3  203.39    3.59
   0   2  -3  205.09    3.79
   0  -2   3  205.91    3.77
  -1   2  -3   18.59    0.74
  -1   2  -3   18.20    0.72
  -1   2  -3   18.43    0.63
  -1   2  -3   18.20    0.62
   2  -2   3   38.65    1.00
   2  -2   3   38.96    1.19
  -2   2  -3   34.89    1.28
  -2   2  -3   37.23    1.23
  -3   2  -3   11.56    0.75
   3  -2   3   10.70    0.72
  -3   2  -3   11.41    0.83
   4  -2   3    1.34    0.44
  -4   2  -3    1.30    0.44
  -4  -1   3    1.26    0.35
   4   1  -3    0.46    0.46
  -3  -1   3   18.53    1.01
  -3  -1   3   17.91    0.81
   3   1  -3   17.54    0.98
  -2  -1   3   77.79    1.69
   2   1  -3   79.71    1.73
   2   1  -3   79.77    1.83
  -1  -1   3   34.57    0.70
   1   1  -3   34.16    0.91
   1   1  -3   33.45    0.91
   0  -1   3   13.74    0.48
   0   1  -3   13.73    0.41
   0   1  -3   12.97    0.49
   0   1  -3   13.50    0.44
  -1   1  -3 2769.34   47.52
  -1   1  -3 2768.00   47.63
  -1   1  -3 2843.68   47.07
  -1   1  -3 2775.94   46.23
  -2   1  -3  131.22    2.78
   2  -1   3  132.50    2.62
  -2   1  -3  133.99    2.94
   2  -1   3  134.65    2.81
   3  -1   3    0.04    0.24
  -3   1  -3   -0.05    0.20
  -3   1  -3   -0.10    0.17
   4  -1   3    0.92    0.38
  -4   1  -3    0.10    0.26
  -4   0   3    0.10    0.21
   4   0  -3   -0.15    0.40
  -3   0   3    7.95    0.67
  -3   0   3    7.47    0.56
   3   0  -3    7.15    0.68
   2   0  -3  573.65    9.56
  -2   0   3  570.24   10.11
   2   0  -3  581.08    9.69
  -2   0   3  584.28    9.82
   1   0  -3   11.50    0.42
  -1   0   3   11.48    0.36
  -1   0   3   10.96    0.53
   1   0  -3   11.64    0.53
   0   0  -3  782.09   13.08
   0   0   3  781.70   12.83
   0   0  -3  799.90   12.94
   0   0  -3  794.75   13.02
  -1   0  -3   10.19    0.44
  -1   0  -3   10.18    0.38
   1   0   3    9.86    0.43
  -1   0  -3    9.35    0.43
   2   0   3   33.74    0.98
  -2   0  -3   34.25    0.98
  -2   0  -3   33.40    1.09
   2   0   3   33.13    1.09
  -3   0  -3    1.44    0.31
   3   0   3    1.30    0.35
  -3   0  -3    1.41    0.35
  -4   0  -3    0.09    0.24
   4   0   3    0.31    0.30
  -4   1   3    1.19    0.37
  -4   1   3    1.72    0.41
   4  -1  -3    0.81    0.54
   3  -1  -3   48.84    1.62
  -3   1   3   49.52    1.75
  -3   1   3   46.27    1.51
  -2   1   3 2112.31   33.81
   2  -1  -3 2044.95   32.32
  -2   1   3 2029.80   33.69
  -2   1   3 2070.43   33.66
  -1   1   3   59.41    1.25
  -1   1   3   57.34    1.46
   1  -1  -3   60.56    1.21
   1  -1  -3   58.36    1.31
   0   1   3  222.56    4.00
   0   1   3  220.15    3.81
   0  -1  -3  226.91    3.83
   0  -1  -3  225.38    3.74
  -1  -1  -3  203.76    3.43
  -1  -1  -3  201.68    3.70
   1   1   3  200.53    3.79
  -1  -1  -3  205.73    3.55
   2   1   3    1.91    0.27
  -2  -1  -3    1.72    0.22
  -2  -1  -3    1.36    0.26
   2   1   3    1.82    0.30
   3   1   3   19.46    0.93
  -3  -1  -3   18.22    0.90
  -4  -1  -3    6.79    0.75
   4   1   3    7.90    0.78
   4  -2  -3    2.88    0.69
  -4   2   3    3.59    0.58
  -4   2   3    3.68    0.67
  -3   2   3  106.31    2.67
   3  -2  -3  109.19    2.66
  -3   2   3  107.34    2.94
  -2   2   3   28.05    1.15
  -2   2   3   29.33    1.02
   2  -2  -3   29.94    1.06
  -1   2   3  170.69    3.09
   1  -2  -3  164.95    3.08
  -1   2   3  166.82    3.31
   1  -2  -3  167.32    3.02
   0  -2  -3  139.39    2.44
   0   2   3  141.33    2.53
   0   2   3  139.60    2.72
   0  -2  -3  135.57    2.58
  -1  -2  -3 1536.02   24.27
   1   2   3 1530.25   25.11
  -1  -2  -3 1488.95   24.88
  -2  -2  -3  244.96    4.69
   2   2   3  244.75    4.51
  -2  -2  -3  250.72    4.31
   2   2   3  241.27    4.68
  -3  -2  -3    2.88    0.44
   3   2   3    3.34    0.46
  -4  -2  -3    3.62    0.56
   4   2   3    2.37    0.47
   4  -3  -3   -0.02    0.49
  -4   3   3    0.53    0.33
   3  -3  -3    1.33    0.51
  -3   3   3    0.86    0.35
  -2   3   3   40.07    1.47
   2  -3  -3   45.46    1.31
   1  -3  -3  247.96    4.22
  -1   3   3  238.87    4.39
   1  -3  -3  243.86    4.46
  -1   3   3  246.63    4.65
   0   3   3  273.73    4.83
   0  -3  -3  277.51    4.97
   0   3   3  278.93    5.09
   0  -3  -3  282.49    4.57
  -1  -3  -3 1469.05   24.00
   1   3   3 1455.60   24.28
  -1  -3  -3 1429.08   22.75
  -1  -3  -3 1478.24   23.95
   2   3   3  358.96    6.69
   2   3   3  367.13    6.32
  -2  -3  -3  365.17    6.17
  -2  -3  -3  364.29    6.64
  -3  -3  -3   22.93    1.05
   3   3   3   22.39    0.99
   3   3   3   23.85    0.98
   4   3   3    0.75    0.33
  -4  -3  -3    0.49    0.25
  -4   4   3    0.39    0.30
   4  -4  -3   -0.07    0.50
   4  -4  -3    0.52    0.29
  -3   4   3    7.08    0.80
   3  -4  -3    7.29    0.74
   3  -4  -3    7.38    0.62
  -2   4   3   15.31    0.89
   2  -4  -3   15.75    0.79
   2  -4  -3   16.48    0.83
  -1   4   3   31.23    1.12
   1  -4  -3   29.89    1.02
   1  -4  -3   32.48    0.92
  -1   4   3   31.94    0.92
   0   4   3  232.99    4.23
   0  -4  -3  233.08    3.84
   0  -4  -3  233.63    4.35
   0   4   3  225.27    4.40
   1   4   3   29.83    1.06
   1   4   3   28.86    0.78
  -1  -4  -3   29.43    0.96
  -1  -4  -3   29.89    0.77
  -2  -4  -3    4.89    0.41
   2   4   3    5.81    0.41
  -2  -4  -3    6.00    0.34
   2   4   3    5.50    0.46
  -3  -4  -3   60.33    1.85
   3   4   3   60.93    1.76
   3   4   3   62.58    1.84
  -4  -4  -3    1.37    0.35
   4   4   3    1.46    0.36
  -4   5   3    0.15    0.29
   4  -5  -3    0.17    0.30
   4  -5  -3   -1.02    0.51
   3  -5  -3    4.25    0.66
   3  -5  -3    4.74    0.61
  -3   5   3    3.81    0.65
   2  -5  -3    6.52    0.62
   2  -5  -3    5.02    0.57
  -2   5   3    5.07    0.65
  -1   5   3    0.20    0.16
   1  -5  -3    0.51    0.26
  -1   5   3    0.23    0.17
   1  -5  -3    0.17    0.25
   0   5   3    9.70    0.53
   0  -5  -3    9.08    0.60
   0  -5  -3    9.75    0.35
   0   5   3   10.35    0.59
  -1  -5  -3   19.33    0.59
  -1  -5  -3   17.42    0.79
   1   5   3   19.69    0.70
   1   5   3   17.80    0.86
  -2  -5  -3   16.22    0.80
   2   5   3   13.86    0.81
   2   5   3   15.78    0.65
  -3  -5  -3   26.97    1.18
   3   5   3   28.10    1.22
   3   5   3   26.62    1.07
   4   5   3    3.70    0.56
  -4  -5  -3    3.62    0.57
  -3   6   3   23.05    1.33
   3  -6  -3   23.79    1.25
  -2   6   3   38.58    1.60
   2  -6  -3   38.35    1.46
  -1   6   3    2.35    0.42
   1  -6  -3    2.52    0.44
  -1   6   3    2.72    0.36
   0   6   3   -0.04    0.12
   0   6   3    0.15    0.16
   0  -6  -3   -0.23    0.24
  -1  -6  -3   11.22    0.71
   1   6   3   15.55    0.70
   1   6   3   15.05    0.84
   2   6   3  463.86    8.88
  -2  -6  -3  483.07    8.72
   3   6   3    4.03    0.60
   3   6   3    2.63    0.42
  -3  -6  -3    3.29    0.52
  -4  -6  -3    9.59    0.78
  -3   7   3    1.23    0.37
   3  -7  -3   -0.25    0.28
   2  -7  -3   18.21    1.08
  -2   7   3   16.63    1.08
  -1   7   3    3.14    0.42
  -1   7   3    2.61    0.49
   1  -7  -3    2.76    0.54
   0   7   3    0.70    0.25
   0   7   3    0.82    0.31
   0  -7  -3    0.65    0.33
  -1  -7  -3   33.60    1.31
   1   7   3   33.11    1.21
   1   7   3   34.22    1.40
  -2  -7  -3  368.29    7.12
   2   7   3  367.33    7.34
  -3  -7  -3   22.29    1.14
   3   7   3   25.66    1.30
  -4  -7  -3    0.20    0.24
   3  -8  -3    0.85    0.43
  -2   8   3    0.66    0.36
   2  -8  -3   -0.08    0.27
  -1   8   3   24.45    1.24
   1  -8  -3   22.50    1.19
   0   8   3    5.75    0.63
   0   8   3    5.73    0.66
   0  -8  -3    6.11    0.69
   1   8   3  170.90    3.79
   1   8   3  167.74    4.02
  -1  -8  -3  172.40    3.92
  -2  -8  -3   34.99    1.46
   2   8   3   34.71    1.56
   3   8   3    4.41    0.69
  -3  -8  -3    4.53    0.62
  -4  -8  -3    1.37    0.40
   2  -9  -3    3.16    0.63
  -2   9   3    3.68    0.70
   1  -9  -3    7.18    0.83
  -1   9   3    6.99    0.82
   0  -9  -3   -0.25    0.30
   0   9   3   -0.01    0.19
   0   9   3    0.18    0.30
   1   9   3    1.65    0.41
  -1  -9  -3    0.86    0.36
   1   9   3    1.61    0.44
   2   9   3   26.03    1.37
  -2  -9  -3   28.12    1.35
   3   9   3    6.10    0.81
  -3  -9  -3    5.47    0.73
   1 -10  -3    0.94    0.46
  -1  10   3    0.37    0.29
   0 -10  -3    0.46    0.39
   0  10   3    0.99    0.34
   0  10   3    0.38    0.35
   1  10   3    7.18    0.83
  -1 -10  -3    6.30    0.76
   2  10   3    6.04    0.84
  -2 -10  -3    6.90    0.80
  -3 -10  -3    4.08    0.70
   3  10   3    3.11    0.66
  -1  11   3    4.76    0.81
   0  11   3    1.52    0.47
   0 -11  -3    1.09    0.48
   0  11   3    2.00    0.50
   1  11   3   10.61    0.92
  -1 -11  -3    9.42    0.83
  -2 -11  -3   10.16    1.01
   2  11   3   10.80    0.95
   0  10  -4    1.80    0.50
  -2  -9   4    8.54    0.97
   2   9  -4    7.92    0.92
   1   9  -4    2.00    0.49
  -1  -9   4    1.33    0.40
   0  -9   4    3.11    0.57
   0   9  -4    3.21    0.57
  -1   9  -4    2.96    0.61
   1  -9   4    2.65    0.63
  -3  -8   4   14.92    1.09
   3   8  -4   14.30    1.04
   2   8  -4    1.18    0.37
  -2  -8   4    0.31    0.28
  -1  -8   4    0.48    0.31
   1   8  -4    0.86    0.36
   0   8  -4    3.27    0.55
   0  -8   4    2.99    0.51
   1  -8   4    1.73    0.53
  -1   8  -4    2.46    0.55
  -2   8  -4    0.38    0.33
   2  -8   4   -0.30    0.39
  -3  -7   4    8.86    0.93
   3   7  -4    8.12    0.83
   2   7  -4   20.42    1.14
  -2  -7   4   18.49    1.10
  -1  -7   4   16.30    0.98
   1   7  -4   17.52    1.00
   0   7  -4   76.31    2.23
   0  -7   4   77.42    2.16
  -1   7  -4   11.31    0.75
  -1   7  -4   12.25    0.93
   1  -7   4   10.05    0.80
   2  -7   4   10.42    0.96
  -2   7  -4   10.69    0.92
  -4  -6   4   11.30    1.13
   3   6  -4    2.56    0.49
  -3  -6   4    2.98    0.57
  -2  -6   4   31.08    1.37
   2   6  -4   30.75    1.34
  -1  -6   4    1.70    0.40
   1   6  -4    1.77    0.42
   0   6  -4   82.00    2.16
   0  -6   4   67.40    1.98
   0   6  -4   78.75    2.32
  -1   6  -4   27.52    1.08
   1  -6   4   25.41    1.15
  -1   6  -4   25.46    1.27
  -2   6  -4    4.09    0.66
   2  -6   4    2.38    0.52
  -3   6  -4    1.60    0.46
   3  -6   4    2.23    0.53
  -4  -5   4    2.28    0.55
   3   5  -4    1.58    0.40
  -3  -5   4    1.55    0.41
  -2  -5   4    0.31    0.24
   2   5  -4    0.52    0.29
  -1  -5   4   43.43    1.23
  -1  -5   4   42.18    1.48
   1   5  -4   40.42    1.42
   0   5  -4  189.84    4.16
   0  -5   4  196.95    3.84
   0   5  -4  189.79    3.99
  -1   5  -4  739.26   13.91
   1  -5   4  851.81   14.06
  -1   5  -4  847.36   14.23
  -2   5  -4    9.39    0.86
   2  -5   4    9.16    0.72
  -3   5  -4    6.29    0.79
   3  -5   4    7.32    0.79
  -4  -4   4    0.45    0.34
   4   4  -4    0.73    0.48
   3   4  -4   28.58    1.18
   3   4  -4   29.02    1.18
  -3  -4   4   27.75    1.33
   2   4  -4   90.93    2.33
  -2  -4   4   91.81    2.42
   2   4  -4   88.58    2.06
  -1  -4   4   22.93    0.98
   1   4  -4   21.53    0.94
   1   4  -4   22.85    0.72
  -1  -4   4   24.65    0.77
   0  -4   4    9.45    0.55
   0   4  -4    9.89    0.57
   0   4  -4   10.07    0.41
  -1   4  -4    3.46    0.37
   1  -4   4    2.97    0.40
   1  -4   4    3.39    0.34
  -1   4  -4    3.40    0.47
  -2   4  -4    0.75    0.26
  -2   4  -4    0.54    0.34
   2  -4   4    0.46    0.21
  -3   4  -4    0.75    0.29
  -3   4  -4    0.58    0.36
   3  -4   4   -0.12    0.25
  -4  -3   4    1.78    0.48
   4   3  -4    1.56    0.55
   3   3  -4    7.41    0.58
   3   3  -4    8.27    0.74
  -3  -3   4    8.49    0.72
   2   3  -4   33.95    1.17
  -2  -3   4   34.10    1.28
   2   3  -4   32.89    1.11
  -1  -3   4   40.63    1.29
   1   3  -4   38.87    1.22
  -1  -3   4   40.70    0.94
   1   3  -4   39.57    1.04
   0  -3   4  402.43    6.94
   0  -3   4  407.39    7.16
   0   3  -4  401.13    6.59
   0   3  -4  402.36    7.20
  -1   3  -4    2.28    0.37
  -1   3  -4    1.95    0.35
  -1   3  -4    2.58    0.30
  -1   3  -4    1.91    0.26
  -2   3  -4   92.57    2.33
   2  -3   4   80.98    2.10
  -2   3  -4   92.77    2.40
   3  -3   4    1.61    0.40
  -3   3  -4    1.22    0.36
  -3   3  -4    1.73    0.45
  -4   3  -4    4.08    0.73
   4  -3   4    3.63    0.60
   4   2  -4   10.74    0.97
  -4  -2   4   10.37    0.89
   3   2  -4   15.13    0.94
  -3  -2   4   15.30    0.95
  -2  -2   4    6.52    0.55
   2   2  -4    7.04    0.57
   2   2  -4    6.34    0.46
  -2  -2   4    6.27    0.33
   1   2  -4    5.03    0.40
   1   2  -4    6.03    0.43
  -1  -2   4    5.99    0.44
  -1  -2   4    5.75    0.24
   0  -2   4   76.54    1.54
   0  -2   4   75.63    1.77
   0   2  -4   78.79    1.57
   0   2  -4   76.95    1.77
  -1   2  -4  272.01    4.73
  -1   2  -4  267.31    5.02
  -1   2  -4  274.58    4.94
  -1   2  -4  270.11    5.04
   2  -2   4   71.58    1.85
  -2   2  -4   71.49    2.00
  -2   2  -4   71.98    1.88
   2  -2   4   71.18    1.70
  -3   2  -4    5.56    0.58
   3  -2   4    4.68    0.59
  -3   2  -4    5.81    0.69
   4  -2   4    2.55    0.56
  -4   2  -4    2.18    0.54
  -4  -1   4    3.85    0.67
   4   1  -4    2.48    0.61
   3   1  -4    7.70    0.73
  -3  -1   4   10.05    0.76
   2   1  -4   23.06    0.80
   2   1  -4   24.28    0.98
  -2  -1   4   23.17    0.71
  -2  -1   4   24.72    1.04
  -1  -1   4    2.93    0.34
   1   1  -4    2.99    0.33
   1   1  -4    3.32    0.31
   0   1  -4    6.26    0.38
   0   1  -4    6.65    0.30
   0   1  -4    6.96    0.35
   0  -1   4    6.81    0.37
  -1   1  -4    2.68    0.27
  -1   1  -4    2.14    0.25
  -1   1  -4    2.43    0.29
  -1   1  -4    2.46    0.28
  -2   1  -4  116.69    2.52
   2  -1   4  116.82    2.47
  -2   1  -4  115.16    2.69
   2  -1   4  118.03    2.60
  -3   1  -4   17.65    0.98
   3  -1   4   17.71    0.94
   4  -1   4    7.97    0.84
  -4   1  -4    6.28    0.81
   4   0  -4   -0.09    0.38
  -4   0   4    0.71    0.28
   3   0  -4   44.63    1.55
  -3   0   4   43.27    1.68
   2   0  -4  102.11    2.28
  -2   0   4   98.98    2.52
   2   0  -4  101.99    2.08
  -2   0   4  102.29    2.10
   1   0  -4   12.18    0.55
   1   0  -4   13.23    0.51
  -1   0   4   12.86    0.61
   1   0  -4   12.95    0.32
   0   0   4 2249.18   37.68
   0   0  -4 2179.69   37.84
   0   0  -4 2134.57   35.02
   0   0  -4 2219.96   36.71
  -1   0  -4    8.10    0.35
   1   0   4    8.04    0.43
  -1   0  -4    8.05    0.41
  -1   0  -4    8.24    0.41
   2   0   4   27.90    1.02
  -2   0  -4   27.58    1.00
   2   0   4   26.97    0.93
  -2   0  -4   27.66    0.85
  -3   0  -4    0.66    0.27
   3   0   4    0.68    0.29
  -4   0  -4   11.19    0.88
   4   0   4   12.71    0.93
  -4   1   4   18.65    1.19
   4  -1  -4   18.43    1.18
  -3   1   4  293.05    5.74
   3  -1  -4  305.70    5.72
  -3   1   4  299.98    6.22
  -2   1   4   66.37    1.60
  -2   1   4   65.35    1.91
  -2   1   4   67.47    1.46
   2  -1  -4   66.97    1.74
  -1   1   4   73.20    1.77
   1  -1  -4   75.55    1.44
  -1   1   4   71.38    1.57
   1  -1  -4   73.33    1.62
   0   1   4    5.61    0.34
   0  -1  -4    5.30    0.31
   0  -1  -4    5.40    0.25
   0   1   4    5.33    0.28
  -1  -1  -4   74.44    1.65
   1   1   4   74.17    1.77
  -1  -1  -4   74.35    1.63
   2   1   4    4.75    0.46
  -2  -1  -4    4.65    0.40
   2   1   4    4.72    0.37
   3   1   4    1.63    0.36
  -3  -1  -4    2.02    0.39
  -4  -1  -4   26.44    1.34
   4   1   4   26.59    1.32
   4  -2  -4    0.78    0.54
  -4   2   4    1.33    0.41
  -3   2   4  169.75    3.70
  -3   2   4  162.64    4.02
   3  -2  -4  172.33    3.68
   2  -2  -4   -0.10    0.36
   2  -2  -4    0.09    0.18
  -2   2   4   -0.01    0.18
  -1   2   4   51.77    1.26
  -1   2   4   50.92    1.41
   1  -2  -4   51.88    1.19
   1  -2  -4   52.06    1.29
   0  -2  -4  124.68    2.31
   0   2   4  125.15    2.58
   0   2   4  126.07    2.36
   0  -2  -4  125.69    2.36
   1   2   4  370.44    6.65
  -1  -2  -4  365.03    6.42
  -1  -2  -4  366.49    6.14
   2   2   4  411.54    7.49
  -2  -2  -4  412.89    7.43
   3   2   4    0.88    0.27
  -3  -2  -4    1.07    0.30
   4   2   4    4.91    0.66
  -4  -2  -4    3.89    0.60
  -4   3   4    9.73    1.03
   4  -3  -4   10.38    1.02
  -3   3   4    0.78    0.33
   3  -3  -4    1.17    0.31
   3  -3  -4    1.60    0.52
   2  -3  -4   38.28    1.20
   2  -3  -4   38.42    1.25
  -2   3   4   36.71    1.40
   1  -3  -4   68.26    1.57
   1  -3  -4   68.06    1.55
  -1   3   4   67.23    1.76
  -1   3   4   67.27    1.58
   0   3   4  484.94    8.26
   0   3   4  488.50    8.65
   0  -3  -4  493.98    8.44
   0  -3  -4  505.39    7.98
  -1  -3  -4  242.08    4.57
   1   3   4  247.23    4.79
  -1  -3  -4  252.79    4.29
   2   3   4    5.22    0.51
   2   3   4    5.02    0.46
  -2  -3  -4    5.48    0.44
   3   3   4   13.21    0.77
   3   3   4   13.01    0.74
  -3  -3  -4   13.45    0.81
  -4  -3  -4    3.81    0.59
   4   3   4    3.03    0.54
   4  -4  -4   -0.24    0.54
   4  -4  -4    0.21    0.29
  -4   4   4    0.53    0.35
   3  -4  -4    0.05    0.47
  -3   4   4    0.37    0.26
   3  -4  -4    0.64    0.30
   2  -4  -4   18.09    0.85
  -2   4   4   18.54    0.97
   2  -4  -4   17.75    0.90
   1  -4  -4   99.24    2.03
   1  -4  -4   97.85    2.18
  -1   4   4   95.30    2.15
  -1   4   4   94.78    2.32
   0  -4  -4  457.17    7.88
   0   4   4  443.44    8.03
   0   4   4  438.26    7.66
   0  -4  -4  453.71    7.27
  -1  -4  -4   92.19    1.83
   1   4   4   89.03    1.75
  -1  -4  -4   89.76    2.09
   1   4   4   93.17    2.31
   2   4   4    0.37    0.19
   2   4   4    0.06    0.15
  -2  -4  -4    0.28    0.19
   3   4   4    1.41    0.31
  -3  -4  -4    0.77    0.27
   3   4   4    1.61    0.38
  -4  -4  -4    1.24    0.37
   4   4   4    1.66    0.42
   4  -5  -4    4.59    0.68
   4  -5  -4    2.72    0.75
  -4   5   4    4.24    0.78
   3  -5  -4   15.22    0.94
  -3   5   4   15.24    1.03
   3  -5  -4   17.24    1.08
   2  -5  -4   35.45    1.31
   2  -5  -4   35.27    1.27
  -2   5   4   38.47    1.53
  -1   5   4   46.10    1.49
   1  -5  -4   44.61    1.39
   1  -5  -4   47.70    1.22
  -1   5   4   44.45    1.29
   0   5   4  142.37    3.16
   0   5   4  142.77    2.97
   0  -5  -4  149.07    2.61
   0  -5  -4  147.25    3.11
   1   5   4   19.15    0.92
  -1  -5  -4   21.11    0.86
  -1  -5  -4   20.10    0.64
   1   5   4   19.86    0.68
   2   5   4   57.58    1.83
   2   5   4   58.67    1.52
  -2  -5  -4   59.01    1.74
   3   5   4    0.23    0.21
   3   5   4    0.61    0.29
  -3  -5  -4    0.36    0.22
   4   5   4    2.21    0.46
  -4  -5  -4    1.39    0.37
   3  -6  -4    2.49    0.53
  -3   6   4    3.32    0.62
  -2   6   4   11.77    0.84
   2  -6  -4   11.83    0.82
   1  -6  -4    0.98    0.35
  -1   6   4    1.76    0.38
  -1   6   4    1.07    0.26
   0  -6  -4   13.30    0.79
   0   6   4   16.69    0.76
   0   6   4   16.32    0.82
  -1  -6  -4   23.91    1.02
   1   6   4   24.78    1.11
  -1  -6  -4   25.30    0.73
   1   6   4   26.41    0.91
   2   6   4   72.38    2.18
   2   6   4   69.93    1.70
  -2  -6  -4   70.01    2.04
  -3  -6  -4    2.79    0.47
   3   6   4    2.88    0.42
   3   6   4    2.99    0.56
  -4  -6  -4   25.39    1.30
   4   6   4   27.70    1.26
   3  -7  -4    1.67    0.47
  -3   7   4    2.62    0.57
   2  -7  -4    0.05    0.33
  -2   7   4    0.23    0.25
  -1   7   4    5.19    0.52
  -1   7   4    4.52    0.61
   1  -7  -4    4.04    0.56
   0   7   4   19.73    0.98
   0  -7  -4   21.89    1.06
   0   7   4   18.24    0.90
  -1  -7  -4 1203.26   20.16
   1   7   4 1170.18   20.39
   1   7   4 1170.11   19.65
  -2  -7  -4   50.15    1.70
   2   7   4   48.18    1.80
   3   7   4   21.27    1.21
  -3  -7  -4   21.35    1.12
  -4  -7  -4    0.92    0.34
   3  -8  -4    0.58    0.41
   2  -8  -4    5.47    0.75
  -2   8   4    5.59    0.80
   1  -8  -4    2.29    0.49
  -1   8   4    2.37    0.49
   0  -8  -4    1.62    0.46
   0   8   4    2.54    0.46
   0   8   4    1.48    0.48
   1   8   4  133.78    3.26
   1   8   4  145.54    3.60
  -1  -8  -4  152.05    3.51
   2   8   4    2.80    0.55
  -2  -8  -4    3.56    0.57
   3   8   4    0.74    0.32
  -3  -8  -4   -0.05    0.22
  -4  -8  -4    7.05    0.83
  -2   9   4   22.28    1.35
   2  -9  -4   21.97    1.36
  -1   9   4    1.26    0.39
   1  -9  -4    0.44    0.37
   0  -9  -4    8.99    0.84
   0   9   4    9.51    0.77
   0   9   4    9.08    0.75
  -1  -9  -4    0.96    0.38
   1   9   4    2.05    0.49
  -2  -9  -4   32.79    1.50
   2   9   4   34.37    1.62
   3   9   4    4.00    0.70
  -3  -9  -4    3.31    0.57
  -1  10   4    0.03    0.23
   1 -10  -4    0.83    0.39
   0 -10  -4    1.68    0.52
   0  10   4    1.42    0.41
   0  10   4    1.78    0.48
  -1 -10  -4   11.31    0.89
   1  10   4   11.43    0.93
   2  10   4    1.29    0.47
  -2 -10  -4    0.72    0.33
  -3 -10  -4    0.56    0.30
   3  10   4   -0.44    0.29
  -1  11   4    0.76    0.36
   0  11   4    9.63    0.85
   0 -11  -4    8.80    0.96
   0  11   4   10.45    1.00
   1  11   4    4.13    0.73
  -1 -11  -4    3.86    0.66
  -2 -11  -4   10.32    0.91
   2  11   4   11.31    1.13
  -2  -9   5    0.19    0.29
   1   9  -5    5.34    0.77
  -1  -9   5    3.48    0.65
   0  -9   5   11.54    0.95
   0   9  -5   12.45    0.95
   3   8  -5    4.54    0.73
  -3  -8   5    4.42    0.76
   2   8  -5    0.92    0.35
  -2  -8   5    0.89    0.38
  -1  -8   5    0.91    0.36
   1   8  -5    0.71    0.33
   0   8  -5   14.26    0.94
   0  -8   5   13.85    0.96
  -1   8  -5    2.72    0.56
   2  -8   5    0.31    0.46
  -3  -7   5    3.31    0.65
   3   7  -5    5.32    0.73
   2   7  -5    0.25    0.27
  -2  -7   5    0.04    0.21
   1   7  -5   16.50    1.00
  -1  -7   5   18.32    1.09
   0  -7   5    6.26    0.73
   0   7  -5    4.90    0.64
  -1   7  -5    0.35    0.27
  -1   7  -5    0.62    0.30
   1  -7   5    0.52    0.38
   2  -7   5    5.09    0.74
  -2   7  -5    6.88    0.91
  -4  -6   5    2.88    0.60
  -3  -6   5   11.46    0.92
   3   6  -5   11.74    0.86
  -2  -6   5    6.85    0.76
   2   6  -5    7.40    0.75
   1   6  -5   31.17    1.33
  -1  -6   5   30.71    1.36
   0   6  -5   82.85    2.28
   0  -6   5   78.72    2.35
   1  -6   5  181.44    4.02
  -1   6  -5  186.03    4.44
  -2   6  -5    0.43    0.28
   2  -6   5    0.02    0.30
  -3   6  -5    1.22    0.43
   3  -6   5    1.57    0.50
  -4  -5   5    1.16    0.41
  -3  -5   5    8.75    0.90
   3   5  -5    9.08    0.75
   2   5  -5    1.17    0.36
  -2  -5   5    1.20    0.35
  -1  -5   5  132.51    3.24
   1   5  -5  135.99    3.20
   0  -5   5  158.22    3.28
   0   5  -5  158.53    3.52
  -1   5  -5    1.29    0.35
  -1   5  -5    1.35    0.34
   1  -5   5    1.02    0.35
  -2   5  -5    2.16    0.47
   2  -5   5    1.47    0.41
   3  -5   5    0.89    0.35
  -3   5  -5    0.53    0.35
  -4  -4   5    2.47    0.63
   4   4  -5    1.62    0.53
  -3  -4   5    0.35    0.26
   3   4  -5    0.39    0.37
   3   4  -5    0.48    0.28
   2   4  -5   21.96    0.90
  -2  -4   5   22.43    1.09
   2   4  -5   21.63    1.01
  -1  -4   5   60.67    1.84
   1   4  -5   61.20    1.78
   1   4  -5   63.50    1.45
   0  -4   5  500.74    8.51
   0   4  -5  486.90    8.02
   0   4  -5  488.54    8.81
   0  -4   5  484.80    8.78
  -1   4  -5    4.61    0.56
  -1   4  -5    3.32    0.41
  -1   4  -5    3.61    0.36
   1  -4   5    3.10    0.41
  -2   4  -5    1.11    0.32
  -2   4  -5    1.10    0.41
   2  -4   5    1.48    0.33
   3  -4   5    0.67    0.34
  -3   4  -5    0.22    0.33
  -4  -3   5   19.22    1.27
   4   3  -5   20.20    1.21
   3   3  -5   48.33    1.54
  -3  -3   5   46.25    1.83
   3   3  -5   48.01    1.60
   2   3  -5   25.28    0.98
   2   3  -5   23.68    1.00
  -2  -3   5   23.60    1.10
   1   3  -5   18.22    0.83
   1   3  -5   18.35    0.70
  -1  -3   5   19.40    0.88
   0   3  -5   31.87    1.09
   0   3  -5   31.64    0.89
   0  -3   5   32.73    1.13
   0  -3   5   31.88    0.91
  -1   3  -5    0.83    0.29
  -1   3  -5    0.54    0.18
  -1   3  -5    0.85    0.25
  -1   3  -5    0.55    0.21
  -2   3  -5    0.04    0.14
  -2   3  -5   -0.17    0.25
   2  -3   5    0.45    0.23
  -3   3  -5    0.79    0.35
   3  -3   5    1.66    0.40
  -4   3  -5    0.54    0.38
   4  -3   5    0.44    0.40
  -4  -2   5    0.61    0.37
   4   2  -5    0.33    0.50
   3   2  -5    0.54    0.43
  -3  -2   5    0.88    0.34
   2   2  -5   25.52    1.01
   2   2  -5   23.90    0.93
  -2  -2   5   24.18    1.09
   1   2  -5  466.02    7.76
  -1  -2   5  457.07    8.24
   1   2  -5  478.63    8.31
   0  -2   5   94.41    2.13
   0  -2   5   94.28    1.84
   0   2  -5   93.62    1.91
   0   2  -5   93.48    2.13
  -1   2  -5  129.59    2.69
  -1   2  -5  126.99    2.56
  -1   2  -5  126.63    2.72
  -1   2  -5  126.30    2.78
  -2   2  -5   11.67    0.67
   2  -2   5   12.28    0.71
  -2   2  -5   12.93    0.79
   2  -2   5   12.39    0.63
   3  -2   5    0.35    0.28
  -3   2  -5   -0.55    0.23
   4  -2   5    4.45    0.70
  -4   2  -5    3.38    0.68
   4   1  -5    1.89    0.60
  -4  -1   5    1.40    0.40
  -3  -1   5    2.23    0.49
   3   1  -5    3.97    0.61
   2   1  -5    2.47    0.47
   2   1  -5    3.03    0.34
  -2  -1   5    2.79    0.45
   1   1  -5   20.62    0.76
  -1  -1   5   20.55    0.84
   1   1  -5   20.87    0.76
   0   1  -5 1407.88   23.39
   0   1  -5 1418.91   22.18
   0   1  -5 1407.48   23.05
   0  -1   5 1414.78   22.96
  -1   1  -5  470.86    8.10
  -1   1  -5  469.12    8.17
  -1   1  -5  468.98    7.84
   2  -1   5   19.38    0.79
   2  -1   5   17.39    0.84
  -2   1  -5   16.86    0.85
  -2   1  -5   18.24    0.76
   3  -1   5   20.85    1.05
  -3   1  -5   20.72    1.07
   4  -1   5    0.10    0.30
  -4   1  -5   -0.86    0.26
  -4   0   5    1.75    0.50
   4   0  -5    1.88    0.57
  -3   0   5   27.78    1.35
   3   0  -5   23.61    1.20
   2   0  -5    0.12    0.14
  -2   0   5    0.25    0.21
   2   0  -5   -0.25    0.34
   1   0  -5    1.60    0.25
  -1   0   5    1.19    0.26
   1   0  -5    1.86    0.29
   0   0  -5  104.93    2.06
   0   0   5  102.58    2.09
   0   0  -5  100.59    2.16
   0   0  -5  107.04    1.90
   1   0   5  532.75    9.16
  -1   0  -5  523.25    8.97
  -1   0  -5  518.05    8.69
  -2   0  -5   38.52    1.06
  -2   0  -5   37.55    1.25
   2   0   5   38.01    1.21
   3   0   5   34.70    1.36
  -3   0  -5   35.00    1.41
  -4   0  -5   16.67    1.09
   4   0   5   17.27    1.09
  -4   1   5    6.51    0.89
   4  -1  -5    6.34    0.88
   3  -1  -5   71.89    2.15
  -3   1   5   75.37    2.40
   2  -1  -5    0.88    0.20
   2  -1  -5    1.44    0.40
  -2   1   5    1.08    0.20
  -2   1   5    0.57    0.24
   1  -1  -5  108.43    2.21
  -1   1   5  106.61    2.41
  -1   1   5  107.31    2.25
   0   1   5  231.88    4.10
   0  -1  -5  235.57    4.02
   0  -1  -5  231.63    4.06
   0   1   5  228.51    4.34
   1   1   5   65.90    1.70
  -1  -1  -5   66.60    1.54
  -1  -1  -5   67.79    1.57
   1   1   5   68.02    1.28
   2   1   5    6.37    0.47
  -2  -1  -5    5.45    0.45
  -3  -1  -5   62.06    1.92
   3   1   5   63.93    1.94
   4   1   5   79.88    2.51
  -4  -1  -5   80.19    2.59
   4  -2  -5   67.51    2.32
  -4   2   5   64.64    2.49
   3  -2  -5   22.78    1.20
  -3   2   5   23.55    1.26
  -2   2   5    0.41    0.24
   2  -2  -5    0.05    0.17
   2  -2  -5    0.49    0.40
   1  -2  -5   13.04    0.61
  -1   2   5   13.68    0.59
   1  -2  -5   14.03    0.53
  -1   2   5   13.97    0.68
   0   2   5  637.09   10.60
   0  -2  -5  641.83   10.67
   0  -2  -5  650.00   10.32
   0   2   5  629.50   11.02
  -1  -2  -5   62.14    1.48
  -1  -2  -5   60.13    1.44
   1   2   5   59.13    1.65
   2   2   5   51.70    1.57
  -2  -2  -5   53.05    1.52
  -3  -2  -5   31.67    1.30
   3   2   5   32.66    1.30
  -4  -2  -5   42.93    1.76
   4   2   5   46.92    1.80
   4  -3  -5    7.16    0.90
  -4   3   5    6.16    0.90
   3  -3  -5    1.06    0.30
  -3   3   5    0.88    0.31
   3  -3  -5    0.83    0.53
   2  -3  -5    0.19    0.21
   2  -3  -5    0.01    0.35
  -2   3   5    0.20    0.21
  -1   3   5   13.73    0.63
  -1   3   5   13.05    0.69
   1  -3  -5   13.15    0.59
   1  -3  -5   12.29    0.61
   0   3   5 1060.28   17.80
   0  -3  -5 1014.09   16.64
   0  -3  -5 1077.81   17.47
   0   3   5 1066.64   17.21
  -1  -3  -5 1301.24   21.33
  -1  -3  -5 1291.27   20.30
   1   3   5 1266.17   21.67
   2   3   5    0.83    0.26
  -2  -3  -5    0.36    0.20
   3   3   5    5.83    0.60
   3   3   5    4.49    0.53
  -3  -3  -5    4.27    0.55
  -4  -3  -5    4.38    0.63
   4   3   5    4.05    0.63
   4  -4  -5    0.78    0.61
  -4   4   5    0.63    0.33
  -3   4   5    9.49    0.80
   3  -4  -5    9.67    0.87
   3  -4  -5    8.94    0.68
   2  -4  -5    9.10    0.74
  -2   4   5    9.18    0.73
   2  -4  -5    9.70    0.64
  -1   4   5   17.07    0.83
   1  -4  -5   18.90    0.79
  -1   4   5   15.90    0.73
   1  -4  -5   16.97    0.71
   0   4   5    0.19    0.18
   0   4   5    0.41    0.14
   0  -4  -5    0.12    0.18
   1   4   5    1.23    0.13
  -1  -4  -5    0.69    0.18
   1   4   5    1.21    0.31
  -1  -4  -5    0.94    0.22
  -2  -4  -5   90.83    2.26
   2   4   5   87.54    2.40
   3   4   5   48.01    1.57
   3   4   5   49.62    1.70
  -3  -4  -5   48.15    1.67
   4   4   5    0.28    0.26
  -4  -4  -5    0.05    0.21
   4  -5  -5    3.15    0.76
   3  -5  -5    0.45    0.32
   3  -5  -5    0.03    0.46
  -3   5   5    0.39    0.30
   2  -5  -5    8.13    0.69
  -2   5   5    8.87    0.73
   2  -5  -5    8.13    0.65
   1  -5  -5   16.72    0.83
   1  -5  -5   16.50    0.74
  -1   5   5   16.13    0.84
  -1   5   5   17.09    0.76
   0  -5  -5   10.20    0.62
   0  -5  -5    9.69    0.45
   0   5   5    9.03    0.62
   0   5   5   10.31    0.54
  -1  -5  -5   52.32    1.28
  -1  -5  -5   54.58    1.55
   1   5   5   55.85    1.74
   1   5   5   51.72    1.22
  -2  -5  -5   31.58    1.21
   2   5   5   32.87    1.34
   3   5   5   15.87    0.96
   3   5   5   16.63    0.85
  -3  -5  -5   14.62    0.89
   4   5   5   21.10    1.12
  -4  -5  -5   18.74    1.14
   3  -6  -5   11.60    0.86
  -3   6   5   11.34    0.97
   2  -6  -5    2.06    0.48
  -2   6   5    2.07    0.49
   2  -6  -5    1.77    0.42
   1  -6  -5   41.03    1.16
   1  -6  -5   39.99    1.40
  -1   6   5   38.26    1.43
  -1   6   5   39.74    1.30
   0  -6  -5    0.31    0.27
   0  -6  -5    0.99    0.19
   0   6   5    0.63    0.23
   0   6   5    0.42    0.18
   1   6   5   67.23    2.07
  -1  -6  -5   68.06    1.51
  -1  -6  -5   69.86    1.92
   2   6   5    1.41    0.29
   2   6   5    1.01    0.34
  -2  -6  -5    1.69    0.38
   3   6   5    3.22    0.45
  -3  -6  -5    2.47    0.46
   3   6   5    3.86    0.62
  -4  -6  -5    0.85    0.33
   4   6   5    1.91    0.44
   3  -7  -5    3.47    0.65
  -3   7   5    3.08    0.69
   2  -7  -5   -0.09    0.30
  -2   7   5    0.98    0.36
   1  -7  -5    7.55    0.66
  -1   7   5    5.79    0.51
  -1   7   5    8.36    0.68
   0  -7  -5    0.44    0.33
   0   7   5    0.04    0.25
   0   7   5    1.15    0.27
  -1  -7  -5   59.57    1.86
   1   7   5   57.60    1.96
  -2  -7  -5    0.71    0.29
   2   7   5    0.33    0.30
   3   7   5   25.08    1.32
  -3  -7  -5   24.56    1.23
  -4  -7  -5    2.74    0.55
   3  -8  -5    0.52    0.46
  -2   8   5    1.37    0.45
   2  -8  -5    0.91    0.42
  -1   8   5   27.66    1.34
   1  -8  -5   28.63    1.34
   0  -8  -5  646.84   11.86
   0   8   5  653.00   11.89
   0   8   5  659.91   11.60
  -1  -8  -5   53.88    1.84
   1   8   5   53.63    1.93
  -2  -8  -5    5.41    0.66
   2   8   5    4.72    0.70
  -3  -8  -5    2.30    0.46
   3   8   5    3.72    0.66
   2  -9  -5    2.61    0.59
  -2   9   5    2.57    0.57
  -1   9   5    2.76    0.57
   1  -9  -5    0.77    0.39
   0   9   5   12.13    0.84
   0  -9  -5   11.48    0.86
   0   9   5   11.36    0.86
   1   9   5    5.84    0.75
  -1  -9  -5    7.48    0.78
  -2  -9  -5    0.70    0.33
   2   9   5    1.08    0.40
  -3  -9  -5    3.91    0.63
   3   9   5    5.64    0.83
   1 -10  -5    1.98    0.53
  -1  10   5    1.18    0.44
   0  10   5    4.51    0.66
   0 -10  -5    4.32    0.67
   0  10   5    3.74    0.66
  -1 -10  -5   34.97    1.61
   1  10   5   39.35    1.76
   2  10   5    3.48    0.69
  -2 -10  -5    3.98    0.65
  -3 -10  -5    5.06    0.74
   3  10   5    4.94    0.84
  -1  11   5   -0.02    0.31
   0  11   5    2.59    0.59
   0 -11  -5    2.41    0.54
  -1 -11  -5    6.65    0.85
   1  11   5    7.00    0.91
  -2 -11  -5    0.65    0.37
   0   9  -6    6.21    0.79
  -2  -8   6    2.37    0.55
   2   8  -6    2.73    0.55
  -1  -8   6    0.95    0.34
   1   8  -6    0.20    0.31
   0  -8   6    0.59    0.31
   0   8  -6    0.63    0.35
  -1   8  -6    0.20    0.30
   3   7  -6    0.68    0.38
  -3  -7   6    1.30    0.43
   2   7  -6    4.40    0.67
  -2  -7   6    3.34    0.64
  -1  -7   6   19.72    1.16
   1   7  -6   18.81    1.10
   0   7  -6    2.97    0.53
   0  -7   6    2.63    0.50
  -1   7  -6    0.60    0.30
  -2   7  -6    6.84    0.93
   2  -7   6    7.29    0.89
  -3  -6   6    0.73    0.34
   3   6  -6    0.79    0.34
  -2  -6   6    5.73    0.74
   2   6  -6    5.40    0.68
  -1  -6   6    8.53    0.84
   1   6  -6    8.19    0.78
   0  -6   6   47.18    1.77
   0   6  -6   47.32    1.67
  -1   6  -6    4.19    0.66
  -1   6  -6    4.43    0.55
   1  -6   6    4.67    0.60
   2  -6   6   16.09    1.02
  -2   6  -6   14.67    1.04
  -4  -5   6    3.42    0.70
   3   5  -6    1.71    0.42
  -3  -5   6    1.56    0.43
  -2  -5   6    0.59    0.28
   2   5  -6    0.53    0.29
   1   5  -6  111.10    2.86
  -1  -5   6  110.76    2.94
   0  -5   6  503.44    9.57
   0   5  -6  541.41    9.65
   1  -5   6    0.34    0.27
  -1   5  -6    0.18    0.21
  -1   5  -6    0.45    0.26
  -2   5  -6    7.05    0.79
   2  -5   6    6.19    0.68
   3  -5   6    0.59    0.35
  -4  -4   6    0.47    0.37
   4   4  -6    1.14    0.47
  -3  -4   6    5.64    0.77
   3   4  -6    3.77    0.54
   3   4  -6    4.26    0.56
   2   4  -6   60.77    1.91
  -2  -4   6   61.54    2.05
   2   4  -6   63.32    1.69
  -1  -4   6  162.00    3.72
   1   4  -6  168.09    3.18
   1   4  -6  163.36    3.64
   0   4  -6    9.98    0.66
   0  -4   6   10.94    0.69
   0   4  -6    9.96    0.50
  -1   4  -6    1.75    0.29
  -1   4  -6    1.82    0.39
  -1   4  -6    1.03    0.31
   1  -4   6    1.58    0.35
  -2   4  -6    1.27    0.41
  -2   4  -6    1.39    0.34
   2  -4   6    1.73    0.36
  -3   4  -6   18.85    1.17
  -4  -3   6    1.52    0.45
   4   3  -6    1.33    0.52
   3   3  -6    2.47    0.52
   3   3  -6    3.48    0.49
  -3  -3   6    2.56    0.56
   2   3  -6    1.25    0.35
  -2  -3   6    1.28    0.36
   2   3  -6    1.12    0.33
   1   3  -6    5.81    0.44
  -1  -3   6    5.74    0.59
   1   3  -6    6.45    0.55
   0  -3   6   50.00    1.53
   0   3  -6   49.20    1.50
   0   3  -6   51.26    1.29
   0  -3   6   50.83    1.24
  -1   3  -6   19.75    0.88
  -1   3  -6   21.40    0.94
  -1   3  -6   21.31    0.96
  -1   3  -6   21.49    0.82
  -2   3  -6    0.28    0.27
   2  -3   6    0.51    0.21
  -2   3  -6    0.19    0.19
   3  -3   6   31.90    1.36
  -3   3  -6   29.63    1.44
   4  -3   6    9.47    0.95
  -4  -2   6   11.98    1.16
   4   2  -6   11.69    0.97
  -3  -2   6    5.97    0.76
   3   2  -6    4.73    0.64
  -2  -2   6    2.42    0.45
   2   2  -6    1.89    0.35
   2   2  -6    1.94    0.42
  -1  -2   6    5.27    0.53
   1   2  -6    4.94    0.44
   1   2  -6    4.82    0.47
   0   2  -6   38.20    1.21
   0  -2   6   37.30    1.20
   0  -2   6   38.25    0.93
   0   2  -6   38.21    1.07
  -1   2  -6    5.36    0.44
  -1   2  -6    5.62    0.42
  -1   2  -6    4.90    0.46
  -1   2  -6    6.51    0.50
  -2   2  -6   38.70    1.44
  -2   2  -6   39.59    1.36
   2  -2   6   39.25    1.38
   2  -2   6   41.90    1.33
   3  -2   6    2.01    0.43
  -3   2  -6    1.04    0.40
  -4   2  -6    0.73    0.44
   4  -2   6    0.86    0.40
   4   1  -6   -0.20    0.37
  -4  -1   6    0.13    0.26
   3   1  -6    5.64    0.70
  -3  -1   6    8.93    0.90
  -2  -1   6   40.18    1.50
   2   1  -6   41.06    1.34
   2   1  -6   40.14    1.25
  -1  -1   6  245.13    4.74
   1   1  -6  239.20    4.40
   1   1  -6  244.77    4.66
   0  -1   6    0.17    0.14
   0   1  -6    0.41    0.17
   0   1  -6    0.29    0.13
   0   1  -6    0.44    0.18
  -1   1  -6    4.85    0.39
   1  -1   6    4.25    0.43
   1  -1   6    4.56    0.34
  -1   1  -6    4.54    0.41
   2  -1   6   22.62    0.95
  -2   1  -6   23.23    1.01
  -3   1  -6    6.17    0.70
   3  -1   6    8.33    0.70
   4  -1   6    1.03    0.39
  -4   1  -6    0.32    0.35
  -4   0   6    3.58    0.69
   4   0  -6    4.28    0.73
  -3   0   6    0.05    0.21
   3   0  -6   -0.12    0.40
  -2   0   6   33.79    1.36
   2   0  -6   33.29    1.24
   2   0  -6   35.41    1.08
  -1   0   6  821.19   13.97
   1   0  -6  833.22   13.39
   1   0  -6  827.95   14.02
   0   0  -6  308.55    5.17
   0   0  -6  302.92    5.55
   0   0  -6  312.44    5.29
   0   0   6  292.78    5.37
  -1   0  -6   28.93    0.97
   1   0   6   30.20    1.06
   1   0   6   31.49    0.85
  -1   0  -6   30.36    0.93
   2   0   6   51.48    1.58
  -2   0  -6   55.95    1.61
  -2   0  -6   53.72    1.54
  -3   0  -6    6.27    0.68
   3   0   6    5.66    0.66
  -4   0  -6   26.78    1.41
   4   0   6   26.59    1.39
  -4   1   6   35.73    1.79
   4  -1  -6   36.34    1.69
  -3   1   6    5.30    0.74
   3  -1  -6    4.79    0.70
  -2   1   6    3.78    0.36
   2  -1  -6    3.82    0.57
  -2   1   6    2.89    0.50
  -1   1   6   15.90    0.76
  -1   1   6   16.97    0.71
   1  -1  -6   16.33    0.72
   1  -1  -6   16.71    0.45
   0   1   6  461.92    8.32
   0   1   6  466.31    7.96
   0  -1  -6  474.85    7.80
   0  -1  -6  472.61    7.87
   1   1   6   25.37    1.00
  -1  -1  -6   26.61    0.90
  -1  -1  -6   26.12    0.86
   1   1   6   27.73    0.68
   2   1   6   67.40    1.91
  -2  -1  -6   69.13    1.86
  -2  -1  -6   67.55    1.79
  -3  -1  -6   40.89    1.53
   3   1   6   42.03    1.58
  -4  -1  -6   65.54    2.33
   4   1   6   67.17    2.31
  -4   2   6   12.04    1.00
   4  -2  -6   11.52    1.11
   3  -2  -6    2.59    0.57
  -3   2   6    2.98    0.56
  -2   2   6    0.49    0.27
   2  -2  -6    0.31    0.42
  -2   2   6    0.75    0.21
   1  -2  -6  143.80    2.89
  -1   2   6  144.81    3.02
  -1   2   6  141.42    3.11
   1  -2  -6  144.54    2.70
   0   2   6    8.27    0.42
   0  -2  -6    8.25    0.39
   0   2   6    8.60    0.54
   0  -2  -6    8.85    0.48
  -1  -2  -6   20.13    0.77
   1   2   6   20.12    0.91
  -1  -2  -6   21.32    0.76
  -2  -2  -6  117.05    2.65
  -2  -2  -6  123.35    2.80
   2   2   6  120.41    2.89
  -3  -2  -6  194.28    4.30
   3   2   6  190.16    4.19
  -4  -2  -6   13.36    0.97
   4   2   6   13.89    0.97
  -4   3   6    4.27    0.77
   4  -3  -6    2.09    0.72
   3  -3  -6    1.81    0.55
  -3   3   6    1.43    0.45
   2  -3  -6    5.65    0.62
   2  -3  -6    6.34    0.49
  -2   3   6    6.37    0.69
  -1   3   6  418.32    7.51
   1  -3  -6  411.73    7.09
   1  -3  -6  412.74    7.22
  -1   3   6  414.52    7.51
   0   3   6    6.29    0.38
   0   3   6    4.89    0.49
   0  -3  -6    4.77    0.35
   0  -3  -6    4.95    0.37
  -1  -3  -6  188.40    3.59
  -1  -3  -6  195.60    3.76
   1   3   6  189.98    4.06
   2   3   6   16.62    0.89
  -2  -3  -6   18.66    0.86
  -2  -3  -6   17.17    0.79
   3   3   6    3.48    0.53
   3   3   6    3.42    0.51
  -3  -3  -6    3.27    0.52
  -4  -3  -6    3.97    0.61
   4   3   6    3.41    0.60
   4  -4  -6    0.55    0.58
  -4   4   6    0.14    0.29
  -3   4   6    0.87    0.38
   3  -4  -6    1.51    0.54
   2  -4  -6    0.03    0.37
   2  -4  -6   -0.20    0.26
  -2   4   6    0.55    0.27
   1  -4  -6  288.59    5.36
   1  -4  -6  289.05    5.16
  -1   4   6  288.05    5.55
  -1   4   6  288.78    5.53
   0  -4  -6  442.95    7.39
   0   4   6  446.16    8.16
   0  -4  -6  440.81    7.78
   0   4   6  442.71    7.64
  -1  -4  -6   13.42    0.67
  -1  -4  -6   13.96    0.61
   1   4   6   13.59    0.80
  -2  -4  -6   29.40    1.03
  -2  -4  -6   29.12    1.14
   2   4   6   28.84    1.25
   3   4   6    0.98    0.36
  -3  -4  -6    0.37    0.25
   3   4   6    0.62    0.25
   4   4   6    7.91    0.81
  -4  -4  -6    7.25    0.80
   4  -5  -6    3.84    0.80
   3  -5  -6    0.07    0.27
   3  -5  -6    0.67    0.49
  -3   5   6   -0.17    0.23
   2  -5  -6    0.09    0.26
   2  -5  -6   -0.01    0.35
  -2   5   6   -0.10    0.21
   1  -5  -6   28.11    1.09
  -1   5   6   29.44    1.11
   1  -5  -6   28.99    1.00
  -1   5   6   27.90    1.15
   0  -5  -6    0.23    0.21
   0   5   6    0.49    0.24
   0   5   6    0.27    0.15
   0  -5  -6    0.18    0.16
   1   5   6  115.73    2.93
  -1  -5  -6  109.32    2.62
  -1  -5  -6  117.84    2.38
  -2  -5  -6   68.32    1.75
   2   5   6   71.03    2.19
  -2  -5  -6   68.47    1.95
  -3  -5  -6   23.47    1.17
   3   5   6   26.42    1.15
   3   5   6   26.41    1.28
   4   5   6    0.98    0.36
  -4  -5  -6    0.59    0.34
  -3   6   6    0.40    0.33
   3  -6  -6    0.60    0.46
   3  -6  -6    0.67    0.39
  -2   6   6    0.35    0.26
   2  -6  -6    0.24    0.36
   2  -6  -6   -0.04    0.27
  -1   6   6   12.14    0.69
   1  -6  -6   10.54    0.62
  -1   6   6   10.18    0.70
   1  -6  -6   10.22    0.73
   0   6   6   23.37    1.09
   0  -6  -6   24.32    0.80
   0  -6  -6   25.19    1.05
   0   6   6   24.27    0.94
  -1  -6  -6   32.15    0.97
   1   6   6   30.32    1.35
  -1  -6  -6   31.65    1.21
   2   6   6   53.61    1.92
  -2  -6  -6   53.12    1.76
   3   6   6   39.41    1.67
   3   6   6   39.94    1.41
  -3  -6  -6   36.71    1.53
   4   6   6   17.69    1.05
  -4  -6  -6   15.43    1.07
  -3   7   6   -0.26    0.26
   3  -7  -6    0.30    0.39
   2  -7  -6    0.94    0.38
  -2   7   6    0.40    0.28
  -1   7   6   30.60    1.21
  -1   7   6   30.41    1.32
   1  -7  -6   28.65    1.26
   0   7   6  423.78    8.14
   0  -7  -6  427.98    7.99
   0   7   6  420.57    7.71
   1   7   6   13.50    0.91
  -1  -7  -6   13.63    0.83
  -2  -7  -6    0.95    0.34
   2   7   6    0.86    0.36
  -3  -7  -6    1.18    0.35
   3   7   6    1.06    0.38
  -4  -7  -6    1.12    0.40
   3  -8  -6    0.07    0.39
  -2   8   6    4.43    0.72
   2  -8  -6    5.08    0.71
  -1   8   6    8.97    0.77
   1  -8  -6    8.53    0.74
   0  -8  -6    8.31    0.71
   0   8   6    9.01    0.75
   0   8   6    8.16    0.64
  -1  -8  -6    0.60    0.30
   1   8   6    0.45    0.30
   2   8   6    7.94    0.88
  -2  -8  -6    8.11    0.79
  -3  -8  -6   34.60    1.58
   3   8   6   40.47    1.80
   2  -9  -6    5.23    0.76
  -2   9   6    5.65    0.84
  -1   9   6  101.13    2.96
   1  -9  -6  101.63    2.96
   0   9   6    4.61    0.68
   0  -9  -6    5.31    0.68
   1   9   6    6.26    0.81
  -1  -9  -6    7.61    0.78
  -2  -9  -6    5.71    0.74
   2   9   6    5.11    0.79
   3   9   6   36.57    1.79
  -3  -9  -6   34.36    1.62
  -1  10   6    0.90    0.39
   1 -10  -6    1.37    0.43
   0  10   6    5.34    0.75
   0 -10  -6    4.06    0.63
  -1 -10  -6    0.60    0.31
   1  10   6    0.54    0.43
   2  10   6    0.42    0.36
  -2 -10  -6    0.50    0.29
  -1  11   6    4.43    0.80
   0  11   6    9.91    1.00
   0 -11  -6    9.95    0.98
  -1 -11  -6    1.64    0.47
   1  11   6    1.55    0.53
   1   8  -7    6.50    0.82
  -1  -8   7    5.27    0.80
   0  -8   7    9.19    1.01
   1  -8   7    1.65    0.52
   3   7  -7    0.50    0.37
  -2  -7   7    6.79    0.90
   2   7  -7    6.97    0.83
  -1  -7   7    3.62    0.60
   1   7  -7    3.16    0.56
   0   7  -7    4.13    0.62
   0  -7   7    6.02    0.81
   1  -7   7    1.35    0.44
  -2   7  -7    0.74    0.34
  -3  -6   7    3.32    0.66
   3   6  -7    3.73    0.62
   2   6  -7   11.18    0.85
  -2  -6   7    9.10    0.96
   1   6  -7   22.14    1.16
  -1  -6   7   20.71    1.19
   0   6  -7    7.96    0.66
   0  -6   7    7.56    0.81
   1  -6   7   19.43    1.14
  -1   6  -7   18.17    0.99
   2  -6   7   43.42    1.74
  -2   6  -7   43.16    1.90
   3   5  -7    1.00    0.34
  -3  -5   7    1.60    0.43
  -2  -5   7   58.38    2.10
   2   5  -7   56.92    1.96
  -1  -5   7  221.50    4.96
   1   5  -7  222.41    4.86
   0  -5   7    1.89    0.42
   0   5  -7    1.33    0.39
  -1   5  -7   33.85    1.34
   1  -5   7   33.00    1.43
  -2   5  -7    0.21    0.26
   2  -5   7   -0.33    0.26
   3  -5   7    1.14    0.39
   3   4  -7    1.33    0.36
   3   4  -7    0.71    0.34
  -3  -4   7    0.82    0.32
   2   4  -7   28.13    1.26
  -2  -4   7   26.80    1.32
   2   4  -7   29.39    1.09
   1   4  -7  350.48    6.83
  -1  -4   7  346.61    6.89
   1   4  -7  355.08    6.16
   0   4  -7    1.21    0.25
   0  -4   7    1.35    0.33
   0   4  -7    1.94    0.42
  -1   4  -7   40.01    1.41
   1  -4   7   38.65    1.30
  -1   4  -7   39.35    1.25
   1  -4   7   37.28    1.43
  -2   4  -7    1.71    0.42
  -2   4  -7    1.10    0.41
  -3   4  -7    5.37    0.81
  -4  -3   7    6.32    0.96
   4   3  -7    4.23    0.74
   3   3  -7    6.12    0.69
   3   3  -7    7.16    0.59
  -3  -3   7    6.71    0.86
   2   3  -7   44.64    1.53
  -2  -3   7   46.03    1.73
   2   3  -7   44.26    1.43
  -1  -3   7    5.84    0.62
   1   3  -7    4.73    0.55
   1   3  -7    5.97    0.50
   0  -3   7   22.36    1.01
   0   3  -7   24.43    0.86
   0   3  -7   23.65    1.03
  -1   3  -7    0.13    0.14
  -1   3  -7    0.41    0.24
   1  -3   7    0.21    0.18
  -1   3  -7    0.11    0.29
  -2   3  -7   36.15    1.46
  -2   3  -7   38.65    1.48
   2  -3   7   36.54    1.38
  -3   3  -7    3.60    0.64
   3  -3   7    3.77    0.57
   4   2  -7   -0.29    0.39
  -4  -2   7    1.03    0.44
   3   2  -7    0.42    0.37
  -3  -2   7    0.65    0.28
   2   2  -7   24.18    1.02
   2   2  -7   23.25    1.02
  -2  -2   7   23.04    1.16
   1   2  -7    5.31    0.54
  -1  -2   7    6.95    0.55
   1   2  -7    5.86    0.50
   0   2  -7   59.36    1.51
   0   2  -7   59.40    1.71
   0  -2   7   59.35    1.69
  -1   2  -7    4.32    0.47
  -1   2  -7    4.53    0.43
  -1   2  -7    4.36    0.47
   1  -2   7    3.74    0.43
   2  -2   7   38.25    1.38
  -2   2  -7   42.01    1.50
  -3   2  -7   13.35    0.95
   3  -2   7   14.59    0.94
   4  -2   7    3.00    0.63
  -4  -1   7    1.40    0.44
   4   1  -7    0.38    0.51
  -3  -1   7    0.06    0.23
   3   1  -7    1.15    0.44
  -2  -1   7    6.87    0.71
   2   1  -7    7.50    0.53
   2   1  -7    6.96    0.64
  -1  -1   7  102.96    2.56
   1   1  -7  108.30    2.51
   1   1  -7  106.69    2.33
   0   1  -7   64.05    1.61
   0   1  -7   66.89    1.76
   0  -1   7   63.44    1.67
  -1   1  -7  143.40    2.98
   1  -1   7  146.86    3.22
  -1   1  -7  143.19    3.00
   1  -1   7  143.96    2.94
   2  -1   7   48.03    1.60
  -2   1  -7   52.36    1.63
  -2   1  -7   51.31    1.56
   3  -1   7    0.68    0.33
  -3   1  -7    0.42    0.29
   4  -1   7    1.10    0.45
  -4   1  -7    1.11    0.46
  -4   0   7    0.84    0.37
   4   0  -7    0.97    0.55
  -3   0   7    0.09    0.28
   3   0  -7    0.47    0.43
  -2   0   7  104.44    2.78
   2   0  -7  102.01    2.47
   2   0  -7  104.46    2.39
   1   0  -7   35.70    1.15
   1   0  -7   34.44    1.13
  -1   0   7   34.35    1.22
   0   0  -7   34.74    0.81
   0   0   7   32.35    1.02
   0   0  -7   32.82    1.06
  -1   0  -7   61.06    1.63
  -1   0  -7   64.49    1.58
   1   0   7   61.65    1.78
   1   0   7   64.79    1.48
   2   0   7   29.57    1.20
  -2   0  -7   32.07    1.17
  -2   0  -7   30.80    1.16
   3   0   7    8.96    0.74
  -3   0  -7    8.06    0.71
  -4   0  -7   11.11    0.95
   4   0   7   13.00    0.99
   4  -1  -7    1.54    0.60
  -4   1   7    1.57    0.53
  -3   1   7    4.02    0.69
   3  -1  -7    3.67    0.65
  -2   1   7  104.27    2.39
   2  -1  -7  100.34    2.47
  -2   1   7  102.77    2.76
  -1   1   7   11.16    0.62
  -1   1   7    9.69    0.61
   1  -1  -7   11.02    0.64
   0  -1  -7   17.90    0.54
   0   1   7   16.88    0.67
   0  -1  -7   17.20    0.71
   0   1   7   16.88    0.80
   1   1   7    9.62    0.63
  -1  -1  -7    8.96    0.53
  -1  -1  -7    9.94    0.51
   1   1   7    9.58    0.40
   2   1   7   78.46    2.20
  -2  -1  -7   80.03    2.05
  -2  -1  -7   80.03    2.08
   3   1   7  321.92    6.31
  -3  -1  -7  312.11    6.41
   4   1   7    1.90    0.49
  -4  -1  -7    1.38    0.48
   4  -2  -7    5.72    0.90
  -4   2   7    4.73    0.82
  -3   2   7    1.36    0.44
   3  -2  -7    1.63    0.56
  -2   2   7    0.31    0.17
  -2   2   7    0.27    0.24
   2  -2  -7   -0.09    0.39
  -1   2   7   23.61    0.95
   1  -2  -7   23.19    0.68
  -1   2   7   24.71    1.02
   1  -2  -7   24.18    0.95
   0   2   7   13.41    0.58
   0  -2  -7   13.88    0.52
   0  -2  -7   13.40    0.63
   0   2   7   13.62    0.74
  -1  -2  -7    7.34    0.48
   1   2   7    7.35    0.56
  -1  -2  -7    7.72    0.46
   2   2   7   36.29    1.39
  -2  -2  -7   37.31    1.29
  -2  -2  -7   36.53    1.25
  -3  -2  -7   99.89    2.71
   3   2   7   97.73    2.68
   4   2   7    1.04    0.38
  -4  -2  -7    1.00    0.37
   4  -3  -7   -0.23    0.55
  -4   3   7    1.18    0.38
   3  -3  -7    0.32    0.46
  -3   3   7    0.17    0.28
   2  -3  -7   14.48    0.90
  -2   3   7   15.65    0.96
  -1   3   7  103.60    2.52
   1  -3  -7  102.40    2.18
  -1   3   7  103.02    2.47
   1  -3  -7  101.80    2.31
   0   3   7  180.13    3.92
   0   3   7  186.66    3.54
   0  -3  -7  183.63    3.51
   0  -3  -7  186.23    3.51
  -1  -3  -7   80.91    1.94
  -1  -3  -7   86.33    1.98
   1   3   7   81.47    2.27
   2   3   7   49.26    1.74
  -2  -3  -7   53.16    1.54
  -2  -3  -7   52.16    1.59
  -3  -3  -7   11.23    0.79
   3   3   7   12.50    0.82
   3   3   7   12.01    0.84
  -4  -3  -7    1.88    0.46
   4   3   7    2.58    0.51
   4  -4  -7    1.77    0.69
   3  -4  -7    0.27    0.47
  -3   4   7    1.43    0.45
   2  -4  -7   87.20    2.26
  -2   4   7   86.81    2.57
  -1   4   7   17.57    0.86
   1  -4  -7   18.33    0.79
  -1   4   7   17.17    0.88
   1  -4  -7   16.56    0.79
   0  -4  -7  106.17    2.31
   0  -4  -7  102.43    2.23
   0   4   7  100.20    2.61
   0   4   7  106.76    2.29
  -1  -4  -7    6.69    0.46
  -1  -4  -7    6.22    0.46
   1   4   7    7.28    0.63
   2   4   7   46.91    1.70
  -2  -4  -7   43.91    1.38
  -2  -4  -7   46.30    1.51
   3   4   7   10.76    0.83
  -3  -4  -7   11.27    0.80
   3   4   7   11.03    0.77
  -4  -4  -7    0.65    0.34
   4   4   7    1.01    0.38
   3  -5  -7    0.87    0.48
  -3   5   7    0.30    0.29
  -2   5   7   12.12    0.88
   2  -5  -7   13.52    0.80
   2  -5  -7   12.69    0.80
  -1   5   7   13.32    0.76
   1  -5  -7   11.20    0.71
   1  -5  -7   12.07    0.68
  -1   5   7   11.91    0.74
   0  -5  -7   65.11    1.62
   0   5   7   63.59    1.67
  -1  -5  -7    7.21    0.54
   1   5   7    6.60    0.70
  -1  -5  -7    6.60    0.46
  -2  -5  -7    1.83    0.32
  -2  -5  -7    0.96    0.28
   2   5   7    2.19    0.48
   3   5   7   12.33    0.79
  -3  -5  -7   12.38    0.84
   3   5   7   11.51    0.87
  -4  -5  -7    6.56    0.78
   4   5   7    5.27    0.72
   3  -6  -7    0.72    0.48
  -3   6   7    0.33    0.33
   2  -6  -7   11.99    0.80
   2  -6  -7   10.13    0.77
  -2   6   7    9.83    0.83
  -1   6   7    7.07    0.60
   1  -6  -7    6.82    0.52
  -1   6   7    8.29    0.65
   1  -6  -7    8.28    0.65
   0  -6  -7    4.92    0.52
   0   6   7    4.96    0.43
   0   6   7    4.63    0.60
  -1  -6  -7   10.04    0.55
   1   6   7   10.62    0.82
  -1  -6  -7   11.21    0.72
   2   6   7  128.19    3.43
  -2  -6  -7  125.34    3.12
  -2  -6  -7  128.44    2.78
   3   6   7   22.75    1.29
  -3  -6  -7   24.09    1.23
   3   6   7   24.57    1.13
   4   6   7    0.65    0.32
  -4  -6  -7    0.51    0.27
  -3   7   7   -0.55    0.27
   2  -7  -7    0.18    0.31
  -2   7   7    0.99    0.34
  -1   7   7    3.40    0.51
   1  -7  -7    2.76    0.50
  -1   7   7    3.75    0.56
   0  -7  -7    2.24    0.42
   0   7   7    3.98    0.58
  -1  -7  -7   50.86    1.73
   1   7   7   53.12    1.95
  -2  -7  -7   36.60    1.49
   2   7   7   37.92    1.68
   3   7   7    8.40    0.92
  -3  -7  -7    5.74    0.72
  -2   8   7   21.94    1.32
   2  -8  -7   23.01    1.26
  -1   8   7  284.59    5.97
   1  -8  -7  280.60    5.93
   0  -8  -7   16.52    0.97
   0   8   7   20.23    1.12
   1   8   7    9.17    0.80
  -1  -8  -7    8.43    0.72
  -2  -8  -7    2.33    0.48
   2   8   7    2.63    0.55
   3   8   7    0.70    0.42
  -3  -8  -7    1.10    0.36
  -2   9   7   11.55    1.14
   2  -9  -7    7.69    0.89
  -1   9   7    0.66    0.30
   1  -9  -7    0.63    0.38
   0   9   7    0.62    0.31
   0  -9  -7    0.70    0.35
   1   9   7    1.02    0.38
  -1  -9  -7    1.85    0.42
  -2  -9  -7   53.62    2.02
   2   9   7   54.58    2.21
   3   9   7   10.60    1.14
  -3  -9  -7   11.06    0.90
   1 -10  -7    1.42    0.48
  -1  10   7    1.99    0.48
   0  10   7   17.29    1.12
   0 -10  -7   17.64    1.10
  -1 -10  -7    4.21    0.64
   1  10   7    5.16    0.82
  -2 -10  -7   49.52    2.03
   2  10   7   53.63    2.26
   0  11   7    1.50    0.51
   0 -11  -7    1.93    0.49
   1  11   7    0.99    0.44
  -1 -11  -7    1.23    0.43
   0   8  -8    1.06    0.41
  -2  -7   8    1.90    0.49
   2   7  -8    1.63    0.48
   1   7  -8    1.20    0.37
  -1  -7   8    0.86    0.33
   0  -7   8    1.28    0.39
   0   7  -8    0.40    0.36
   1  -7   8    5.44    0.78
   3   6  -8    3.23    0.61
  -2  -6   8    0.83    0.31
   2   6  -8    0.70    0.34
   1   6  -8    0.72    0.34
  -1  -6   8    1.05    0.37
   0   6  -8    8.51    0.72
   0  -6   8    7.63    0.85
   1  -6   8    0.73    0.31
  -1   6  -8    0.52    0.31
  -3  -5   8    2.10    0.55
   3   5  -8    3.81    0.57
   2   5  -8   20.57    1.12
  -2  -5   8   17.69    1.16
  -1  -5   8   34.39    1.54
   1   5  -8   34.04    1.44
   0   5  -8   12.60    0.84
   0  -5   8   12.13    0.87
   1  -5   8   20.19    1.13
  -1   5  -8   17.80    1.01
  -3  -4   8   51.84    2.16
   3   4  -8   52.56    1.88
  -2  -4   8  201.54    4.86
   2   4  -8  215.68    4.69
   1   4  -8    8.97    0.71
  -1  -4   8   10.05    0.77
   0  -4   8   19.67    1.04
   0   4  -8   19.64    1.02
   1  -4   8    3.32    0.52
  -1   4  -8    2.47    0.46
  -3   4  -8    1.07    0.49
   4   3  -8    1.37    0.51
  -3  -3   8    1.23    0.42
   3   3  -8    0.19    0.32
  -2  -3   8   52.16    1.94
   2   3  -8   51.02    1.73
   2   3  -8   54.80    1.63
  -1  -3   8   10.20    0.73
   1   3  -8   10.59    0.63
   1   3  -8   10.29    0.73
   0   3  -8   22.26    1.05
   0   3  -8   22.62    0.88
   0  -3   8   22.23    1.05
  -1   3  -8    0.88    0.24
   1  -3   8    0.95    0.30
  -1   3  -8    0.87    0.30
   2  -3   8   47.44    1.65
  -2   3  -8   46.68    1.71
   3  -3   8   19.65    1.10
  -3   3  -8   16.37    1.14
   4   2  -8    0.93    0.52
  -3  -2   8    3.38    0.62
   3   2  -8    3.58    0.57
   2   2  -8    0.28    0.23
  -2  -2   8    0.09    0.21
   2   2  -8    0.28    0.28
  -1  -2   8   33.50    1.33
   1   2  -8   34.90    1.17
   1   2  -8   33.03    1.26
   0   2  -8    8.77    0.55
   0  -2   8    9.57    0.62
   0   2  -8    8.80    0.65
  -1   2  -8    5.61    0.52
  -1   2  -8    6.91    0.56
  -1   2  -8    6.33    0.54
   1  -2   8    6.97    0.52
  -2   2  -8    2.56    0.50
   2  -2   8    2.43    0.45
  -2   2  -8    2.26    0.39
  -3   2  -8    1.88    0.50
   3  -2   8    1.75    0.45
   4   1  -8    0.41    0.52
  -4  -1   8    0.16    0.38
   3   1  -8    2.73    0.58
  -3  -1   8    3.00    0.59
   2   1  -8   12.96    0.82
   2   1  -8   15.29    0.81
  -2  -1   8   15.61    0.97
  -1  -1   8    9.59    0.66
   1   1  -8    9.63    0.63
   1   1  -8    9.21    0.62
   0   1  -8    7.95    0.53
   0  -1   8    7.90    0.54
   0   1  -8    8.07    0.57
   1  -1   8    4.54    0.44
  -1   1  -8    3.81    0.44
   1  -1   8    4.34    0.53
  -1   1  -8    3.73    0.43
  -2   1  -8    1.02    0.35
   2  -1   8    1.61    0.39
  -2   1  -8    1.31    0.32
  -3   1  -8   -0.02    0.24
   3  -1   8    0.12    0.27
  -4   0   8   -0.22    0.28
   4   0  -8    0.17    0.55
  -3   0   8    9.74    1.03
   3   0  -8    8.74    0.83
  -2   0   8   63.01    2.07
   2   0  -8   60.64    1.83
   2   0  -8   62.12    1.72
   1   0  -8   69.27    1.77
  -1   0   8   65.25    1.91
   0   0   8   87.13    2.07
   0   0  -8   86.14    2.06
  -1   0  -8  218.16    4.19
  -1   0  -8  220.66    4.25
   1   0   8  217.11    4.59
   2   0   8    4.60    0.57
  -2   0  -8    3.78    0.47
  -2   0  -8    3.05    0.48
   3   0   8    3.12    0.55
  -3   0  -8    3.18    0.58
   4   0   8    2.53    0.56
  -4   0  -8    2.31    0.54
   4  -1  -8    0.53    0.53
  -4   1   8    0.38    0.30
  -3   1   8   17.50    1.17
   3  -1  -8   15.18    1.01
  -2   1   8    8.48    0.59
   2  -1  -8    8.68    0.71
  -2   1   8    8.82    0.72
  -1   1   8   75.49    2.03
  -1   1   8   71.73    2.02
   1  -1  -8   78.32    1.92
   0  -1  -8   32.44    1.13
   0   1   8   33.95    1.26
   0   1   8   36.66    1.10
  -1  -1  -8  107.15    2.31
  -1  -1  -8  103.57    2.41
   1   1   8  103.88    2.68
  -2  -1  -8    3.96    0.51
   2   1   8    4.40    0.57
  -2  -1  -8    4.34    0.50
  -3  -1  -8   37.94    1.55
   3   1   8   39.31    1.60
  -4  -1  -8    3.93    0.71
   4   1   8    4.36    0.72
   4  -2  -8   -0.63    0.54
  -4   2   8    0.32    0.32
   3  -2  -8    5.24    0.74
  -3   2   8    5.61    0.83
  -2   2   8    1.32    0.32
  -2   2   8    1.11    0.40
   2  -2  -8    1.13    0.43
  -1   2   8    0.30    0.22
   1  -2  -8    0.12    0.23
  -1   2   8    0.52    0.21
   0   2   8    5.98    0.58
   0  -2  -8    6.68    0.36
   0  -2  -8    5.65    0.49
   0   2   8    7.45    0.46
  -1  -2  -8  235.29    4.46
  -1  -2  -8  232.10    4.46
   1   2   8  235.84    4.94
  -2  -2  -8  912.57   15.70
  -2  -2  -8  969.37   16.38
   2   2   8  978.19   16.81
  -3  -2  -8   15.70    0.95
   3   2   8   14.89    0.94
   4   2   8   10.27    1.00
  -4  -2  -8    8.75    0.94
   3  -3  -8    0.19    0.45
  -3   3   8    0.58    0.37
  -2   3   8   12.88    0.89
   2  -3  -8   13.82    0.86
  -1   3   8   32.97    1.23
  -1   3   8   28.67    1.18
   1  -3  -8   30.38    1.11
   0  -3  -8   20.26    0.86
   0   3   8   21.45    1.01
   0  -3  -8   20.42    0.72
   0   3   8   21.10    0.80
  -1  -3  -8    4.43    0.39
   1   3   8    5.45    0.64
  -1  -3  -8    5.29    0.45
  -2  -3  -8   30.88    1.19
  -2  -3  -8   32.98    1.23
   2   3   8   30.67    1.39
   3   3   8    2.31    0.51
   3   3   8    2.44    0.47
  -3  -3  -8    1.47    0.37
  -4  -3  -8    0.54    0.33
   4   3   8    0.67    0.34
   3  -4  -8    1.36    0.49
  -3   4   8    1.26    0.44
  -2   4   8   29.23    1.37
   2  -4  -8   30.33    1.24
   1  -4  -8   80.79    1.97
  -1   4   8   71.33    2.12
   1  -4  -8   79.26    1.88
  -1   4   8   77.35    2.15
   0   4   8   29.92    0.99
   0  -4  -8   32.06    1.02
   0  -4  -8   28.23    1.04
   0   4   8   30.75    1.28
  -1  -4  -8   23.95    0.94
  -1  -4  -8   25.71    0.98
   1   4   8   23.37    1.17
  -2  -4  -8    0.11    0.19
  -2  -4  -8    0.03    0.18
   2   4   8   -0.06    0.23
   3   4   8   35.22    1.47
   3   4   8   36.91    1.62
  -3  -4  -8   34.32    1.49
   4   4   8    0.35    0.28
  -4  -4  -8    0.08    0.26
   3  -5  -8   12.82    0.97
  -3   5   8   10.62    1.09
   2  -5  -8   14.32    0.87
  -2   5   8   13.61    0.96
   1  -5  -8    7.94    0.59
  -1   5   8    8.80    0.67
   1  -5  -8    7.79    0.58
  -1   5   8   10.35    0.72
   0  -5  -8    2.82    0.38
   0  -5  -8    4.25    0.45
   0   5   8    2.91    0.51
  -1  -5  -8   78.50    1.94
   1   5   8   79.18    2.41
  -1  -5  -8   76.47    2.06
  -2  -5  -8    1.99    0.39
   2   5   8    2.06    0.50
  -2  -5  -8    2.27    0.38
   3   5   8    3.31    0.53
   3   5   8    2.64    0.58
  -3  -5  -8    2.70    0.48
   4   5   8    0.99    0.39
  -4  -5  -8    0.41    0.28
  -3   6   8    0.19    0.32
   3  -6  -8    0.86    0.47
  -2   6   8    0.50    0.31
   2  -6  -8    0.38    0.38
   1  -6  -8   22.48    1.04
  -1   6   8   21.75    1.08
  -1   6   8   22.43    1.10
   1  -6  -8   21.28    0.91
   0  -6  -8   -0.31    0.21
   0   6   8    0.17    0.21
   0  -6  -8    0.04    0.15
  -1  -6  -8    9.63    0.58
  -1  -6  -8    9.97    0.68
   1   6   8   10.28    0.81
   2   6   8    4.18    0.68
  -2  -6  -8    1.50    0.34
  -2  -6  -8    1.09    0.31
   3   6   8   19.90    1.22
   3   6   8   17.46    0.99
  -3  -6  -8   19.76    1.12
   4   6   8    5.37    0.72
  -3   7   8    0.35    0.37
  -2   7   8   15.34    1.08
   2  -7  -8   16.44    1.02
   1  -7  -8   23.45    1.14
  -1   7   8   24.20    1.17
  -1   7   8   24.10    1.18
   0   7   8   -0.15    0.27
   0  -7  -8   -0.23    0.21
  -1  -7  -8  103.41    2.72
   1   7   8  102.98    3.03
  -2  -7  -8   24.25    1.20
   2   7   8   24.06    1.36
   3   7   8    2.09    0.53
  -3  -7  -8    1.44    0.37
  -2   8   8   19.07    1.22
   2  -8  -8   17.87    1.12
  -1   8   8    1.56    0.41
   1  -8  -8    1.10    0.40
   0   8   8   13.17    0.94
   0  -8  -8   11.56    0.82
   1   8   8   14.24    1.00
  -1  -8  -8   11.14    0.81
  -2  -8  -8    5.90    0.70
   2   8   8    5.35    0.81
  -3  -8  -8    2.36    0.50
   3   8   8    2.58    0.62
  -2   9   8   60.07    2.39
   2  -9  -8   58.53    2.20
   1  -9  -8    4.68    0.68
  -1   9   8    5.19    0.72
   0  -9  -8    3.89    0.58
   0   9   8    3.66    0.66
  -1  -9  -8    7.95    0.82
   1   9   8    7.86    0.92
  -2  -9  -8    7.04    0.82
   2   9   8    5.07    0.85
  -3  -9  -8   11.47    0.95
   3   9   8   12.85    1.11
   1 -10  -8    1.60    0.46
   0  10   8    0.77    0.41
   0 -10  -8    1.13    0.36
  -1 -10  -8   18.24    1.12
   1  10   8   17.50    1.24
   2  10   8   15.03    1.20
  -2 -10  -8   15.63    1.10
   0 -11  -8    1.78    0.44
   0  11   8    2.55    0.66
   1  11   8   23.73    1.46
  -1  -7   9    1.22    0.38
   1   7  -9    1.38    0.40
   0   7  -9    2.88    0.57
   0  -7   9    2.70    0.56
   1  -7   9    6.61    0.98
  -2  -6   9    2.21    0.51
   2   6  -9    2.29    0.51
  -1  -6   9    0.49    0.27
   1   6  -9    0.69    0.33
   0   6  -9   22.50    1.22
   0  -6   9   20.24    1.23
   1  -6   9   56.86    2.24
  -1   6  -9   59.75    2.09
   3   5  -9   11.41    0.88
   2   5  -9   30.89    1.46
  -2  -5   9   31.14    1.60
   1   5  -9    2.50    0.47
  -1  -5   9    2.04    0.47
   0  -5   9    2.51    0.49
   0   5  -9    2.52    0.49
  -1   5  -9    1.49    0.40
   1  -5   9    1.54    0.39
  -3  -4   9    1.60    0.45
   3   4  -9    2.82    0.55
  -2  -4   9   28.62    1.50
   2   4  -9   29.62    1.36
   1   4  -9    2.75    0.51
  -1  -4   9    2.46    0.48
   0   4  -9    2.25    0.49
   0  -4   9    2.75    0.50
   1  -4   9   10.89    0.81
  -1   4  -9   10.71    0.77
   3   3  -9   69.57    2.14
  -3  -3   9   65.78    2.55
   2   3  -9    6.03    0.69
   2   3  -9    6.31    0.61
  -2  -3   9    7.30    0.83
   1   3  -9    0.68    0.25
   1   3  -9    1.71    0.40
  -1  -3   9    1.37    0.35
   0   3  -9    1.40    0.40
   0  -3   9    1.41    0.37
   0   3  -9    1.86    0.34
  -1   3  -9   75.72    2.06
  -1   3  -9   80.03    2.25
   1  -3   9   75.33    2.22
  -3   3  -9    6.56    0.87
   3  -3   9    7.72    0.82
   3   2  -9    2.14    0.45
  -3  -2   9    2.33    0.55
  -2  -2   9    5.37    0.72
   2   2  -9    6.06    0.65
   2   2  -9    5.64    0.62
  -1  -2   9    0.50    0.24
   1   2  -9   -0.10    0.19
   1   2  -9   -0.18    0.23
   0  -2   9    0.89    0.27
   0   2  -9    1.17    0.35
   0   2  -9    1.32    0.30
   1  -2   9   96.94    2.69
  -1   2  -9  100.27    2.47
  -2   2  -9   39.44    1.46
  -2   2  -9   39.63    1.53
   2  -2   9   38.06    1.53
  -3   2  -9    2.10    0.57
   3  -2   9    3.79    0.63
  -3  -1   9    2.30    0.56
   3   1  -9    1.74    0.51
  -2  -1   9   20.52    1.17
   2   1  -9   19.25    0.96
   2   1  -9   18.89    0.98
   1   1  -9    3.74    0.51
   1   1  -9    3.34    0.46
  -1  -1   9    3.67    0.53
   0  -1   9    6.97    0.55
   0   1  -9    6.74    0.56
   0   1  -9    7.28    0.54
   1  -1   9    4.16    0.57
  -1   1  -9    4.44    0.49
   2  -1   9    0.69    0.31
  -2   1  -9    0.51    0.32
  -2   1  -9    0.68    0.26
  -3   1  -9    2.78    0.59
   3  -1   9    3.89    0.62
  -3   0   9   18.92    1.27
   3   0  -9   21.68    1.15
  -2   0   9    1.91    0.45
   2   0  -9    1.42    0.39
   2   0  -9    1.55    0.34
  -1   0   9    2.66    0.44
   1   0  -9    2.93    0.46
   0   0   9   12.28    0.67
   0   0  -9   11.98    0.69
   0   0   9   10.99    0.73
  -1   0  -9    2.06    0.37
   1   0   9    1.95    0.42
   2   0   9    7.71    0.68
  -2   0  -9    6.49    0.61
  -2   0  -9    8.73    0.65
  -3   0  -9   11.30    0.88
   3   0   9   12.02    0.89
   3  -1  -9   14.13    0.95
  -3   1   9   12.26    1.01
  -2   1   9   21.79    1.02
  -2   1   9   22.82    1.21
   2  -1  -9   22.11    1.07
  -1   1   9   13.73    0.78
   1  -1  -9   13.00    0.76
  -1   1   9   14.07    0.81
   0   1   9  121.58    2.70
   0   1   9  123.61    3.04
   0  -1  -9  123.27    2.75
   1   1   9   64.74    2.05
  -1  -1  -9   66.36    1.83
  -1  -1  -9   62.02    1.64
   2   1   9  166.13    4.00
  -2  -1  -9  167.16    3.71
  -2  -1  -9  170.23    3.71
  -3  -1  -9    1.72    0.43
   3   1   9    2.90    0.55
   3  -2  -9    0.61    0.46
  -3   2   9    1.55    0.44
  -2   2   9   16.19    1.03
  -2   2   9   16.90    0.89
   2  -2  -9   16.14    0.94
   1  -2  -9    7.40    0.63
  -1   2   9    6.83    0.58
  -1   2   9    7.41    0.60
   0   2   9  117.64    2.98
   0  -2  -9  118.64    2.68
   0   2   9  116.93    2.60
  -1  -2  -9   11.43    0.62
   1   2   9   12.77    0.86
  -1  -2  -9   12.50    0.72
  -2  -2  -9   25.58    1.13
   2   2   9   26.08    1.31
  -2  -2  -9   26.34    1.10
  -3  -2  -9    6.04    0.72
   3   2   9    6.62    0.75
  -4  -2  -9    0.97    0.39
  -3   3   9    1.46    0.47
   3  -3  -9    1.18    0.49
  -2   3   9    2.54    0.54
   2  -3  -9    2.26    0.50
  -1   3   9    3.58    0.51
   1  -3  -9    2.79    0.45
  -1   3   9    1.98    0.42
   0   3   9  163.57    3.83
   0  -3  -9  166.56    3.46
  -1  -3  -9  690.58   11.82
  -1  -3  -9  669.70   11.47
   1   3   9  689.33   12.51
  -2  -3  -9    5.94    0.60
  -2  -3  -9    6.28    0.60
   2   3   9    7.22    0.79
   3   3   9    4.02    0.62
   3   3   9    4.17    0.67
  -3  -3  -9    3.18    0.53
  -4  -3  -9    0.15    0.27
  -3   4   9   14.69    1.13
   3  -4  -9   16.13    1.06
   2  -4  -9   28.76    1.23
  -2   4   9   28.03    1.39
   1  -4  -9   22.62    0.98
  -1   4   9   22.32    1.07
  -1   4   9   21.11    1.07
   0  -4  -9    0.98    0.28
   0   4   9    0.70    0.33
   0  -4  -9    0.63    0.21
  -1  -4  -9    0.33    0.17
  -1  -4  -9    0.14    0.17
   1   4   9    0.06    0.26
  -2  -4  -9    7.07    0.58
   2   4   9    8.98    0.88
  -2  -4  -9    8.38    0.64
   3   4   9    0.50    0.38
  -3  -4  -9    0.56    0.29
   3   4   9    0.36    0.25
  -3   5   9    1.68    0.47
   3  -5  -9    1.63    0.53
   2  -5  -9    7.47    0.73
  -2   5   9    8.15    0.85
  -1   5   9   11.76    0.78
   1  -5  -9   12.17    0.72
  -1   5   9   12.33    0.84
   0  -5  -9   62.06    1.70
   0   5   9   61.68    2.06
   0  -5  -9   57.39    1.65
  -1  -5  -9    1.62    0.33
  -1  -5  -9    1.32    0.29
   1   5   9    1.92    0.44
  -2  -5  -9   39.54    1.42
   2   5   9   40.43    1.74
  -2  -5  -9   40.07    1.48
   3   5   9    1.07    0.43
  -3  -5  -9    0.57    0.28
   3   5   9    0.77    0.31
  -3   6   9    2.24    0.61
   3  -6  -9    3.39    0.63
   2  -6  -9    0.14    0.33
  -2   6   9    0.43    0.29
   1  -6  -9    0.84    0.33
  -1   6   9    0.70    0.30
  -1   6   9    0.60    0.30
   1  -6  -9    0.51    0.27
   0  -6  -9    4.99    0.49
   0   6   9    3.77    0.60
   0  -6  -9    4.61    0.52
   1   6   9   81.28    2.63
  -1  -6  -9   81.35    2.26
  -1  -6  -9   84.93    2.11
  -2  -6  -9   27.31    1.25
   2   6   9   28.29    1.49
  -2  -6  -9   29.67    1.16
  -3  -6  -9    0.33    0.27
   3   6   9    0.97    0.39
   3   6   9    0.27    0.24
  -2   7   9    0.77    0.39
  -1   7   9    0.39    0.24
   1  -7  -9    0.08    0.25
   0  -7  -9    9.54    0.70
   0   7   9    9.04    0.91
   1   7   9    0.20    0.31
  -1  -7  -9    0.35    0.25
  -2  -7  -9   26.46    1.08
  -2  -7  -9   25.37    1.24
   2   7   9   25.28    1.45
   3   7   9    8.02    0.98
  -3  -7  -9    4.53    0.65
  -2   8   9   29.02    1.53
   1  -8  -9    0.76    0.34
   0  -8  -9   15.11    0.93
   0   8   9   16.20    1.09
  -1  -8  -9    0.69    0.28
   1   8   9    0.76    0.35
   2   8   9    7.52    0.94
  -2  -8  -9    7.14    0.77
  -3  -8  -9    0.71    0.32
   3   8   9    0.69    0.42
  -2   9   9    5.14    0.85
   1  -9  -9    1.65    0.46
   0  -9  -9    2.40    0.45
   0   9   9    2.39    0.54
   1   9   9   24.36    1.44
  -1  -9  -9   24.77    1.29
  -2  -9  -9    6.32    0.78
   2   9   9    4.57    0.79
   1 -10  -9    0.47    0.32
   0  10   9    3.03    0.65
   0 -10  -9    3.06    0.54
   1  10   9   33.63    1.77
  -1 -10  -9   34.28    1.60
  -2 -10  -9   42.09    1.90
   0  11   9    1.75    0.57
   1   6 -10    2.00    0.50
  -1  -6  10    1.68    0.51
   0  -6  10   25.47    1.45
   0   6 -10   24.33    1.35
  -1   6 -10    0.68    0.36
  -2  -5  10    0.68    0.38
   2   5 -10    0.93    0.37
  -1  -5  10   16.98    1.12
   1   5 -10   18.58    1.11
   0  -5  10   46.44    1.91
   0   5 -10   45.77    1.83
  -1   5 -10    3.98    0.64
   3   4 -10   48.63    1.92
   2   4 -10    1.37    0.39
  -2  -4  10    1.47    0.45
   1   4 -10    8.25    0.71
  -1  -4  10    7.65    0.87
   0  -4  10    0.90    0.29
   0   4 -10    1.45    0.40
  -1   4 -10    2.44    0.48
  -3  -3  10    6.76    1.01
   3   3 -10    6.96    0.73
   2   3 -10    1.41    0.37
  -2  -3  10    0.15    0.29
   2   3 -10    0.60    0.32
   1   3 -10   12.89    0.89
   1   3 -10   12.40    0.76
  -1  -3  10   12.67    0.90
   0   3 -10   14.75    0.79
   0   3 -10   14.41    0.91
   0  -3  10   14.64    0.92
  -1   3 -10   15.30    0.85
  -2   3 -10   -0.16    0.22
   3   2 -10    1.32    0.44
  -3  -2  10    0.68    0.37
  -2  -2  10    2.45    0.51
   2   2 -10    2.53    0.48
   2   2 -10    2.21    0.45
   1   2 -10    0.32    0.24
  -1  -2  10   -0.34    0.20
   1   2 -10    0.57    0.28
   0   2 -10   93.97    2.36
   0  -2  10   93.14    2.53
   0   2 -10   96.48    2.61
   1  -2  10    0.06    0.22
  -1   2 -10    0.11    0.18
  -2   2 -10   24.30    1.15
   2  -2  10   25.33    1.29
  -3   2 -10   -0.31    0.37
   3  -2  10    1.41    0.39
   3   1 -10    0.85    0.37
  -3  -1  10   -0.09    0.31
  -2  -1  10    1.66    0.43
   2   1 -10    1.37    0.37
   2   1 -10    1.71    0.41
  -1  -1  10    1.40    0.37
   1   1 -10    1.59    0.39
   1   1 -10    1.39    0.36
   0   1 -10   44.34    1.47
   0  -1  10   44.79    1.52
   1  -1  10   16.26    0.98
  -1   1 -10   16.20    0.87
   2  -1  10   -0.07    0.29
  -2   1 -10    0.15    0.20
  -3   1 -10    1.58    0.50
   3  -1  10    1.13    0.38
  -3   0  10    9.55    1.09
   3   0 -10    8.09    0.84
  -2   0  10    1.03    0.35
   2   0 -10    0.59    0.30
  -2   0  10    0.57    0.29
  -1   0  10    9.49    0.70
   1   0 -10    8.26    0.64
  -1   0  10    8.62    0.70
   0   0  10   40.75    1.59
   0   0 -10   38.68    1.36
   0   0  10   40.00    1.37
   1   0  10    4.38    0.62
  -1   0 -10    4.26    0.51
  -2   0 -10    2.48    0.43
   2   0  10    2.34    0.52
  -2   0 -10    2.41    0.48
  -3   0 -10    1.97    0.49
   3   0  10    2.22    0.48
   3  -1 -10    2.67    0.55
  -3   1  10    3.21    0.66
  -2   1  10    0.32    0.28
  -2   1  10    0.02    0.23
   2  -1 -10    0.63    0.37
  -1   1  10   12.37    0.82
  -1   1  10   14.34    0.84
   1  -1 -10   12.13    0.74
   0  -1 -10    2.08    0.40
   0   1  10    1.57    0.38
   1   1  10    0.46    0.28
  -1  -1 -10    0.14    0.19
  -2  -1 -10   19.90    1.00
   2   1  10   20.60    1.18
  -2  -1 -10   21.48    1.06
  -3  -1 -10   29.72    1.43
   3   1  10   28.16    1.44
  -3   2  10    3.95    0.70
   3  -2 -10    2.75    0.62
   2  -2 -10    1.29    0.39
  -2   2  10    1.09    0.39
  -2   2  10    1.33    0.33
  -1   2  10    5.66    0.61
   1  -2 -10    5.88    0.62
  -1   2  10    6.23    0.66
   0  -2 -10  158.05    3.43
   0   2  10  155.94    3.79
  -1  -2 -10  611.86   10.63
   1   2  10  625.31   11.56
   2   2  10    0.21    0.32
  -2  -2 -10   -0.10    0.20
  -2  -2 -10    0.65    0.27
  -3  -2 -10    6.73    0.74
   3   2  10    6.32    0.78
   3  -3 -10    0.84    0.46
  -3   3  10    0.33    0.33
  -2   3  10    4.25    0.68
   2  -3 -10    4.07    0.62
  -1   3  10   41.14    1.59
   1  -3 -10   40.79    1.43
  -1   3  10   41.94    1.55
   0  -3 -10   50.94    1.61
   0   3  10   51.20    1.85
   1   3  10    1.91    0.49
  -1  -3 -10    2.06    0.39
  -1  -3 -10    1.86    0.32
   2   3  10    6.11    0.78
  -2  -3 -10    5.75    0.59
  -2  -3 -10    4.61    0.57
   3   3  10    1.17    0.43
   3   3  10    1.62    0.37
  -3  -3 -10    0.64    0.33
   3  -4 -10    0.43    0.45
  -3   4  10    0.74    0.43
   2  -4 -10   -0.01    0.31
  -2   4  10    0.44    0.34
  -1   4  10   26.17    1.26
  -1   4  10   28.94    1.25
   1  -4 -10   25.83    1.12
   0   4  10   76.50    2.42
   0  -4 -10   73.20    2.02
  -1  -4 -10    4.65    0.52
  -1  -4 -10    4.91    0.50
   1   4  10    5.23    0.73
   2   4  10    9.45    0.95
  -2  -4 -10    9.41    0.70
  -2  -4 -10    9.41    0.69
   3   4  10    1.22    0.33
  -3  -4 -10   -0.31    0.24
   3   4  10    0.02    0.31
  -3   5  10    6.89    0.95
   3  -5 -10    9.09    0.93
  -2   5  10    3.81    0.65
   2  -5 -10    4.01    0.59
  -1   5  10    0.12    0.22
  -1   5  10    0.48    0.30
   1  -5 -10   -0.01    0.23
   0   5  10    3.18    0.59
   0  -5 -10    2.23    0.42
  -1  -5 -10   -0.10    0.15
   1   5  10   -0.21    0.27
  -1  -5 -10    0.31    0.19
  -2  -5 -10    1.89    0.40
  -2  -5 -10    2.50    0.44
   2   5  10    1.87    0.48
   3   5  10    5.01    0.78
   3   5  10    5.45    0.70
  -3  -5 -10    3.47    0.60
   3  -6 -10    1.14    0.47
   2  -6 -10    3.61    0.56
  -2   6  10    4.01    0.68
  -1   6  10   12.64    0.91
   1  -6 -10   11.04    0.71
   0  -6 -10    0.18    0.23
   0  -6 -10    0.14    0.21
   0   6  10    0.70    0.32
  -1  -6 -10    3.35    0.49
  -1  -6 -10    2.93    0.43
   1   6  10    4.64    0.72
   2   6  10    0.76    0.42
  -2  -6 -10    0.82    0.30
  -2  -6 -10    0.96    0.32
   3   6  10    5.36    0.69
   3   6  10    5.18    0.84
  -3  -6 -10    4.16    0.63
  -2   7  10    2.23    0.48
   0  -7 -10   96.33    2.57
   0   7  10   95.06    2.97
   0  -7 -10  100.33    2.41
  -1  -7 -10   33.35    1.24
  -1  -7 -10   31.42    1.35
   1   7  10   33.41    1.65
   2   7  10    1.30    0.43
  -2  -7 -10    0.63    0.30
  -2  -7 -10    0.24    0.22
  -3  -7 -10    3.42    0.58
   3   7  10    3.45    0.53
   3   7  10    3.04    0.64
  -2   8  10    0.94    0.37
   0  -8 -10    0.53    0.25
   0   8  10    0.35    0.33
  -1  -8 -10   14.19    0.92
   1   8  10   13.92    1.09
  -2  -8 -10    0.45    0.24
   2   8  10    0.47    0.37
  -3  -8 -10    6.88    0.83
   3   8  10    7.54    1.05
   1  -9 -10    0.55    0.34
   0   9  10    5.97    0.84
   0  -9 -10    3.68    0.60
   1   9  10    1.36    0.48
  -1  -9 -10    0.89    0.34
  -2  -9 -10    1.54    0.44
   2   9  10    1.52    0.53
   0  10  10   17.75    1.26
   0 -10 -10   16.20    1.09
   1  10  10    4.12    0.81
  -1 -10 -10    3.39    0.59
   1   5 -11   19.90    1.22
  -1  -5  11   22.63    1.36
   0   5 -11    2.11    0.52
   0  -5  11    2.08    0.49
  -1   5 -11    1.70    0.46
   2   4 -11    5.88    0.79
  -2  -4  11    5.70    0.84
  -1  -4  11    7.77    0.92
   1   4 -11    7.99    0.87
   0   4 -11    0.35    0.30
   0  -4  11    0.78    0.29
   3   3 -11    4.52    0.61
   2   3 -11    5.64    0.63
   2   3 -11    5.35    0.71
  -2  -3  11    5.06    0.79
   1   3 -11    1.11    0.31
  -1  -3  11    1.25    0.35
   1   3 -11    0.84    0.35
   0   3 -11    5.09    0.68
   0  -3  11    4.93    0.67
   0   3 -11    5.10    0.56
   1  -3  11    0.87    0.33
  -1   3 -11    0.04    0.19
   3   2 -11    1.00    0.40
   2   2 -11    3.78    0.54
  -2  -2  11    3.44    0.62
   2   2 -11    4.28    0.62
   1   2 -11    5.63    0.59
   1   2 -11    5.37    0.67
  -1  -2  11    4.96    0.71
   0  -2  11   40.76    1.54
   0   2 -11   36.35    1.51
   0   2 -11   36.20    1.37
  -1   2 -11    4.66    0.58
   1  -2  11    4.91    0.72
  -2   2 -11    1.11    0.34
  -3  -1  11    1.88    0.60
   3   1 -11    3.26    0.57
   2   1 -11    0.90    0.31
   2   1 -11    0.48    0.29
  -2  -1  11    0.23    0.30
   1   1 -11   42.79    1.60
  -1  -1  11   41.36    1.66
   1   1 -11   43.12    1.51
   0   1 -11    3.31    0.49
   0  -1  11    3.19    0.57
  -1   1 -11   22.73    1.09
   1  -1  11   21.53    1.22
   2  -1  11    0.38    0.32
  -2   1 -11    0.44    0.26
   3  -1  11    4.16    0.67
   3   0 -11    0.43    0.36
  -3   0  11   -0.16    0.32
  -2   0  11    0.45    0.33
  -2   0  11    0.21    0.25
   2   0 -11    0.36    0.27
   1   0 -11    1.00    0.33
  -1   0  11    0.50    0.27
  -1   0  11    0.86    0.32
   0   0  11    0.12    0.25
   0   0 -11    0.58    0.26
   1   0  11    9.45    0.81
  -1   0 -11   10.04    0.72
  -2   0 -11    0.58    0.25
   2   0  11    0.74    0.37
   3   0  11    3.75    0.64
   3  -1 -11    0.99    0.46
  -3   1  11    1.99    0.55
  -2   1  11    2.92    0.51
   2  -1 -11    3.04    0.51
  -2   1  11    4.21    0.67
   1  -1 -11   21.60    1.06
  -1   1  11   23.36    1.16
  -1   1  11   24.03    1.21
   0  -1 -11   34.64    1.32
   0   1  11   34.38    1.51
   1   1  11    7.13    0.82
  -1  -1 -11    7.85    0.63
  -2  -1 -11   15.39    0.93
   2   1  11   16.64    1.11
  -3  -1 -11   39.85    1.74
   3   1  11   40.61    1.80
   3  -2 -11   -0.03    0.38
  -3   2  11    0.66    0.42
   2  -2 -11    1.03    0.40
  -2   2  11    0.56    0.32
  -2   2  11    1.44    0.43
  -1   2  11   34.56    1.43
  -1   2  11   33.77    1.49
   1  -2 -11   32.62    1.33
   0   2  11   50.08    1.91
   0  -2 -11   50.52    1.65
  -1  -2 -11    3.33    0.51
   1   2  11    3.71    0.65
  -2  -2 -11   49.29    1.74
   2   2  11   46.85    1.97
   3   2  11    5.52    0.77
  -3  -2 -11    5.19    0.71
  -3   3  11    0.28    0.34
   3  -3 -11   -0.14    0.35
  -2   3  11    0.20    0.26
   2  -3 -11    0.49    0.35
  -1   3  11   81.70    2.41
  -1   3  11   84.90    2.57
   1  -3 -11   81.29    2.27
   0  -3 -11  487.67    8.73
   0   3  11  490.33    9.54
   1   3  11    0.25    0.26
  -1  -3 -11    0.22    0.23
   2   3  11   23.31    1.35
  -2  -3 -11   23.81    1.11
  -2  -3 -11   23.84    1.16
   3   3  11    1.25    0.37
  -3  -3 -11    0.57    0.35
   3  -4 -11    3.55    0.67
  -3   4  11    3.98    0.73
  -2   4  11    5.86    0.81
   2  -4 -11    5.49    0.68
   1  -4 -11   28.01    1.22
  -1   4  11   29.57    1.42
   0   4  11   -0.70    0.24
   0  -4 -11    0.13    0.23
  -1  -4 -11    0.55    0.25
   1   4  11    0.45    0.29
  -2  -4 -11    3.07    0.48
   2   4  11    2.53    0.59
  -2  -4 -11    2.61    0.48
  -3  -4 -11   23.68    1.27
   3   4  11   23.68    1.42
   3  -5 -11    1.36    0.46
  -2   5  11    1.58    0.44
   2  -5 -11    1.90    0.45
   1  -5 -11    0.81    0.33
  -1   5  11    0.76    0.36
   0  -5 -11    9.67    0.69
   0   5  11    8.74    0.92
  -1  -5 -11   31.17    1.21
  -1  -5 -11   29.53    1.24
   1   5  11   30.14    1.53
  -2  -5 -11    1.67    0.39
  -2  -5 -11    1.25    0.37
   2   5  11    1.39    0.48
  -3  -5 -11   36.87    1.64
   3   5  11   37.45    1.86
  -2   6  11    0.69    0.32
   2  -6 -11    0.52    0.31
   1  -6 -11    1.47    0.37
  -1   6  11    2.38    0.51
   0  -6 -11   13.07    0.79
   0   6  11   12.34    0.95
  -1  -6 -11    5.39    0.58
   1   6  11    5.00    0.76
  -1  -6 -11    4.75    0.56
  -2  -6 -11   12.26    0.82
   2   6  11   11.14    0.99
  -2  -6 -11   12.00    0.83
   3   6  11    1.23    0.40
   3   6  11    0.37    0.40
  -3  -6 -11    0.13    0.29
  -2   7  11    1.10    0.37
   1  -7 -11    1.49    0.37
   0   7  11    2.35    0.54
   0  -7 -11    1.55    0.35
  -1  -7 -11    1.95    0.40
  -1  -7 -11    2.38    0.45
   1   7  11    1.94    0.54
  -2  -7 -11   11.64    0.80
  -2  -7 -11   10.61    0.82
   2   7  11   12.14    1.07
   3   7  11    7.64    1.04
  -3  -7 -11    6.25    0.79
   3   7  11    8.64    0.86
   0   8  11    7.63    0.98
   1   8  11    1.34    0.51
  -1  -8 -11    0.98    0.31
  -2  -8 -11    0.85    0.35
   2   8  11    0.69    0.43
   0  -9 -11    1.09    0.40
   0   9  11    1.10    0.45
   1   9  11    0.70    0.44
  -1  -9 -11    0.85    0.34
  -2  -9 -11    0.22    0.28
   0 -10 -11    4.65    0.68
   0  10  11    4.78    0.81
  -1 -10 -11   11.99    0.95
  -1  -4  12    1.83    0.46
   1   4 -12    2.06    0.49
   0   4 -12    3.27    0.60
   1  -4  12    0.81    0.45
   2   3 -12    0.28    0.31
  -2  -3  12   -0.02    0.32
   1   3 -12    2.60    0.52
   1   3 -12    2.46    0.47
  -1  -3  12    3.01    0.59
   0   3 -12    1.70    0.45
   1  -3  12    8.78    0.97
  -2  -2  12    1.14    0.47
   2   2 -12    1.32    0.37
   2   2 -12    1.57    0.37
   1   2 -12   28.68    1.25
  -1  -2  12   27.98    1.41
   1   2 -12   26.88    1.33
   0  -2  12    3.62    0.63
   0   2 -12    3.70    0.52
   1  -2  12   10.36    1.01
  -1   2 -12    7.97    0.75
  -2   2 -12    0.29    0.25
   2   1 -12    0.98    0.33
  -2  -1  12    1.23    0.46
  -2  -1  12    1.55    0.45
  -1  -1  12   17.32    1.07
   1   1 -12   16.05    0.94
  -1  -1  12   17.63    1.12
   0   1 -12    5.10    0.60
   0  -1  12    4.62    0.72
   1  -1  12    0.28    0.27
  -1   1 -12    0.15    0.23
  -2   1 -12    6.51    0.71
   2  -1  12    7.98    0.94
   2   0 -12    8.66    0.68
  -2   0  12    7.63    0.93
  -2   0  12    7.18    0.82
  -1   0  12    5.08    0.69
   1   0 -12    3.74    0.54
  -1   0  12    5.29    0.72
   0   0 -12    2.74    0.48
   0   0  12    2.39    0.53
  -1   0 -12    0.08    0.20
   1   0  12    0.70    0.35
   2   0  12    1.22    0.44
  -2   0 -12    0.40    0.24
  -2   1  12    1.44    0.40
  -2   1  12    2.61    0.56
   2  -1 -12    2.17    0.44
  -1   1  12    0.60    0.30
   1  -1 -12    0.55    0.27
  -1   1  12    0.21    0.25
   0   1  12    3.15    0.57
   0  -1 -12    4.43    0.59
   1   1  12    5.76    0.81
  -1  -1 -12    6.69    0.69
   2   1  12    5.49    0.82
  -2  -1 -12    5.93    0.70
  -3   2  12    1.16    0.50
  -2   2  12    3.00    0.63
   2  -2 -12    2.36    0.47
  -1   2  12   48.59    1.90
   1  -2 -12   45.52    1.64
   0  -2 -12   61.17    1.94
   0   2  12   62.07    2.26
   1   2  12   17.99    1.19
  -1  -2 -12   18.61    1.01
  -2  -2 -12   21.35    1.15
   2   2  12   24.15    1.42
  -2   3  12   35.32    1.68
   2  -3 -12   36.08    1.48
  -1   3  12   88.67    2.79
   1  -3 -12   90.70    2.50
   0  -3 -12    1.87    0.42
   0   3  12    2.88    0.58
   1   3  12   31.15    1.61
  -1  -3 -12   34.18    1.41
  -2  -3 -12    0.52    0.29
   2   3  12    1.02    0.41
  -3  -3 -12   10.82    0.90
   2  -4 -12   12.92    0.88
  -2   4  12   11.34    0.94
   1  -4 -12   94.36    2.59
  -1   4  12   99.54    3.00
   0   4  12    2.85    0.58
   0  -4 -12    2.32    0.44
  -1  -4 -12   10.08    0.74
   1   4  12   10.41    0.92
   2   4  12    2.30    0.56
  -2  -4 -12    2.34    0.47
   3   4  12   29.34    1.65
  -3  -4 -12   27.85    1.43
   2  -5 -12    5.03    0.65
  -2   5  12    4.59    0.74
  -1   5  12    0.59    0.34
   1  -5 -12    0.39    0.28
   0   5  12    2.36    0.54
   0  -5 -12    2.32    0.43
   1   5  12    0.79    0.40
  -1  -5 -12    1.17    0.33
   2   5  12    8.02    1.02
  -2  -5 -12    8.83    0.79
  -2  -5 -12    8.03    0.68
  -3  -5 -12    7.76    0.85
   3   5  12    9.28    1.11
   2  -6 -12    2.11    0.44
   1  -6 -12    1.37    0.38
  -1   6  12    0.78    0.35
   0  -6 -12    9.46    0.71
   0   6  12   10.09    1.05
   1   6  12    2.12    0.56
  -1  -6 -12    2.04    0.40
   2   6  12   13.42    1.12
  -2  -6 -12   11.02    0.81
  -2  -6 -12   11.55    0.84
  -3  -6 -12    4.51    0.69
   3   6  12    4.80    0.87
   1  -7 -12   18.93    1.00
   0  -7 -12    8.62    0.67
   0   7  12    8.51    0.99
   1   7  12    8.26    1.03
  -1  -7 -12    7.31    0.69
   2   7  12    9.52    1.15
  -2  -7 -12    6.97    0.75
  -2  -7 -12    8.43    0.79
   0   8  12    3.84    0.75
  -1  -8 -12    4.15    0.61
   1   8  12    3.48    0.75
  -2  -8 -12    9.68    0.83
   0   9  12    0.65    0.40
  -1  -9 -12    0.19    0.31
  -1  -3  13    1.06    0.41
  -2  -2  13    2.67    0.65
   2   2 -13    4.05    0.57
  -1  -2  13    4.12    0.66
  -1  -2  13    2.73    0.60
   1   2 -13    3.67    0.56
   0  -2  13    6.19    0.85
   0   2 -13    5.33    0.65
   1  -2  13   16.12    1.20
  -1   2 -13   17.42    1.05
   2   1 -13   23.03    1.22
  -2  -1  13   21.93    1.32
  -2  -1  13   20.86    1.33
  -1  -1  13    7.86    0.90
   1   1 -13   10.01    0.77
   0   1 -13   15.22    0.93
   0  -1  13   15.29    1.11
   1  -1  13    1.29    0.43
  -1   1 -13    1.31    0.37
   2  -1  13    1.88    0.56
  -2   0  13    0.46    0.35
  -2   0  13    1.24    0.49
   2   0 -13    1.16    0.37
   1   0 -13    0.97    0.33
  -1   0  13    1.16    0.38
   0   0 -13    1.52    0.40
   0   0  13    1.75    0.46
  -1   0 -13   11.30    0.83
   1   0  13   12.74    1.03
   2   0  13    1.43    0.49
  -2   0 -13    0.51    0.32
   2  -1 -13    1.19    0.41
  -2   1  13    1.56    0.47
  -2   1  13    2.18    0.48
   1  -1 -13    3.64    0.55
  -1   1  13    4.48    0.69
   0  -1 -13    0.30    0.25
   0   1  13    0.80    0.31
  -1  -1 -13    8.64    0.73
   1   1  13   11.63    1.11
  -2  -1 -13   61.76    2.18
   2   1  13   65.53    2.54
  -2   2  13    7.47    0.92
   2  -2 -13    6.19    0.75
  -1   2  13    7.55    0.89
   1  -2 -13    7.97    0.77
   0   2  13    3.22    0.59
   0  -2 -13    3.77    0.56
   1   2  13   10.34    1.07
  -1  -2 -13    9.39    0.76
   2   2  13    1.28    0.48
  -2  -2 -13    0.18    0.27
   2  -3 -13   13.53    0.94
  -2   3  13   17.03    1.16
  -1   3  13   59.44    2.28
   1  -3 -13   60.39    2.00
   0  -3 -13    6.13    0.70
   0   3  13    8.41    0.98
  -1  -3 -13    0.28    0.24
   1   3  13    0.70    0.37
   2   3  13    1.79    0.57
  -2  -3 -13    1.02    0.35
   2  -4 -13   42.87    1.73
   1  -4 -13    3.36    0.55
  -1   4  13    3.16    0.63
   0  -4 -13    7.56    0.76
   0   4  13    8.35    0.99
  -1  -4 -13    0.78    0.31
   1   4  13    1.19    0.42
   2   4  13   40.27    2.01
  -2  -4 -13   38.90    1.65
   2  -5 -13    5.51    0.74
   1  -5 -13    3.50    0.54
  -1   5  13    3.86    0.71
   0   5  13    0.09    0.35
   0  -5 -13    0.49    0.26
  -1  -5 -13    1.12    0.33
   1   5  13    1.11    0.48
   2   5  13   68.60    2.73
  -2  -5 -13   67.58    2.26
   2  -6 -13    2.36    0.49
   1  -6 -13    4.62    0.62
  -1   6  13    5.10    0.84
   0  -6 -13    0.58    0.25
   0   6  13    0.33    0.35
   1   6  13    0.70    0.39
  -1  -6 -13    0.98    0.33
   2   6  13    1.37    0.49
  -2  -6 -13    0.28    0.31
   1  -7 -13    0.93    0.29
   0   7  13    0.71    0.43
   0  -7 -13    0.85    0.28
  -1  -7 -13    0.66    0.25
   1   7  13    0.80    0.44
  -2  -7 -13    0.66    0.34
   0   8  13    0.68    0.47
   0   2 -14    9.52    0.77
   1   1 -14    1.91    0.46
   0   1 -14    1.04    0.38
   0  -1  14    1.12    0.49
  -1   1 -14    0.79    0.35
  -1   0  14    4.31    0.73
   1   0 -14    5.79    0.73
   0   0  14    0.29    0.31
   0   0 -14    0.33    0.29
  -1   0 -14    0.32    0.27
   1   0  14   -0.05    0.32
  -2   1  14    1.23    0.39
   1  -1 -14    2.05    0.46
  -1   1  14    1.70    0.49
   0  -1 -14    1.45    0.39
   0   1  14    1.96    0.49
   1   1  14    4.60    0.84
  -1  -1 -14    5.11    0.70
   1  -2 -14    2.16    0.47
  -1   2  14    2.32    0.57
   0  -2 -14   18.11    1.06
   0   2  14   18.11    1.27
  -1  -2 -14   63.05    2.18
   1   2  14   58.43    2.48
   2   2  14    6.15    0.98
  -1   3  14    0.09    0.33
   1  -3 -14    0.70    0.30
   0  -3 -14    8.69    0.84
   0   3  14   10.50    1.12
   1   3  14    0.41    0.40
  -1  -3 -14    0.63    0.31
   2   3  14    1.28    0.54
  -1   4  14    2.43    0.60
   1  -4 -14    1.24    0.38
   0  -4 -14    5.12    0.67
   0   4  14    5.06    0.83
  -1  -4 -14    5.28    0.70
   1   4  14    5.49    0.91
   1  -5 -14    0.47    0.34
  -1   5  14    1.47    0.49
   0  -5 -14    0.26    0.26
   0   5  14    0.59    0.37
   1   5  14   40.74    2.06
  -1  -5 -14   39.82    1.68
  -1   6  14    1.39    0.48
   1  -6 -14    0.75    0.33
   0   6  14   -0.42    0.31
   0  -6 -14    0.17    0.24
  -1  -6 -14   40.92    1.69
   1   6  14   38.78    2.02
   0   7  14    1.71    0.53
   0  -7 -14    1.64    0.40
  -1  -7 -14    2.08    0.47
   0   0   0    0.00    0.00
;
_shelx_hkl_checksum              14574
_shelx_res_file
;
    ay50m.res created by SHELXL-2014/7
TITL AY50m in P-1
CELL 0.71073   3.8229   8.9716  11.6450  75.011  89.036  81.735
ZERR    2.00   0.0015   0.0034   0.0044   0.006   0.006   0.006
LATT 1
SFAC C  H  O
UNIT 14 16 10
L.S. 25
ACTA
BOND  $H
FMAP 2
PLAN 5
CONF
EQIV $1  -x+1, -y+2, -z+1
EQIV $2  -x-1, -y+2, -z
EQIV $3  -x-1, -y+1, -z
HTAB O1 O2_$1
HTAB O3 O2
HTAB O4 O1W
HTAB O1W O3_$2
HTAB O1W O4_$3
HTAB
SIZE 0.17 0.14 0.09
TEMP 21
WGHT    0.068700    0.075200
FVAR       1.07411
MOLE 1
C1    1    0.165908    0.797768    0.327783    11.00000    0.03563    0.03707 =
         0.02939   -0.00888   -0.00080   -0.00702
C2    1    0.049430    0.877215    0.211482    11.00000    0.03787    0.03146 =
         0.03223   -0.00686   -0.00036   -0.00798
C3    1   -0.082345    0.799377    0.137032    11.00000    0.04278    0.03621 =
         0.02898   -0.00693   -0.00443   -0.00857
AFIX  43
H3    2   -0.162054    0.853114    0.060461    11.00000   -1.20000
AFIX   0
C4    1   -0.094204    0.640928    0.177705    11.00000    0.03776    0.03664 =
         0.03807   -0.01446    0.00024   -0.00901
C5    1    0.022631    0.559058    0.292657    11.00000    0.04829    0.03101 =
         0.04195   -0.00699   -0.00179   -0.00892
AFIX  43
H5    2    0.014663    0.452554    0.319312    11.00000   -1.20000
AFIX   0
C6    1    0.149044    0.637530    0.365623    11.00000    0.04290    0.03696 =
         0.03207   -0.00285   -0.00442   -0.00708
AFIX  43
H6    2    0.225786    0.583073    0.442350    11.00000   -1.20000
AFIX   0
C7    1    0.306417    0.880881    0.404668    11.00000    0.04105    0.03943 =
         0.03260   -0.01057   -0.00197   -0.00776
O1    3    0.401600    0.798041    0.512835    11.00000    0.07477    0.04757 =
         0.03139   -0.00824   -0.01243   -0.01774
H1O   2    0.477132    0.863105    0.550281    11.00000    0.06461
O2    3    0.336122    1.021115    0.370739    11.00000    0.07078    0.04140 =
         0.03873   -0.01115   -0.01398   -0.01422
O3    3    0.061054    1.031812    0.166157    11.00000    0.07135    0.03332 =
         0.03746   -0.00401   -0.01499   -0.01542
H2O   2    0.163737    1.059695    0.220285    11.00000    0.08144
O4    3   -0.216431    0.560365    0.107596    11.00000    0.06961    0.03934 =
         0.04491   -0.01574   -0.01194   -0.01487
H3O   2   -0.294454    0.620148    0.042535    11.00000    0.06238
MOLE 2
O1W   3   -0.480562    0.709536   -0.109935    11.00000    0.07900    0.03900 =
         0.06897   -0.01110   -0.01851   -0.01256
H1W   2   -0.643394    0.788429   -0.121932    11.00000    0.08907
H2W   2   -0.569417    0.655030   -0.139216    11.00000    0.06312
HKLF 4
REM  AY50m in P-1
REM R1 =  0.0480 for    1571 Fo > 4sig(Fo)  and  0.0542 for all    1769 data
REM    129 parameters refined using      0 restraints
END
WGHT      0.0689      0.0746
REM Instructions for potential hydrogen bonds
EQIV $4 -x, -y+2, -z
HTAB C3 O3_$4
HTAB O1 O2_$1
HTAB O3 O2
HTAB O4 O1W
HTAB O1W O3_$2
HTAB O1W O4_$3
REM Highest difference peak  0.270,  deepest hole -0.223,  1-sigma level  0.047
Q1    1   0.2261  0.8330  0.3606  11.00000  0.05    0.27
Q2    1  -0.0543  0.8380  0.1797  11.00000  0.05    0.26
Q3    1   0.1078  0.8380  0.2786  11.00000  0.05    0.26
Q4    1   0.1887  0.7181  0.3401  11.00000  0.05    0.24
Q5    1  -0.1288  0.7239  0.1661  11.00000  0.05    0.23
;
_shelx_res_checksum              68244
loop_
_space_group_symop_operation_xyz
'x, y, z'
'-x, -y, -z'
loop_
_atom_site_type_symbol
_atom_site_label
_atom_site_fract_x
_atom_site_fract_y
_atom_site_fract_z
_atom_site_U_iso_or_equiv
_atom_site_adp_type
_atom_site_calc_flag
_atom_site_occupancy
C C1 0.1659(4) 0.79777(16) 0.32778(12) 0.0338(3) Uani d 1
C C2 0.0494(4) 0.87721(16) 0.21148(12) 0.0338(3) Uani d 1
C C3 -0.0823(4) 0.79938(16) 0.13703(12) 0.0359(3) Uani d 1
H H3 -0.1621 0.8531 0.0605 0.043 Uiso calc 1
C C4 -0.0942(4) 0.64093(16) 0.17770(13) 0.0362(3) Uani d 1
C C5 0.0226(4) 0.55906(16) 0.29266(13) 0.0405(4) Uani d 1
H H5 0.0147 0.4526 0.3193 0.049 Uiso calc 1
C C6 0.1490(4) 0.63753(17) 0.36562(13) 0.0383(3) Uani d 1
H H6 0.2258 0.5831 0.4424 0.046 Uiso calc 1
C C7 0.3064(4) 0.88088(17) 0.40467(12) 0.0372(3) Uani d 1
O O1 0.4016(3) 0.79804(14) 0.51283(9) 0.0506(3) Uani d 1
H H1O 0.477(6) 0.863(3) 0.5503(19) 0.065(6) Uiso d 1
O O2 0.3361(3) 1.02112(13) 0.37074(10) 0.0494(3) Uani d 1
O O3 0.0611(3) 1.03181(12) 0.16616(10) 0.0474(3) Uani d 1
H H2O 0.164(7) 1.060(3) 0.220(2) 0.081(7) Uiso d 1
O O4 -0.2164(3) 0.56037(13) 0.10760(11) 0.0495(3) Uani d 1
H H3O -0.294(6) 0.620(2) 0.043(2) 0.062(6) Uiso d 1
O O1W -0.4806(4) 0.70954(17) -0.10993(13) 0.0622(4) Uani d 1
H H1W -0.643(7) 0.788(3) -0.122(2) 0.089(8) Uiso d 1
H H2W -0.569(6) 0.655(3) -0.139(2) 0.063(6) Uiso d 1
loop_
_atom_site_aniso_label
_atom_site_aniso_U_11
_atom_site_aniso_U_22
_atom_site_aniso_U_33
_atom_site_aniso_U_12
_atom_site_aniso_U_13
_atom_site_aniso_U_23
C1 0.0356(7) 0.0371(7) 0.0294(7) -0.0070(5) -0.0008(5) -0.0089(5)
C2 0.0379(7) 0.0315(6) 0.0322(7) -0.0080(5) -0.0004(5) -0.0069(5)
C3 0.0428(8) 0.0362(7) 0.0290(7) -0.0086(6) -0.0044(5) -0.0069(5)
C4 0.0378(7) 0.0366(7) 0.0381(7) -0.0090(6) 0.0002(6) -0.0145(6)
C5 0.0483(8) 0.0310(7) 0.0419(8) -0.0089(6) -0.0018(6) -0.0070(6)
C6 0.0429(8) 0.0370(7) 0.0321(7) -0.0071(6) -0.0044(6) -0.0029(6)
C7 0.0410(8) 0.0394(7) 0.0326(7) -0.0078(6) -0.0020(6) -0.0106(6)
O1 0.0748(8) 0.0476(7) 0.0314(6) -0.0177(6) -0.0124(5) -0.0082(5)
O2 0.0708(8) 0.0414(6) 0.0387(6) -0.0142(5) -0.0140(5) -0.0112(5)
O3 0.0714(8) 0.0333(6) 0.0375(6) -0.0154(5) -0.0150(5) -0.0040(4)
O4 0.0696(8) 0.0393(6) 0.0449(7) -0.0149(5) -0.0119(6) -0.0157(5)
O1W 0.0790(10) 0.0390(7) 0.0690(9) -0.0126(7) -0.0185(7) -0.0111(6)
loop_
_atom_type_symbol
_atom_type_description
_atom_type_scat_dispersion_real
_atom_type_scat_dispersion_imag
_atom_type_scat_source
C C 0.0033 0.0016 'International Tables Vol C Tables 4.2.6.8 and 6.1.1.4'
H H 0.0000 0.0000 'International Tables Vol C Tables 4.2.6.8 and 6.1.1.4'
O O 0.0106 0.0060 'International Tables Vol C Tables 4.2.6.8 and 6.1.1.4'
loop_
_geom_angle_atom_site_label_1
_geom_angle_atom_site_label_2
_geom_angle_atom_site_label_3
_geom_angle
C6 C1 C2 118.04(13)
C6 C1 C7 121.77(13)
C2 C1 C7 120.18(13)
O3 C2 C3 116.86(12)
O3 C2 C1 122.34(13)
C3 C2 C1 120.80(13)
C4 C3 C2 119.40(13)
C4 C3 H3 120.3
C2 C3 H3 120.3
O4 C4 C3 121.29(13)
O4 C4 C5 117.83(13)
C3 C4 C5 120.88(13)
C6 C5 C4 119.14(13)
C6 C5 H5 120.4
C4 C5 H5 120.4
C5 C6 C1 121.73(13)
C5 C6 H6 119.1
C1 C6 H6 119.1
O2 C7 O1 121.58(13)
O2 C7 C1 122.44(13)
O1 C7 C1 115.98(13)
C7 O1 H1O 106.6(13)
C2 O3 H2O 105.0(16)
C4 O4 H3O 110.9(15)
H1W O1W H2W 100(2)
loop_
_geom_bond_atom_site_label_1
_geom_bond_atom_site_label_2
_geom_bond_distance
C1 C6 1.401(2)
C1 C2 1.404(2)
C1 C7 1.457(2)
C2 O3 1.3574(18)
C2 C3 1.3864(19)
C3 C4 1.384(2)
C3 H3 0.9300
C4 O4 1.3500(17)
C4 C5 1.396(2)
C5 C6 1.368(2)
C5 H5 0.9300
C6 H6 0.9300
C7 O2 1.2387(18)
C7 O1 1.3133(18)
O1 H1O 0.89(2)
O3 H2O 0.86(3)
O4 H3O 0.84(2)
O1W H1W 0.86(3)
O1W H2W 0.78(3)
loop_
_geom_hbond_atom_site_label_D
_geom_hbond_atom_site_label_H
_geom_hbond_atom_site_label_A
_geom_hbond_site_symmetry_A
_geom_hbond_distance_DH
_geom_hbond_distance_HA
_geom_hbond_distance_DA
_geom_hbond_angle_DHA
O1 H1O O2 2_676 0.89(2) 1.78(2) 2.6697(17) 174(2)
O3 H2O O2 . 0.86(3) 1.81(3) 2.5938(17) 151(2)
O4 H3O O1W . 0.84(2) 1.86(2) 2.678(2) 167(2)
O1W H1W O3 2_475 0.86(3) 2.07(3) 2.919(2) 173(2)
O1W H2W O4 2_465 0.78(3) 2.15(3) 2.824(2) 145(2)
loop_
_geom_torsion_atom_site_label_1
_geom_torsion_atom_site_label_2
_geom_torsion_atom_site_label_3
_geom_torsion_atom_site_label_4
_geom_torsion
C6 C1 C2 O3 -178.86(13)
C7 C1 C2 O3 -0.1(2)
C6 C1 C2 C3 0.8(2)
C7 C1 C2 C3 179.50(13)
O3 C2 C3 C4 178.78(13)
C1 C2 C3 C4 -0.9(2)
C2 C3 C4 O4 -179.17(13)
C2 C3 C4 C5 0.4(2)
O4 C4 C5 C6 179.79(13)
C3 C4 C5 C6 0.2(2)
C4 C5 C6 C1 -0.3(2)
C2 C1 C6 C5 -0.2(2)
C7 C1 C6 C5 -178.87(14)
C6 C1 C7 O2 177.01(14)
C2 C1 C7 O2 -1.7(2)
C6 C1 C7 O1 -2.8(2)
C2 C1 C7 O1 178.52(13)

_cod_database_fobs_code 2020286
