#------------------------------------------------------------------------------
#$Date: 2018-01-13 07:44:22 +0200 (Sat, 13 Jan 2018) $
#$Revision: 205156 $
#$URL: file:///home/coder/svn-repositories/cod/cif/2/02/08/2020880.cif $
#------------------------------------------------------------------------------
#
# This file is available in the Crystallography Open Database (COD),
# http://www.crystallography.net/. The original data for this entry
# were provided by IUCr Journals, http://journals.iucr.org/.
#
# The file may be used within the scientific community so long as
# proper attribution is given to the journal article from which the
# data were obtained.
#
data_2020880
loop_
_publ_author_name
'Lin, Xiao-Ying'
'Zheng, Qin-Qin'
'Gong, Ling-Zhu'
'Liu, Ya-Min'
'Liu, Min-Yi'
'Liu, Xin-Zhong'
_publ_section_title
;
 Manganese(II), lead(II) and cadmium(II) coordination complexes containing
 a tetrazole-based acylamide ligand: synthesis and the influence of the
 metal ions on the structures
;
_journal_coeditor_code           YF3129
_journal_issue                   2
_journal_name_full               'Acta Crystallographica Section C'
_journal_page_first
;
;
_journal_paper_doi               10.1107/S2053229617018101
_journal_volume                  74
_journal_year                    2018
_chemical_formula_iupac          '[Mn (C10 H8 N5 O)2 (C H4 O)2]'
_chemical_formula_moiety         'C22 H24 Mn N10 O4'
_chemical_formula_sum            'C22 H24 Mn N10 O4'
_chemical_formula_weight         547.45
_chemical_name_systematic
Bis(methanol-\k<i>O</i>)bis[5-(3-phenylprop-2-enamido)-1<i>H</i>-1,2,3,4-tetrazol-1-ido-\k^2^<i>N</i>^1^,<i>O</i>]manganese(II)
_space_group_crystal_system      triclinic
_space_group_IT_number           2
_space_group_name_Hall           '-P 1'
_space_group_name_H-M_alt        'P -1'
_symmetry_space_group_name_Hall  '-P 1'
_symmetry_space_group_name_H-M   'P -1'
_atom_sites_solution_hydrogens   mixed
_audit_creation_method           SHELXL-2014/7
_cell_angle_alpha                105.33(3)
_cell_angle_beta                 103.20(3)
_cell_angle_gamma                94.00(3)
_cell_formula_units_Z            1
_cell_length_a                   5.9328(12)
_cell_length_b                   10.245(2)
_cell_length_c                   10.853(2)
_cell_measurement_reflns_used    5174
_cell_measurement_temperature    293(2)
_cell_measurement_theta_max      27.46
_cell_measurement_theta_min      3.55
_cell_volume                     613.4(3)
_computing_cell_refinement
;
CrystalClear (Rigaku, 2002)
;
_computing_data_collection
;
CrystalClear (Rigaku, 2002)
;
_computing_data_reduction
;
CrystalClear (Rigaku, 2002)
;
_computing_molecular_graphics
;
DIAMOND (Brandenburg, 2004)
;
_computing_publication_material
;
publCIF (Westrip, 2010)
;
_computing_structure_refinement
;
SHELXL2014 (Sheldrick, 2015)
;
_computing_structure_solution
;
SHELXS97 (Sheldrick, 2008)
;
_diffrn_ambient_temperature      293(2)
_diffrn_measured_fraction_theta_full 0.981
_diffrn_measured_fraction_theta_max 0.980
_diffrn_measurement_device_type  'Rigaku Saturn 724 CCD area-detector'
_diffrn_measurement_method       'Omega scan'
_diffrn_radiation_type           MoK\a
_diffrn_radiation_wavelength     0.71073
_diffrn_reflns_av_R_equivalents  0.0400
_diffrn_reflns_limit_h_max       7
_diffrn_reflns_limit_h_min       -7
_diffrn_reflns_limit_k_max       12
_diffrn_reflns_limit_k_min       -12
_diffrn_reflns_limit_l_max       13
_diffrn_reflns_limit_l_min       -10
_diffrn_reflns_number            4428
_diffrn_reflns_theta_full        25.242
_diffrn_reflns_theta_max         25.346
_diffrn_reflns_theta_min         3.562
_exptl_absorpt_coefficient_mu    0.589
_exptl_absorpt_correction_T_max  1.0000
_exptl_absorpt_correction_T_min  0.8843
_exptl_absorpt_correction_type   multi-scan
_exptl_absorpt_process_details
;
(RAPID-AUTO; Rigaku, 1998)
;
_exptl_crystal_colour            colourless
_exptl_crystal_density_diffrn    1.482
_exptl_crystal_description       block
_exptl_crystal_F_000             283
_exptl_crystal_size_max          0.26
_exptl_crystal_size_mid          0.15
_exptl_crystal_size_min          0.08
_refine_diff_density_max         0.250
_refine_diff_density_min         -0.347
_refine_ls_extinction_method     none
_refine_ls_goodness_of_fit_ref   1.087
_refine_ls_hydrogen_treatment    mixed
_refine_ls_matrix_type           full
_refine_ls_number_parameters     172
_refine_ls_number_reflns         2204
_refine_ls_number_restraints     1
_refine_ls_restrained_S_all      1.087
_refine_ls_R_factor_all          0.0625
_refine_ls_R_factor_gt           0.0550
_refine_ls_shift/su_max          0.000
_refine_ls_shift/su_mean         0.000
_refine_ls_structure_factor_coef Fsqd
_refine_ls_weighting_details
'w=1/[\s^2^(Fo^2^)+(0.0283P)^2^+0.7141P] where P=(Fo^2^+2Fc^2^)/3'
_refine_ls_weighting_scheme      calc
_refine_ls_wR_factor_gt          0.1108
_refine_ls_wR_factor_ref         0.1152
_reflns_number_gt                1985
_reflns_number_total             2204
_reflns_threshold_expression     'I > 2\s(I)'
_cod_data_source_file            yf3129sup1.cif
_cod_data_source_block           complex1
_cod_original_cell_volume        613.4(2)
_cod_database_code               2020880
_shelx_space_group_comment
;
The symmetry employed for this shelxl refinement is uniquely defined
by the following loop, which should always be used as a source of
symmetry information in preference to the above space-group names.
They are only intended as comments.
;
_shelx_hkl_file
;
   0   0   276735.14 1111.64   1 0.66783-0.63180 0.68319-0.64728-0.29537 0.42643
   0   0  -276598.50 1105.04   1 0.56705-0.60308 0.70577-0.74168-0.42465 0.29359
   0   0  -274274.23 1083.72   1 0.86482-0.90095 0.30610-0.34205-0.39796 0.26695
   0   0   3 1392.37   99.88   1 0.69036-0.63630 0.67455-0.62069-0.26149 0.45809
   0   0  -3 1541.75   99.41   1 0.53918-0.59323 0.70842-0.76228-0.45542 0.25882
   0   0   3 1769.36  114.26   1 0.87611-0.82205 0.41679-0.36289-0.24227 0.43878
   0   0  -3 1556.51  102.01   1 0.85883-0.91303 0.28225-0.33618-0.42748 0.23096
   0   0   4  127.96   57.20   1-0.51142 0.58383-0.70938 0.78085 0.48499-0.22224
   0   0   4  114.04   84.77   1 0.71180-0.63972 0.66469-0.59288-0.22698 0.48911
   0   0   4  121.44   99.10   1 0.87438-0.80229 0.43753-0.36567-0.20979 0.47180
   0   0  -4  197.79   82.63   1 0.85153-0.92380 0.25787-0.32978-0.45649 0.19447
   0   0   5  630.93   88.35   1-0.48123 0.57175-0.70970 0.79904 0.51453-0.18609
   0   0   5  410.01   98.97   1 0.73213-0.64204 0.65359-0.56382-0.19183 0.51949
   0   0   5  246.91   86.36   1 0.87132-0.78121 0.45774-0.36791-0.17679 0.50431
   0   0  -5  358.61   83.26   1 0.84276-0.93319 0.23300-0.32297-0.48524 0.15760
   0   0   6 9416.23  374.35   1 0.75132-0.64322 0.64122-0.53350-0.15602 0.54921
   0   0   6 9174.70  391.58   1 0.86691-0.75878 0.47741-0.36962-0.14328 0.53630
   0   0   7 7326.29  494.53   1 0.76935-0.64323 0.62753-0.50187-0.11952 0.57825
   0   0   7 6970.36  482.47   1 0.86111-0.73496 0.49653-0.37076-0.10923 0.56776
   0   0   8 4508.33  435.34   1 0.78599-0.64182 0.61271-0.46904-0.08238 0.60667
   0   0   8 5109.84  497.61   1 0.85389-0.70971 0.51507-0.37134-0.07464 0.59866
   0   0   9  720.83  141.43   1 0.80155-0.63936 0.59626-0.43463-0.04444 0.63427
   0   0   9 1035.55  175.45   1 0.84519-0.68306 0.53299-0.37125-0.03944 0.62896
   0   0  10  791.09  153.72   1 0.81578-0.63557 0.57832-0.39873-0.00573 0.66109
   0   0  10  822.25  155.75   1 0.83494-0.65479 0.55031-0.37059-0.00368 0.65870
   0   0  11  187.92  151.68   1 0.82861-0.63037 0.55880-0.36125 0.03379 0.68710
   0   0  11  508.75  172.90   1 0.82307-0.62491 0.56698-0.36929 0.03270 0.68782
   0   0  12   85.91   91.57   1 0.84005-0.62349 0.53741-0.32239 0.07408 0.71226
   0   0  12  678.55  238.18   1 0.80949-0.59331 0.58296-0.36730 0.06974 0.71628
   0   0  13  120.88  102.35   1 0.84976-0.61514 0.51437-0.28144 0.11541 0.73646
   0   0  13  455.17  154.09   1 0.79409-0.55989 0.59821-0.36458 0.10749 0.74403
   0  -1  13  195.01  111.46   1 0.85668-0.63208 0.49303-0.33199 0.15169 0.70017
   0  -1  13   99.60   94.36   1 0.77518-0.55029 0.61376-0.45181 0.14957 0.70217
   0  -1  12  450.44  184.01   1 0.85000-0.64345 0.51372-0.37060 0.11655 0.66979
   0  -1  11 1256.37  266.21   1 0.84235-0.65384 0.53247-0.40727 0.08315 0.63766
   0  -1  11 1067.04  231.60   1 0.80421-0.61611 0.58849-0.46274 0.08313 0.63738
   0  -1  10 1050.08  157.41   1 0.83400-0.66355 0.54932-0.44203 0.05171 0.60357
   0  -1  10  934.82  148.53   1 0.81624-0.64616 0.57536-0.46759 0.05184 0.60317
   0  -1   9 1974.74  258.57   1 0.82516-0.67298 0.56444-0.47472 0.02262 0.56720
   0  -1   9 1610.56  208.90   1 0.82661-0.67454 0.56233-0.47252 0.02232 0.56719
   0  -1   817502.23 1477.31   1 0.81648-0.68233 0.57735-0.50560-0.00371 0.52800
   0  -1   818577.21 1565.26   1 0.83534-0.70129 0.54971-0.47787-0.00496 0.52898
   0  -1   716910.05  891.59   1 0.80840-0.69227 0.58803-0.53423-0.02637 0.48512
   0  -1   715041.43  797.64   1 0.84242-0.72639 0.53801-0.48414-0.02928 0.48780
   0  -1   6 8411.09  346.12   1 0.80177-0.70366 0.59601-0.56017-0.04388 0.43710
   0  -1   6 8092.50  335.92   1 0.84775-0.74970 0.52809-0.49223-0.04929 0.44231
   0  -1   510537.00  363.78   1 0.79792-0.71783 0.60036-0.58248-0.05366 0.38134
   0   1  -5 9697.12  326.15   1 0.61808-0.69814 0.69720-0.71507-0.36316 0.03549
   0  -1   510718.73  361.01   1 0.85101-0.77098 0.52141-0.50353-0.06240 0.38991
   0   1  -5 9851.04  333.70   1 0.86399-0.94428 0.30252-0.32048-0.40247 0.07495
   0  -1   425908.02  496.38   1 0.79913-0.73706 0.59901-0.59909-0.05060 0.31275
   0   1  -426278.26  488.91   1 0.66729-0.72934 0.68337-0.68330-0.29615 0.03402
   0  -1   426793.10  497.40   1 0.85114-0.78913 0.52114-0.52122-0.06293 0.32494
   0  -1   3  344.04  121.72   1 0.80947-0.76542 0.58668-0.60472-0.02345 0.22006
   0   1  -3  284.83   97.69   1 0.72418-0.76821 0.65815-0.64012-0.20587 0.00927
   0  -1   3  147.90   89.03   1 0.84423-0.80026 0.53476-0.55279-0.03587 0.23238
   0   1  -3  129.56   58.36   1 0.87654-0.92053 0.40296-0.38492-0.26321 0.06670
   0  -1   261197.64  909.17   1 0.83553-0.80945 0.54644-0.58251 0.05717 0.07387
   0   1  -261630.63  911.96   1 0.79354-0.81957 0.60508-0.56908-0.06445-0.06661
   0  -1   261993.89  895.29   1 0.80803-0.78206 0.58453-0.62053 0.07351 0.05748
   0   1  -257599.56  834.27   1 0.86064-0.88660 0.49789-0.46188-0.10674-0.02426
   0  -1  -233033.22  529.75   1-0.38751 0.34134-0.70371 0.59595 0.59549-0.72685
   0   1   231418.39  509.23   1-0.18988 0.23613-0.65981 0.76766 0.72704-0.59575
   0   1   232926.41  558.85   1 0.86014-0.81395 0.28708-0.17920-0.42158 0.55259
   0   1   3  268.50   47.68   1-0.27669 0.34094-0.68387 0.80945 0.67510-0.47805
   0   1   3  639.36  145.32   1 0.87129-0.80703 0.34020-0.21434-0.35371 0.55022
   0  -1  -3  307.09  110.97   1 0.82304-0.88735 0.18509-0.31102-0.53697 0.34038
   0   1   4   94.17   45.12   1-0.30560 0.38793-0.69020 0.83361 0.65591-0.39318
   0   1   4   87.54   71.76   1 0.59789-0.51580 0.70121-0.55751-0.38834 0.65047
   0   1   4  295.78  139.25   1 0.87598-0.79382 0.37844-0.23463-0.29905 0.56106
   0  -1  -4  152.89   70.57   1 0.82121-0.90361 0.18109-0.32501-0.54111 0.27900
   0   1   5 4224.99  516.28   1-0.30972 0.41013-0.69103 0.85227 0.65309-0.32468
   0   1   5 5027.41  362.06   1 0.65078-0.55066 0.68871-0.52706-0.31961 0.64727
   0   1   5 4503.27  338.60   1 0.87638-0.77619 0.41053-0.24876-0.25182 0.57934
   0   1   6 8536.53  493.55   1 0.69115-0.57302 0.67421-0.49461-0.26025 0.65345
   0   1   6 7634.01  525.94   1 0.87426-0.75605 0.43857-0.25883-0.20813 0.60115
   0   1   7 7268.90  555.80   1 0.72397-0.58782 0.65827-0.46071-0.20625 0.66498
   0   1   7 6733.25  531.43   1 0.87009-0.73386 0.46393-0.26622-0.16642 0.62494
   0   1   8  288.91   93.37   1 0.75162-0.59746 0.64101-0.42550-0.15543 0.67969
   0   1   8  253.01  140.63   1 0.86410-0.70985 0.48732-0.27165-0.12582 0.64985
   0   1   9  561.79  151.59   1 0.77523-0.60302 0.62262-0.38907-0.10657 0.69640
   0   1   9  667.78  182.94   1 0.85636-0.68409 0.50918-0.27554-0.08580 0.67534
   0   1  10 1386.61  289.69   1 0.79589-0.60566 0.60258-0.35108-0.05871 0.71408
   0   1  10  975.06  229.74   1 0.84691-0.65661 0.52973-0.27813-0.04603 0.70106
   0   1  11  235.05   99.24   1 0.81381-0.60556 0.58100-0.31154-0.01137 0.73227
   0   1  11  599.42  223.42   1 0.83571-0.62748 0.54912-0.27949-0.00621 0.72673
   0   1  12  460.77  191.78   1 0.82923-0.60296 0.55774-0.27032 0.03586 0.75057
   0   1  12   78.40   95.28   1 0.82271-0.59646 0.56745-0.27984 0.03375 0.75227
   0  -2  13  361.42  142.19   1 0.86269-0.64862 0.46815-0.37874 0.19129 0.66018
   0  -2  13  630.49  149.10   1 0.74849-0.53364 0.63156-0.54156 0.20218 0.64956
   0  -2  12 1090.53  168.66   1 0.85842-0.66188 0.48657-0.41535 0.16233 0.62400
   0  -2  12  762.70  249.18   1 0.76374-0.56695 0.62193-0.54992 0.17292 0.61330
   0  -2  11  472.52  200.97   1 0.85385-0.67536 0.50246-0.44916 0.13589 0.58492
   0  -2  11  335.35  169.97   1 0.77688-0.59817 0.61248-0.55846 0.14599 0.57471
   0  -2  10  472.81  130.81   1 0.84913-0.68868 0.51606-0.48068 0.11247 0.54281
   0  -2  10  186.28   95.84   1 0.78793-0.62730 0.60356-0.56754 0.12191 0.53327
   0  -2   9  287.43  121.28   1 0.84468-0.70228 0.52716-0.50970 0.09277 0.49698
   0  -2   9  339.61  101.68   1 0.79632-0.65432 0.59616-0.57829 0.10225 0.48726
   0  -2   8 2514.77  279.08   1 0.84101-0.71666 0.53537-0.53583 0.07783 0.44639
   0  -2   8 3456.17  349.07   1 0.80270-0.67872 0.59001-0.59012 0.08688 0.43713
   0  -2   736819.64 1825.38   1 0.83880-0.73250 0.54000-0.55837 0.06927 0.38942
   0  -2   734052.57 1676.55   1 0.80597-0.70001 0.58668-0.60476 0.07872 0.37978
   0  -2   617493.61  607.69   1 0.83891-0.75065 0.53978-0.57608 0.06967 0.32349
   0  -2   616727.93  555.58   1 0.80473-0.71678 0.58797-0.62402 0.08184 0.31116
   0   2  -614629.42  493.18   1 0.86876-0.95706 0.32520-0.28922-0.37348-0.01954
   0  -2   527963.99  787.00   1 0.84241-0.77220 0.53234-0.58655 0.08339 0.24425
   0   2  -527574.42  770.01   1 0.71616-0.78620 0.66246-0.60844-0.21964-0.10801
   0  -2   528492.18  769.36   1 0.79546-0.72552 0.59696-0.65098 0.10428 0.22322
   0  -2   4  619.79   96.81   1 0.85032-0.79815 0.51284-0.58497 0.11807 0.14403
   0   2  -4  588.03   63.82   1 0.76658-0.81860 0.62978-0.55782-0.12533-0.13679
   0  -2   4  681.04   72.86   1 0.76881-0.71661 0.61842-0.69036 0.16273 0.09933
   0   2  -4  529.79   59.73   1 0.87331-0.92524 0.44570-0.37368-0.19662-0.06538
   0  -2   3  -57.94  101.62   1 0.86206-0.82794 0.47068-0.56073 0.18787 0.00871
   0   2  -3  169.95   78.48   1 0.81774-0.85177 0.57558-0.48562-0.00003-0.19657
   0  -2   3   21.45   43.57   1 0.68793-0.65386 0.65901-0.74893 0.30404-0.10750
   0   2  -3  136.37   54.65   1 0.83911-0.87302 0.54366-0.45369-0.01765-0.17885
   0  -2   2   87.59   77.75   1 0.86831-0.85230 0.38044-0.48837 0.31825-0.18725
   0   2  -2   31.27   64.18   1 0.86059-0.87666 0.47756-0.36960 0.17691-0.30797
   0  -2   2  103.12   39.17   1 0.39417-0.37814 0.67772-0.78563 0.62073-0.48967
   0   2  -2  104.55   37.47   1 0.64633-0.66234 0.67120-0.56328 0.36294-0.49396
   0  -2   1 2778.78   99.74   1 0.82094-0.82299 0.18720-0.31310 0.53945-0.47395
   0   2  -1 2856.91  104.13   1 0.85489-0.85285 0.28999-0.16410 0.43018-0.49568
   0   2  -1 2697.41   79.14   1 0.31053-0.30845-0.37901 0.50494-0.87173 0.80615
   0  -2   0143887.5 2018.35   1 0.59210-0.61216-0.15587 0.01192 0.79063-0.79063
   0   2   0135228.0 1899.27   1 0.69934-0.67927-0.02423 0.16809 0.71437-0.71437
   0   2   0135786.8 1910.84   1 0.69380-0.67368-0.02366 0.16755-0.71977 0.71977
   0  -2   0138311.4 1940.07   1 0.57898-0.59904-0.15408 0.01018-0.80065 0.80065
   0  -2  -1  954.12   76.81   1 0.18313-0.22140-0.48788 0.32593 0.85347-0.91910
   0   2   1 1132.20   73.85   1 0.39412-0.35590-0.33996 0.50188 0.85386-0.78831
   0   2   1 1359.90  133.93   1 0.80279-0.76460 0.14357 0.01831-0.57871 0.64424
   0  -2  -1 1056.64   99.72   1 0.72056-0.75875 0.01192-0.17381-0.69328 0.62775
   0  -2  -233508.94  592.37   1-0.14854 0.09218-0.64637 0.46650 0.74841-0.87970
   0   2   231173.06  515.48   1 0.13927-0.08303-0.51426 0.69419 0.84624-0.71498
   0   2   235537.27  642.70   1 0.84339-0.78712 0.23473-0.05485-0.48329 0.61435
   0  -2  -233256.99  587.31   1 0.76577-0.82205 0.07894-0.25882-0.63824 0.50719
   0  -2  -318978.09  443.20   1-0.35267 0.27839-0.69879 0.50110 0.62233-0.81938
   0   2   319258.55  372.17   1-0.00770 0.08212-0.58965 0.78750 0.80762-0.61081
   0   2   317766.85  399.25   1 0.86226-0.78795 0.29532-0.09754-0.41144 0.60796
   0  -2  -318202.20  399.35   1 0.78196-0.85633 0.10582-0.30370-0.61426 0.41768
   0  -2  -4 1874.97  131.96   1-0.48053 0.38807-0.70969 0.49416 0.51518-0.77794
   0   2   4 1581.91  109.58   1-0.08509 0.17764-0.62239 0.83818 0.77806-0.51565
   0   2   4 1610.98  155.91   1 0.87146-0.77908 0.34134-0.12557-0.35218 0.61420
   0   2   516807.74  556.92   1-0.12267 0.23323-0.63726 0.87089 0.76081-0.43260
   0   2   517371.79  577.39   1 0.56458-0.45444 0.70606-0.47252-0.42744 0.75511
   0   2   517906.06  640.66   1 0.87597-0.76571 0.37834-0.14463-0.29918 0.62670
   0   2   6 1331.38  165.80   1 0.62738-0.49922 0.69504-0.44355-0.35113 0.74433
   0   2   6  848.98  162.57   1 0.87636-0.74808 0.41095-0.15927-0.25118 0.64420
   0   2   7 1145.16  140.21   1 0.67610-0.52993 0.68020-0.41076-0.28319 0.74192
   0   2   7  856.62  161.99   1 0.87408-0.72777 0.44003-0.17038-0.20578 0.66431
   0   2   8   23.08   90.91   1 0.71547-0.55128 0.66282-0.37542-0.22081 0.74507
   0   2   8  263.64  194.34   1 0.86954-0.70521 0.46652-0.17891-0.16202 0.68605
   0   2   9 1793.05  214.87   1 0.74814-0.56593 0.64341-0.33806-0.16215 0.75194
   0   2   9 2418.19  342.76   1 0.86296-0.68061 0.49099-0.18541-0.11926 0.70879
   0   2  10 1553.85  305.19   1 0.77548-0.57524 0.62239-0.29898-0.10601 0.76138
   0   2  10 1852.60  236.05   1 0.85444-0.65407 0.51379-0.19024-0.07708 0.73211
   0   2  11  884.74  267.66   1 0.79884-0.58057 0.59934-0.25797-0.05135 0.77225
   0   2  11  451.16  183.01   1 0.84403-0.62572 0.53514-0.19357-0.03511 0.75564
   0   2  12  297.64  130.72   1 0.81857-0.58228 0.57439-0.21506 0.00241 0.78402
   0  -3  13 1124.59  205.76   1 0.86682-0.66275 0.44052-0.42302 0.23356 0.61790
   0  -3  13  623.86  204.82   1 0.71258-0.50794 0.64937-0.63123 0.26557 0.58611
   0  -3  12   28.39   97.22   1 0.86484-0.67877 0.45577-0.45620 0.21052 0.57544
   0  -3  12   96.97  101.13   1 0.72556-0.53883 0.64384-0.64380 0.24291 0.54330
   0  -3  11  148.75   91.62   1 0.73656-0.56790 0.63825-0.65620 0.22382 0.49687
   0  -3  10  380.30  179.06   1 0.86033-0.70990 0.47870-0.51522 0.17510 0.48018
   0  -3  10  261.37  116.65   1 0.74450-0.59391 0.63388-0.66981 0.20953 0.44565
   0  -3   9 1669.15  234.48   1 0.85872-0.72634 0.48537-0.53981 0.16429 0.42546
   0  -3   9 1577.90  180.32   1 0.74877-0.61625 0.63140-0.68533 0.20166 0.38800
   0  -3   8  381.78  162.40   1 0.85802-0.74368 0.48811-0.56047 0.15980 0.36442
   0  -3   8  151.48   79.98   1 0.74814-0.63369 0.63177-0.70370 0.20284 0.32130
   0  -3   712250.21  687.56   1 0.85863-0.76234 0.48574-0.57601 0.16369 0.29501
   0  -3   711643.65  612.22   1 0.74011-0.64374 0.63633-0.72625 0.21749 0.24113
   0  -3   631180.64  993.60   1 0.86088-0.78264 0.47627-0.58446 0.17899 0.21417
   0  -3   630809.04  930.52   1 0.71931-0.64101 0.64680-0.75471 0.25344 0.13966
   0   3  -626665.74  815.61   1 0.87637-0.95427 0.38728-0.27925-0.28631-0.10670
   0  -3   510464.31  380.41   1 0.86482-0.80479 0.45586-0.58187 0.21037 0.11711
   0  -3   510085.33  317.28   1 0.67380-0.61366 0.66367-0.78956 0.32482 0.00274
   0   3  -5 9263.39  289.04   1 0.87130-0.93117 0.45786-0.33186-0.17661-0.15090
   0  -3   4 3510.16  194.08   1 0.86845-0.82643 0.41907-0.56302 0.26487-0.00288
   0   3  -4 3027.87  164.74   1 0.82052-0.86255 0.57155-0.42764 0.00824-0.27039
   0  -3   4 3455.50  148.55   1 0.56846-0.52640 0.68351-0.82737 0.45787-0.19584
   0   3  -4 2957.82  120.45   1 0.83549-0.87735 0.54946-0.40552-0.00549-0.25651
   0  -3   3 4626.01  185.67   1 0.86626-0.84224 0.35411-0.51605 0.35240-0.15591
   0   3  -3 3712.43  153.22   1 0.85469-0.87879 0.49976-0.33782 0.14043-0.33702
   0  -3   3 4417.99  131.17   1 0.31986-0.29579 0.66486-0.82677 0.67501-0.47848
   0   3  -3 4237.70  120.09   1 0.69856-0.72258 0.65510-0.49321 0.28782-0.48436
   0  -3   2137727.7 1999.83   1 0.84130-0.83533 0.24215-0.42202 0.48328-0.35228
   0   3  -2127395.4 1852.37   1 0.86868-0.87469 0.38960-0.20977 0.30591-0.43691
   0   3  -2128716.7 1837.42   1 0.28230-0.28829 0.65653-0.47662 0.69947-0.83048
   0   3  -2129418.8 1816.44   1 0.13953-0.14555-0.48611 0.66602-0.86267 0.73159
   0  -3   157973.02  896.56   1 0.75542-0.76751 0.05971-0.25754 0.65251-0.58701
   0   3  -153329.92  823.89   1 0.83549-0.82342 0.22509-0.02728 0.50127-0.56676
   0   3  -157048.29  849.54   1 0.53783-0.52576-0.19459 0.39242-0.82028 0.75470
   0  -3   155229.71  818.37   1 0.25698-0.26914-0.41518 0.21731-0.87268 0.93826
   0  -3   0 3582.51  135.94   1 0.56142-0.59151-0.18828-0.02763 0.80582-0.80582
   0   3   0 3106.74  131.75   1 0.72285-0.69274 0.00914 0.20664 0.69093-0.69093
   0   3   0 3226.93  132.67   1 0.71881-0.68863 0.00951 0.20632-0.69513 0.69513
   0  -3   0 3489.22  125.58   1 0.54655-0.57665-0.18623-0.02961-0.81645 0.81645
   0  -3  -120216.08  370.59   1 0.27434-0.32266-0.42921 0.19527 0.86052-0.92615
   0   3   119426.57  363.54   1 0.54122-0.49302-0.20872 0.44262 0.81456-0.74900
   0   3   119035.67  399.26   1 0.79665-0.74841 0.13200 0.10182-0.58984 0.65537
   0  -3  -120077.35  403.57   1 0.66486-0.71312-0.05955-0.17427-0.74458 0.67902
   0  -3  -2 7118.33  244.35   1-0.00520-0.06111-0.58851 0.33656 0.80847-0.93967
   0   3   2 6660.24  225.89   1 0.35396-0.28758-0.37130 0.62317 0.85839-0.72728
   0   3   2 7064.02  287.24   1 0.83497-0.76864 0.21290 0.03892-0.50743 0.63848
   0  -3  -2 6770.70  248.88   1 0.71618-0.78251 0.00591-0.25774-0.69788 0.56677
   0  -3  -327381.55  802.33   1-0.22075 0.13621-0.66891 0.39910 0.70980-0.90673
   0   3   326809.73  720.91   1 0.21075-0.12610-0.47087 0.74079 0.85665-0.65978
   0   3   326933.11  773.56   1 0.85596-0.77160 0.27219-0.00248-0.43958 0.63610
   0  -3  -325394.14  717.81   1 0.73940-0.82382 0.03864-0.30846-0.67214 0.47556
   0  -3  -413258.74  476.89   1-0.37449 0.27211-0.70202 0.41439 0.60573-0.86846
   0   3   411909.89  410.54   1 0.11605-0.01357-0.52725 0.81505 0.84174-0.57921
   0   3   412489.74  490.58   1 0.86765-0.76522 0.31944-0.03175-0.38095 0.64297
   0  -3  -514084.57  726.14   1-0.48594 0.36536-0.70973 0.40431 0.51003-0.83847
   0   3   513003.12  672.81   1 0.05721 0.06337-0.55825 0.86397 0.82769-0.49953
   0   3   512692.63  696.35   1 0.87435-0.75400 0.35837-0.05271-0.32722 0.65474
   0   3   6 4087.97  396.84   1 0.56617-0.42799 0.70587-0.38250-0.42565 0.81885
   0   3   6 4134.54  291.86   1 0.87651-0.73815 0.39295-0.06933-0.27804 0.67106
   0   3   7  502.90  107.54   1 0.62961-0.47341 0.69450-0.35317-0.34820 0.80693
   0   3   7 1166.73  231.31   1 0.87567-0.71929 0.42390-0.08231-0.23128 0.68981
   0   3   8 1579.43  200.63   1 0.68027-0.50605 0.67862-0.31933-0.27694 0.80120
   0   3   8 1725.31  261.89   1 0.87232-0.69791 0.45210-0.09255-0.18614 0.71017
   0   3   9 3013.50  274.50   1 0.72169-0.52946 0.65952-0.28228-0.21019 0.79999
   0   3   9 2680.46  884.41   1 0.86672-0.67429 0.47813-0.10061-0.14204 0.73157
   0   3  10 1881.26  200.91   1 0.75609-0.54584 0.63781-0.24262-0.14666 0.80199
   0   3  10 1599.86  330.90   1 0.85903-0.64858 0.50234-0.10685-0.09857 0.75360
   0   3  11  550.31  187.49   1 0.78468-0.55640 0.61398-0.20069-0.08540 0.80631
   0   3  11 1227.59  227.08   1 0.84930-0.62083 0.52498-0.11153-0.05543 0.77596
   0  -4  13 1115.38  212.93   1 0.86876-0.67469 0.40998-0.46438 0.27777 0.57370
   0  -4  13  521.22  173.80   1 0.66275-0.46818 0.66694-0.72076 0.34050 0.51118
   0  -4  12  281.83   99.21   1 0.86829-0.69223 0.42220-0.49454 0.26038 0.52558
   0  -4  12  368.46  147.53   1 0.67321-0.49669 0.66386-0.73568 0.32567 0.46049
   0  -4  11 1690.81  330.75   1 0.86767-0.70961 0.43146-0.52174 0.24694 0.47353
   0  -4  11 1104.59  223.59   1 0.67959-0.52114 0.66183-0.75166 0.31641 0.40423
   0  -4  10 4586.38  424.56   1 0.86714-0.72708 0.43737-0.54559 0.23824 0.41673
   0  -4  10 3462.66  295.63   1 0.68095-0.54056 0.66139-0.76922 0.31442 0.34071
   0  -4   9 9822.19  416.34   1 0.86695-0.74490 0.43930-0.56545 0.23539 0.35408
   0  -4   9 9624.11  319.75   1 0.67556-0.55323 0.66313-0.78896 0.32229 0.26733
   0  -4   8 3118.25  243.52   1 0.86725-0.76320 0.43625-0.58035 0.23990 0.28408
   0  -4   8 2795.14  194.74   1 0.66021-0.55594 0.66764-0.81148 0.34404 0.18006
   0  -4   7  623.21  144.37   1 0.86802-0.78198 0.42671-0.58875 0.25386 0.20462
   0  -4   7  375.63   82.14   1 0.62867-0.54246 0.67509-0.83693 0.38602 0.07257
   0   4  -7  138.25   57.65   1 0.87612-0.96196 0.38106-0.21905-0.29529-0.16322
   0  -4   6 2599.83  261.22   1 0.86880-0.80076 0.40827-0.58825 0.28016 0.11282
   0  -4   6 2661.34  205.86   1 0.56866-0.50054 0.68350-0.86329 0.45764-0.06459
   0   4  -6 2108.28  173.00   1 0.87245-0.94027 0.45132-0.27134-0.18744-0.20557
   0  -4   5  204.44  105.39   1 0.86813-0.81810 0.37713-0.57504 0.32266 0.00482
   0  -4   5  314.37   77.51   1 0.45454-0.40442 0.68387-0.88168 0.57071-0.24306
   0   4  -5  233.99   58.06   1 0.84286-0.89265 0.53724-0.33933-0.03085-0.29666
   0  -4   4 1557.78  142.71   1 0.86249-0.83047 0.32714-0.54305 0.38611-0.12412
   0   4  -4 1744.54  128.38   1 0.84716-0.87929 0.52116-0.30523 0.10349-0.36560
   0  -4   4 2138.99  250.98   1 0.24054-0.20845 0.64587-0.86175 0.72456-0.46252
   0   4  -4 1908.35   94.46   1 0.74496-0.77707 0.63361-0.41776 0.20869-0.47077
   0  -4   3 5031.56  219.15   1 0.84373-0.82975 0.24974-0.48359 0.47511-0.27862
   0   4  -3 4507.04  192.73   1 0.86644-0.88046 0.44390-0.21010 0.22852-0.42501
   0   4  -3 5042.49  166.58   1 0.48534-0.49936 0.68541-0.45157 0.54281-0.73940
   0   4  -3 5067.89  173.83   1 0.09103-0.10506-0.51240 0.74629-0.85390 0.65727
   0  -4   2 4048.06  167.21   1 0.79644-0.80055 0.13375-0.38556 0.58973-0.45874
   0   4  -2 3932.16  181.59   1 0.86436-0.86029 0.33918-0.08739 0.37124-0.50224
   0   4  -2 3442.08  206.95   1 0.05343-0.04929 0.58154-0.32970 0.81175-0.94279
   0   4  -2 3896.84  129.46   1 0.42594-0.42173-0.29271 0.54454-0.85608 0.72498
   0  -4   112868.95  321.39   1 0.69730-0.71942-0.02702-0.24273 0.71626-0.65077
   0   4  -112022.31  281.63   1 0.82728-0.80517 0.20309 0.06663 0.52378-0.58928
   0   4  -112409.08  276.67   1 0.63459-0.61242-0.09473 0.36452-0.76701 0.70146
   0  -4   111644.39  245.20   1 0.30759-0.32984-0.38105 0.11125-0.87188 0.93745
   0  -4   0 1092.52   95.39   1 0.52927-0.56938-0.22049-0.06740 0.81929-0.81929
   0   4   0 1269.73   90.78   1 0.74488-0.70474 0.04273 0.24498 0.66582-0.66582
   0   4   0 1049.30  108.00   1 0.74236-0.70215 0.04298 0.24480-0.66861 0.66861
   0  -4   0 1268.55   95.08   1 0.51260-0.55273-0.21817-0.06962-0.83044 0.83044
   0  -4  -113638.25  408.08   1 0.30441-0.36278-0.40825 0.10233 0.86061-0.92623
   0   4   112804.79  382.77   1 0.62519-0.56696-0.11882 0.42471 0.77136-0.70581
   0   4   113964.92  444.74   1 0.79992-0.74162 0.13811 0.16766-0.58399 0.64951
   0  -4  -112097.71  379.37   1 0.61574-0.67390-0.11541-0.19040-0.77944 0.71386
   0  -4  -222340.11  621.60   1 0.07121-0.14747-0.55112 0.22709 0.83137-0.96264
   0   4   221392.61  641.03   1 0.83309-0.75670 0.20829 0.11547-0.51241 0.64347
   0  -4  -219123.25  561.47   1 0.66868-0.74508-0.05495-0.26881-0.74150 0.61039
   0  -4  -335015.53 1135.02   1-0.13129 0.03663-0.64036 0.29853 0.75676-0.95369
   0   4   335342.75 1059.10   1 0.37425-0.27971-0.35568 0.69749 0.85640-0.65974
   0   4   334430.48 1074.04   1 0.85329-0.75887 0.26341 0.07822-0.45000 0.64651
   0  -4  -448735.43 4042.24   1-0.29253 0.18013-0.68743 0.32769 0.66472-0.92745
   0   4   443999.48 2127.35   1 0.28314-0.17028-0.42316 0.78305 0.86067-0.59818
   0   4   448112.33 3983.94   1 0.86552-0.75303 0.30922 0.05039-0.39402 0.65604
   0  -4  -5 7531.51  794.64   1-0.41801 0.28741-0.70650 0.32905 0.57106-0.89950
   0   4   5 7830.06  614.82   1 0.87249-0.74194 0.34867 0.02891-0.34231 0.66983
   0  -4  -6 5887.87  534.46   1-0.51428 0.36558-0.70928 0.31397 0.48209-0.87622
   0   4   6 6907.50  651.81   1 0.87620-0.72776 0.38287 0.01268-0.29268 0.68570
   0   4   7 1514.10  194.44   1 0.58775-0.42152 0.70291-0.28969-0.40056 0.85929
   0   4   7 1657.88  246.16   1 0.87623-0.70977 0.41442-0.00088-0.24590 0.70443
   0   4   8  864.18  126.11   1 0.64829-0.46404 0.68945-0.25828-0.32305 0.84731
   0   4   8 1235.87  238.91   1 0.87365-0.68916 0.44332-0.01183-0.20047 0.72450
   0   4   9  389.30  167.39   1 0.69771-0.49545 0.67136-0.22223-0.24993 0.83972
   0   4   9 1311.37  285.34   1 0.86873-0.66622 0.47009-0.02063-0.15593 0.74546
   0   4  10  279.21   85.24   1 0.73855-0.51827 0.64967-0.18260-0.18016 0.83549
   0   4  10  297.43  173.61   1 0.86162-0.64109 0.49505-0.02762-0.11192 0.76696
   0   4  11  354.19  113.46   1 0.77249-0.53419 0.62491-0.13988-0.11284 0.83370
   0   4  11  106.00  111.55   1 0.85239-0.61384 0.51842-0.03303-0.06819 0.78873
   0  -5  13  127.62  113.65   1 0.86811-0.68403 0.37671-0.50302 0.32321 0.52826
   0  -5  12  141.53  110.17   1 0.86855-0.70249 0.38580-0.53005 0.31105 0.47492
   0  -5  12  174.91   74.71   1 0.60058-0.43416 0.67981-0.82347 0.42089 0.36521
   0  -5  11  445.96  205.97   1 0.86874-0.72067 0.39152-0.55370 0.30331 0.41716
   0  -5  11  342.57  116.79   1 0.59880-0.45044 0.68007-0.84175 0.42301 0.29758
   0  -5  10  325.42  131.47   1 0.86878-0.73872 0.39334-0.57346 0.30083 0.35414
   0  -5  10  223.22  114.32   1 0.58861-0.45831 0.68141-0.86110 0.43499 0.22009
   0  -5   9 2298.66  215.55   1 0.86871-0.75666 0.39048-0.58854 0.30473 0.28474
   0  -5   9 1987.63  214.56   1 0.56649-0.45425 0.68368-0.88140 0.46005 0.12952
   0  -5   8 3103.98  287.91   1 0.86838-0.77433 0.38177-0.59777 0.31647 0.20751
   0  -5   8 3292.07  316.26   1 0.52629-0.43211 0.68583-0.90156 0.50264 0.02142
   0  -5   7  837.27  172.47   1 0.86737-0.79126 0.36543-0.59944 0.33780 0.12067
   0  -5   7 1224.19  152.27   1 0.45784-0.38165 0.68409-0.91784 0.56780-0.10909
   0   5  -7  559.03   87.98   1 0.87505-0.95081 0.43127-0.19732-0.21974-0.23878
   0  -5   6  324.04  116.48   1 0.86436-0.80629 0.33916-0.59111 0.37127 0.02171
   0  -5   6   50.09   31.74   1 0.34207-0.28388 0.66919-0.92104 0.65966-0.26661
   0   5  -6  114.36   44.45   1 0.85466-0.91240 0.51328-0.26137-0.07804-0.31497
   0  -5   5 3849.32  302.10   1 0.85705-0.81703 0.29933-0.56923 0.41934-0.09185
   0  -5   5 4284.91  324.64   1 0.15548-0.11544 0.62005-0.88985 0.76899-0.44139
   0   5  -5 4073.12  277.81   1 0.78702-0.82716 0.60433-0.33451 0.12395-0.45154
   0  -5   413387.02  495.49   1 0.84097-0.81899 0.24112-0.52895 0.48437-0.22238
   0   5  -412382.59  387.55   1 0.61553-0.63749 0.67754-0.38973 0.40255-0.66461
   0   5  -413028.50  412.17   1 0.10025-0.12230-0.50754 0.79541-0.85577 0.59359
   0  -5   362943.14 1622.56   1 0.80833-0.80446 0.15850-0.46428 0.56698-0.37050
   0   5  -355623.72 1385.38   1 0.30246-0.30642 0.66116-0.35530 0.68656-0.88309
   0   5  -364335.16 1593.47   1 0.36930-0.37314-0.33635 0.64221-0.86630 0.66957
   0  -5   2  191.51   86.48   1 0.74743-0.76158 0.04678-0.37052 0.66268-0.53169
   0   5  -2  281.07   81.17   1 0.86009-0.84598 0.31390 0.00979 0.40211-0.53311
   0   5  -2  210.89   78.60   1 0.57089-0.55678-0.16225 0.48596-0.80482 0.67366
   0  -5   1 1436.09  124.45   1 0.64505-0.67720-0.09398-0.24770 0.75833-0.69284
   0   5  -1 1501.44  117.57   1 0.82667-0.79452 0.20153 0.14010 0.52535-0.59085
   0   5  -1 1575.25  128.58   1 0.69283-0.66061-0.02490 0.36663-0.72066 0.65510
   0  -5   1 1359.59   96.03   1 0.31521-0.34753-0.37572 0.03398-0.87147 0.93705
   0  -5   023861.93  673.26   1 0.49561-0.54576-0.25249-0.10738 0.83103-0.83103
   0   5   022040.34  617.61   1 0.76543-0.71526 0.07652 0.28312 0.63894-0.63894
   0   5   023690.60  672.43   1 0.76430-0.71404 0.07659 0.28314-0.64029 0.64029
   0  -5   021510.39  600.94   1 0.47676-0.52705-0.25001-0.10968-0.84272 0.84272
   0  -5  -1 5689.17  394.92   1 0.30762-0.37604-0.40597 0.02807 0.86055-0.92617
   0   5   1 5587.99  378.98   1 0.68082-0.61262-0.04905 0.42666 0.73079-0.66531
   0   5   1 6096.17  443.46   1 0.80779-0.73944 0.15330 0.22442-0.56917 0.63470
   0  -5  -1 4827.53  346.55   1 0.56947-0.63766-0.16367-0.21408-0.80554 0.73996
   0  -5  -213272.91  460.12   1 0.10866-0.19493-0.53129 0.13521 0.84018-0.97145
   0   5   211632.27  407.04   1 0.58663-0.50025-0.16179 0.55762 0.79352-0.66241
   0   5   214625.03  553.40   1 0.83547-0.74903 0.21412 0.18159-0.50609 0.63715
   0  -5  -314900.78  766.29   1-0.07682-0.02766-0.61912 0.20518 0.78152-0.97833
   0   5   313624.61  701.31   1 0.49486-0.39037-0.25318 0.66700 0.83126-0.63460
   0   5   314157.00  762.80   1 0.85358-0.74911 0.26434 0.14921-0.44889 0.64541
   0  -5  -4 1987.50  264.66   1-0.23509 0.11225-0.67286 0.24109 0.70141-0.96398
   0   5   4 1647.49  229.88   1 0.86515-0.74261 0.30756 0.12397-0.39612 0.65814
   0  -5  -5 1657.62  223.14   1-0.36471 0.22421-0.70064 0.25096 0.61325-0.94167
   0   5   5 1676.04  216.61   1 0.87208-0.73148 0.34566 0.10384-0.34637 0.67390
   0  -5  -6  210.00   75.60   1-0.47044 0.31171-0.70951 0.24217 0.52466-0.91879
   0   5   6  593.26  214.47   1 0.87602-0.71750 0.37923 0.08826-0.29791 0.69093
   0   5   7 1792.26  216.78   1 0.55278-0.37653 0.70729-0.22218-0.44063 0.89936
   0   5   7 2157.58  304.95   1 0.87638-0.69984 0.41052 0.07494-0.25183 0.71035
   0   5   8 1109.07  223.59   1 0.62128-0.42701 0.69648-0.19342-0.35905 0.88331
   0   5   8 1098.73  285.82   1 0.87415-0.67959 0.43942 0.06401-0.20676 0.73078
   0   5   9  419.39  151.63   1 0.67754-0.46525 0.67966-0.15865-0.28104 0.87084
   0   5   9  606.01  235.71   1 0.86958-0.65699 0.46633 0.05506-0.16234 0.75187
   0   5  10  157.86   99.46   1 0.72409-0.49379 0.65820-0.11923-0.20604 0.86136
   0   5  10  603.73  158.06   1 0.86278-0.63218 0.49152 0.04784-0.11830 0.77334
   0  -6  13  185.97  123.35   1 0.86461-0.69027 0.34094-0.53925 0.36905 0.48242
   0  -6  12   72.64  109.07   1 0.86540-0.70910 0.34686-0.56310 0.36161 0.42435
   0  -6  11 1359.34  284.31   1 0.86566-0.72741 0.34901-0.58319 0.35889 0.36158
   0  -6  11  734.69  156.38   1 0.48828-0.34991 0.68550-0.91917 0.54006 0.18076
   0  -6  10  188.30  124.91   1 0.86539-0.74518 0.34679-0.59890 0.36170 0.29326
   0  -6  10  261.59  100.37   1 0.46071-0.34040 0.68427-0.93595 0.56525 0.09004
   0  -6   9  337.90  156.29   1 0.86438-0.76222 0.33930-0.60936 0.37109 0.21838
   0  -6   9  178.07   87.06   1 0.41440-0.31214 0.68022-0.94991 0.60462-0.01485
   0  -6   8 6984.76  332.20   1 0.86219-0.77807 0.32535-0.61334 0.38829 0.13568
   0  -6   8 6483.70  268.50   1 0.34101-0.25671 0.66899-0.95682 0.66041-0.13634
   0  -6   7 1121.40  167.90   1 0.85790-0.79183 0.30323-0.60916 0.41477 0.04370
   0  -6   7 1379.86  222.27   1 0.22824-0.16203 0.64245-0.94827 0.73154-0.27297
   0   6  -7  992.64   90.92   1 0.86650-0.93218 0.47895-0.17306-0.14060-0.31792
   0  -6   6 3738.86  379.15   1 0.84990-0.80187 0.27069-0.59456 0.45209-0.05910
   0  -6   6 3896.71  416.89   1 0.06459-0.01655 0.58613-0.90989 0.80763-0.41451
   0   6  -6 3464.82  310.71   1 0.82201-0.86968 0.56834-0.24452 0.03576-0.42877
   0  -6   518529.74  974.32   1 0.83538-0.80539 0.22477-0.56658 0.50160-0.17411
   0   6  -516710.44  820.48   1 0.70950-0.73947 0.65069-0.30891 0.27054-0.59811
   0   6  -520011.42  979.84   1 0.14069-0.17076-0.48546 0.82732-0.86285 0.53513
   0  -6   463730.04 5250.87   1 0.80985-0.79800 0.16182-0.52157 0.56386-0.30189
   0   6  -454348.50 4455.82   1 0.48804-0.50003 0.68549-0.32573 0.54029-0.80240
   0   6  -465141.66 5339.05   1 0.35768-0.36952-0.34503 0.70489-0.86775 0.60545
   0  -6   361929.27 1827.91   1 0.76679-0.77295 0.07884-0.45655 0.63703-0.44055
   0   6  -352280.03 1500.51   1 0.18476-0.17856 0.62966-0.25189 0.75457-0.95113
   0   6  -361935.94 1766.37   1 0.53602-0.52990-0.19632 0.57396-0.82106 0.62431
   0  -6   267911.03 1989.57   1 0.69805-0.72221-0.02599-0.36966 0.71557-0.58459
   0   6  -266733.46 1913.64   1 0.65727-0.63307-0.06858 0.46427-0.75052 0.61941
   0  -6   265045.72 1856.82   1 0.09668-0.12073-0.50943 0.11371-0.85506 0.98615
   0  -6   1 1312.10  149.42   1 0.59732-0.63938-0.15018-0.26369 0.78781-0.72225
   0   6  -1 1833.99  201.52   1 0.73472-0.69249 0.03185 0.38183-0.67761 0.61208
   0  -6   1 1312.70  125.50   1 0.30393-0.34633-0.38360-0.03007-0.87205 0.93762
   0  -6   0 2216.31  191.72   1 0.46025-0.52058-0.28443-0.14742 0.84098-0.84098
   0   6   0 1497.60  148.38   1 0.78444-0.72423 0.11053 0.32103 0.61026-0.61026
   0   6   0 2139.71  218.01   1 0.78462-0.72431 0.11042 0.32125-0.61005 0.61005
   0  -6   0 2046.28  177.74   1 0.43964-0.49998-0.28149-0.15013-0.85292 0.85292
   0  -6  -1  768.50   97.74   1 0.29652-0.37499-0.41383-0.03604 0.86070-0.92632
   0   6   1  509.75   74.04   1 0.72335-0.64512 0.00988 0.43965 0.69040-0.62491
   0   6   1  993.58  128.85   1 0.81781-0.73941 0.17380 0.27587-0.54860 0.61413
   0  -6  -2 3295.85  254.03   1 0.12218-0.21845-0.52386 0.05573 0.84299-0.97425
   0   6   2 4633.05  376.26   1 0.84040-0.74391 0.22671 0.24095-0.49226 0.62332
   0  -6  -3 5859.09  446.37   1-0.04663-0.06787-0.60671 0.12073 0.79355-0.99036
   0   6   3 5468.39  464.16   1 0.85593-0.74141 0.27209 0.21338-0.43970 0.63621
   0  -6  -414225.31 1217.26   1-0.19794 0.06499-0.66226 0.15847 0.72265-0.98522
   0   6   415760.75 1358.20   1 0.86618-0.73359 0.31229 0.19117-0.39012 0.65214
   0  -6  -5  726.93  199.75   1-0.32777 0.17725-0.69452 0.17273 0.64047-0.96888
   0   6   5  927.14  193.18   1 0.87246-0.72180 0.34846 0.17297-0.34260 0.67012
   0  -6  -6 1115.55  241.44   1-0.43777 0.26902-0.70802 0.16866 0.55412-0.94824
   0   6   6 1223.55  239.06   1 0.87611-0.70751 0.38082 0.15862-0.29564 0.68866
   0   6   7 1808.66  356.98   1 0.87635-0.68973 0.41131 0.14610-0.25064 0.70916
   0   6   8  720.60  216.58   1 0.60040-0.39611 0.70076-0.12581-0.38527 0.90954
   0   6   8  571.03  206.49   1 0.87412-0.66948 0.43971 0.13566-0.20630 0.73033
   0   6   9  308.67   95.71   1 0.66219-0.43988 0.68511-0.09220-0.30351 0.89330
   0   6   9  189.16  185.33   1 0.86958-0.64692 0.46632 0.12702-0.16236 0.75190
   0  -7  13 1293.59  216.36   1 0.85785-0.69355 0.30297-0.57319 0.41508 0.43638
   0  -7  12 2101.16  299.50   1 0.85844-0.71219 0.30577-0.59393 0.41178 0.37419
   0  -7  11 4570.73  356.34   1 0.85817-0.72996 0.30448-0.61057 0.41331 0.30716
   0  -7  1011925.04  716.98   1 0.85684-0.74668 0.29842-0.62245 0.42042 0.23455
   0  -7   9  374.82  181.11   1 0.85408-0.76196 0.28670-0.62867 0.43397 0.15550
   0  -7   9   41.80   48.01   1 0.21676-0.12455 0.63939-0.98111 0.73768-0.14800
   0  -7   8  235.18  194.95   1 0.84919-0.77511 0.26813-0.62804 0.45494 0.06903
   0  -7   8   26.23   37.99   1 0.10976-0.03563 0.60375-0.96347 0.78957-0.26541
   0  -7   7  481.41  150.63   1 0.84098-0.78495 0.24117-0.61901 0.48433-0.02584
   0  -7   7  610.49   86.11   1-0.03369 0.08974 0.54263-0.92035 0.83929-0.38065
   0   7  -7  275.34   55.07   1 0.85077-0.90637 0.52193-0.14410-0.06138-0.39713
   0  -7   6 3351.83  350.78   1 0.82760-0.78960 0.20389-0.59968 0.52297-0.12998
   0   7  -6 2676.98  148.58   1 0.77876-0.81688 0.61103-0.21529 0.14199-0.53511
   0   7  -6 3563.76  318.91   1 0.20161-0.23969-0.44987 0.84571-0.87003 0.47677
   0  -7   515827.97 1129.63   1 0.80618-0.78635 0.15388-0.56761 0.57129-0.24383
   0   7  -514049.96  960.36   1 0.62580-0.64572 0.67566-0.26191 0.38967-0.71724
   0   7  -515763.62 1077.81   1 0.37763-0.39747-0.33003 0.74388-0.86513 0.53725
   0  -7   431744.43 2177.83   1 0.77275-0.77094 0.08925-0.52094 0.62839-0.36642
   0   7  -426788.92 1808.71   1 0.38817-0.39013 0.67690-0.24517 0.62539-0.88751
   0   7  -428759.87 1943.15   1 0.52887-0.53075-0.20307 0.63464-0.82404 0.56171
   0  -7   311279.98  621.28   1 0.72220-0.73838 0.00820-0.45782 0.69162-0.49516
   0   7  -3 9399.51  502.66   1 0.11898-0.10270 0.60717-0.15744 0.78561-0.98217
   0   7  -310815.04  557.51   1 0.63983-0.62364-0.08879 0.53844-0.76336 0.56669
   0  -7   210057.15  567.30   1 0.64899-0.68318-0.08921-0.37837 0.75554-0.62457
   0   7  -2 9670.65  516.01   1 0.71564-0.68137 0.00518 0.46244-0.69844 0.56733
   0  -7   2 9149.07  485.10   1 0.11071-0.14478-0.50195 0.03429-0.85778 0.98886
   0  -7   1 1842.16  191.18   1 0.55019-0.60228-0.19973-0.28612 0.81079-0.74524
   0   7  -1 1602.93  162.72   1 0.76744-0.71516 0.08163 0.40400-0.63589 0.57037
   0  -7   1 1646.06  148.68   1 0.28225-0.33473-0.39842-0.08719-0.87269 0.93826
   0  -7   0  303.20  114.77   1 0.42343-0.49381-0.31598-0.18785 0.84903-0.84903
   0   7   0  250.84  127.78   1 0.80327-0.73291 0.14449 0.35913-0.57781 0.57781
   0  -7  -1  511.02  107.17   1 0.27657-0.36509-0.42768-0.09417 0.86057-0.92619
   0   7   1  706.85  151.79   1 0.82862-0.74016 0.19770 0.32391-0.52373 0.58926
   0  -7  -220772.85 1729.81   1 0.12029-0.22656-0.52491-0.01527 0.84261-0.97387
   0   7   221165.93 1784.45   1 0.84679-0.74028 0.24376 0.29566-0.47277 0.60378
   0  -7  -3 3446.26  198.11   1-0.03435-0.09018-0.60145 0.04345 0.79816-0.99497
   0   7   3 4037.76  284.91   1 0.85952-0.73495 0.28479 0.27261-0.42439 0.62090
   0  -7  -4 6791.03  537.80   1-0.17756 0.03450-0.65595 0.08015 0.73361-0.99618
   0   7   4 7532.17  532.49   1 0.86813-0.72548 0.32186 0.25352-0.37781 0.63983
   0  -7  -510869.32 1061.00   1-0.30484 0.14429-0.69004 0.09614 0.65643-0.98485
   0   7   512828.52  931.79   1 0.87400-0.71334 0.35522 0.23820-0.33156 0.65908
   0  -7  -6  386.90  168.16   1-0.41614 0.23738-0.70633 0.09494 0.57263-0.96676
   0   7   6  435.66  182.47   1 0.87635-0.69767 0.38665 0.22473-0.28722 0.68024
   0  -7  -7  217.79   89.45   1-0.50988 0.31301-0.70943 0.08017 0.48654-0.94635
   0   7   7  508.50  240.11   1 0.87615-0.67946 0.41600 0.21335-0.24348 0.70200
   0   7   8  115.89  125.09   1 0.87361-0.65889 0.44357 0.20375-0.20008 0.72411
   0   7   9  214.08  136.53   1 0.86885-0.63611 0.46957 0.19571-0.15682 0.74636
   0  -8  12  713.60  275.82   1 0.84769-0.71147 0.26286-0.62294 0.46078 0.32518
   0  -8  11 1274.11  210.26   1 0.84634-0.72817 0.25830-0.63631 0.46580 0.25467
   0  -8  10 6104.18  425.25   1 0.84340-0.74328 0.24871-0.64466 0.47623 0.17873
   0  -8   910847.71  664.11   1 0.83832-0.75624 0.23321-0.64710 0.49276 0.09671
   0  -8   8  588.80  191.38   1 0.83022-0.76618 0.21073-0.64256 0.51604 0.00793
   0   8  -8  420.92   81.50   1 0.13694-0.20108-0.48757 0.91944-0.86227 0.33792
   0  -8   7 3081.14  356.25   1 0.81779-0.77197 0.17975-0.62949 0.54671-0.08826
   0   8  -7 2672.24  236.70   1 0.27919-0.32510-0.40048 0.85038-0.87273 0.41370
   0  -8   6 5586.14  313.69   1 0.79911-0.77130 0.13914-0.60684 0.58485-0.19189
   0   8  -6 5782.84  202.15   1 0.42249-0.45009-0.29550 0.76325-0.85683 0.46353
   0  -8   5 5956.99  572.24   1 0.77155-0.76175 0.08713-0.57279 0.63017-0.30270
   0   8  -5 4710.14  408.68   1 0.55310-0.56294 0.68467-0.19896 0.47464-0.80219
   0   8  -5 5533.17  475.79   1 0.54577-0.55564-0.18698 0.67248-0.81680 0.48889
   0  -8   4 1197.46  151.89   1 0.73173-0.73995 0.02240-0.52601 0.68122-0.41925
   0   8  -4  669.02  124.69   1 0.32192-0.31378 0.66528-0.16152 0.67361-0.93565
   0   8  -4 1188.26  109.30   1 0.64119-0.63301-0.08725 0.59085-0.76240 0.50018
   0  -8   3  915.52  149.78   1 0.67583-0.70204-0.05555-0.46600 0.73495-0.53849
   0   8  -3  493.56  113.98   1 0.08718-0.06083 0.59513-0.07344 0.79888-0.99544
   0   8  -3  969.19  113.10   1 0.70971-0.68346-0.00281 0.52440-0.70448 0.50781
   0  -8   2  699.47  154.18   1 0.60126-0.64527-0.14585-0.39400 0.78562-0.65451
   0   8  -2  526.23   92.39   1 0.75884-0.71460 0.06798 0.47160-0.64770 0.51665
   0  -8   1  636.76  115.34   1 0.50369-0.56581-0.24496-0.31286 0.82842-0.76286
   0   8  -1  502.26  116.06   1 0.79421-0.73188 0.12752 0.43006-0.59410 0.52857
   0  -8   0 1690.07  166.05   1 0.38492-0.46535-0.34729-0.22852 0.85511-0.85511
   0   8   0 1676.55  194.07   1 0.82016-0.73974 0.17881 0.39676-0.54347 0.54347
   0  -8  -1 1633.96  197.70   1 0.25044-0.34901-0.44529-0.14855 0.85964-0.92526
   0   8   1 1464.28  200.73   1 0.83934-0.74084 0.22396 0.36960-0.49531 0.56083
   0  -8  -2   45.50   65.14   1 0.10775-0.22403-0.53179-0.08044 0.83999-0.97125
   0   8   2  142.81  113.61   1 0.85357-0.73700 0.26429 0.34706-0.44896 0.57997
   0  -8  -3  282.10  101.57   1-0.03522-0.09933-0.60183-0.02820 0.79784-0.99465
   0   8   3  368.58  196.90   1 0.86368-0.72905 0.30118 0.32814-0.40414 0.60066
   0  -8  -4 6113.43  573.18   1-0.17058 0.01741-0.65371 0.00589 0.73726-0.99983
   0   8   4 6315.43  562.15   1 0.87050-0.71781 0.33521 0.31210-0.36034 0.62236
   0  -8  -5  483.30  163.04   1-0.29408 0.12352-0.68777 0.02176 0.66368-0.99210
   0   8   5  766.08  203.43   1 0.87511-0.70438 0.36629 0.29907-0.31622 0.64373
   0  -8  -6 1261.22  274.18   1-0.40395 0.21531-0.70558 0.02175 0.58220-0.97630
   0   8   6 1991.64  277.45   1 0.87655-0.68780 0.39598 0.28735-0.27358 0.66660
   0   8   7  732.89  264.16   1 0.87567-0.66889 0.42398 0.27731-0.23116 0.68969
   0   8   8  451.06  155.86   1 0.87258-0.64779 0.45049 0.26877-0.18880 0.71283
   0  -9  12  167.41  133.90   1 0.83310-0.70692 0.21845-0.65044 0.50815 0.27781
   0  -9  11  720.03  265.59   1 0.83028-0.72214 0.21087-0.66080 0.51591 0.20456
   0  -9  10 1475.56  232.14   1 0.82531-0.73547 0.19791-0.66571 0.52885 0.12606
   0  -9   9 7606.12  516.30   1 0.81753-0.74572 0.17916-0.66492 0.54729 0.04214
   0  -9   8 2362.55  439.49   1 0.80600-0.75219 0.15348-0.65720 0.57166-0.04772
   0  -9   7  581.17  224.65   1 0.78933-0.75355 0.11981-0.64148 0.60215-0.14370
   0   9  -7  141.94   44.93   1 0.48653-0.52207-0.24145 0.76317-0.83963 0.38077
   0  -9   6  348.41  143.09   1 0.76572-0.74795 0.07701-0.61664 0.63853-0.24558
   0   9  -6  221.73   69.91   1 0.58355-0.60142-0.14939 0.68883-0.79821 0.40471
   0  -9   5   84.43  102.70   1 0.73283-0.73307 0.02407-0.58165 0.67998-0.35251
   0   9  -5  184.85   75.73   1 0.66043-0.66027-0.06485 0.62240-0.74808 0.42030
   0  -9   4  873.13  157.13   1 0.68797-0.70619-0.03961-0.53590 0.72465-0.46270
   0   9  -4  745.90  160.12   1 0.71751-0.69927 0.00772 0.56781-0.69650 0.43428
   0  -9   3 2064.26  249.88   1 0.62931-0.66522-0.11405-0.47979 0.76873-0.57207
   0   9  -3 1680.22  194.08   1 0.76022-0.72401 0.07013 0.52340-0.64586 0.44927
   0  -9   2 8067.15  326.22   1 0.55232-0.60635-0.19757-0.41425 0.80987-0.67876
   0   9  -2 6555.33  257.36   1 0.79217-0.73787 0.12381 0.48772-0.59760 0.46654
   0  -9   1 9483.46  601.83   1 0.45691-0.52928-0.28737-0.34245 0.84181-0.77626
   0   9  -1 9912.93  624.47   1 0.81651-0.74412 0.17105 0.45847-0.55140 0.48587
   0  -9   0 8122.21  529.75   1 0.34462-0.43511-0.37835-0.26944 0.85911-0.85911
   0   9   0 8415.45  557.28   1 0.83517-0.74470 0.21339 0.43413-0.50689 0.50689
   0  -9  -1 8471.45  601.25   1 0.21953-0.32815-0.46532-0.20049 0.85747-0.92310
   0   9   1 9082.92  652.43   1 0.84953-0.74098 0.25177 0.41353-0.46358 0.52908
   0  -9  -2  324.84   97.03   1 0.08730-0.21359-0.54273-0.14154 0.83535-0.96661
   0   9   2  311.42  113.02   1 0.86020-0.73358 0.28731 0.39596-0.42131 0.55232
   0  -9  -3  855.21  189.47   1-0.04615-0.09842-0.60650-0.09555 0.79373-0.99054
   0   9   3  200.63  129.31   1 0.86785-0.72317 0.32043 0.38082-0.37967 0.57618
   0  -9  -4  250.33  110.04   1-0.17442 0.01114-0.65495-0.06488 0.73526-0.99783
   0   9   4   47.68  103.54   1 0.87286-0.71011 0.35153 0.36770-0.33842 0.60044
   0   9   5  613.73  233.09   1 0.87608-0.69527 0.38035 0.35695-0.29631 0.62383
   0   9   6 2528.01  345.68   1 0.87645-0.67761 0.40820 0.34706-0.25534 0.64836
   0 -10  11  908.76  204.59   1 0.81008-0.71227 0.16232-0.68410 0.56338 0.15703
   0 -10  10  523.16  195.39   1 0.80281-0.72301 0.14678-0.68651 0.57787 0.07705
   0 -10   9  512.69  211.91   1 0.79216-0.73038 0.12529-0.68299 0.59730-0.00786
   0 -10   8  759.79  196.79   1 0.77714-0.73337 0.09710-0.67274 0.62179-0.09784
   0 -10   7 1678.25  330.37   1 0.75641-0.73066 0.06135-0.65495 0.65120-0.19275
   0 -10   6  567.83  207.43   1 0.72837-0.72058 0.01734-0.62886 0.68495-0.29202
   0 -10   5 1194.89  339.83   1 0.69094-0.70117-0.03564-0.59384 0.72203-0.39459
   0  10  -5 1468.67  164.31   1 0.73913-0.72904 0.03824 0.59125-0.67247 0.34482
   0 -10   4 3366.19  349.00   1 0.64198-0.67024-0.09767-0.54977 0.76046-0.49851
   0  10  -4 3221.66  764.06   1 0.77199-0.74381 0.08904 0.55845-0.62936 0.36725
   0 -10   3 1660.41  238.33   1 0.58054-0.62648-0.16830-0.49752 0.79664-0.59998
   0  10  -3 1476.08  181.31   1 0.79790-0.75164 0.13433 0.53115-0.58761 0.39103
   0 -10   2 8843.05  642.58   1 0.50290-0.56697-0.24569-0.43810 0.82868-0.69757
   0  10  -2 8098.54  572.17   1 0.81856-0.75421 0.17538 0.50810-0.54699 0.41593
   0 -10   113313.71  913.09   1 0.40964-0.49207-0.32738-0.37441 0.85147-0.78592
   0  10  -111865.41  822.77   1 0.83506-0.75263 0.21312 0.48835-0.50718 0.44165
   0 -10   014281.10  778.13   1 0.30304-0.40354-0.40923-0.31057 0.86063-0.86063
   0  10   014093.95  764.60   1 0.84828-0.74775 0.24808 0.47116-0.46783 0.46783
   0 -10  -1 6642.65  427.90   1 0.18462-0.30329-0.48698-0.25081 0.85367-0.91929
   0  10   1 5633.63  393.22   1 0.85850-0.73990 0.28106 0.45616-0.42891 0.49442
   0 -10  -2 3003.51  233.19   1 0.06057-0.19686-0.55655-0.19977 0.82859-0.95986
   0  10   2 2734.47  255.39   1 0.86618-0.72951 0.31226 0.44294-0.39015 0.52116
   0 -10  -3 2814.42  246.91   1-0.06514-0.08946-0.61440-0.15968 0.78629-0.98310
   0  10   3 2257.85  244.57   1 0.87155-0.71681 0.34193 0.43124-0.35138 0.54790
   0  10   4 2089.40  287.30   1 0.87540-0.70253 0.36976 0.42152-0.31136 0.57337
   0  10   5  460.94  129.27   1 0.87656-0.68567 0.39685 0.41239-0.27229 0.59981
   0 -11  10  342.49  153.43   1 0.77619-0.70643 0.09540-0.70706 0.62322 0.03169
   0 -11   9  360.93  162.11   1 0.76259-0.71085 0.07168-0.70130 0.64288-0.05345
   0 -11   8 3577.29  316.38   1 0.74414-0.71041 0.04156-0.68914 0.66671-0.14277
   0 -11   7 8583.88  378.64   1 0.71967-0.70389 0.00449-0.66999 0.69429-0.23588
   0 -11   610117.20  857.22   1 0.68758-0.68982-0.04013-0.64332 0.72499-0.33206
   0 -11   5 3744.88  316.82   1 0.64628-0.66654-0.09250-0.60892 0.75746-0.43003
   0 -11   4 2829.67  275.71   1 0.59515-0.63301-0.15255-0.56727 0.78899-0.52677
   0 -11   3  -14.78   83.15   1 0.53056-0.58654-0.21923-0.51857 0.81880-0.62213
   0  11  -3  221.88  113.88   1 0.82657-0.77025 0.19300 0.54443-0.52870 0.33211
   0 -11   2  180.04  129.52   1 0.45246-0.52683-0.29124-0.46456 0.84288-0.71177
   0  11  -2   38.12   68.05   1 0.83943-0.76503 0.22418 0.53124-0.49506 0.36400
   0 -11   1 1836.54  193.48   1 0.36129-0.45377-0.36570-0.40807 0.85774-0.79218
   0  11  -1 1472.60  296.43   1 0.85031-0.75779 0.25412 0.51907-0.46086 0.39535
   0 -11   0 1534.81  206.15   1 0.25877-0.36932-0.43974-0.35204 0.86003-0.86003
   0  11   0 1273.01  166.26   1 0.85910-0.74851 0.28323 0.50794-0.42628 0.42628
   0 -11  -1  960.25  273.45   1 0.14690-0.27508-0.50990-0.30057 0.84759-0.91322
   0  11   1  981.60  285.60   1 0.86600-0.73734 0.31143 0.49772-0.39121 0.45671
   0 -11  -2  128.20   88.54   1 0.02914-0.17564-0.57242-0.25577 0.81944-0.95064
   0  11   2  -60.87   92.00   1 0.87107-0.72435 0.33876 0.48836-0.35562 0.48663
   0  11   3  148.80  103.58   1 0.87498-0.71006 0.36483 0.48042-0.31826 0.51477
   0  11   4  591.65  141.37   1 0.87646-0.69352 0.39049 0.47273-0.28163 0.54364
   0 -12   9  537.35  185.08   1 0.72914-0.68742 0.01850-0.72005 0.68411-0.09467
   0 -12   8  712.36  197.95   1 0.70747-0.68369-0.01294-0.70651 0.70662-0.18272
   0 -12   7 1477.15  241.63   1 0.67942-0.67367-0.05089-0.68653 0.73198-0.27356
   0 -12   6 2342.91  329.56   1 0.64377-0.65605-0.09552-0.65986 0.75922-0.36630
   0 -12   5 1179.46  197.07   1 0.60024-0.63001-0.14698-0.62684 0.78619-0.45842
   0 -12   4 2338.26  263.87   1 0.54538-0.59327-0.20456-0.58723 0.81283-0.55061
   0 -12   3 2823.51  263.00   1 0.47921-0.54521-0.26750-0.54227 0.83594-0.63927
   0 -12   2 1335.58  211.12   1 0.40102-0.48544-0.33440-0.49338 0.85285-0.72174
   0 -12   1 1703.59  263.84   1 0.31220-0.41463-0.40269-0.44309 0.86044-0.79482
   0  12  -1 1515.92  220.27   1 0.86211-0.75954 0.29474 0.55038-0.41216 0.34666
   0 -12   0  842.05  259.26   1 0.21224-0.33284-0.46993-0.39383 0.85680-0.85680
   0  12   0  809.54  261.65   1 0.86751-0.74687 0.31872 0.54437-0.38187 0.38187
   0  12   1  969.01  166.08   1 0.87166-0.73295 0.34271 0.53836-0.35034 0.41585
   0  12   2  738.76  188.13   1 0.87510-0.71812 0.36618 0.53305-0.31637 0.44738
   0 -13   6 2848.77  281.21   1 0.59820-0.61989-0.14922-0.67860 0.78732-0.39399
   0 -13   5  158.40  130.00   1 0.55076-0.59057-0.19915-0.64664 0.81055-0.48277
   0 -13   4 1269.48  219.84   1 0.49368-0.55160-0.25427-0.60950 0.83163-0.56941
   0 -13   3 1594.42  203.95   1 0.42605-0.50242-0.31379-0.56800 0.84853-0.65187
   0 -13   2 1220.90  176.42   1 0.34803-0.44251-0.37579-0.52397 0.85886-0.72776
   1 -13   3  221.90  101.13   1 0.49652-0.44822-0.25164-0.63010 0.83074-0.63407
   1 -13   4 1141.77  189.11   1 0.56310-0.49669-0.18655-0.67722 0.80505-0.54283
   1 -13   5 1127.26  169.08   1 0.61711-0.53259-0.12809-0.71770 0.77637-0.44859
   1 -13   6  269.21  122.46   1 0.65913-0.55720-0.07673-0.75058 0.74809-0.35517
  -1  12   2  440.48  155.22   1 0.87191-0.83913 0.45452 0.44471-0.18216 0.31316
   1 -12   1 2020.72  259.55   1 0.38206-0.36028-0.34955-0.49620 0.85547-0.78992
   1 -12   2  319.09   90.95   1 0.47693-0.43672-0.26956-0.55819 0.83658-0.70547
   1 -12   3  218.19  119.75   1 0.55535-0.49702-0.19450-0.61527 0.80855-0.61188
   1 -12   4 1364.89  183.56   1 0.61854-0.54209-0.12647-0.66533 0.77550-0.51328
   1 -12   5 4809.29  542.24   1 0.66725-0.57330-0.06654-0.70681 0.74185-0.41441
   1 -12   6 2471.92  329.71   1 0.70587-0.59389-0.01518-0.74020 0.70817-0.31525
   1 -12   7 1133.08  186.29   1 0.73531-0.60536 0.02784-0.76530 0.67715-0.21870
   1 -12   8  755.03  188.51   1 0.75752-0.60956 0.06318-0.78269 0.64974-0.12580
  -1  11   4  302.24  155.11   1 0.86999-0.81125 0.46443 0.39879-0.16557 0.42758
  -1  11   3  260.65   92.67   1 0.87283-0.83212 0.44890 0.39635-0.19140 0.38791
  -1  11   2 1137.34  195.54   1 0.87473-0.85204 0.43435 0.39293-0.21485 0.34586
  -1  11   1  476.74  165.06   1 0.87585-0.87118 0.42131 0.38801-0.23530 0.30080
   1 -11   0  552.10  138.07   1 0.32853-0.31480-0.39029-0.40144 0.86007-0.86007
  -1  11   0  545.47  146.66   1 0.87638-0.88972 0.41057 0.38078-0.25175 0.25175
   1 -11   1 1048.17  219.08   1 0.44170-0.40987-0.30053-0.47324 0.84532-0.77977
  -1  11  -1 1175.57  230.16   1 0.87654-0.90791 0.40342 0.36997-0.26252 0.19701
   1 -11   2  194.32  107.48   1 0.53626-0.48602-0.21363-0.54215 0.81656-0.68545
   1 -11   3  391.34  182.64   1 0.61206-0.54370-0.13381-0.60398 0.77940-0.58274
   1 -11   4  497.01  163.88   1 0.66995-0.58399-0.06311-0.65627 0.73971-0.47776
   1 -11   5  323.33  178.96   1 0.71487-0.61088-0.00244-0.69897 0.69925-0.37181
   1 -11   6 2979.21  274.90   1 0.74837-0.62640 0.04827-0.73176 0.66151-0.26856
   1 -11   7 2684.24  264.22   1 0.77304-0.63306 0.08977-0.75530 0.62796-0.16951
   1 -11   8 4557.22  523.64   1 0.79094-0.63295 0.12292-0.77050 0.59940-0.07546
   1 -11   9 3065.17  345.95   1 0.80373-0.62772 0.14870-0.77832 0.57610 0.01333
   1 -11  10 1691.97  257.32   1 0.81265-0.61862 0.16801-0.77968 0.55799 0.09693
  -1  10   6  533.37  162.07   1 0.86488-0.78017 0.48472 0.34249-0.13044 0.52346
  -1  10   5   92.23  104.69   1 0.86940-0.80272 0.46715 0.34209-0.16095 0.48847
  -1  10   4  238.61  104.40   1 0.87270-0.82404 0.44976 0.34152-0.18999 0.45201
  -1  10   3  914.02  285.16   1 0.87490-0.84426 0.43279 0.34052-0.21733 0.41384
   1 -10  -2 8195.69  441.09   1 0.09875-0.11071-0.53665-0.21968 0.83800-0.96926
  -1  10   2 7987.09  470.76   1 0.87613-0.86351 0.41658 0.33877-0.24259 0.37360
   1 -10  -1 9649.36  547.26   1 0.24879-0.24312-0.44638-0.29142 0.85956-0.92518
  -1  10   1 8631.77  525.50   1 0.87656-0.88196 0.40160 0.33577-0.26523 0.33074
   1 -10   0 7504.86  442.71   1 0.38456-0.36079-0.34757-0.37219 0.85515-0.85515
  -1  10   0 8314.61  496.02   1 0.87641-0.89984 0.38863 0.33079-0.28435 0.28435
   1 -10   1 5254.34  404.97   1 0.50080-0.45865-0.24766-0.45411 0.82936-0.76381
  -1  10  -1 6012.61  448.95   1 0.87601-0.91745 0.37890 0.32254-0.29838 0.23288
   1 -10   2 9532.39  676.01   1 0.59440-0.53413-0.15338-0.53042 0.78940-0.65829
  -1  10  -2 9099.48  617.22   1 0.87576-0.93523 0.37476 0.30873-0.30429 0.17329
   1 -10   311777.14  827.94   1 0.66542-0.58745-0.06885-0.59656 0.74328-0.54681
   1 -10   4 6972.02  530.65   1 0.71925-0.62325 0.00388-0.65134 0.69473-0.43278
   1 -10   5 1505.50  298.43   1 0.75831-0.64432 0.06449-0.69401 0.64869-0.32122
   1 -10   6 4178.54  317.15   1 0.78615-0.65415 0.11374-0.72530 0.60747-0.21451
   1 -10   7 1256.16  286.41   1 0.80568-0.65566 0.15281-0.74641 0.57229-0.11384
   1 -10   8  947.69  306.24   1 0.81919-0.65116 0.18303-0.75868 0.54352-0.01958
   1 -10   9 1585.71  222.76   1 0.82835-0.64208 0.20584-0.76356 0.52100 0.06847
   1 -10  10 1427.56  258.54   1 0.83439-0.63008 0.22201-0.76180 0.50446 0.15050
   1 -10  11   93.51  118.65   1 0.83812-0.61577 0.23264-0.75448 0.49337 0.22710
  -1   9   7  597.92  174.10   1 0.86224-0.76959 0.49318 0.28005-0.11530 0.57383
  -1   9   6 1535.68  254.69   1 0.86759-0.79296 0.47479 0.28048-0.14784 0.54086
  -1   9   5 6264.06  485.25   1 0.87159-0.81499 0.45627 0.28103-0.17924 0.50676
  -1   9   4 5891.49  450.39   1 0.87435-0.83577 0.43779 0.28155-0.20938 0.47139
   1  -9  -3  248.51   90.32   1-0.03472 0.01449-0.60161-0.10044 0.79802-0.99483
  -1   9   3  122.43  106.28   1 0.87596-0.85540 0.41953 0.28184-0.23805 0.43456
   1  -9  -2 6109.23  441.21   1 0.13398-0.13593-0.51726-0.16702 0.84527-0.97653
  -1   9   2 5713.63  444.80   1 0.87655-0.87401 0.40180 0.28161-0.26495 0.39596
   1  -9  -1 4107.30  301.18   1 0.29605-0.28033-0.41417-0.25165 0.86070-0.92632
  -1   9   1 4401.39  356.98   1 0.87629-0.89177 0.38502 0.28042-0.28959 0.35509
   1  -9   0  776.48  178.47   1 0.44023-0.40640-0.30179-0.34600 0.84564-0.84564
  -1   9   0  484.47  128.08   1 0.87541-0.90891 0.36990 0.27757-0.31116 0.31116
   1  -9   1 7394.17  479.74   1 0.55961-0.50743-0.19014-0.43966 0.80664-0.74108
  -1   9  -1 7787.34  491.56   1 0.87427-0.92580 0.35768 0.27182-0.32817 0.26267
   1  -9   210223.86  371.02   1 0.65024-0.58026-0.08768-0.52376 0.75464-0.62366
  -1   9  -2 9043.54  265.62   1 0.87276-0.94265 0.35073 0.26063-0.33951 0.20850
   1  -9   314421.17  445.24   1 0.71740-0.62940 0.00121-0.59469 0.69665-0.50019
  -1   9  -315301.52  352.20   1 0.87321-0.96117 0.35442 0.23897-0.33449 0.13797
   1  -9   412820.79  791.52   1 0.76457-0.65856 0.07504-0.65058 0.64015-0.37818
   1  -9   5 2526.56  295.28   1 0.79679-0.67277 0.13445-0.69204 0.58910-0.26163
   1  -9   6  291.85  155.04   1 0.81833-0.67630 0.18103-0.72065 0.54548-0.15252
   1  -9   7  437.81  127.16   1 0.83250-0.67228 0.21683-0.73850 0.50982-0.05133
   1  -9   8  107.96  123.39   1 0.84168-0.66342 0.24332-0.74706 0.48203 0.04195
   1  -9   9  331.96  202.16   1 0.84750-0.65119 0.26223-0.74803 0.46148 0.12799
   1  -9  10 1806.40  252.31   1 0.85102-0.63667 0.27482-0.74268 0.44746 0.20751
   1  -9  11 1376.14  221.02   1 0.85293-0.62053 0.28208-0.73201 0.43924 0.28123
  -1   8   8  275.89  144.37   1 0.85789-0.75730 0.50534 0.21392-0.09300 0.61703
  -1   8   7 1866.31  302.46   1 0.86430-0.78173 0.48667 0.21462-0.12698 0.58551
  -1   8   6 3481.43  318.11   1 0.86928-0.80473 0.46768 0.21565-0.16005 0.55307
  -1   8   5 2843.96  281.14   1 0.87290-0.82638 0.44845 0.21691-0.19213 0.51965
   1  -8  -4 5223.21  615.13   1-0.19725 0.16850-0.66205 0.01423 0.72302-0.98559
  -1   8   4 6797.83  549.45   1 0.87525-0.84674 0.42911 0.21828-0.22313 0.48514
   1  -8  -3 2035.66  206.47   1-0.02227 0.01206-0.59617-0.03385 0.80254-0.99935
  -1   8   3 1947.31  295.47   1 0.87640-0.86592 0.40983 0.21960-0.25288 0.44939
   1  -8  -2 9747.37  302.53   1 0.16325-0.15520-0.50039-0.11184 0.85026-0.98153
  -1   8   210889.53  415.74   1 0.87647-0.88401 0.39085 0.22061-0.28111 0.41212
   1  -8  -1   59.63   75.67   1 0.34089-0.31511-0.38114-0.21263 0.85937-0.92492
  -1   8   1   39.37   82.99   1 0.87561-0.90117 0.37255 0.22094-0.30742 0.37292
   1  -8   0 4217.70  397.73   1 0.49662-0.45252-0.25155-0.32424 0.83071-0.83071
  -1   8   0 4489.21  420.64   1 0.87404-0.91762 0.35560 0.21993-0.33103 0.33103
   1  -8   1 1754.68  155.48   1 0.61886-0.55665-0.12610-0.43172 0.77530-0.70975
  -1   8  -1 1694.53  149.27   1 0.87146-0.93334 0.34135 0.21607-0.35217 0.28667
   1  -8   1 1583.18  140.16   1 0.35204-0.29032-0.34921-0.20833-0.86839 0.93397
   1  -8   2 6669.09  599.01   1 0.70600-0.62599-0.01499-0.52452 0.70804-0.57706
  -1   8  -2 6003.88  519.22   1 0.86995-0.94990 0.33191 0.20753-0.36470 0.23369
   1  -8   2 5452.48  470.25   1 0.15193-0.07173-0.47911-0.06046-0.86450 0.99558
   1  -8   3 6446.68  589.82   1 0.76593-0.66791 0.07737-0.59894 0.63824-0.44176
  -1   8  -3 4707.92  472.03   1 0.17352-0.27140 0.62605-0.10436 0.76023-0.95679
  -1   8  -3 5954.65  505.58   1 0.87036-0.96837 0.33432 0.18713-0.36151 0.16500
   1  -8   4 1519.73  167.58   1 0.80472-0.68868 0.15078-0.65439 0.57417-0.31220
  -1   8  -4 1691.10   83.10   1 0.64570-0.76171 0.67136-0.16765 0.36378-0.62584
   1  -8   5  582.56  177.19   1 0.82898-0.69481 0.20748-0.69312 0.51935-0.19186
   1  -8   6 1051.48  201.29   1 0.84379-0.69157 0.24993-0.71763 0.47491-0.08192
   1  -8   7   71.28  115.28   1 0.85265-0.68239 0.28100-0.73076 0.44047 0.01800
   1  -8   8 1512.48  223.05   1 0.85784-0.66953 0.30293-0.73475 0.41513 0.10884
   1  -8  10  617.09  221.53   1 0.86232-0.63793 0.32613-0.72208 0.38733 0.26763
   1  -8  11 3351.54  418.62   1 0.86293-0.62049 0.32979-0.70781 0.38285 0.33761
   1  -8  12 1030.21  218.76   1 0.86284-0.60236 0.32926-0.68933 0.38351 0.40245
  -1   7   9  810.49  200.88   1 0.85141-0.74288 0.52056 0.14472-0.06406 0.65359
  -1   7   8  385.85  207.66   1 0.85911-0.76860 0.50211 0.14521-0.09899 0.62302
  -1   7   7  178.53  133.33   1 0.86532-0.79283 0.48320 0.14614-0.13313 0.59165
   1  -7  -6  201.96   77.30   1-0.50137 0.44694-0.70963 0.09824 0.49502-0.88915
  -1   7   6  198.59  128.62   1 0.87010-0.81563 0.46392 0.14747-0.16644 0.55946
   1  -7  -5  118.97   57.78   1-0.37286 0.33669-0.70180 0.10790 0.60699-0.93541
  -1   7   5  350.66  179.73   1 0.87351-0.83706 0.44432 0.14910-0.19887 0.52638
   1  -7  -4 1541.52  241.35   1-0.21329 0.19465-0.66678 0.09098 0.71407-0.97664
  -1   7   4 1835.10  263.10   1 0.87563-0.85720 0.42451 0.15094-0.23034 0.49235
   1  -7  -341291.06 7259.21   1-0.02330 0.02311-0.59662 0.03862 0.80217-0.99898
  -1   7   330549.59  624.65   1 0.77474-0.77471 0.09280 0.46457 0.62542-0.42894
  -1   7   342654.97 7514.10   1 0.87652-0.87612 0.40464 0.15285-0.26070 0.45721
   1  -7  -2 7481.67  646.96   1 0.18349-0.16584-0.48767-0.05218 0.85352-0.98477
  -1   7   2 6298.44  546.66   1 0.81817-0.83615 0.18063 0.35878 0.54586-0.41487
  -1   7   2 7131.96  650.10   1 0.87629-0.89390 0.38492 0.15460-0.28973 0.42074
   1  -7  -1 1960.54  199.99   1 0.38499-0.34916-0.34724-0.17456 0.85510-0.92065
  -1   7   1 1774.66  183.27   1 0.84895-0.88489 0.26728 0.25406 0.45589-0.39039
  -1   7   1 2450.10  268.22   1 0.87506-0.91070 0.36572 0.15584-0.31702 0.38253
   1  -7   011815.47  833.28   1 0.55463-0.50050-0.19523-0.30859 0.80886-0.80886
  -1   7   010299.66  728.01   1 0.86547-0.91946 0.34741 0.15599 0.36091-0.36091
  -1   7   010241.19  728.20   1 0.87239-0.92626 0.34795 0.15552-0.34329 0.34329
   1  -7   0 9799.84  696.92   1 0.53491-0.48092-0.19736-0.30627-0.82152 0.82152
   1  -7   1 2174.05  201.66   1 0.67774-0.60571-0.05308-0.43246 0.73338-0.66789
  -1   7  -1 1949.44  164.33   1 0.87001-0.94194 0.33225 0.15324-0.36425 0.29874
   1  -7   1 1762.08  147.68   1 0.40620-0.33431-0.30851-0.17709-0.86012 0.92567
   1  -7   2 2583.48  219.89   1 0.75962-0.66958 0.06668-0.53428 0.64693-0.51594
  -1   7  -2 3061.75  214.20   1 0.86818-0.95818 0.32212 0.14539-0.37748 0.24647
   1  -7   2 2775.24  190.16   1 0.16435-0.07413-0.47198 0.00433-0.86615 0.99723
   1  -7   3 9144.12  671.04   1 0.80931-0.70125 0.16064-0.61028 0.56497-0.36849
  -1   7  -3 7526.29  530.62   1 0.27393-0.38199 0.65451-0.20472 0.70467-0.90120
   1  -7   4 7338.28  567.29   1 0.83768-0.71151 0.23134-0.66300 0.49474-0.23275
   1  -7   5  944.04  153.00   1 0.85311-0.70890 0.28280-0.69652 0.43842-0.11093
   1  -7   6 2333.34  245.79   1 0.86114-0.69888 0.31944-0.71522 0.39546-0.00247
   1  -7   7 3946.31  310.63   1 0.86512-0.68482 0.34474-0.72258 0.36428 0.09419
   1  -7   8 3186.56  370.85   1 0.86700-0.66866 0.36132-0.72123 0.34313 0.18084
   1  -7   9 1479.09  261.60   1 0.86774-0.65148 0.37121-0.71308 0.33048 0.25900
   1  -7  10   12.02  125.29   1 0.86803-0.63377 0.37555-0.69948 0.32475 0.33022
   1  -7  11  601.56  209.92   1 0.86803-0.61575 0.37544-0.68143 0.32489 0.39558
   1  -7  12 3001.62  340.87   1 0.86777-0.59749 0.37157-0.65962 0.33001 0.45596
  -1   6  10  647.50  195.19   1 0.84229-0.72595 0.53824 0.07312-0.02881 0.68383
  -1   6   9  126.43  168.57   1 0.85149-0.75303 0.52039 0.07295-0.06438 0.65392
  -1   6   8  444.11  220.58   1 0.85913-0.77869 0.50207 0.07331-0.09907 0.62310
  -1   6   7  161.18   81.90   1 0.62219-0.56013 0.69627-0.13927-0.35788 0.81661
  -1   6   7  524.58  226.80   1 0.86529-0.80288 0.48329 0.07412-0.13298 0.59150
  -1   6   6  518.16  219.93   1 0.87005-0.82566 0.46412 0.07532-0.16608 0.55910
   1  -6  -5 2319.93  453.05   1-0.41217 0.38603-0.70641 0.18462 0.57540-0.90382
  -1   6   5 3858.05  263.63   1 0.87346-0.84709 0.44465 0.07683-0.19833 0.52585
   1  -6  -412309.66 1097.39   1-0.25045 0.24193-0.67689 0.17311 0.69215-0.95472
  -1   6   411557.70  967.91   1 0.65550-0.64744-0.08123 0.58466 0.75080-0.48885
  -1   6   413872.93 1202.48   1 0.87559-0.86724 0.42497 0.07854-0.22962 0.49164
   1  -6  -318359.57 1255.38   1-0.04402 0.05385-0.60560 0.11962 0.79454-0.99135
  -1   6   313559.46  934.76   1 0.73129-0.74129 0.02173 0.46371 0.68171-0.48524
  -1   6   317091.00 1212.78   1 0.87651-0.88618 0.40524 0.08030-0.25980 0.45631
   1  -6  -224244.38 1190.74   1 0.19366-0.16595-0.48147 0.01360 0.85479-0.98603
  -1   6   220543.70 1010.70   1 0.79760-0.82562 0.13608 0.33140 0.58762-0.45664
  -1   6   223542.33 1196.40   1 0.87632-0.90401 0.38572 0.08186-0.28857 0.41958
   1  -6  -1  279.26   81.27   1 0.42825-0.38237-0.31194-0.13788 0.84810-0.91366
  -1   6   1  306.06   97.05   1 0.84341-0.88940 0.24873 0.20069 0.47621-0.41071
  -1   6   1  237.58   95.61   1 0.87516-0.92088 0.36684 0.08277-0.31545 0.38095
   1  -6  -1  165.94   66.87   1 0.66799-0.62224-0.05578-0.39388-0.74206 0.67651
   1  -6   0 1064.55  124.17   1 0.61618-0.55203-0.12915-0.30270 0.77693-0.77693
  -1   6   0  780.29   89.18   1 0.86566-0.92968 0.34895 0.08254 0.35897-0.35897
  -1   6   0  828.66  115.28   1 0.87263-0.93655 0.34975 0.08179-0.34084 0.34084
   1  -6   0  802.26   93.19   1 0.60074-0.53671-0.13149-0.30020-0.78855 0.78855
   1  -6   1  597.24  103.19   1 0.73867-0.65661 0.03302-0.44664 0.67324-0.60775
  -1   6  -1  381.85   66.15   1 0.86765-0.94987 0.43169-0.01821 0.24661-0.31211
  -1   6  -1  597.20   81.51   1 0.87058-0.95257 0.33571 0.07785-0.35968 0.29417
   1  -6   1  525.20   70.95   1 0.46180-0.37985-0.26289-0.15077-0.84712 0.91267
   1  -6   2 4899.80  353.34   1 0.80890-0.70882 0.15974-0.55541 0.56581-0.43483
  -1   6  -2 5893.62  380.57   1 0.86978-0.96983 0.33091 0.06468-0.36601 0.23500
   1  -6   2 5669.12  363.96   1 0.14905-0.04881-0.48075 0.08504-0.86409 0.99518
   1  -6   3 7716.65  510.64   1 0.84436-0.72620 0.25177-0.62945 0.47292-0.27643
  -1   6  -3 7113.38  416.03   1 0.51863-0.63666 0.68596-0.30816 0.51035-0.70688
   1  -6   443554.22 2134.35   1 0.86047-0.72426 0.31586-0.67561 0.39976-0.13777
   1  -6   515326.98  826.06   1 0.86683-0.71258 0.35955-0.70135 0.34543-0.01794
   1  -6   617942.00 1280.37   1 0.86866-0.69641 0.38870-0.71248 0.30714 0.08584
   1  -6   617306.42 1177.95   1 0.00890 0.16337 0.56234-0.88610 0.82685-0.43373
  -1   6  -616758.29 1128.34   1 0.76519-0.93763 0.07801 0.24570-0.63905 0.24588
   1  -6   712561.69 1095.75   1 0.86882-0.67857 0.40712-0.71296 0.28178 0.17670
   1  -6   710976.01  919.07   1 0.30361-0.11317 0.66141-0.96723 0.68581-0.22725
  -1   6  -7 9825.96  815.71   1 0.76839-0.95893 0.08317 0.22254-0.63454 0.17584
   1  -6   8 4121.94  368.29   1 0.86851-0.66026 0.41772-0.70562 0.26680 0.25718
   1  -6   8 4111.16  262.09   1 0.44203-0.23362 0.68292-0.97063 0.58156-0.05732
   1  -6   9 2057.61  291.23   1 0.86828-0.64202 0.42237-0.69233 0.26013 0.32934
   1  -6   9 1764.51  171.42   1 0.51165-0.28527 0.68602-0.95571 0.51727 0.07230
   1  -6  10 1730.87  373.79   1 0.86829-0.62402 0.42232-0.67435 0.26020 0.39477
   1  -6  11  289.14  131.47   1 0.86848-0.60621 0.41842-0.65251 0.26579 0.45467
  -1   5  11  237.49  138.45   1 0.83000-0.70571 0.55763-0.00023 0.01203 0.70849
  -1   5  10 1077.53  219.00   1 0.84081-0.73454 0.54081-0.00139-0.02353 0.67856
  -1   5   9  238.04  151.93   1 0.85004-0.76166 0.52345-0.00204-0.05843 0.64796
  -1   5   8  372.53  120.77   1 0.71348-0.64343 0.66384-0.16078-0.22416 0.74842
  -1   5   8  304.07  158.69   1 0.85776-0.78741 0.50566-0.00222-0.09239 0.61642
  -1   5   7  746.50  166.86   1 0.65607-0.60404 0.68708-0.20198-0.31220 0.77093
  -1   5   7  320.20  155.16   1 0.86405-0.81171 0.48749-0.00202-0.12552 0.58404
  -1   5   6 1513.47  163.48   1 0.57871-0.54470 0.70426-0.23710-0.41121 0.80441
  -1   5   6 1890.36  284.95   1 0.86897-0.83466 0.46904-0.00153-0.15773 0.55075
   1  -5  -5 8907.34  753.25   1-0.47296 0.45667-0.70956 0.26009 0.52232-0.85076
  -1   5   5 8209.67  695.48   1 0.45937-0.44298-0.28517 0.73494 0.84121-0.51344
  -1   5   510084.77  897.89   1 0.87260-0.85630 0.45040-0.00086-0.18894 0.51646
   1  -5  -4 1655.84  228.29   1-0.31549 0.31744-0.69218 0.26033 0.64910-0.91183
  -1   5   4 1562.26  159.63   1 0.55698-0.55871-0.19283 0.62462 0.80782-0.54560
  -1   5   4 2056.52  247.63   1 0.87500-0.87673 0.43176-0.00019-0.21896 0.48097
   1  -5  -3 1360.13  117.91   1-0.09581 0.11566-0.62656 0.21262 0.77345-0.97026
  -1   5   3 1176.70  106.17   1 0.66760-0.68760-0.06609 0.47963 0.74157-0.54511
  -1   5   3 1807.21  215.60   1 0.87627-0.89602 0.41338 0.00022-0.24748 0.44399
   1  -5  -2  951.43   98.91   1 0.18477-0.14702-0.48689 0.09100 0.85369-0.98493
  -1   5   2  845.84   88.08   1 0.77130-0.80935 0.08670 0.30885 0.63053-0.49954
  -1   5   2  844.83  112.27   1 0.87655-0.91432 0.39571-0.00007-0.27397 0.40497
   1  -5  -1 1432.14  126.40   1 0.47182-0.41575-0.27414-0.10371 0.83798-0.90354
  -1   5   1 1392.97  121.54   1 0.84021-0.89623 0.23881 0.13869 0.48683-0.42134
  -1   5   1 1645.04  166.94   1 0.87604-0.93184 0.37963-0.00195-0.29735 0.36285
   1  -5  -1 1625.57  151.02   1 0.73184-0.67595 0.02773-0.40546-0.68090 0.61537
   1  -5   0 8454.86  284.18   1 0.68247-0.60840-0.04689-0.31276 0.72940-0.72940
  -1   5   0 7382.62  244.34   1 0.86743-0.94150 0.36609-0.00651 0.33694-0.33694
  -1   5   0 7376.00  263.96   1 0.87517-0.94899 0.36702-0.00731-0.31520 0.31520
   1  -5   0 7734.94  261.55   1 0.67349-0.59959-0.04911-0.31062-0.73756 0.73756
   1  -5   1 8403.91  290.90   1 0.79855-0.70645 0.13800-0.47969 0.58589-0.52039
  -1   5  -1 8724.54  268.86   1 0.87482-0.96666 0.36312-0.02137-0.32065 0.25514
   1  -5   1 8512.20  255.24   1 0.52527-0.43319-0.20644-0.13528-0.82550 0.89109
   1  -5   253313.89 1379.81   1 0.84874-0.73858 0.26654-0.59025 0.45671-0.32571
  -1   5  -250809.87 1316.29   1 0.84344-0.95373 0.53002-0.20635 0.08760-0.21866
   1  -5   3 3930.68  309.79   1 0.86578-0.73758 0.34996-0.65573 0.35768-0.16119
   1  -5   4 1234.36  132.77   1 0.86885-0.72262 0.40301-0.69076 0.28751-0.02552
   1  -5   515622.25  827.23   1 0.86727-0.70304 0.43596-0.70578 0.24032 0.08716
   1  -5   515284.64  752.06   1 0.23033-0.06599 0.64304-0.91289 0.73037-0.40282
  -1   5  -515824.75  762.83   1 0.77060-0.93501 0.08676 0.18300-0.63138 0.30374
   1  -5   6 9596.02  720.71   1 0.86484-0.68259 0.45577-0.70765 0.21052 0.18246
   1  -5   611103.53  760.59   1 0.50327-0.32101 0.68600-0.93777 0.52546-0.13240
  -1   5  -6 9226.89  638.05   1 0.78144-0.96394 0.10492 0.14684-0.61509 0.22192
   1  -5   7 6650.67  639.60   1 0.86299-0.66274 0.46656-0.70050 0.19379 0.26469
   1  -5   7 6838.27  580.33   1 0.60653-0.40621 0.67892-0.91267 0.41372 0.04483
  -1   5  -7 5839.19  504.99   1 0.77607-0.97666 0.09582 0.13795-0.62331 0.16461
   1  -5   8  841.98  195.01   1 0.86196-0.64340 0.47115-0.68731 0.18713 0.33709
   1  -5   8  503.41   85.07   1 0.65109-0.43266 0.67003-0.88584 0.35653 0.16757
  -1   5  -8  407.75   82.05   1 0.76506-0.98373 0.07780 0.13798-0.63923 0.11501
   1  -5   9  319.28  139.29   1 0.86207-0.62546 0.47061-0.66885 0.18798 0.40177
   1  -5   9  244.28   84.52   1 0.67060-0.43411 0.66465-0.86245 0.32941 0.26021
   1  -5  10 1233.42  286.50   1 0.86310-0.60883 0.46598-0.64610 0.19469 0.46028
   1  -5  10  977.98  189.60   1 0.67668-0.42213 0.66277-0.84257 0.32066 0.33448
   1  -5  11  774.09  251.69   1 0.86442-0.59215 0.45841-0.62059 0.20645 0.51401
   1  -5  11   16.67   57.71   1 0.67447-0.40186 0.66347-0.82526 0.32386 0.39679
   1  -5  12  177.42  120.91   1 0.86593-0.57565 0.44807-0.59231 0.22225 0.56372
   1  -5  13  852.00  200.20   1 0.86734-0.55906 0.43521-0.56151 0.24143 0.61003
  -1   4  11  364.00  158.14   1 0.82644-0.71222 0.56255-0.07710 0.02282 0.69770
  -1   4  10  267.50   94.49   1 0.80321-0.70716 0.59433-0.12709-0.04016 0.69552
  -1   4  10  164.22  125.30   1 0.83735-0.74115 0.54654-0.07905-0.01164 0.66666
  -1   4   9 1002.29  208.06   1 0.77581-0.69779 0.62211-0.17282-0.10531 0.69513
  -1   4   9 1398.09  312.70   1 0.84672-0.76842 0.53010-0.08063-0.04531 0.63484
  -1   4   8   66.70   57.98   1 0.74142-0.68140 0.64785-0.21668-0.17483 0.69909
  -1   4   8  450.68  147.45   1 0.85462-0.79434 0.51336-0.08186-0.07789 0.60192
  -1   4   7  679.05  111.65   1 0.69667-0.65466 0.67182-0.25860-0.25157 0.71030
  -1   4   7  565.28  154.62   1 0.86114-0.81889 0.49644-0.08290-0.10940 0.56792
  -1   4   6 1804.63  133.65   1 0.21092-0.18606-0.47076 0.86664 0.85667-0.46293
  -1   4   6 1970.59  150.26   1 0.63636-0.61237 0.69277-0.29751-0.33925 0.73244
  -1   4   6 2143.46  225.02   1 0.86636-0.84212 0.47947-0.08391-0.13968 0.53270
  -1   4   523428.86 1146.91   1 0.28633-0.27963-0.42096 0.79884 0.86070-0.53258
  -1   4   524894.06 1217.23   1 0.55003-0.54405 0.70755-0.33023-0.44366 0.77132
  -1   4   526635.58 1363.06   1 0.87035-0.86413 0.46270-0.08510-0.16848 0.49600
   1  -4  -428554.75 1412.54   1-0.41881 0.43065-0.70657 0.34699 0.57039-0.83314
  -1   4   426183.14 1267.43   1 0.40323-0.41489-0.33261 0.69239 0.85250-0.59029
  -1   4   429094.73 1467.44   1 0.87320-0.88501 0.44647-0.08683-0.19537 0.45739
   1  -4  -3 4299.64  372.12   1-0.19836 0.22813-0.66239 0.32056 0.72241-0.91934
  -1   4   3 3768.27  255.66   1 0.56515-0.59502-0.18443 0.52627 0.80410-0.60743
  -1   4   3 4055.97  309.71   1 0.87504-0.90487 0.43135-0.08968-0.21961 0.41612
  -1   4   251822.76 1282.04   1 0.73448-0.78257 0.02657 0.29705 0.67810-0.54712
  -1   4   257038.04 1467.99   1 0.87603-0.92388 0.41843-0.09472-0.23975 0.37076
   1  -4  -251637.47 1323.39   1 0.80951-0.76165 0.15672-0.48050-0.56579 0.43473
   1  -4  -140712.16 1022.15   1 0.51761-0.45151-0.23176-0.07411 0.82362-0.88918
  -1   4   139359.61  988.52   1 0.84273-0.90879 0.24656 0.05903 0.47854-0.41304
  -1   4   139510.48 1029.15   1 0.87640-0.94227 0.40994-0.10421-0.25270 0.31821
   1  -4  -138873.28 1001.93   1 0.79624-0.73030 0.13125-0.43703-0.59056 0.52503
   1  -4   052524.27 1313.48   1 0.75908-0.67495 0.06577-0.35349 0.64766-0.64766
  -1   4   050834.94 1270.83   1 0.86875-0.95296 0.41050-0.12288 0.27704-0.27704
  -1   4   050879.39 1274.97   1 0.87634-0.96024 0.41159-0.12382-0.25020 0.25020
   1  -4   050396.79 1257.33   1 0.75681-0.67278 0.06482-0.35261-0.65040 0.65040
   1  -4   137924.48  980.95   1 0.84962-0.74747 0.26967-0.53939 0.45323-0.38773
  -1   4  -136143.09  933.50   1 0.85022-0.95247 0.51312-0.24343 0.11759-0.18312
  -1   4  -135773.68  889.47   1 0.87362-0.97554 0.44350-0.17369-0.20019 0.13469
   1  -4   137239.42  921.34   1 0.60998-0.50786-0.12164-0.14813-0.78302 0.84860
   1  -4   2 8192.16  284.30   1 0.86860-0.74838 0.38711-0.63885 0.30929-0.17829
  -1   4  -2 7951.12  268.24   1 0.81669-0.93690 0.57706-0.32532-0.00310-0.12796
   1  -4   3 4243.03  226.24   1 0.86533-0.72710 0.45246-0.68626 0.21557-0.01908
  -1   4  -3 4512.37  213.10   1 0.77926-0.91749 0.61903-0.38525-0.09769-0.09891
   1  -4   411889.66  408.77   1 0.85772-0.70132 0.48925-0.70518 0.15794 0.10417
   1  -4   411084.80  290.12   1 0.48707-0.33086 0.68570-0.90153 0.54089-0.27886
  -1   4  -411506.58  303.76   1 0.73388-0.89014 0.03066 0.18514-0.67857 0.41635
   1  -4   5 2874.46  248.76   1 0.85161-0.67717 0.50918-0.70719 0.12441 0.20323
   1  -4   5 3282.92  223.99   1 0.69077-0.51647 0.65800-0.85585 0.29976 0.02780
  -1   4  -5 3119.15  218.12   1 0.77404-0.94850 0.09243 0.10538-0.62634 0.29870
   1  -4   6 5754.34  413.56   1 0.84804-0.65555 0.51891-0.69900 0.10746 0.28571
   1  -4   6 6602.24  413.98   1 0.74380-0.55129 0.63427-0.81414 0.21081 0.18229
  -1   4  -6 6044.89  385.12   1 0.77786-0.97041 0.09883 0.08098-0.62060 0.22743
   1  -4   7 1827.44  233.05   1 0.84686-0.63632 0.52190-0.68408 0.10216 0.35653
   1  -4   7 2061.88  202.67   1 0.76206-0.55148 0.62305-0.78493 0.17623 0.28239
  -1   4  -7 1788.18  192.75   1 0.77200-0.98264 0.08906 0.07276-0.62934 0.17064
   1  -4   8  752.04  169.55   1 0.84757-0.61899 0.52010-0.66436 0.10535 0.41887
   1  -4   8  572.96   93.99   1 0.76641-0.53776 0.62010-0.76398 0.16758 0.35656
   1  -4   9  254.02  137.26   1 0.84965-0.60302 0.51466-0.64099 0.11491 0.47484
   1  -4   9  489.97  142.65   1 0.76361-0.51688 0.62201-0.74790 0.17318 0.41648
   1  -4  10  387.15  135.30   1 0.85261-0.58794 0.50624-0.61466 0.12945 0.52583
   1  -4  10  166.65   82.78   1 0.75623-0.49143 0.62684-0.73473 0.18758 0.46760
   1  -4  11 1996.26  245.27   1 0.85603-0.57331 0.49528-0.58578 0.14796 0.57285
   1  -4  11 1629.90  300.04   1 0.74538-0.46251 0.63337-0.72327 0.20792 0.51278
   1  -4  12 1187.89  223.77   1 0.85956-0.55879 0.48201-0.55459 0.16976 0.61658
   1  -4  12  946.44  231.34   1 0.73157-0.43063 0.64086-0.71276 0.23258 0.55363
   1  -4  13 1001.36  205.15   1 0.86304-0.54475 0.46633-0.52073 0.19414 0.65732
  -1   3  12  909.83  188.03   1 0.80770-0.68554 0.58487-0.15339 0.07434 0.71168
  -1   3  11  467.50  159.45   1 0.83369-0.72939 0.54990-0.13709 0.05060 0.67021
  -1   3  11  778.12  273.99   1 0.82034-0.71619 0.57043-0.15691 0.04049 0.68002
  -1   3  10 1121.29  226.91   1 0.81686-0.73083 0.57682-0.18149-0.00261 0.65798
  -1   3  10 1132.73  260.85   1 0.83137-0.74524 0.55565-0.16011 0.00774 0.64728
  -1   3   9 2513.88  257.57   1 0.79640-0.72839 0.60203-0.22465-0.05744 0.64727
  -1   3   9 2766.59  323.75   1 0.84089-0.77278 0.54067-0.16309-0.02383 0.61335
  -1   3   8 3148.39  294.11   1 0.77160-0.72160 0.62566-0.26638-0.11474 0.63900
  -1   3   8 2927.40  331.59   1 0.84899-0.79879 0.52561-0.16605-0.05420 0.57823
  -1   3   7 3878.61  359.22   1 0.74043-0.70845 0.64848-0.30715-0.17668 0.63541
  -1   3   7 4002.15  417.62   1 0.85573-0.82355 0.51072-0.16913-0.08290 0.54142
  -1   3   610935.74  763.40   1 0.00258 0.01189-0.58494 0.90862 0.81106-0.41745
  -1   3   613368.30  930.37   1 0.69994-0.68598 0.67035-0.34697-0.24636 0.63955
  -1   3   613837.59 1008.18   1 0.86120-0.84704 0.49629-0.17266-0.10967 0.50269
  -1   3   5  332.88   51.36   1 0.05658-0.06031-0.55856 0.86428 0.82752-0.49936
  -1   3   5  351.67   57.65   1 0.64335-0.64740 0.69087-0.38545-0.32983 0.65749
  -1   3   5  690.04  156.14   1 0.86545-0.86931 0.48276-0.17710-0.13392 0.46143
  -1   3   418622.09  562.79   1 0.16581-0.18765-0.49888 0.78669 0.85065-0.58813
  -1   3   420053.54  604.60   1 0.55401-0.57608 0.70717-0.41970-0.43927 0.70141
  -1   3   419679.50  669.48   1 0.86854-0.89043 0.47087-0.18318-0.15460 0.41661
   1  -3  -3 4217.73  208.72   1-0.38496 0.42504-0.70340 0.43359 0.59751-0.79456
  -1   3   3 4326.25  143.99   1 0.36751-0.40733-0.36091 0.63075 0.85712-0.66047
  -1   3   3 4581.43  219.76   1 0.87051-0.91042 0.46191-0.19219-0.16981 0.36632
   1  -3  -3 3918.31  194.69   1 0.84994-0.81006 0.25300-0.52271-0.46215 0.26564
  -1   3   226180.80  405.63   1 0.66911-0.72720-0.06417 0.31589 0.74038-0.60940
  -1   3   226332.83  509.71   1 0.87119-0.92911 0.45846-0.20670-0.17560 0.30661
   1  -3  -224981.66  473.76   1 0.85341-0.79546 0.26378-0.51551-0.44956 0.31855
   1  -3  -153827.42  783.02   1 0.57285-0.49672-0.17641-0.05748 0.80044-0.86600
  -1   3   151688.39  754.69   1 0.85729-0.93339 0.30041-0.06672 0.41808-0.35259
  -1   3   150831.39  805.46   1 0.86957-0.94552 0.46637-0.23257-0.16228 0.22779
   1  -3  -151145.76  801.91   1 0.85373-0.77772 0.26483-0.49858-0.44832 0.38282
   1  -3   029851.74  479.72   1 0.83998-0.74583 0.23812-0.45387 0.48757-0.48757
  -1   3   028743.60  461.84   1 0.85415-0.94837 0.50151-0.28581 0.13749-0.13749
  -1   3   029266.74  472.99   1 0.85901-0.95298 0.50239-0.28656-0.09848 0.09848
   1  -3   028311.69  453.72   1 0.84531-0.75123 0.24004-0.45588-0.47730 0.47730
   1  -3   157994.85  890.84   1 0.86761-0.75539 0.43216-0.62993 0.24591-0.18041
  -1   3  -154727.45  845.74   1 0.80713-0.91934 0.58961-0.39182-0.02979-0.03574
   1  -3   156557.18  798.07   1 0.76965-0.65748 0.08521-0.28306-0.63275 0.69828
   1  -3   2 8293.19  231.23   1 0.84969-0.71938 0.51456-0.69443 0.11508 0.01597
  -1   3  -2 8124.79  221.36   1 0.76033-0.89051 0.63466-0.45490-0.13817 0.00710
   1  -3   315477.50  470.49   1 0.83269-0.68433 0.55173-0.71368 0.04709 0.14949
  -1   3  -315052.20  454.59   1 0.71765-0.86585 0.66168-0.49987-0.21711 0.02052
   1  -3   314800.48  375.30   1 0.78431-0.63625 0.60666-0.76857 0.12961 0.06688
  -1   3  -315370.32  389.19   1 0.61572-0.76393-0.11542 0.27722-0.77945 0.58270
   1  -3   417274.80  530.60   1 0.82238-0.65611 0.56876-0.71267 0.01392 0.24821
  -1   3  -415803.73  480.50   1 0.67805-0.84426 0.67947-0.53562-0.28028 0.01815
   1  -3   417558.76  465.04   1 0.83498-0.66890 0.55026-0.69419-0.00379 0.26580
  -1   3  -417169.16  457.96   1 0.73988-0.90631 0.03933 0.10452-0.67158 0.40946
   1  -3   511793.52  445.41   1 0.81804-0.63375 0.57515-0.70110 0.00086 0.32681
   1  -3   511627.82  381.69   1 0.84139-0.65730 0.53980-0.66577-0.02561 0.35312
  -1   3  -510991.46  366.10   1 0.76379-0.94831 0.07578 0.05008-0.64098 0.31334
   1  -3   610367.70  582.72   1 0.81796-0.61565 0.57526-0.68325 0.00062 0.39259
   1  -3   610665.81  551.47   1 0.83958-0.63748 0.54287-0.65087-0.01927 0.41228
   1  -3   7 4493.14  392.26   1 0.82077-0.60044 0.57118-0.66121 0.00901 0.44973
   1  -3   7 4337.37  341.03   1 0.83421-0.61408 0.55144-0.64146-0.00128 0.45980
  -1   3  -7 3847.78  369.66   1 0.76192-0.98261 0.07281 0.01706-0.64355 0.18485
   1  -3   8 5621.59  543.31   1 0.82545-0.58709 0.56398-0.63605 0.02354 0.50074
   1  -3   8 5706.93  516.02   1 0.82643-0.58829 0.56256-0.63461 0.02285 0.50116
   1  -3   9  363.68  180.49   1 0.83138-0.57474 0.55406-0.60850 0.04259 0.54716
   1  -3   9  603.10  147.75   1 0.81663-0.56048 0.57491-0.62899 0.05079 0.53872
   1  -3  10  580.18  168.77   1 0.83774-0.56305 0.54214-0.57866 0.06527 0.59000
   1  -3  10  437.12  117.15   1 0.80492-0.53075 0.58777-0.62388 0.08137 0.57364
   1  -3  11  817.34  239.44   1 0.84423-0.55149 0.52822-0.54682 0.09086 0.62994
   1  -3  11  606.28  157.20   1 0.79174-0.49883 0.60025-0.61819 0.11325 0.60744
   1  -3  12  717.67  254.73   1 0.85049-0.53971 0.51237-0.51305 0.11890 0.66744
   1  -3  12  484.01  175.29   1 0.77613-0.46514 0.61305-0.61300 0.14758 0.63864
   1  -3  13  127.55  116.66   1 0.85623-0.52740 0.49462-0.47738 0.14906 0.70281
   1  -3  13  244.02   95.60   1 0.75840-0.42935 0.62544-0.60740 0.18337 0.66836
  -1   2  12 1445.69  210.57   1 0.85282-0.74048 0.50562-0.14680 0.13050 0.65583
  -1   2  12 1793.27  274.52   1 0.79830-0.68621 0.59430-0.23475 0.09754 0.68847
  -1   2  11 3590.56  293.35   1 0.84299-0.74870 0.53103-0.19013 0.08577 0.63504
  -1   2  11 4137.65  357.77   1 0.81098-0.71690 0.58134-0.23977 0.06588 0.65463
  -1   2  10 1100.71  216.35   1 0.83110-0.75486 0.55455-0.23156 0.04164 0.61364
  -1   2  10 1294.97  277.62   1 0.82205-0.74599 0.56829-0.24469 0.03565 0.61937
  -1   2   9 3342.82  313.43   1 0.81705-0.75906 0.57655-0.27109-0.00205 0.59188
  -1   2   9 3483.12  256.88   1 0.83159-0.77354 0.55533-0.24970 0.00705 0.58246
  -1   2   8 4058.65  212.36   1 0.80099-0.76102 0.59691-0.30941-0.04588 0.57017
  -1   2   8 3903.16  255.70   1 0.83967-0.79964 0.54273-0.25507-0.01958 0.54360
  -1   2   7 8510.67  621.59   1-0.21762 0.23990-0.66802 0.93749 0.71160-0.25210
  -1   2   711029.71  781.44   1 0.78255-0.76060 0.61600-0.34646-0.09028 0.54903
  -1   2   710771.55  803.03   1 0.84634-0.82424 0.53081-0.26117-0.04387 0.50239
  -1   2   6 4700.19  415.87   1-0.22459 0.22880-0.66998 0.92153 0.70758-0.31372
  -1   2   6 6357.03  414.81   1 0.76140-0.75746 0.63384-0.38235-0.13599 0.52919
  -1   2   6 5965.53  437.09   1 0.85159-0.84751 0.52016-0.26848-0.06482 0.45784
  -1   2   5 6214.19  454.95   1-0.21452 0.20066-0.66714 0.90076 0.71337-0.38516
  -1   2   5 6896.93  432.80   1 0.73573-0.74980 0.65142-0.41788-0.18532 0.51299
  -1   2   5 7755.94  359.08   1 0.85536-0.86931 0.51161-0.27789-0.08122 0.40874
  -1   2   424132.56  640.05   1-0.16926 0.13733-0.65328 0.86899 0.73794-0.47537
  -1   2   424639.04  644.63   1 0.70212-0.73422 0.66935-0.45376-0.24285 0.50498
  -1   2   424603.27  719.84   1 0.85741-0.88938 0.50655-0.29080-0.09073 0.35274
   1  -2  -423653.01  673.85   1 0.86781-0.83595 0.32022-0.53598-0.37994 0.11792
  -1   2   318168.56  301.51   1-0.03080-0.01911-0.59991 0.79776 0.79947-0.60266
  -1   2   317657.39  295.65   1 0.64737-0.69748 0.68972-0.49209-0.32432 0.52091
  -1   2   317373.03  386.27   1 0.85700-0.90698 0.50761-0.30982-0.08876 0.28527
   1  -2  -316508.37  357.12   1 0.87361-0.82362 0.35190-0.54968-0.33610 0.13959
   1  -2  -2 4960.64   94.89   1-0.47913 0.54722-0.70967 0.52988 0.51651-0.64789
  -1   2   2 4526.02   88.64   1 0.44829-0.51633-0.29483 0.47474 0.84386-0.71275
  -1   2   2 4799.66  170.07   1 0.85166-0.91967 0.52002-0.34020-0.06510 0.19611
   1  -2  -2 4861.25  163.11   1 0.87641-0.80840 0.38839-0.56820-0.28470 0.15369
   1  -2  -190643.90 1253.91   1 0.67779-0.59164-0.05300-0.10881 0.73333-0.79882
  -1   2   187001.67 1204.68   1 0.84250-0.92868 0.53213-0.37041 0.08377-0.01824
  -1   2   188514.33 1289.00   1 0.83125-0.91732 0.55583-0.39397 0.00812 0.05737
   1  -2  -188503.10 1285.97   1 0.87470-0.78867 0.43465-0.59650-0.21438 0.14888
   1  -2   0158781.0 3822.97   1 0.85205-0.74782 0.50790-0.65170 0.12660-0.12660
  -1   2   0155222.2 2162.45   1 0.74220-0.84637 0.64735-0.50357-0.17338 0.17338
  -1   2   0150096.5 2090.95   1 0.73296-0.83712 0.64014-0.49623 0.23016-0.23016
   1  -2   0156669.2 3771.28   1 0.85620-0.75215 0.50959-0.65348-0.08502 0.08502
   1  -2   112806.86  259.87   1 0.79579-0.67356 0.60269-0.72856-0.05895 0.12449
  -1   2  -112826.98  263.70   1 0.69084-0.81302 0.67435-0.54852-0.26075 0.19521
   1  -2   112696.27  196.60   1 0.63582-0.51365 0.67360-0.79953 0.37680-0.31128
   1  -2   2168039.9 4085.65   1 0.76882-0.62861 0.62797-0.73584-0.12065 0.25172
  -1   2  -2154631.9 2219.10   1 0.65276-0.79297 0.68811-0.58024-0.31684 0.18577
   1  -2   2154868.0 2141.75   1 0.81862-0.67831 0.17552-0.28342-0.54684 0.67790
  -1   2  -2158181.7 3800.16   1 0.38512-0.52540-0.32430 0.43229-0.86400 0.73285
   1  -2   310474.43  288.67   1 0.76004-0.60182 0.63488-0.72480-0.13876 0.33536
  -1   2  -3 9474.57  252.93   1 0.61903-0.77725 0.69698-0.60707-0.36193 0.16534
   1  -2   3 9579.05  200.95   1 0.86965-0.71132 0.33015-0.42007-0.36700 0.56352
  -1   2  -3 9520.09  198.70   1 0.66446-0.82276-0.06004 0.14995-0.74490 0.54824
   1  -2   4  504.27  113.77   1 0.76082-0.58458 0.63429-0.70626-0.13719 0.39932
  -1   2  -4  153.01   78.44   1 0.58680-0.76304 0.70306-0.63109-0.40169 0.13956
   1  -2   4  174.45   85.15   1 0.87646-0.70032 0.39040-0.46242-0.28177 0.54378
  -1   2  -4  317.53   94.30   1 0.72858-0.90507 0.02311 0.04880-0.68456 0.42244
   1  -2   5 4194.30  315.90   1 0.76678-0.57252 0.62963-0.68364-0.12493 0.45259
   1  -2   5 4647.82  326.83   1 0.87519-0.68103 0.42975-0.48381-0.22213 0.54965
  -1   2  -5 4126.43  288.77   1 0.74795-0.94252 0.05130 0.00262-0.66176 0.33411
   1  -2   6 5160.49  377.82   1 0.77547-0.56314 0.62240-0.65848-0.10604 0.49926
   1  -2   6 4637.18  319.58   1 0.87082-0.65864 0.46037-0.49645-0.17241 0.56543
  -1   2  -6 4641.41  324.48   1 0.75165-0.96431 0.05689-0.02096-0.65709 0.26392
   1  -2   7 8461.17  651.45   1 0.78581-0.55546 0.61289-0.63101-0.08279 0.54155
   1  -2   7 7968.53  585.67   1 0.86435-0.63415 0.48649-0.50461-0.12731 0.58584
   1  -2   8 3498.40  360.57   1 0.79685-0.54848 0.60154-0.60170-0.05633 0.58062
   1  -2   8 3418.84  335.40   1 0.85610-0.60787 0.50984-0.50999-0.08456 0.60859
   1  -2   9 2636.58  287.80   1 0.80803-0.54164 0.58849-0.57069-0.02736 0.61719
   1  -2   9 2491.31  271.16   1 0.84612-0.57987 0.53124-0.51343-0.04302 0.63255
   1  -2  10  115.52  109.31   1 0.81898-0.53457 0.57380-0.53804 0.00364 0.65172
   1  -2  10   -4.52   91.76   1 0.83445-0.55022 0.55106-0.51523-0.00208 0.65710
   1  -2  11  302.55  188.82   1 0.82939-0.52696 0.55747-0.50375 0.03640 0.68449
   1  -2  11  159.40  105.28   1 0.82096-0.51871 0.56965-0.51584 0.03873 0.68178
   1  -2  12  392.28  152.35   1 0.83916-0.51837 0.53926-0.46804 0.07065 0.71569
   1  -2  12  149.00   82.32   1 0.80559-0.48532 0.58708-0.51530 0.07968 0.70634
   1  -2  13  280.85  127.99   1 0.84781-0.50897 0.51951-0.43037 0.10640 0.74546
   1  -2  13   48.34   82.95   1 0.78858-0.44948 0.60301-0.51301 0.12045 0.73128
  -1   1  13   85.03   78.31   1 0.86393-0.74407 0.46136-0.15624 0.20190 0.64957
  -1   1  13  342.65  163.00   1 0.77087-0.65013 0.61694-0.31107 0.15852 0.69321
  -1   1  12  617.39  210.11   1 0.85854-0.75621 0.48611-0.19919 0.16308 0.62326
  -1   1  12  604.84  227.83   1 0.78514-0.68247 0.60591-0.31803 0.12813 0.65808
  -1   1  11 2003.35  207.45   1 0.85199-0.76772 0.50808-0.23907 0.12630 0.59451
  -1   1  11 1471.10  296.08   1 0.79731-0.71331 0.59523-0.32560 0.09990 0.62062
  -1   1  10  267.19  118.98   1 0.84437-0.77815 0.52787-0.27679 0.09149 0.56379
  -1   1  10  174.56  178.01   1 0.80814-0.74215 0.58441-0.33275 0.07322 0.58179
  -1   1   9  884.79  129.89   1 0.83603-0.78785 0.54550-0.31233 0.05897 0.53078
  -1   1   9  571.76  162.72   1 0.81731-0.76933 0.57411-0.34042 0.04893 0.54058
  -1   1   8 3968.48  378.20   1 0.82726-0.79730 0.56105-0.34546 0.02936 0.49492
  -1   1   8 4492.13  447.18   1 0.82481-0.79485 0.56472-0.34900 0.02763 0.49638
  -1   1   7 9055.98  647.63   1-0.40074 0.41293-0.70524 0.90213 0.58483-0.12505
  -1   1   711158.26  594.50   1 0.81897-0.80704 0.57381-0.37619 0.00360 0.45514
  -1   1   710613.19  626.57   1 0.83056-0.81861 0.55682-0.35907 0.01027 0.44824
  -1   1   6 2412.52  197.46   1-0.43844 0.43275-0.70807 0.88730 0.55353-0.15940
  -1   1   6 2274.98  198.98   1 0.81208-0.81817 0.58330-0.40364-0.01624 0.40945
  -1   1   6 2875.38  253.54   1 0.83431-0.84038 0.55128-0.37151-0.00162 0.39463
  -1   1   5 2491.05  129.77   1-0.47666 0.45287-0.70963 0.87100 0.51884-0.19040
  -1   1   5 2623.69  138.77   1 0.80855-0.83266 0.58784-0.42614-0.02597 0.35365
  -1   1   5 2844.82  199.58   1 0.83547-0.85956 0.54949-0.38769-0.00542 0.33293
  -1   1   4  320.44   55.38   1-0.51767 0.47578-0.70915 0.85265 0.47864-0.21589
  -1   1   314686.93  258.54   1 0.83390-0.89400 0.54952-0.42386 0.05133 0.14525
   1  -1  -314892.93  259.16   1 0.56570-0.50556 0.70593-0.83168-0.42618 0.22958
  -1   1   314433.10  332.95   1 0.82215-0.88226 0.56816-0.44230 0.03535 0.16115
   1  -1  -314191.40  316.41   1 0.87114-0.81108 0.45870-0.58454-0.17520-0.02130
  -1   1   2 4597.65  152.54   1 0.79253-0.87059 0.59955-0.49161 0.11145 0.01958
   1  -1  -163378.81  876.26   1 0.34361-0.24746-0.37911 0.28916 0.85918-0.92474
  -1   1   159775.66  880.71   1 0.69792-0.79402 0.65534-0.56538 0.28880-0.22329
   1  -1  -161916.39  907.28   1 0.77946-0.68333 0.61048-0.70043 0.14050-0.20602
   1  -1   0 4038.29  109.95   1-0.36160 0.47596-0.70018 0.62807 0.61561-0.61561
  -1   1   0 3982.47  119.48   1 0.34208-0.45625 0.66919-0.59722 0.65966-0.65966
   1  -1   0 4105.48  100.70   1 0.51234-0.39820 0.68602-0.75799 0.51659-0.51659
   1  -1   149357.35  750.98   1-0.46103 0.59346-0.70922 0.65506 0.53333-0.46764
   1  -1   145361.80  696.69   1 0.58223-0.45002 0.70375-0.75769-0.40709 0.47262
   1  -1   147274.29  686.89   1 0.39008-0.25785-0.32112 0.26714-0.86296 0.92851
  -1   1  -147165.35  687.40   1 0.13391-0.26621-0.48925 0.54324-0.86179 0.79625
   1  -1   2108744.2 1591.52   1 0.61916-0.46893 0.69696-0.73294-0.36177 0.49283
   1  -1   2110773.8 1574.95   1 0.73478-0.58442 0.03194-0.06790-0.67754 0.80860
  -1   1  -2108490.7 1543.20   1 0.53355-0.68379-0.19866 0.23457-0.82210 0.69093
   1  -1   314751.79  344.57   1-0.47986 0.64849-0.70968 0.69126 0.51582-0.31876
   1  -1   314122.01  334.20   1 0.64944-0.48119 0.68911-0.70714-0.32146 0.51806
   1  -1   315844.61  325.10   1 0.82960-0.66115 0.19999-0.21796-0.52130 0.71789
  -1   1  -314686.10  296.76   1 0.66404-0.83240-0.06054 0.07851-0.74524 0.54857
   1  -1   416076.60  492.53   1-0.46683 0.65356-0.70941 0.70885 0.52801-0.26526
   1  -1   417079.96  536.08   1 0.67620-0.48994 0.68017-0.68024-0.28304 0.54517
   1  -1   417833.64  522.30   1 0.86140-0.67495 0.29195-0.29196-0.41561 0.67763
  -1   1  -416247.65  481.36   1 0.71115-0.89759-0.00088 0.00085-0.70303 0.44081
   1  -1   5 7811.38  328.95   1 0.70058-0.49630 0.67006-0.65219-0.24533 0.57299
   1  -1   5 7857.15  310.35   1 0.87361-0.66937 0.35192-0.33404-0.33607 0.66358
  -1   1  -5 7577.75  322.07   1 0.72861-0.93323 0.02315-0.04117-0.68453 0.35688
   1  -1   613083.96  706.33   1 0.72310-0.50080 0.65875-0.62292-0.20776 0.60096
   1  -1   612841.98  677.05   1 0.87656-0.65430 0.39773-0.36187-0.27100 0.66402
   1  -1   7 7011.83  544.58   1 0.74398-0.50367 0.64619-0.59241-0.17004 0.62877
   1  -1   7 8470.15  633.05   1 0.87468-0.63440 0.43488-0.38106-0.21402 0.67255
   1  -1   8 1624.23  184.76   1 0.76337-0.50503 0.63233-0.56059-0.13199 0.65625
   1  -1   8 1234.82  152.24   1 0.86952-0.61122 0.46658-0.39479-0.16192 0.68595
   1  -1   9 1986.34  235.39   1 0.78115-0.50474 0.61730-0.52759-0.09345 0.68328
   1  -1   9 1775.25  247.15   1 0.86179-0.58547 0.49453-0.40478-0.11287 0.70240
   1  -1  10 2696.68  865.49   1 0.79763-0.50321 0.60067-0.49300-0.05437 0.70973
   1  -1  10 3904.02  310.26   1 0.85181-0.55746 0.51970-0.41198-0.06572 0.72075
   1  -1  11  759.31  253.50   1 0.81266-0.50021 0.58255-0.45692-0.01463 0.73553
   1  -1  11  924.92  289.10   1 0.83973-0.52741 0.54264-0.41689-0.01977 0.74029
   1  -1  12  387.79  190.18   1 0.82616-0.49569 0.56283-0.41924 0.02583 0.76060
   1  -1  12  265.14  100.85   1 0.82552-0.49519 0.56378-0.42006 0.02554 0.76048
  -1   0  13  763.92  147.87   1 0.86670-0.75684 0.44158-0.20837 0.23198 0.61948
  -1   0  13  702.27  174.49   1 0.75254-0.64184 0.62913-0.39521 0.19460 0.65713
  -1   0  12  337.13  125.94   1 0.86374-0.77189 0.46243-0.24716 0.20023 0.58574
  -1   0  12  471.58  189.51   1 0.76638-0.67377 0.62011-0.40419 0.16763 0.61859
  -1   0  11  327.21  121.44   1 0.85974-0.78548 0.48123-0.28413 0.17101 0.54980
  -1   0  11  677.19  269.62   1 0.77830-0.70376 0.61138-0.41345 0.14297 0.57772
  -1   0  10   -6.57   74.48   1 0.85556-0.79935 0.49688-0.31769 0.14528 0.51000
  -1   0  10  344.64  160.76   1 0.78829-0.73181 0.60326-0.42332 0.12111 0.53407
  -1   0   9  310.30  140.57   1 0.85147-0.81330 0.50958-0.34832 0.12371 0.46604
  -1   0   9  187.74  120.00   1 0.79587-0.75797 0.59657-0.43482 0.10330 0.48621
  -1   0   8 6315.20  563.73   1 0.84809-0.82797 0.51878-0.37543 0.10769 0.41654
  -1   0   8 5106.65  488.98   1 0.80163-0.78173 0.59107-0.44730 0.08950 0.43451
  -1   0   7 9251.35  507.50   1 0.84626-0.84419 0.52336-0.39794 0.09956 0.35913
  -1   0   7 9090.16  527.69   1 0.80471-0.80283 0.58798-0.46218 0.08189 0.37662
  -1   0   6 4360.35  320.69   1 0.84716-0.86313 0.52114-0.41363 0.10352 0.28964
   1   0  -6 4506.99  323.59   1 0.60586-0.58975 0.69973-0.80744-0.37855-0.01464
  -1   0   6 4462.84  346.11   1 0.80419-0.82033 0.58851-0.48068 0.08317 0.30983
  -1   0   5  742.54   81.97   1 0.85225-0.88627 0.50732-0.41773 0.12760 0.20004
   1   0  -5  943.20  100.36   1 0.66772-0.63360 0.68322-0.77299-0.29552-0.03213
  -1   0   5  850.43  106.06   1 0.79812-0.83227 0.59447-0.50461 0.09798 0.22952
   1   0  -5  902.65  107.36   1 0.87419-0.84009 0.43910-0.52893-0.20727-0.12024
  -1   0   4 2424.24  118.54   1 0.86217-0.91423 0.47014-0.39847 0.18873 0.07338
   1   0  -4 2467.02  110.67   1 0.74059-0.68845 0.64838-0.72019-0.17638-0.08574
  -1   0   4 2797.17  153.28   1 0.78239-0.83435 0.60815-0.53618 0.13417 0.12790
   1   0  -4 2346.13  129.03   1 0.86138-0.80926 0.49574-0.56760-0.11067-0.15134
  -1   0   3 4593.14  141.31   1 0.86800-0.93819 0.37496-0.32115 0.32553-0.12903
   1   0  -3 4531.95  129.30   1 0.82474-0.75457 0.56511-0.61898 0.02128-0.21789
  -1   0   3 4501.41  158.33   1 0.74458-0.81461 0.63383-0.57985 0.20939-0.01283
   1   0  -3 4381.97  148.16   1 0.82649-0.75631 0.56248-0.61639 0.02266-0.21917
  -1   0   2  175.70   26.61   1 0.79105-0.87928 0.12312-0.08720 0.59923-0.46824
   1   0  -2  263.44   36.55   1 0.86171-0.77354 0.32264-0.35852 0.39158-0.52258
  -1   0   2  224.79   79.31   1 0.65244-0.74054 0.66969-0.63369 0.35470-0.22367
   1   0  -2  248.09   49.69   1 0.73808-0.64998 0.63744-0.67342 0.22112-0.35216
  -1   0   169214.54  983.71   1 0.39469-0.50089-0.33950 0.35747 0.85378-0.78823
   1   0  -167352.80  957.30   1 0.54218-0.43597-0.20776 0.18978 0.81416-0.87972
  -1   0   169579.34 1013.78   1 0.41400-0.52016 0.68017-0.66216 0.60494-0.53941
   1   0  -170049.81 1021.07   1 0.51095-0.40480 0.68602-0.70404 0.51797-0.58348
  -1   0   046510.49  692.82   1-0.06217-0.06217-0.61318 0.61318 0.78748-0.78748
   1   0   046762.33  693.59   1 0.06216 0.06216-0.55575 0.55575 0.82902-0.82902
   1   0   048782.33  727.95   1 0.06211 0.06211 0.58512-0.58512 0.80856-0.80856
  -1   0  -171794.82 1077.16   1-0.30407 0.16161-0.68988 0.67205 0.65696-0.72264
   1   0   174924.10 1122.22   1-0.17008 0.31257-0.65355 0.67147 0.73751-0.67187
   1   0   174351.87 1084.20   1 0.50082-0.35853-0.22871 0.24667-0.83478 0.90033
  -1   0  -171646.12 1047.39   1 0.35604-0.49840-0.34625 0.32831-0.86795 0.80237
  -1   0  -2999998.323977.82   1-0.43549 0.27495-0.70787 0.67214 0.55610-0.68747
   1   0   2952195.222810.67   1 0.71195-0.55160 0.00018 0.03580-0.70222 0.83333
  -1   0  -2923568.422127.74   1 0.56253-0.72281-0.17059 0.13455-0.80897 0.67781
   1   0   378097.76 1205.39   1 0.80190-0.62340 0.14187-0.08789-0.58035 0.77694
  -1   0  -375821.99 1162.71   1 0.65039-0.82882-0.07665 0.02267-0.75571 0.55905
   1   0   461159.48 1562.60   1-0.32243 0.51911-0.69352 0.76482 0.64425-0.38152
   1   0   471518.81 1815.35   1 0.84360-0.64701 0.23529-0.16332-0.48266 0.74477
   1   0   5 8925.47  363.97   1 0.62558-0.41128 0.69547-0.60571-0.35347 0.68114
   1   0   5 8215.03  353.01   1 0.86397-0.64939 0.30239-0.21250-0.40263 0.73015
   1   0   6 2515.16  238.10   1 0.66454-0.43222 0.68432-0.57660-0.30013 0.69333
   1   0   6 1912.50  212.37   1 0.87382-0.64149 0.35372-0.24592-0.33361 0.72663
   1   0   7  402.25  151.25   1 0.69778-0.44744 0.67133-0.54566-0.24982 0.70855
   1   0   7  516.44  173.44   1 0.87656-0.62620 0.39668-0.27091-0.27255 0.73107
   1   0   8 1101.52  185.47   1 0.72673-0.45837 0.65672-0.51310-0.20142 0.72568
   1   0   8  822.90  196.75   1 0.87484-0.60646 0.43335-0.28962-0.21645 0.74048
   1   0   9 1774.38  227.15   1 0.75226-0.46589 0.64056-0.47898-0.15419 0.74398
   1   0   9 2303.56  298.02   1 0.86975-0.58335 0.46553-0.30383-0.16371 0.75324
   1   0  10 3171.24  291.48   1 0.77474-0.47030 0.62304-0.44345-0.10763 0.76299
   1   0  10 4005.33  362.63   1 0.86186-0.55744 0.49433-0.31467-0.11323 0.76826
   1   0  11  603.38  213.71   1 0.79482-0.47236 0.60372-0.40618-0.06133 0.78223
   1   0  11  817.89  262.30   1 0.85146-0.52902 0.52045-0.32283-0.06426 0.78480
   1   0  12   49.07  106.44   1 0.81252-0.47203 0.58273-0.36722-0.01501 0.80145
   1   0  12  153.60  111.75   1 0.83871-0.49830 0.54433-0.32866-0.01626 0.80228
  -1  -1  13 1030.67  201.75   1 0.86848-0.76862 0.41846-0.25716 0.26573 0.58573
  -1  -1  13 1155.46  198.40   1 0.72786-0.62721 0.64272-0.48076 0.23899 0.61274
  -1  -1  12 1647.03  198.29   1 0.86729-0.78543 0.43585-0.29248 0.24049 0.54547
  -1  -1  11 1132.68  241.57   1 0.86563-0.80178 0.45029-0.32486 0.21887 0.50160
  -1  -1  11  798.78  208.29   1 0.75131-0.68681 0.62987-0.50390 0.19691 0.52379
  -1  -1  10  307.63  146.40   1 0.86391-0.81806 0.46148-0.35399 0.20171 0.45327
  -1  -1  10  220.21  117.27   1 0.75945-0.71302 0.62477-0.51679 0.18135 0.47383
  -1  -1   9 4919.80  244.48   1 0.86256-0.83472 0.46881-0.37926 0.19024 0.39923
  -1  -1   9 6242.61  299.97   1 0.76480-0.73644 0.62120-0.53122 0.17080 0.41886
  -1  -1   817390.33 1223.80   1 0.86184-0.85173 0.47176-0.40032 0.18616 0.33806
  -1  -1   816999.73 1205.46   1 0.76673-0.75645 0.61987-0.54788 0.16693 0.35721
  -1  -1   712022.95  651.12   1 0.86292-0.87109 0.46695-0.41328 0.19317 0.26531
  -1  -1   711704.45  638.93   1 0.76403-0.77182 0.62173-0.56773 0.17233 0.28629
  -1  -1   653404.94 1568.36   1 0.86532-0.89149 0.45253-0.41679 0.21548 0.17750
   1   1  -649991.33 1465.66   1 0.72105-0.69492 0.65986-0.69569-0.21129-0.18189
  -1  -1   653185.76 1576.65   1 0.75435-0.78021 0.62801-0.59201 0.19116 0.20194
  -1  -1   5 5743.50  227.30   1 0.86833-0.91252 0.42145-0.40366 0.26146 0.06603
   1   1  -5 5217.53  210.80   1 0.78003-0.73589 0.61833-0.63620-0.09595-0.23172
  -1  -1   5 5310.48  228.66   1 0.73287-0.77680 0.64019-0.62218 0.23032 0.09726
   1   1  -5 4794.07  203.77   1 0.85507-0.81089 0.51232-0.53021-0.07987-0.24764
  -1  -1   4 4091.71  175.12   1 0.86693-0.92905 0.36053-0.36069 0.34416-0.08217
   1   1  -4 4023.10  152.70   1 0.83635-0.77427 0.54487-0.54465 0.06014-0.32226
  -1  -1   4 4261.93  190.84   1 0.68963-0.75166 0.65841-0.65836 0.30148-0.03942
   1   1  -4 3313.58  149.88   1 0.81497-0.75273 0.57685-0.57680 0.05530-0.31731
  -1  -1   3 4288.10  162.41   1 0.84187-0.92204 0.24391-0.26201 0.48139-0.28490
   1   1  -3 4236.28  135.67   1 0.86875-0.78855 0.41059-0.39251 0.27690-0.47339
  -1  -1   3 4662.42  164.41   1 0.59980-0.67988 0.67992-0.69785 0.42181-0.22529
   1   1  -3 3781.72  135.80   1 0.72742-0.64734 0.64294-0.62496 0.23974-0.43630
  -1  -1   2125407.7 1783.64   1 0.73981-0.83808 0.03479-0.07080 0.67190-0.54091
   1   1  -2128979.3 1828.05   1 0.81532-0.71705 0.17404-0.13803 0.55222-0.68321
  -1  -1   2133099.9 1903.09   1 0.41475-0.51289 0.68025-0.71620 0.60434-0.47328
   1   1  -2124748.6 1785.67   1 0.54180-0.44366 0.68529-0.64935 0.48664-0.61765
  -1  -1   111283.60  230.47   1 0.49634-0.61259-0.25181 0.19781 0.83080-0.76524
   1   1  -110733.79  213.83   1 0.60054-0.48429-0.14665 0.20065 0.78602-0.85158
  -1  -1   111051.49  229.50   1 0.08559-0.20181 0.59451-0.64847 0.79951-0.73399
   1   1  -110824.63  252.02   1 0.21076-0.09453 0.63763-0.58367 0.74094-0.80646
  -1  -1   058788.21  883.72   1 0.17739-0.31172-0.49199 0.41994 0.85233-0.85233
   1   1   059177.40  885.46   1 0.30494-0.17056-0.40787 0.47986 0.86060-0.86060
   1   1   059089.49  888.24   1 0.29508-0.16072-0.38970 0.46163-0.87238 0.87238
  -1  -1   056227.01  846.33   1 0.16590-0.30021-0.47108 0.39914-0.86634 0.86634
  -1  -1  -1 8812.83  224.24   1-0.08463-0.06786-0.62221 0.53225 0.77825-0.84385
   1   1   1 8331.98  211.05   1 0.08040 0.07204-0.54635 0.63632 0.83368-0.76805
   1   1   1 9054.56  228.23   1 0.56447-0.41219-0.16866 0.25863-0.80803 0.87361
  -1  -1  -1 7900.64  211.63   1 0.42488-0.57723-0.29357 0.20367-0.85632 0.79076
  -1  -1  -2135141.9 1984.44   1-0.26520 0.09453-0.68057 0.57272 0.68299-0.81428
   1   1   2128877.1 1879.13   1-0.05308 0.22370-0.60942 0.71731 0.79106-0.65986
   1   1   2135523.3 1977.21   1 0.71120-0.54079-0.00081 0.10875-0.70298 0.83409
  -1  -1  -2129430.2 1889.19   1 0.56192-0.73223-0.17120 0.06321-0.80927 0.67811
  -1  -1  -356307.02 1460.98   1-0.39016 0.20153-0.70404 0.57845 0.59337-0.79042
   1   1   353387.99 1371.75   1-0.12700 0.31573-0.63882 0.76460 0.75879-0.56186
   1   1   355562.35 1433.56   1 0.78888-0.60032 0.11790 0.00802-0.60312 0.79971
  -1  -1  -351596.23 1324.68   1 0.63056-0.81905-0.09925-0.02667-0.76976 0.57309
  -1  -1  -4  357.11   81.85   1-0.48131 0.27454-0.70970 0.56620 0.51444-0.77720
   1   1   4  303.85   69.88   1-0.16594 0.37274-0.65220 0.79589 0.73965-0.47708
   1   1   4  172.11  102.12   1 0.83166-0.62502 0.20485-0.06093-0.51611 0.77822
  -1  -1  -4  183.19   59.55   1 0.66556-0.87212-0.05872-0.08519-0.74402 0.48180
   1   1   5  309.13  131.49   1 0.54918-0.32485 0.70762-0.54597-0.44459 0.77225
   1   1   5  283.99  120.06   1 0.85577-0.63114 0.27157-0.10975-0.44033 0.76785
   1   1   6  125.72  100.26   1 0.60462-0.36227 0.69997-0.52037-0.38009 0.77328
   1   1   6  182.18  132.50   1 0.86884-0.62614 0.32564-0.14585-0.37290 0.76594
   1   1   7  225.08  113.10   1 0.65046-0.39010 0.68881-0.49125-0.32004 0.77877
   1   1   7  745.54  207.61   1 0.87542-0.61499 0.37005-0.17235-0.31094 0.76946
   1   1   8 1134.19  171.29   1 0.68929-0.41091 0.67499-0.45949-0.26315 0.78741
   1   1   8 1066.88  203.28   1 0.87642-0.59796 0.40925-0.19357-0.25376 0.77779
   1   1   9 2814.14  302.58   1 0.72270-0.42630 0.65897-0.42551-0.20845 0.79825
   1   1   9 3159.32  768.51   1 0.87357-0.57710 0.44385-0.21022-0.19962 0.78915
   1   1  10 1150.53  257.86   1 0.75172-0.43730 0.64094-0.38952-0.15524 0.81057
   1   1  10  741.12  184.30   1 0.86755-0.55305 0.47492-0.22331-0.14762 0.80265
   1   1  11  283.36  105.54   1 0.77686-0.44438 0.62118-0.35172-0.10300 0.82390
   1   1  11  314.38  151.61   1 0.85873-0.52621 0.50313-0.23356-0.09710 0.81764
   1   1  12  329.08  156.55   1 0.79889-0.44838 0.59929-0.31187-0.05122 0.83766
   1   1  12  -34.28   99.08   1 0.84731-0.49677 0.52895-0.24142-0.04758 0.83362
  -1  -2  13  483.27  218.33   1 0.86875-0.77889 0.39227-0.30286 0.30229 0.54917
  -1  -2  13  239.61  135.81   1 0.69581-0.60533 0.65615-0.56604 0.29207 0.55960
  -1  -2  12 1795.38  216.41   1 0.86883-0.79697 0.40613-0.33467 0.28316 0.50281
  -1  -2  12 1201.16  251.71   1 0.70682-0.63441 0.65181-0.57971 0.27484 0.51132
  -1  -2  11 1172.14  241.96   1 0.86856-0.81471 0.41662-0.36309 0.26836 0.45211
  -1  -2  11 1131.82  240.72   1 0.71488-0.66053 0.64837-0.59427 0.26181 0.45883
  -1  -2  10 3388.12  347.88   1 0.86824-0.83239 0.42321-0.38762 0.25892 0.39605
  -1  -2  10 3550.99  221.99   1 0.71891-0.68253 0.64698-0.61096 0.25410 0.40108
  -1  -2   9 4487.05  277.68   1 0.86813-0.85029 0.42505-0.40740 0.25627 0.33320
  -1  -2   9 4032.22  230.61   1 0.71940-0.70109 0.64676-0.62873 0.25328 0.33638
  -1  -2   8 5169.77  414.93   1 0.86837-0.86854 0.42073-0.42102 0.26250 0.26148
  -1  -2   8 5197.61  412.44   1 0.71494-0.71478 0.64834-0.64825 0.26171 0.26239
  -1  -2   7  -20.64   96.70   1 0.86880-0.88697 0.40795-0.42618 0.28062 0.17786
  -1  -2   7  378.36   97.92   1 0.70170-0.71960 0.65388-0.67179 0.28292 0.17567
  -1  -2   6 8482.14  354.32   1 0.86843-0.90461 0.38287-0.41904 0.31500 0.07798
  -1  -2   6 8276.92  328.25   1 0.67561-0.71157 0.66311-0.69902 0.32221 0.07086
  -1  -2   566521.75 1696.27   1 0.86432-0.91845 0.33892-0.39307 0.37156-0.04407
   1   2  -561617.33 1566.07   1 0.83508-0.78103 0.54731-0.49310 0.05553-0.38318
  -1  -2   563812.57 1625.17   1 0.62764-0.68166 0.67529-0.72921 0.38733-0.05976
  -1  -2   416406.50  361.73   1 0.84850-0.92066 0.26568-0.33776 0.45766-0.19567
   1   2  -415397.46  330.33   1 0.86503-0.79284 0.45449-0.38244 0.21248-0.47447
   1   2  -415331.82  322.59   1 0.73495-0.66290 0.63911-0.56717 0.22667-0.48875
  -1  -2   395455.92 1425.12   1 0.80345-0.89374 0.14811-0.23810 0.57664-0.38016
   1   2  -397002.99 1436.04   1 0.86042-0.77021 0.31563-0.22561 0.40004-0.59653
  -1  -2   3101360.0 1494.10   1 0.38693-0.47705 0.67672-0.76662 0.62635-0.42976
   1   2  -395051.82 1406.32   1 0.58400-0.49386 0.68195-0.59205 0.44031-0.63684
  -1  -2   233648.12  575.23   1 0.69986-0.80813-0.02350-0.08442 0.71388-0.58290
   1   2  -232956.85  553.26   1 0.79067-0.68236 0.12239-0.01444 0.59988-0.73086
  -1  -2   235342.10  596.47   1 0.13981-0.24803 0.61464-0.72256 0.77631-0.64527
   1   2  -233564.26  564.62   1 0.33049-0.22230 0.66699-0.55905 0.66775-0.79877
  -1  -2   1  595.84   81.64   1 0.51677-0.64304-0.23257 0.10660 0.82392-0.75837
   1   2  -1  564.66   66.32   1 0.63907-0.51278-0.10115 0.22705 0.76246-0.82795
   1   2  -1  636.24   72.83   1 0.01032 0.11597 0.56298-0.43706 0.82640-0.89192
   1   2  -1  586.99   69.85   1 0.16414-0.03785-0.47210 0.59802-0.86612 0.80057
  -1  -2   013159.72  301.43   1 0.27999-0.42442-0.42534 0.28138 0.86063-0.86063
   1   2   011971.99  266.82   1 0.44268-0.29825-0.29969 0.44365 0.84511-0.84511
   1   2   012457.75  289.62   1 0.43124-0.28684-0.28839 0.43227-0.85490 0.85490
  -1  -2   012480.70  272.80   1 0.26466-0.40910-0.41014 0.26627-0.87277 0.87277
  -1  -2  -1 2284.47  124.09   1 0.05092-0.21337-0.56140 0.39939 0.82597-0.89160
   1   2   1 2188.03  125.05   1 0.26312-0.10052-0.43682 0.59877 0.86020-0.79457
   1   2   1 1799.88  132.34   1 0.61123-0.44891-0.12029 0.28221-0.78225 0.84783
  -1  -2  -1 2637.03  150.93   1 0.44487-0.60727-0.27716 0.11532-0.85162 0.78607
  -1  -2  -2 9453.51  265.28   1-0.13640-0.04438-0.64216 0.46229 0.75433-0.88561
   1   2   2 8157.76  231.14   1 0.13081 0.04975-0.51904 0.69897 0.84467-0.71341
   1   2   2 8805.43  273.94   1 0.72015-0.53968 0.01136 0.16851-0.69371 0.82482
  -1  -2  -2 7641.97  228.49   1 0.54892-0.72926-0.18393 0.00400-0.81538 0.68421
  -1  -2  -312801.29  493.07   1-0.28086 0.08220-0.68483 0.48713 0.67240-0.86944
   1   2   311883.46  387.62   1 0.04245 0.15623-0.56560 0.76344 0.82358-0.62668
   1   2   312026.47  414.80   1 0.78563-0.58702 0.11218 0.08568-0.60843 0.80501
  -1  -2  -311933.02  405.00   1 0.60717-0.80554-0.12465-0.07330-0.78472 0.58797
  -1  -2  -412763.60  487.41   1-0.39199 0.17526-0.70425 0.48873 0.59191-0.85464
   1   2   411550.52  453.94   1 0.82577-0.60907 0.19118 0.02468-0.53061 0.79272
  -1  -2  -5 2113.14  227.93   1-0.47954 0.24464-0.70968 0.47628 0.51613-0.84457
   1   2   5 2467.28  235.93   1 0.85054-0.61586 0.25482-0.02107-0.46004 0.78757
   1   2   6  298.50  126.78   1 0.54770-0.29532 0.70775-0.45626-0.44621 0.83940
   1   2   6  252.48  143.46   1 0.86528-0.61253 0.30813-0.05641-0.39540 0.78843
   1   2   7  663.99  128.25   1 0.60505-0.33466 0.69989-0.43044-0.37955 0.83828
   1   2   7  620.43  211.35   1 0.87373-0.60322 0.35294-0.08329-0.33468 0.79321
   1   2   8  416.68  164.90   1 0.65319-0.36478 0.68798-0.40058-0.31625 0.84051
   1   2   8  254.86  150.33   1 0.87651-0.58798 0.39301-0.10540-0.27794 0.80197
   1   2   9  266.51  124.80   1 0.69418-0.38776 0.67291-0.36756-0.25550 0.84530
   1   2   9  167.32  127.96   1 0.87528-0.56872 0.42874-0.12316-0.22371 0.81325
   1   2  10  313.02  101.48   1 0.72944-0.40499 0.65517-0.33186-0.19663 0.85196
   1   2  10   99.36  113.94   1 0.87069-0.54611 0.46102-0.13748-0.17131 0.82635
   1   2  11  193.43   96.16   1 0.75989-0.41743 0.63499-0.29374-0.13906 0.85992
   1   2  11  392.89  159.18   1 0.86312-0.52052 0.49046-0.14895-0.12021 0.84075
  -1  -3  14 2781.95  259.71   1 0.86573-0.76749 0.34956-0.31419 0.35819 0.55877
  -1  -3  13  239.02  138.86   1 0.86719-0.78699 0.36330-0.34586 0.34057 0.51089
  -1  -3  13  303.65  123.38   1 0.65303-0.57261 0.66954-0.65140 0.35390 0.49777
  -1  -3  12  893.13  215.34   1 0.86791-0.80605 0.37361-0.37404 0.32732 0.45865
  -1  -3  12  351.92  161.72   1 0.66095-0.59859 0.66744-0.66730 0.34301 0.44315
  -1  -3  11 1621.60  313.77   1 0.86830-0.82445 0.38014-0.39851 0.31865 0.40182
  -1  -3  11 1669.84  320.85   1 0.66485-0.62056 0.66634-0.68420 0.33756 0.38309
  -1  -3  10 1745.37  268.83   1 0.86840-0.84255 0.38218-0.41849 0.31593 0.33905
  -1  -3  10 2317.49  249.25   1 0.66383-0.63760 0.66663-0.70250 0.33899 0.31614
  -1  -3   9  685.13  190.03   1 0.86822-0.86038 0.37868-0.43294 0.32059 0.26888
  -1  -3   9  213.11  125.14   1 0.65638-0.64821 0.66867-0.72254 0.34932 0.24029
  -1  -3   8  964.67  153.50   1 0.86759-0.87761 0.36803-0.44028 0.33441 0.18956
  -1  -3   8  768.45  147.37   1 0.63995-0.64984 0.67269-0.74456 0.37140 0.15270
  -1  -3   7  581.83  170.07   1 0.86552-0.89359 0.34783-0.43802 0.36038 0.09810
  -1  -3   7  468.60   79.40   1 0.61043-0.63839 0.67830-0.76810 0.40898 0.04957
  -1  -3   6 2252.39  203.39   1 0.86019-0.90630 0.31440-0.42253 0.40151-0.00852
  -1  -3   6 2290.25  201.00   1 0.55993-0.60595 0.68420-0.79202 0.46725-0.07420
   1   3  -6 2057.90  181.40   1 0.82076-0.77442 0.56990-0.46191 0.03930-0.43232
  -1  -3   545159.51 1198.68   1 0.84754-0.91170 0.26237-0.38842 0.46133-0.13384
  -1  -3   543909.28 1147.04   1 0.47691-0.54096 0.68510-0.81094 0.55062-0.22297
  -1  -3   4101730.2 2535.49   1 0.81972-0.90203 0.18429-0.32825 0.54230-0.28032
   1   3  -497124.21 2413.23   1 0.86872-0.78653 0.39105-0.24710 0.30395-0.56594
  -1  -3   381035.25 1257.40   1 0.76376-0.86409 0.07366-0.23559 0.64127-0.44479
   1   3  -380286.04 1233.88   1 0.84799-0.74775 0.26393-0.10199 0.45960-0.65609
  -1  -3   382778.10 1303.58   1 0.14644-0.24665 0.61695-0.77883 0.77325-0.57669
   1   3  -2 9273.78  251.91   1 0.78291-0.66457 0.10767 0.07220 0.61274-0.74372
   1   3  -2 9980.06  252.53   1 0.16624-0.04794 0.62366-0.44378 0.76381-0.89485
   1   3  -2 9375.04  237.13   1 0.09624 0.02202-0.50966 0.68956-0.85497 0.72388
  -1  -3   1 3762.94  194.76   1 0.51270-0.64900-0.23645 0.03850 0.82536-0.75980
   1   3  -1 3593.44  151.66   1 0.67130-0.53497-0.06137 0.25920 0.73863-0.80412
   1   3  -1 3846.02  172.35   1 0.33437-0.19793-0.36208 0.55995-0.87010 0.80452
  -1  -3   1 3749.27  152.31   1 0.09889-0.23519-0.50826 0.31040-0.85550 0.92104
  -1  -3   047163.30  787.50   1 0.32339-0.47788-0.39458 0.17864 0.86006-0.86006
   1   3   042810.48  712.27   1 0.53232-0.37790-0.21750 0.43343 0.81811-0.81811
   1   3   045372.73  760.39   1 0.52162-0.36730-0.20984 0.42569-0.82696 0.82696
  -1  -3   045026.21  743.78   1 0.30589-0.46041-0.38224 0.16643-0.87196 0.87196
  -1  -3  -214709.75  457.49   1-0.04919-0.14146-0.60778 0.35583 0.79257-0.92377
   1   3   213507.09  415.12   1 0.27815-0.08733-0.42660 0.67853 0.86060-0.72935
   1   3   215366.41  502.51   1 0.73361-0.54304 0.03026 0.22156-0.67888 0.80994
  -1  -3  -320814.51  685.28   1-0.19764-0.01131-0.66217 0.39236 0.72281-0.91973
   1   3   319490.67  667.42   1 0.78852-0.57986 0.11727 0.15254-0.60371 0.80030
  -1  -3  -4 8272.58 1041.95   1-0.31870 0.09195-0.69281 0.40517 0.64687-0.90960
   1   3   4 7381.75  507.80   1 0.82462-0.59787 0.18861 0.09920-0.53331 0.79542
  -1  -3  -5 2980.23  485.25   1-0.41796 0.17304-0.70649 0.40107 0.57111-0.89955
   1   3   5 3330.37  394.74   1 0.84832-0.60359 0.24820 0.05746-0.46769 0.79522
  -1  -3  -6   93.29   76.66   1-0.49878 0.23576-0.70967 0.38638 0.49756-0.89169
   1   3   6   86.46  137.55   1 0.86328-0.60048 0.29950 0.02413-0.40624 0.79927
   1   3   7 3783.51  323.13   1 0.56399-0.28357 0.70613-0.36479-0.42812 0.88685
   1   3   7 3050.89  357.83   1 0.87190-0.59103 0.34438-0.00276-0.34810 0.80664
   1   3   8 1731.60  240.04   1 0.62026-0.32182 0.69671-0.33742-0.36036 0.88462
   1   3   8 1895.79  265.87   1 0.87622-0.57761 0.38340-0.02384-0.29193 0.81595
   1   3   9  152.69  109.32   1 0.66812-0.35166 0.68309-0.30585-0.29495 0.88474
   1   3   9  360.15  175.17   1 0.87597-0.55934 0.41934-0.04182-0.23834 0.82787
   1   3  10   72.23   87.13   1 0.70914-0.37467 0.66601-0.27082-0.23139 0.88672
   1   3  10  555.53  217.70   1 0.87232-0.53767 0.45206-0.05657-0.18621 0.84125
   1   3  11  223.99  133.69   1 0.74444-0.39195 0.64589-0.23275-0.16919 0.89005
   1   3  11  240.39  141.79   1 0.86564-0.51296 0.48208-0.06862-0.13512 0.85566
  -1  -4  14  493.18  132.43   1 0.59022-0.50183 0.68121-0.71686 0.43311 0.48401
  -1  -4  13  389.27  198.89   1 0.86324-0.79308 0.33174-0.38621 0.38046 0.47100
  -1  -4  13  401.53  155.54   1 0.59807-0.52774 0.68017-0.73384 0.42387 0.42774
  -1  -4  12  756.41  194.62   1 0.86428-0.81217 0.33862-0.41103 0.37194 0.41402
  -1  -4  12  428.12  180.45   1 0.60127-0.54900 0.67971-0.75140 0.42006 0.36604
  -1  -4  11 3821.35  314.12   1 0.86466-0.83059 0.34128-0.43163 0.36862 0.35185
  -1  -4  11 3205.54  268.64   1 0.59888-0.56466 0.68006-0.76976 0.42291 0.29768
  -1  -4  10 4479.73  375.99   1 0.86433-0.84831 0.33895-0.44724 0.37153 0.28344
  -1  -4  10 3786.75  301.79   1 0.58937-0.57322 0.68131-0.78903 0.43410 0.22098
  -1  -4   9 4994.18  274.35   1 0.86304-0.86506 0.33050-0.45673 0.38198 0.20749
  -1  -4   9 5053.94  248.89   1 0.57034-0.57224 0.68335-0.80909 0.45578 0.13379
  -1  -4   8 9066.15  803.65   1 0.86017-0.88024 0.31431-0.45848 0.40162 0.12235
  -1  -4   8 8399.59  731.62   1 0.53796-0.55792 0.68545-0.82921 0.49065 0.03341
  -1  -4   715443.97  821.42   1 0.85443-0.89254 0.28810-0.45020 0.43236 0.02611
  -1  -4   714943.27  776.24   1 0.48672-0.52471 0.68545-0.84724 0.54152-0.08281
  -1  -4   6 4708.01  369.47   1 0.84341-0.89957 0.24873-0.42877 0.47621-0.08322
  -1  -4   6 5422.95  388.77   1 0.40722-0.46326 0.67938-0.85918 0.61041-0.21723
   1   4  -6 3990.70  290.39   1 0.77519-0.71920 0.61376-0.43389 0.14955-0.54266
  -1  -4   5 5740.32  423.45   1 0.82289-0.89722 0.19193-0.38987 0.53479-0.20732
  -1  -4   5 5050.04  438.38   1 0.28939-0.36345 0.65820-0.85608 0.69499-0.36744
   1   4  -5 4563.58  320.53   1 0.67610-0.60196 0.66295-0.46511 0.32150-0.64907
  -1  -4   438030.77 1029.76   1 0.78626-0.87860 0.11395-0.32984 0.60729-0.34532
  -1  -4   438217.16 1039.21   1 0.12592-0.21813 0.60969-0.82553 0.78256-0.52048
  -1  -4   3 6606.80  270.91   1 0.72456-0.83488 0.01167-0.24550 0.68910-0.49264
   1   4  -3 6092.31  245.82   1 0.84012-0.72983 0.23856-0.00471 0.48711-0.68360
   1   4  -3 6870.90  549.48   1 0.30141-0.19120 0.66092-0.42704 0.68725-0.88378
  -1  -4   2  132.66  123.97   1 0.62986-0.75808-0.11340-0.13854 0.76837-0.63726
   1   4  -2  265.42  119.05   1 0.78434-0.65597 0.11035 0.14145 0.61042-0.74141
   1   4  -2  250.10   47.66   1 0.05911 0.06925 0.58389-0.33204 0.80967-0.94071
   1   4  -2  193.32  101.20   1 0.27619-0.14775-0.40249 0.65435-0.87276 0.74161
  -1  -4   112639.50  405.23   1 0.49758-0.64391-0.25066-0.01926 0.83040-0.76485
   1   4  -112200.43  380.38   1 0.69969-0.55332-0.02375 0.29351 0.71404-0.77953
   1   4  -112900.99  404.94   1 0.45345-0.30695-0.26997 0.53976-0.84940 0.78385
  -1  -4   113570.43  407.85   1 0.15555-0.30188-0.47705 0.20725-0.86499 0.93054
  -1  -4   0 3700.02  180.22   1 0.33737-0.50190-0.38376 0.09585 0.85959-0.85959
   1   4   0 2926.96  146.35   1 0.59727-0.43282-0.15024 0.43814 0.78783-0.78783
   1   4   0 4241.03  224.06   1 0.58791-0.42356-0.14491 0.43271-0.79583 0.79583
  -1  -4   0 3537.50  177.40   1 0.31871-0.48331-0.37326 0.08551-0.87126 0.87126
  -1  -4  -116365.89  499.84   1 0.16842-0.35089-0.49733 0.19122 0.85104-0.91668
   1   4   115579.12  473.62   1 0.49082-0.30825-0.25691 0.56280 0.83251-0.76696
   1   4   115461.46  495.90   1 0.68322-0.50070-0.03707 0.34285-0.72926 0.79482
  -1  -4  -2 2110.28  184.93   1 0.00601-0.20670-0.58335 0.25937 0.81219-0.94339
   1   4   2 2851.19  269.12   1 0.74935-0.54872 0.05340 0.27037-0.66001 0.79107
  -1  -4  -313298.99  703.54   1-0.13862-0.08044-0.64294 0.30111 0.75326-0.95018
   1   4   313095.78  732.21   1 0.79518-0.57647 0.12929 0.21247-0.59242 0.78900
  -1  -4  -4 4586.18  516.50   1-0.26297 0.02582-0.68003 0.32028 0.68440-0.94696
   1   4   4 5863.07  489.53   1 0.82687-0.59008 0.19370 0.16605-0.52796 0.79008
  -1  -4  -5 3396.97  582.81   1-0.36755 0.11270-0.70105 0.32348 0.61108-0.93949
   1   4   5 2886.73  254.57   1 0.84861-0.59382 0.24903 0.12855-0.46673 0.79426
  -1  -4  -6 4227.78  238.15   1-0.45645 0.18341-0.70904 0.31372 0.53750-0.93163
   1   4   6 4145.19  285.81   1 0.86286-0.59000 0.29776 0.09780-0.40842 0.80145
   1   4   7 3807.39  359.19   1 0.87142-0.58050 0.34111 0.07243-0.35249 0.81102
   1   4   8 4382.41  338.86   1 0.59188-0.28342 0.70224-0.27107-0.39562 0.91988
   1   4   8 4057.33  356.61   1 0.87603-0.56734 0.37931 0.05217-0.29780 0.82182
   1   4   9  777.25  250.38   1 0.64562-0.31914 0.69023-0.24110-0.32672 0.91652
   1   4   9  539.41  201.54   1 0.87621-0.54950 0.41485 0.03460-0.24524 0.83477
   1   4  10  357.54  144.57   1 0.69174-0.34725 0.67396-0.20688-0.25933 0.91466
   1   4  10  537.65  225.95   1 0.87306-0.52832 0.44745 0.01997-0.19377 0.84880
  -1  -5  13  768.04  273.87   1 0.85674-0.79662 0.29794-0.42433 0.42097 0.43049
  -1  -5  13  777.50  246.40   1 0.52788-0.46761 0.68579-0.81143 0.50102 0.35058
  -1  -5  12 1088.44  188.62   1 0.85753-0.81545 0.30149-0.44582 0.41682 0.36914
  -1  -5  12  862.73  253.03   1 0.52446-0.48225 0.68587-0.82953 0.50449 0.28161
  -1  -5  11 2934.98  292.01   1 0.85731-0.83328 0.30049-0.46275 0.41799 0.30247
  -1  -5  11 2784.27  231.89   1 0.51340-0.48925 0.68601-0.84769 0.51555 0.20504
  -1  -5  10 2032.86  258.68   1 0.85586-0.84988 0.29413-0.47433 0.42541 0.22956
  -1  -5  10 1830.92  217.68   1 0.49286-0.48672 0.68561-0.86533 0.53573 0.11955
  -1  -5   9  797.68  189.87   1 0.85272-0.86478 0.28128-0.47942 0.44015 0.14932
  -1  -5   9  436.13   96.03   1 0.45897-0.47088 0.68416-0.88189 0.56680 0.02296
  -1  -5   8  280.17  124.35   1 0.84697-0.87708 0.26043-0.47650 0.46346 0.06051
  -1  -5   8  453.61   93.21   1 0.40742-0.43738 0.67940-0.89514 0.61025-0.08602
  -1  -5   7 3372.06  353.99   1 0.83707-0.88522 0.22958-0.46360 0.49658-0.03810
  -1  -5   7 4088.90  398.73   1 0.33231-0.38027 0.66734-0.90119 0.66649-0.20792
  -1  -5   6 1950.86  208.97   1 0.82044-0.88679 0.18602-0.43793 0.54060-0.14765
  -1  -5   6 1670.42  265.85   1 0.22690-0.29293 0.64207-0.89392 0.73229-0.33923
   1   5  -6 1525.08  146.21   1 0.71997-0.65394 0.64649-0.39466 0.25233-0.64544
  -1  -5   510184.50  412.95   1 0.79331-0.87768 0.12754-0.39741 0.59529-0.26783
  -1  -5   5 9849.32  603.30   1 0.08782-0.17202 0.59538-0.86518 0.79862-0.47102
   1   5  -5 8893.70  330.49   1 0.59476-0.51056 0.68062-0.41083 0.42779-0.75533
  -1  -5   4 6657.36  455.84   1 0.75039-0.85277 0.05152-0.33935 0.65897-0.39700
   1   5  -4 6501.36  434.99   1 0.41832-0.31614 0.68065-0.39286 0.60142-0.86354
   1   5  -4 6453.64  434.42   1 0.07595 0.02627-0.52021 0.80809-0.85064 0.58847
  -1  -5   3 4230.85  331.77   1 0.68567-0.80602-0.04267-0.26309 0.72665-0.53019
   1   5  -3 3825.57  449.05   1 0.20635-0.08599 0.63631-0.33051 0.74331-0.93987
   1   5  -3 4373.51  312.59   1 0.24997-0.12953-0.41974 0.72560-0.87254 0.67581
  -1  -5   2  340.01   92.26   1 0.59510-0.73335-0.15261-0.17130 0.78902-0.65791
   1   5  -2  121.52   40.08   1-0.00456 0.14300 0.55625-0.23245 0.83099-0.96203
   1   5  -2  339.12   75.37   1 0.41013-0.27158-0.30540 0.62918-0.85936 0.72826
  -1  -5   113336.91  477.53   1 0.47612-0.63248-0.27028-0.07161 0.83680-0.77125
   1   5  -112948.33  459.92   1 0.54085-0.38449-0.19171 0.53344-0.81897 0.75339
  -1  -5   111456.27  402.83   1 0.18101-0.33736-0.46223 0.12050-0.86808 0.93363
  -1  -5   0 2846.57  242.34   1 0.33559-0.51017-0.38508 0.02520 0.85969-0.85969
   1   5   0 2377.30  216.84   1 0.64021-0.46572-0.08836 0.44809-0.76309 0.76309
  -1  -5  -1 7322.40  327.76   1 0.18530-0.37805-0.48657 0.10867 0.85376-0.91938
   1   5   1 7605.22  348.39   1 0.71310-0.52053 0.00174 0.37597-0.70105 0.76660
  -1  -5  -220098.26 1027.40   1 0.03737-0.24796-0.56809 0.17201 0.82211-0.95337
   1   5   219508.63 1032.51   1 0.76592-0.55524 0.07918 0.31653-0.63803 0.76909
  -1  -5  -3 6756.67  511.20   1-0.10037-0.12846-0.62831 0.21436 0.77146-0.96826
   1   5   3 7804.53  624.03   1 0.80407-0.57531 0.14604 0.26767-0.57630 0.77289
  -1  -5  -4 2042.72  315.34   1-0.22311-0.02414-0.66957 0.23780 0.70844-0.97101
   1   5   4 1956.33  258.85   1 0.83143-0.58457 0.20430 0.22740-0.51670 0.77881
  -1  -5  -5 2175.66  514.27   1-0.33004 0.06517-0.69493 0.24526 0.63885-0.96726
   1   5   5 1823.11  238.19   1 0.85076-0.58591 0.25548 0.19402-0.45927 0.78679
  -1  -5  -6  861.99  198.01   1-0.42335 0.14029-0.70696 0.23962 0.56654-0.96067
   1   5   6 1126.96  208.25   1 0.86373-0.58082 0.30140 0.16608-0.40387 0.79690
  -1  -5  -7  197.97  106.70   1-0.50282 0.20165-0.70960 0.22439 0.49358-0.95340
   1   5   7  189.45  148.05   1 0.87168-0.57071 0.34287 0.14260-0.35013 0.80867
   1   5   8  215.28  115.76   1 0.56899-0.25051 0.70554-0.20248-0.42244 0.94670
   1   5   8   28.99  125.23   1 0.87606-0.55729 0.37984 0.12359-0.29703 0.82106
   1   5   9  290.80  122.65   1 0.62751-0.29100 0.69501-0.17400-0.35097 0.94076
   1   5   9  535.51  199.37   1 0.87622-0.53943 0.41456 0.10684-0.24568 0.83522
   1   5  10  163.93  123.39   1 0.67795-0.32343 0.67951-0.14054-0.28042 0.93575
  -1  -6  13  327.20  150.54   1 0.84749-0.79741 0.26219-0.46050 0.46152 0.38994
  -1  -6  12  664.56  243.05   1 0.84761-0.81557 0.26259-0.47883 0.46108 0.32488
  -1  -6  12  280.18  105.83   1 0.42873-0.39652 0.68172-0.89739 0.59281 0.19353
  -1  -6  11  426.58  186.47   1 0.84631-0.83232 0.25819-0.49237 0.46592 0.25455
  -1  -6  11  559.82  169.62   1 0.40691-0.39275 0.67934-0.91302 0.61066 0.11016
  -1  -6  10  379.60  132.63   1 0.84324-0.84730 0.24820-0.50032 0.47678 0.17819
  -1  -6  10  170.13   69.13   1 0.37251-0.37641 0.67459-0.92627 0.63730 0.01799
  -1  -6   9 1340.10  198.88   1 0.83775-0.85985 0.23156-0.50162 0.49450 0.09497
  -1  -6   9 1443.27  240.39   1 0.32227-0.34412 0.66535-0.93517 0.67338-0.08379
  -1  -6   8 3734.62  251.25   1 0.82877-0.86892 0.20693-0.49493 0.51990 0.00407
  -1  -6   8 3738.98  264.45   1 0.25162-0.29155 0.64884-0.93666 0.71811-0.19403
  -1  -6   7  333.11  136.30   1 0.81462-0.87299 0.17244-0.47833 0.55376-0.09531
  -1  -6   7   90.51   36.97   1 0.15670-0.21481 0.62046-0.92622 0.76841-0.30977
  -1  -6   615915.34 1144.63   1 0.79293-0.86931 0.12679-0.45063 0.59597-0.20301
  -1  -6   615032.68 1119.42   1 0.03689-0.11308 0.57458-0.89834 0.81761-0.42449
   1   6  -613801.31  956.95   1 0.66274-0.58655 0.66694-0.34317 0.34052-0.73361
  -1  -6   511570.26  644.42   1 0.76040-0.85480 0.06798-0.40978 0.64588-0.31842
   1   6  -5 9636.52  509.88   1 0.51942-0.42516 0.68595-0.34419 0.50957-0.83711
   1   6  -510937.18  578.07   1 0.10077-0.00655-0.50726 0.84912-0.85587 0.52815
  -1  -6   411152.37  621.50   1 0.71307-0.82543-0.00501-0.35472 0.70106-0.43911
   1   6  -410284.37  745.27   1 0.33942-0.22717 0.66870-0.30887 0.66153-0.92357
   1   6  -412686.95  663.10   1 0.24866-0.13622-0.42059 0.78044-0.87250 0.61020
  -1  -6   311629.51  638.51   1 0.64677-0.77716-0.09190-0.28579 0.75711-0.56065
   1   6  -3 9203.14  523.41   1 0.14361-0.01317 0.61597-0.23821 0.77456-0.97112
   1   6  -311545.41  608.42   1 0.38975-0.25915-0.32138 0.69913-0.86302 0.66636
  -1  -6   226651.33 1342.19   1 0.55978-0.70806-0.18997-0.20592 0.80656-0.67545
   1   6  -223575.23 1179.16   1 0.51092-0.36256-0.21970 0.61536-0.83107 0.69990
  -1  -6   139740.00 1947.03   1 0.45021-0.61674-0.29320-0.12069 0.84340-0.77785
   1   6  -143618.33 2128.25   1 0.60828-0.44189-0.12346 0.53714-0.78405 0.71847
  -1  -6   041023.00 2009.21   1 0.32373-0.50837-0.39380-0.03805 0.86029-0.86029
   1   6   043031.55 2111.69   1 0.68337-0.49882-0.03687 0.46855-0.72913 0.72913
  -1  -6  -1 7536.76  509.72   1 0.18815-0.39095-0.48484 0.03496 0.85412-0.91974
   1   6   1 9516.15  554.86   1 0.74006-0.53742 0.03960 0.41007-0.67136 0.73689
  -1  -6  -2 5416.69  426.33   1 0.05222-0.27282-0.56075 0.09262 0.82633-0.95759
   1   6   2 6486.76  530.39   1 0.78254-0.56182 0.10682 0.36084-0.61335 0.74441
  -1  -6  -3 1208.13  142.16   1-0.07791-0.16094-0.61955 0.13358 0.78107-0.97788
   1   6   3  851.57  181.22   1 0.81416-0.57535 0.16617 0.31948-0.55633 0.75292
  -1  -6  -4  120.54  102.27   1-0.19731-0.06005-0.66207 0.15828 0.72299-0.98556
   1   6   4  363.85  156.00   1 0.83741-0.58051 0.21901 0.28464-0.50076 0.76287
  -1  -6  -5 1778.20  384.61   1-0.30413 0.02923-0.68989 0.16811 0.65692-0.98533
   1   6   5 1781.44  250.05   1 0.85417-0.57928 0.26626 0.25517-0.44663 0.77415
  -1  -6  -6 5207.63  410.35   1-0.39877 0.10580-0.70503 0.16542 0.58643-0.98053
   1   6   6 5448.75  409.62   1 0.86554-0.57258 0.30934 0.23007-0.39386 0.78689
  -1  -6  -7  128.30   81.40   1-0.48223 0.17104-0.70971 0.15247 0.51357-0.97339
   1   6   7   14.42  135.66   1 0.87250-0.56147 0.34874 0.20865-0.34222 0.80075
   1   6   8  534.63  198.77   1 0.55210-0.22359 0.70736-0.13241-0.44138 0.96564
   1   6   8  142.37  123.72   1 0.87626-0.54741 0.38424 0.19113-0.29071 0.81474
   1   6   9  359.10  135.99   1 0.61433-0.26780 0.69801-0.10511-0.36792 0.95772
   1   6   9  358.41  201.58   1 0.87606-0.52919 0.41786 0.17548-0.24062 0.83015
  -1  -7  13  154.63  118.39   1 0.83538-0.79534 0.22477-0.49499 0.50160 0.34986
  -1  -7  12 1819.63  239.73   1 0.83447-0.81248 0.22223-0.51039 0.50424 0.28172
  -1  -7  11 5675.71  448.48   1 0.83173-0.82778 0.21475-0.52085 0.51195 0.20852
  -1  -7  11 2808.57  734.86   1 0.27860-0.27435 0.65565-0.96144 0.70178 0.01881
  -1  -7  10 6703.60  456.32   1 0.82669-0.84078 0.20157-0.52561 0.52531 0.12966
  -1  -7  10 6635.15  703.54   1 0.23027-0.24410 0.64302-0.96681 0.73040-0.07531
  -1  -7   9 7934.64  608.48   1 0.81854-0.85091 0.18151-0.52341 0.54501 0.04442
  -1  -7   9 6777.64  657.78   1 0.16441-0.19643 0.62305-0.96476 0.76470-0.17502
  -1  -7   817114.10 1043.28   1 0.80621-0.85660 0.15394-0.51380 0.57124-0.04730
  -1  -7   813768.91  816.89   1 0.07958-0.12968 0.59214-0.95186 0.80188-0.27773
  -1  -7   7 2059.05  272.73   1 0.78805-0.85646 0.11735-0.49517 0.60431-0.14586
  -1  -7   7 2502.52  163.37   1-0.02450-0.04368 0.54700-0.92471 0.83677-0.37813
  -1  -7   6 3607.80  385.38   1 0.76189-0.84831 0.07050-0.46627 0.64385-0.25089
   1   7  -6 4189.65  387.65   1 0.14096-0.05476-0.48532 0.88116-0.86289 0.46963
  -1  -7   5 2158.13  263.44   1 0.72508-0.82945 0.01244-0.42614 0.68854-0.36110
   1   7  -5 2529.21  261.97   1 0.26670-0.16226-0.40879 0.82264-0.87278 0.54490
  -1  -7   4 3597.28  366.23   1 0.67451-0.79690-0.05726-0.37440 0.73603-0.47408
   1   7  -4 3782.40  370.64   1 0.38915-0.26650-0.32184 0.75357-0.86311 0.60091
  -1  -7   3 8902.54  669.45   1 0.60852-0.74871-0.13778-0.31211 0.78147-0.58481
   1   7  -310327.27  742.72   1 0.49784-0.35718-0.23138 0.68108-0.83582 0.63917
  -1  -7   232387.11 2224.95   1 0.52356-0.68186-0.22604-0.24183 0.82145-0.69034
   1   7  -231450.69 2151.87   1 0.58919-0.43079-0.14358 0.61119-0.79513 0.66396
  -1  -7   118833.06 1318.85   1 0.42114-0.59772-0.31789-0.16797 0.84946-0.78390
   1   7  -117917.06 1254.86   1 0.66257-0.48603-0.06229 0.54792-0.74639 0.68084
  -1  -7   018932.93 1327.00   1 0.30540-0.50009-0.40754-0.09631 0.86059-0.86059
   1   7   018404.55 1293.60   1 0.72002-0.52540 0.01117 0.49245-0.69386 0.69386
  -1  -7  -1 4525.83  448.16   1 0.18061-0.39346-0.48941-0.03244 0.85314-0.91876
   1   7   1 5005.07  523.40   1 0.76452-0.55183 0.07694 0.44467-0.63998 0.70551
  -1  -7  -2  139.64   76.80   1 0.05464-0.28524-0.55954 0.01936 0.82699-0.95825
   1   7   2  187.78  139.25   1 0.79871-0.56793 0.13584 0.40377-0.58617 0.71722
  -1  -7  -3  263.59   96.45   1-0.06823-0.18064-0.61566 0.05766 0.78504-0.98185
   1   7   3  126.78  140.67   1 0.82472-0.57585 0.18884 0.36876-0.53307 0.72965
  -1  -7  -4 4509.96  708.93   1-0.18342-0.08405-0.65780 0.08199 0.73051-0.99308
   1   7   4 6606.86  575.22   1 0.84417-0.57721 0.23686 0.33874-0.48090 0.74301
  -1  -7  -5 1897.05  462.57   1-0.28868 0.00376-0.68659 0.09269 0.66727-0.99568
   1   7   5 1848.71  380.65   1 0.85833-0.57338 0.28046 0.31290-0.42965 0.75717
  -1  -7  -6 5690.73  938.66   1-0.38382 0.08082-0.70325 0.09153 0.59841-0.99251
   1   7   6 8489.02  562.47   1 0.86791-0.56489 0.32074 0.29059-0.37926 0.77229
  -1  -7  -7 3668.48  409.83   1-0.46908 0.14787-0.70947 0.08021 0.52593-0.98574
   1   7   7 3685.03  435.88   1 0.87423-0.55332 0.35727 0.27208-0.32874 0.78727
   1   7   8  112.17   78.86   1 0.54143-0.20289 0.70826-0.06142-0.45301 0.97727
   1   7   8  127.13  125.33   1 0.87649-0.53757 0.39190 0.25541-0.27957 0.80360
  -1  -8  13  881.71  211.13   1 0.82031-0.79065 0.18569-0.52770 0.54093 0.31047
  -1  -8  12 1745.95  339.03   1 0.81810-0.80646 0.18047-0.54043 0.54602 0.23988
  -1  -8  11 1106.31  193.07   1 0.81364-0.82002 0.17024-0.54816 0.55587 0.16454
  -1  -8  10 4137.87  384.01   1 0.80639-0.83078 0.15433-0.55020 0.57088 0.08404
  -1  -8  10 2533.58  302.47   1 0.07034-0.09435 0.58845-0.98413 0.80546-0.15026
  -1  -8   9 1177.86  275.41   1 0.79552-0.83793 0.13192-0.54576 0.59137-0.00194
  -1  -8   9  430.90  128.62   1-0.00507-0.03702 0.55602-0.96970 0.83114-0.24147
  -1  -8   813555.47  963.51   1 0.77991-0.84033 0.10214-0.53392 0.61749-0.09355
   1   8  -811966.01  801.27   1 0.09257-0.03242-0.51159 0.94346-0.85422 0.32987
  -1  -8   713512.91  852.22   1 0.75803-0.83647 0.06403-0.51378 0.64906-0.19061
   1   8  -713575.50  797.83   1 0.19367-0.11549-0.45467 0.90450-0.86934 0.41053
  -1  -8   6 1134.73  193.88   1 0.72807-0.82445 0.01688-0.48455 0.68529-0.29236
   1   8  -6 1003.23  134.43   1 0.30030-0.20385-0.38611 0.85395-0.87220 0.47874
  -1  -8   5 5835.01  317.78   1 0.68772-0.80213-0.03994-0.44568 0.72487-0.39743
   1   8  -5 6770.96  258.79   1 0.40528-0.29058-0.30924 0.79495-0.86029 0.53254
  -1  -8   4 6992.99  638.60   1 0.63584-0.76795-0.10638-0.39751 0.76444-0.50222
   1   8  -4 6877.73  610.43   1 0.50056-0.36785-0.22894 0.73261-0.83487 0.57267
  -1  -8   3 9116.55  815.01   1 0.56859-0.71881-0.18086-0.34100 0.80248-0.60582
   1   8  -3 7929.57  699.27   1 0.58316-0.43276-0.14980 0.67134-0.79842 0.60167
  -1  -8   2 6009.53  557.84   1 0.48618-0.65452-0.26116-0.27868 0.83391-0.70280
   1   8  -2 5957.17  550.97   1 0.65188-0.48335-0.07491 0.61450-0.75461 0.62350
  -1  -8   1 5242.42  274.73   1 0.38929-0.57593-0.34382-0.21402 0.85453-0.78898
   1   8  -1 5868.30  287.57   1 0.70735-0.52075-0.00596 0.56354-0.70683 0.64128
  -1  -8   0 2024.14  244.54   1 0.28140-0.48614-0.42436-0.15147 0.86065-0.86065
   1   8   0 1867.95  243.18   1 0.75166-0.54700 0.05690 0.51867-0.65708 0.65708
  -1  -8  -1  112.13   84.15   1 0.16626-0.38875-0.49862-0.09570 0.85072-0.91635
   1   8   1  242.13  140.46   1 0.78665-0.56390 0.11397 0.47959-0.60677 0.67230
  -1  -8  -2  337.63  127.99   1 0.04759-0.28820-0.56306-0.04917 0.82504-0.95630
   1   8   2  266.52  139.06   1 0.81405-0.57322 0.16594 0.44562-0.55657 0.68763
  -1  -8  -3  425.85   98.70   1-0.06874-0.19016-0.61586-0.01416 0.78484-0.98165
   1   8   3  352.41  108.34   1 0.83520-0.57628 0.21347 0.41608-0.50681 0.70339
  -1  -8  -4  186.92  124.09   1-0.17954-0.09804-0.65658 0.00875 0.73257-0.99514
   1   8   4  184.51  130.59   1 0.85124-0.57430 0.25695 0.39035-0.45755 0.71957
  -1  -8  -5  180.51  140.94   1-0.28251-0.01242-0.68520 0.01920 0.67132-0.99973
   1   8   5  419.17  175.97   1 0.86277-0.56777 0.29739 0.36789-0.40887 0.73640
  -1  -8  -6  476.93  197.07   1-0.37713 0.06411-0.70238 0.01855 0.60367-0.99776
   1   8   6  433.00  222.50   1 0.87047-0.55740 0.33499 0.34827-0.36063 0.75366
  -1  -8  -7   64.74   63.73   1-0.46313 0.13191-0.70929 0.00801 0.53141-0.99122
   1   8   7  590.03  203.42   1 0.87537-0.54439 0.36941 0.33188-0.31185 0.77037
  -1  -9  12  242.62  137.81   1 0.79856-0.79696 0.13803-0.56993 0.58586 0.20005
  -1  -9  11  172.16  128.45   1 0.79222-0.80863 0.12540-0.57525 0.59720 0.12321
  -1  -9  10   50.08  112.06   1 0.78265-0.81708 0.10719-0.57500 0.61315 0.04177
  -1  -9   9  766.87  192.89   1 0.76903-0.82148 0.08273-0.56850 0.63382-0.04439
   1   9  -9  457.43  172.92   1 0.17219-0.12006-0.46742 0.95328-0.86710 0.27720
  -1  -9   8 5009.47  404.00   1 0.75028-0.82074 0.05135-0.55506 0.65911-0.13517
   1   9  -8 5546.47  343.38   1 0.25784-0.18748-0.41462 0.91852-0.87269 0.34808
  -1  -9   721077.79 1406.08   1 0.72510-0.81349 0.01246-0.53410 0.68852-0.23011
   1   9  -725403.90 5901.64   1 0.34708-0.25864-0.35285 0.87469-0.86892 0.40988
  -1  -9   6 9327.90  702.12   1 0.69175-0.79817-0.03454-0.50505 0.72130-0.32837
   1   9  -6 7138.24  508.89   1 0.43571-0.32897-0.28473 0.82441-0.85386 0.46055
  -1  -9   5  571.42  225.92   1 0.64859-0.77303-0.08969-0.46786 0.75583-0.42839
   1   9  -5  202.69   84.75   1 0.51733-0.39295-0.21381 0.77126-0.82863 0.50072
  -1  -9   4  960.77  178.36   1 0.59500-0.73713-0.15273-0.42314 0.78908-0.52685
   1   9  -4 1077.76  143.52   1 0.58964-0.44724-0.14311 0.71858-0.79487 0.53254
  -1  -9   3  130.91   98.69   1 0.52773-0.68798-0.22199-0.37185 0.81988-0.62322
   1   9  -3  157.58  121.83   1 0.65158-0.49107-0.07526 0.66879-0.75483 0.55816
  -1  -9   2  380.44  154.37   1 0.44730-0.62588-0.29572-0.31613 0.84407-0.71297
   1   9  -2  530.55  186.30   1 0.70289-0.52431-0.01185 0.62337-0.71119 0.58008
  -1  -9   1 4379.19  338.55   1 0.35495-0.55164-0.37055-0.25927 0.85831-0.79275
   1   9  -1 4602.83  374.09   1 0.74502-0.54840 0.04692 0.58260-0.66538 0.59985
  -1  -9   0 5417.87  443.95   1 0.25319-0.46798-0.44346-0.20436 0.85978-0.85978
   1   9   0 5063.20  415.73   1 0.77914-0.56443 0.10100 0.54652-0.61865 0.61865
  -1  -9  -1 2747.34  284.30   1 0.14497-0.37747-0.51100-0.15536 0.84726-0.91289
   1   9   1 2327.45  295.48   1 0.80654-0.57374 0.15085 0.51466-0.57159 0.63712
  -1  -9  -2  842.79  195.82   1 0.03306-0.28367-0.57019-0.11409 0.82084-0.95210
   1   9   2  822.01  218.28   1 0.82827-0.57739 0.19692 0.48659-0.52457 0.65562
  -1  -9  -3 1789.29  190.20   1-0.07755-0.19137-0.61941-0.08264 0.78122-0.97803
   1   9   3  923.55  229.18   1 0.84518-0.57621 0.23967 0.46183-0.47772 0.67430
  -1  -9  -4  110.89   83.27   1-0.18413-0.10356-0.65802-0.06181 0.73013-0.99270
   1   9   4  363.97  205.11   1 0.85800-0.57101 0.27928 0.43995-0.43107 0.69309
  -1  -9  -5  277.38  133.15   1-0.28453-0.02042-0.68566-0.05245 0.67000-0.99841
   1   9   5  294.42  132.84   1 0.86708-0.56202 0.31657 0.42064-0.38464 0.71216
  -1  -9  -6  124.77   68.03   1-0.37805 0.05501-0.70250-0.05343 0.60295-0.99705
   1   9   6  229.69  149.20   1 0.87349-0.55045 0.35095 0.40432-0.33740 0.73042
  -1 -10  11  629.49  157.31   1 0.76757-0.79402 0.08020-0.60198 0.63592 0.08450
  -1 -10  10 2447.58  348.43   1 0.75565-0.80012 0.06009-0.59983 0.65220 0.00271
  -1 -10   9  677.33  225.08   1 0.73934-0.80183 0.03406-0.59175 0.67245-0.08302
  -1 -10   8 1753.99  271.92   1 0.71772-0.79813 0.00167-0.57728 0.69632-0.17242
  -1 -10   7 1237.80  285.37   1 0.68945-0.78787-0.03764-0.55592 0.72335-0.26494
   1  10  -7 1826.67  169.19   1 0.47888-0.38009-0.24816 0.84183-0.84206 0.38321
  -1 -10   6  331.77  143.85   1 0.65325-0.76970-0.08400-0.52752 0.75246-0.35953
   1  10  -6  445.55  150.71   1 0.54667-0.43028-0.18611 0.79749-0.81639 0.42290
  -1 -10   5   70.43  107.90   1 0.60881-0.74285-0.13746-0.49240 0.78131-0.45353
   1  10  -5  353.63  128.88   1 0.60781-0.47340-0.12396 0.75336-0.78433 0.45642
  -1 -10   4  831.84  146.82   1 0.55287-0.70504-0.19701-0.45083 0.80963-0.54741
   1  10  -4  799.63  124.60   1 0.66147-0.50897-0.06361 0.71110-0.74726 0.48504
  -1 -10   3  719.42  145.45   1 0.48571-0.65599-0.26159-0.40423 0.83405-0.63738
   1  10  -3  407.70  155.72   1 0.70691-0.53634-0.00654 0.67202-0.70726 0.51060
  -1 -10   2 2166.22  395.81   1 0.40709-0.59572-0.32947-0.35436 0.85189-0.72078
   1  10  -2 2255.59  406.77   1 0.74518-0.55659 0.04715 0.63632-0.66518 0.53412
  -1 -10   1 2831.17  254.46   1 0.31887-0.52554-0.39787-0.30394 0.86024-0.79461
   1  10  -1 2827.81  244.70   1 0.77691-0.57023 0.09723 0.60424-0.62205 0.55652
  -1 -10   0 8321.94  512.66   1 0.22137-0.44620-0.46416-0.25564 0.85763-0.85763
   1  10   0 9764.44  606.85   1 0.80300-0.57824 0.14398 0.57549-0.57831 0.57831
  -1 -10  -1 5231.62  361.50   1 0.11870-0.36120-0.52579-0.21263 0.84228-0.90792
   1  10   1 4472.54  345.67   1 0.82420-0.58135 0.18768 0.54977-0.53427 0.59980
  -1 -10  -2 4879.10  363.44   1 0.01282-0.27365-0.58018-0.17598 0.81438-0.94559
   1  10   2 4112.82  337.83   1 0.84113-0.58019 0.22865 0.52680-0.49010 0.62116
  -1 -10  -3 2276.57  296.33   1-0.09333-0.18561-0.62561-0.14848 0.77453-0.97133
   1  10   3 2814.67  360.15   1 0.85438-0.57541 0.26693 0.50624-0.44583 0.64235
  -1 -10  -4  822.96  353.96   1-0.19605-0.10175-0.66169-0.13016 0.72368-0.98625
   1  10   4 2212.57  291.61   1 0.86417-0.56713 0.30326 0.48790-0.40154 0.66356
  -1 -11  10  818.85  196.26   1 0.72563-0.78002 0.01325-0.62486 0.68795-0.03307
  -1 -11   9 3644.48  426.15   1 0.70675-0.77916-0.01395-0.61562 0.70732-0.11793
  -1 -11   8  269.18  115.08   1 0.68233-0.77277-0.04708-0.60045 0.72952-0.20562
  -1 -11   7 2389.47  303.65   1 0.65134-0.75980-0.08635-0.57914 0.75385-0.29544
  -1 -11   6 3708.19  340.94   1 0.61369-0.73966-0.13197-0.55190 0.77843-0.38510
  -1 -11   5 6169.12  416.10   1 0.56632-0.71039-0.18323-0.51861 0.80355-0.47578
   1  11  -5 5725.60  342.95   1 0.68107-0.53660-0.03974 0.74118-0.73113 0.40335
  -1 -11   4 7271.59  456.68   1 0.50935-0.67154-0.23963-0.48019 0.82651-0.56429
   1  11  -4 8229.12  470.46   1 0.71928-0.55673 0.01016 0.70926-0.69463 0.43241
  -1 -11   3 4146.93  326.42   1 0.44214-0.62272-0.30015-0.43768 0.84522-0.64857
   1  11  -3 3221.12  265.99   1 0.75230-0.57174 0.05787 0.67955-0.65626 0.45968
  -1 -11   2 4726.75  337.96   1 0.36523-0.56391-0.36268-0.39312 0.85736-0.72625
   1  11  -2 5332.27  379.42   1 0.78031-0.58167 0.10299 0.65243-0.61684 0.48578
  -1 -11   1  375.32  158.62   1 0.27986-0.49658-0.42542-0.34837 0.86062-0.79500
   1  11  -1  323.79  124.81   1 0.80391-0.58718 0.14572 0.62769-0.57661 0.51108
  -1 -11   0   14.59   65.08   1 0.18626-0.42115-0.48599-0.30580 0.85388-0.85388
   1  11   0  203.94  106.87   1 0.82353-0.58872 0.18619 0.60522-0.53583 0.53583
  -1 -11  -1  260.71  113.74   1 0.08807-0.34058-0.54233-0.26814 0.83553-0.90116
   1  11   1  792.03  259.38   1 0.83958-0.58668 0.22458 0.58483-0.49462 0.56015
  -1 -11  -2  402.19   93.21   1-0.01317-0.25767-0.59211-0.23607 0.80574-0.93694
   1  11   2 1014.74  187.34   1 0.85247-0.58152 0.26082 0.56631-0.45304 0.58405
  -1 -11  -3  499.07  120.05   1-0.11516-0.17380-0.63386-0.21226 0.76482-0.96163
   1  11   3  870.49  201.23   1 0.86231-0.57328 0.29553 0.54957-0.41118 0.60770
  -1 -12   9  941.34  224.94   1 0.67124-0.75369-0.06146-0.64004 0.73868-0.14929
  -1 -12   8 1356.05  200.65   1 0.64430-0.74478-0.09488-0.62457 0.75885-0.23495
  -1 -12   7  687.59  262.14   1 0.61188-0.72976-0.13401-0.60385 0.77950-0.32062
  -1 -12   6 1580.40  252.24   1 0.57108-0.70707-0.17826-0.57758 0.80129-0.40796
  -1 -12   5 1304.35  218.04   1 0.52208-0.67619-0.22746-0.54635 0.82199-0.49422
  -1 -12   4 1170.52  218.46   1 0.46427-0.63649-0.28085-0.51094 0.83997-0.57775
  -1 -12   3 1843.65  268.46   1 0.39721-0.58784-0.33748-0.47233 0.85342-0.65676
   1  12  -3 1967.58  271.61   1 0.78939-0.59878 0.11882 0.69056-0.60227 0.40568
  -1 -12   2 2893.19  376.94   1 0.32225-0.53085-0.39542-0.43236 0.86011-0.72886
   1  12  -2 2626.96  328.17   1 0.80943-0.60074 0.15657 0.67080-0.56594 0.43488
  -1 -12   1 1638.89  235.67   1 0.23849-0.46526-0.45313-0.39264 0.85894-0.79332
   1  12  -1 1112.57  208.82   1 0.82653-0.59975 0.19292 0.65244-0.52878 0.46326
  -1 -12   0  264.87  104.99   1 0.14868-0.39308-0.50887-0.35573 0.84790-0.84790
   1  12   0   68.42   96.49   1 0.84086-0.59599 0.22792 0.63544-0.49092 0.49092
  -1 -12  -1  597.17  142.59   1 0.05414-0.31678-0.55979-0.32248 0.82685-0.89199
  -1 -13   5 3164.23  337.53   1 0.47599-0.64013-0.27040-0.57539 0.83684-0.50906
  -1 -13   4 4294.03  374.81   1 0.41724-0.59982-0.32112-0.54270 0.85016-0.58795
   2 -12   3 1230.70  212.11   1 0.62317-0.44051-0.12116-0.68862 0.77263-0.57597
   2 -12   4 1312.13  224.93   1 0.67997-0.47980-0.05016-0.74114 0.73151-0.46956
   2 -12   5  616.47  206.08   1 0.72320-0.50500 0.00965-0.78301 0.69057-0.36313
   2 -12   6  869.30  176.27   1 0.75495-0.51876 0.05895-0.81437 0.65311-0.26016
   2 -12   7 2342.67  274.75   1 0.77808-0.52387 0.09880-0.83626 0.62034-0.16189
  -2  11   4  373.81  135.47   1 0.83934-0.90497 0.54328 0.31995-0.01843 0.28044
  -2  11   3  126.61   83.90   1 0.84176-0.92541 0.53916 0.30609-0.02691 0.22342
  -2  11   2  628.09  209.73   1 0.84226-0.94391 0.53830 0.28898-0.02868 0.15968
   2 -11   1  167.14  106.35   1 0.51855-0.36209-0.23087-0.54288 0.82328-0.75773
   2 -11   2 1193.94  246.26   1 0.61303-0.43846-0.13271-0.62306 0.77882-0.64771
   2 -11   3 1697.61  326.56   1 0.68187-0.48969-0.04768-0.68966 0.72991-0.53345
   2 -11   4  482.23  184.34   1 0.73256-0.52236 0.02366-0.74306 0.68028-0.41831
   2 -11   5  159.21   93.71   1 0.76859-0.54038 0.08196-0.78341 0.63446-0.30699
   2 -11   6  179.48  105.99   1 0.79386-0.54763 0.12863-0.81212 0.59433-0.20137
   2 -11   7  175.76  101.53   1 0.81140-0.54716 0.16523-0.83076 0.56064-0.10219
   2 -11   8 1463.29  209.42   1 0.82344-0.54118 0.19327-0.84085 0.53346-0.00952
   2 -11   9 2351.44  312.94   1 0.83153-0.53103 0.21420-0.84384 0.51251 0.07696
  -2  10   5 1714.85  262.00   1 0.84030-0.89799 0.54167 0.26759-0.02177 0.34928
  -2  10   4 1535.60  203.01   1 0.84407-0.91976 0.53507 0.25622-0.03526 0.29727
  -2  10   3  227.67   94.08   1 0.84634-0.93990 0.53083 0.24248-0.04384 0.24035
  -2  10   2  117.40   80.20   1 0.84667-0.95826 0.53018 0.22516-0.04513 0.17614
  -2  10   1  408.84  129.63   1 0.84424-0.97398 0.53475 0.20263-0.03590 0.10141
   2 -10   0 5585.86  342.63   1 0.46632-0.31795-0.27904-0.44071 0.83944-0.83944
  -2  10   0 6883.82  410.33   1 0.83717-0.98493 0.54682 0.17258-0.01105 0.01105
   2 -10   1 8232.53  479.35   1 0.58819-0.42170-0.16011-0.54166 0.79271-0.72715
   2 -10   214256.94  766.14   1 0.67542-0.49122-0.05608-0.62729 0.73529-0.60431
   2 -10   3 7761.08  477.90   1 0.73728-0.53506 0.03087-0.69630 0.67487-0.47839
   2 -10   4 5050.64  380.04   1 0.77934-0.55911 0.10110-0.74857 0.61838-0.35641
   2 -10   5 3836.42  316.21   1 0.80739-0.56914 0.15647-0.78599 0.56887-0.24141
   2 -10   6 1030.17  222.41   1 0.82585-0.56959 0.19928-0.81084 0.52748-0.13453
   2 -10   7  574.57  218.60   1 0.83784-0.56340 0.23181-0.82540 0.49424-0.03576
   2 -10   8 3176.86  321.49   1 0.84555-0.55306 0.25564-0.83130 0.46870 0.05527
   2 -10   9 2185.30  314.20   1 0.85038-0.53984 0.27243-0.83015 0.45014 0.13933
   2 -10  10 1272.37  227.26   1 0.85325-0.52467 0.28335-0.82313 0.43780 0.21717
  -2   9   7  172.93  114.84   1 0.83224-0.86396 0.55439 0.21888 0.00502 0.45349
  -2   9   6  968.99  278.64   1 0.83845-0.88819 0.54475 0.21054-0.01537 0.40839
  -2   9   5 1075.06  311.47   1 0.84331-0.91106 0.53643 0.20089-0.03248 0.36000
  -2   9   4 3706.45  310.48   1 0.84681-0.93244 0.52991 0.18942-0.04567 0.30768
  -2   9   3 8260.62  511.78   1 0.84871-0.95236 0.52617 0.17520-0.05309 0.24960
  -2   9   2 5224.51  415.73   1 0.84865-0.97031 0.52630 0.15710-0.05283 0.18383
   2  -9  -1  260.29   60.95   1 0.37289-0.23286-0.35674-0.30902 0.85655-0.92210
  -2   9   1  352.55  101.01   1 0.84563-0.98532 0.53217 0.13327-0.04116 0.10666
   2  -9   0 9637.37  582.42   1 0.53829-0.37989-0.21163-0.43615 0.81575-0.81575
  -2   9   0 9764.56  590.06   1 0.83705-0.99488 0.54701 0.10045-0.01065 0.01065
   2  -9   110061.81  617.14   1 0.65559-0.47938-0.08112-0.54828 0.75074-0.68525
  -2   9  -1 8842.04  526.81   1 0.81560-0.99144 0.57612 0.05337 0.05359-0.11909
   2  -9   2 7791.97  504.90   1 0.73544-0.54120 0.02804-0.63949 0.67700-0.54602
  -2   9  -2 6632.58  384.89   1 0.74818-0.94243 0.63174-0.02011 0.20275-0.33379
   2  -9   311068.92  695.11   1 0.78677-0.57451 0.11491-0.70841 0.60645-0.40997
   2  -9   4 6935.37  542.16   1 0.81874-0.58847 0.18198-0.75752 0.54455-0.28258
   2  -9   5 5734.11  465.77   1 0.83818-0.58979 0.23281-0.79037 0.49318-0.16570
   2  -9   6 4063.39  313.33   1 0.84982-0.58338 0.27040-0.81001 0.45241-0.05943
   2  -9   7 1844.03  358.69   1 0.85666-0.57218 0.29760-0.81928 0.42137 0.03711
   2  -9   8  823.79  203.07   1 0.86060-0.55807 0.31656-0.82031 0.39892 0.12505
   2  -9   9    6.01  110.34   1 0.86278-0.54221 0.32891-0.81471 0.38394 0.20553
   2  -9  10  223.71  123.16   1 0.86387-0.52525 0.33583-0.80370 0.37540 0.27957
   2  -9  11  301.38  145.26   1 0.86423-0.50757 0.33824-0.78817 0.37241 0.34806
  -2   8   8   88.78  104.74   1 0.82670-0.85048 0.56219 0.15710 0.02203 0.50198
  -2   8   7 1004.70  313.61   1 0.83396-0.87575 0.55181 0.14951-0.00049 0.45901
  -2   8   6 3333.40  314.14   1 0.83985-0.89966 0.54243 0.14092-0.02019 0.41321
  -2   8   5 8149.75  545.65   1 0.84437-0.92219 0.53451 0.13087-0.03638 0.36389
  -2   8   416242.44 1100.73   1 0.84749-0.94319 0.52861 0.11879-0.04827 0.31028
  -2   8   3 8700.64  569.89   1 0.84888-0.96261 0.52582 0.10360-0.05377 0.25028
   2  -8  -2 8931.30  527.63   1 0.20691-0.07498-0.47327-0.13855 0.85626-0.98751
  -2   8   2 8690.55  554.11   1 0.84805-0.97980 0.52749 0.08397-0.05048 0.18148
   2  -8  -1  326.67   75.31   1 0.44063-0.29054-0.30145-0.29233 0.84555-0.91111
  -2   8   1  425.29   97.36   1 0.84355-0.99343 0.53600 0.05749-0.03337 0.09887
   2  -8   0 8750.54  283.06   1 0.61243-0.44400-0.13339-0.44241 0.77918-0.77918
  -2   8   0 8532.03  276.37   1 0.83187-0.99976 0.55493 0.02059 0.00618-0.00618
   2  -8   1  514.16  104.22   1 0.72270-0.53646 0.00892-0.56640 0.69110-0.62561
  -2   8  -1  444.75   77.67   1 0.80129-0.98720 0.59141-0.03385 0.09033-0.15584
   2  -8   2 1012.39  148.66   1 0.78979-0.58552 0.12069-0.66022 0.60137-0.47039
   2  -8   2  638.01   63.94   1 0.16167 0.04281-0.47353-0.06605-0.86580 0.99689
   2  -8   3 2234.21  424.41   1 0.82786-0.60551 0.20457-0.72608 0.52229-0.32580
   2  -8   4 3075.97  210.18   1 0.84853-0.60813 0.26578-0.76936 0.45755-0.19555
   2  -8   5 1891.29  223.61   1 0.85927-0.60083 0.30976-0.79540 0.40706-0.07957
   2  -8   6  786.03  203.05   1 0.86458-0.58810 0.34073-0.80843 0.36931 0.02367
   2  -8   7  817.55  179.39   1 0.86705-0.57253 0.36186-0.81162 0.34244 0.11604
   2  -8   8  330.02  141.90   1 0.86803-0.55557 0.37554-0.80725 0.32477 0.19921
   2  -8   9  317.31  159.49   1 0.86844-0.53797 0.38313-0.79690 0.31465 0.27482
   2  -8  10    4.48  115.14   1 0.86856-0.52008 0.38591-0.78174 0.31091 0.34406
   2  -8  11  235.27  141.95   1 0.86851-0.50203 0.38470-0.76259 0.31254 0.40793
  -2   7   9  121.83  108.61   1 0.81840-0.83423 0.57280 0.09252 0.04592 0.54359
  -2   7   8  170.86  114.51   1 0.82674-0.86059 0.56214 0.08522 0.02191 0.50210
  -2   7   7 1804.10  248.25   1 0.83368-0.88554 0.55224 0.07714 0.00041 0.45810
  -2   7   6 1349.76  286.86   1 0.83921-0.90909 0.54349 0.06792-0.01799 0.41101
  -2   7   5 1922.79  239.51   1 0.84331-0.93120 0.53643 0.05701-0.03249 0.36000
  -2   7   4  885.56  174.25   1 0.84586-0.95164 0.53173 0.04372-0.04204 0.30406
   2  -7  -3  349.59   64.29   1-0.08034 0.20449-0.62052 0.06252 0.78006-0.97686
  -2   7   3  181.68   48.97   1 0.86727-0.99167 0.43604 0.12109 0.24021-0.04371
  -2   7   3  305.43  138.51   1 0.84642-0.97023 0.53066 0.02682-0.04418 0.24069
   2  -7  -2   35.85   32.13   1 0.24462-0.10264-0.44912-0.09072 0.85932-0.99057
  -2   7   2   49.44   36.51   1 0.85645-0.99878 0.49382 0.04532 0.15039-0.01933
  -2   7   2  302.63  130.92   1 0.84410-0.98604 0.53499 0.00453-0.03540 0.16641
   2  -7  -131546.66 2291.20   1 0.51379-0.35344-0.23542-0.28638 0.82498-0.89053
  -2   7   126793.33 2198.47   1 0.83945-0.99982 0.53867-0.01744 0.07175-0.00622
  -2   7   129356.72 2148.17   1 0.83686-0.99681 0.54732-0.02576-0.01000 0.07550
   2  -7   0 4001.62  364.29   1 0.68783-0.50958-0.03980-0.46370 0.72477-0.72477
  -2   7   0 3226.48  303.79   1 0.81917-0.99752 0.57352-0.07012 0.00420-0.00420
  -2   7   0 3457.48  322.70   1 0.81862-0.99659 0.57253-0.06895 0.04531-0.04531
   2  -7   0 3735.40  342.13   1 0.67788-0.49991-0.04370-0.45991-0.73386 0.73386
   2  -7   1 9568.05  686.44   1 0.78564-0.58935 0.11279-0.59834 0.60830-0.54281
  -2   7  -1 8128.81  586.17   1 0.79681-0.99319 0.60158-0.11613-0.05642-0.00910
  -2   7  -1 9878.84  683.83   1 0.76748-0.96374 0.61935-0.13364 0.16543-0.23094
   2  -7   1 8679.69  602.56   1 0.56593-0.36968-0.16722-0.31840-0.80731 0.87289
   2  -7   2 8717.93  639.22   1 0.83458-0.62024 0.22255-0.69008 0.50391-0.37291
   2  -7   2 9134.85  617.87   1 0.18426 0.03023-0.46030-0.00734-0.86842 0.99951
   2  -7   3 2906.10  297.92   1 0.85691-0.62453 0.29871-0.74831 0.42007-0.22358
   2  -7   4 1156.21  173.27   1 0.86588-0.61545 0.35081-0.78247 0.35661-0.09462
   2  -7   5 2865.48  227.28   1 0.86857-0.60012 0.38610-0.79973 0.31065 0.01683
   2  -7   6 3088.54  249.31   1 0.86878-0.58232 0.40921-0.80490 0.27884 0.11413
   2  -7   7  930.10  191.98   1 0.86822-0.56375 0.42358-0.80133 0.25839 0.20009
   2  -7   8  413.54  146.80   1 0.86767-0.54520 0.43141-0.79122 0.24701 0.27696
   2  -7   9  337.62  166.16   1 0.86744-0.52697 0.43417-0.77603 0.24297 0.34650
   2  -7  10  640.70  236.16   1 0.86755-0.50908 0.43284-0.75676 0.24493 0.41004
   2  -7  11  403.66  166.84   1 0.86792-0.49144 0.42809-0.73408 0.25186 0.46861
  -2   6  10  566.82  187.38   1 0.80704-0.81492 0.58557 0.02578 0.07603 0.57898
  -2   6   9 3140.44  305.97   1 0.81654-0.84244 0.57502 0.01836 0.05104 0.53847
  -2   6   8 1085.54  246.89   1 0.82455-0.86847 0.56506 0.01035 0.02839 0.49562
  -2   6   7  140.04  115.51   1 0.83111-0.89304 0.55603 0.00141 0.00855 0.44995
  -2   6   6  783.13  215.26   1 0.83618-0.91613 0.54838-0.00891-0.00776 0.40077
  -2   6   5  640.42  122.17   1 0.83965-0.93761 0.54276-0.02126-0.01950 0.34701
   2  -6  -4  405.40   44.02   1-0.49391 0.61004-0.70972 0.20609 0.50233-0.76509
  -2   6   4  323.19   39.31   1 0.86445-0.98056 0.33979 0.16345 0.37048-0.10849
  -2   6   4  484.76  113.61   1 0.84124-0.95721 0.54008-0.03654-0.02504 0.28705
   2  -6  -3  350.55   74.42   1-0.14565 0.27962-0.64538 0.15951 0.74983-0.94676
  -2   6   3  643.50   73.20   1 0.86500-0.99941 0.45469 0.03054 0.21217-0.01568
  -2   6   3 1170.39  171.40   1 0.84029-0.97428 0.54169-0.05613-0.02171 0.21822
   2  -6  -2 7402.79  515.20   1 0.27415-0.12211-0.42934-0.03852 0.86052-0.99176
  -2   6   2 6492.72  453.53   1 0.84531-0.99765 0.52566-0.05842 0.09546 0.03559
  -2   6   2 7220.17  544.80   1 0.83530-0.98731 0.54976-0.08217-0.00486 0.13586
   2  -6  -142379.23 2032.40   1 0.59678-0.42641-0.15077-0.29905 0.78810-0.85366
  -2   6   138064.38 1827.96   1 0.82050-0.99085 0.57157-0.12213 0.00820 0.05733
  -2   6   140598.33 1972.68   1 0.82249-0.99251 0.56773-0.11811 0.03439 0.03111
   2  -6  -134786.07 1689.47   1 0.79284-0.62275 0.12501-0.57469-0.59646 0.53093
   2  -6   046364.52 2229.85   1 0.76590-0.57758 0.07731-0.50889 0.63829-0.63829
  -2   6   041044.32 1976.80   1 0.79474-0.98311 0.60381-0.17232-0.06153 0.06153
  -2   6   044783.76 2152.49   1 0.79035-0.97858 0.60148-0.16973 0.11645-0.11645
   2  -6   038171.68 1834.18   1 0.76405-0.57588 0.07619-0.50787-0.64063 0.64063
   2  -6   1 3559.52  256.10   1 0.83820-0.63187 0.23286-0.64642 0.49313-0.42763
  -2   6  -1 3880.09  273.82   1 0.76885-0.97515 0.62794-0.21457-0.12058 0.05504
  -2   6  -1 3700.91  238.23   1 0.69549-0.90165 0.65627-0.24248 0.29256-0.35807
   2  -6   1 3976.64  255.03   1 0.68081-0.47470-0.04008-0.37360-0.73136 0.79691
   2  -6   2 1064.43  138.54   1 0.86332-0.63894 0.33227-0.72789 0.37980-0.24881
   2  -6   3   82.50   97.70   1 0.86881-0.62637 0.39525-0.77285 0.29821-0.10172
   2  -6   4  358.61  121.07   1 0.86738-0.60693 0.43483-0.79449 0.24199 0.01999
   2  -6   5 4052.19  399.59   1 0.86426-0.58581 0.45940-0.80112 0.20493 0.12255
   2  -6   622260.37  622.36   1 0.86135-0.56464 0.47409-0.79798 0.18247 0.21069
   2  -6   7 7236.70  508.40   1 0.85969-0.54492 0.48146-0.78744 0.17063 0.28806
   2  -6   8 3195.10  777.23   1 0.85917-0.52636 0.48360-0.77165 0.16718 0.35704
   2  -6   9 2164.05  415.14   1 0.85964-0.50878 0.48166-0.75180 0.17032 0.41943
   2  -6  10  839.31  217.38   1 0.86085-0.49195 0.47641-0.72863 0.17876 0.47652
   2  -6  11  985.66  199.82   1 0.86269-0.47620 0.46816-0.70225 0.19126 0.52921
   2  -6  12  790.34  193.24   1 0.86455-0.46006 0.45760-0.67375 0.20770 0.57827
  -2   5  11  455.91  176.25   1 0.79248-0.79196 0.59960-0.04188 0.11157 0.60913
  -2   5  10  903.60  303.80   1 0.80297-0.82092 0.58974-0.05032 0.08621 0.56881
  -2   5   9 1854.25  253.52   1 0.81211-0.84808 0.58009-0.05864 0.06291 0.52660
  -2   5   8 4528.74  361.08   1 0.81971-0.87369 0.57121-0.06773 0.04228 0.48173
  -2   5   7  317.64   73.70   1 0.82662-0.89886 0.56208-0.07680 0.02731 0.43144
  -2   5   7  537.85  184.03   1 0.82573-0.89773 0.56350-0.07800 0.02493 0.43357
  -2   5   6 2014.75  164.95   1 0.80612-0.89638 0.59085-0.12352-0.03249 0.42571
  -2   5   6 1941.60  234.40   1 0.83007-0.92009 0.55752-0.08998 0.01179 0.38122
  -2   5   5 1236.77   71.12   1 0.76406-0.87233 0.07417 0.37525 0.64086-0.31340
  -2   5   5 1525.35  172.81   1 0.83248-0.94051 0.55402-0.10445 0.00423 0.32328
  -2   5   4 1063.17   96.32   1 0.86572-0.99212 0.35026 0.08100 0.35753-0.09554
  -2   5   4  785.43  136.94   1 0.83241-0.95846 0.55412-0.12253 0.00445 0.25755
  -2   5   3 4264.10  255.85   1 0.84125-0.98556 0.53485-0.12160 0.07878 0.11779
  -2   5   3 3797.15  292.38   1 0.82865-0.97271 0.55951-0.14589 0.01614 0.18036
   2  -5  -2 1509.81  106.55   1 0.28623-0.12415-0.42102 0.02513 0.86069-0.99194
  -2   5   2 1284.80   94.24   1 0.80116-0.96350 0.59671-0.20122-0.04545 0.17653
  -2   5   2 1017.92  122.02   1 0.81842-0.98049 0.57278-0.17713 0.04587 0.08513
   2  -5  -2  931.77  107.44   1 0.84875-0.68668 0.24946-0.64505-0.46623 0.33522
   2  -5  -1 1811.34  144.51   1 0.69484-0.51455-0.03036-0.34724 0.71851-0.78400
  -2   5   1 1220.62  100.13   1 0.77126-0.95155 0.62595-0.24855-0.11547 0.18100
  -2   5   1 1384.04  134.63   1 0.79451-0.97460 0.59783-0.22015 0.10651-0.04101
   2  -5  -1 1167.23  122.89   1 0.84838-0.66824 0.24838-0.62598-0.46748 0.40198
   2  -5   0  735.43   90.20   1 0.83604-0.63771 0.22664-0.58622 0.49965-0.49965
  -2   5   0  480.16   60.98   1 0.74506-0.94337 0.64548-0.28604-0.16801 0.16801
  -2   5   0  765.34   85.05   1 0.73453-0.93281 0.63932-0.27954 0.22740-0.22740
   2  -5   0  747.13   90.54   1 0.84130-0.64308 0.22909-0.58883-0.48961 0.48961
   2  -5   1   76.27   66.05   1 0.86758-0.65121 0.36798-0.70962 0.33447-0.26898
  -2   5  -1  162.38   78.83   1 0.71978-0.93611 0.66055-0.31906-0.21347 0.14794
  -2   5  -1   77.13   31.96   1 0.54984-0.76602 0.68487-0.34301 0.47813-0.54364
   2  -5   1  145.22   44.88   1 0.81108-0.59478 0.15988-0.50163-0.56264 0.62817
   2  -5   2  241.38   94.43   1 0.86623-0.63180 0.44566-0.76930 0.22587-0.09488
  -2   5  -2  312.38   98.72   1 0.69442-0.92876 0.67281-0.34927-0.25513 0.12406
   2  -5   3  158.81   92.01   1 0.85766-0.60507 0.48946-0.79521 0.15760 0.03898
   2  -5   413778.55  736.92   1 0.84985-0.57922 0.51411-0.80194 0.11587 0.14623
   2  -5   5 5199.15  421.28   1 0.84460-0.55592 0.52734-0.79726 0.09243 0.23520
   2  -5   5 5432.84  366.18   1 0.21415 0.07441 0.63838-0.90824 0.73932-0.41177
   2  -5   5 5450.11  366.34   1 0.52010-0.23169 0.68594-0.95573 0.50888-0.18134
   2  -5   6 7771.85  710.69   1 0.84202-0.53529 0.53319-0.78519 0.08183 0.31134
   2  -5   6 8437.55  699.06   1 0.72507-0.41836 0.64408-0.89591 0.24374 0.14936
  -2   5  -6 7545.34  626.14   1 0.28383-0.59046-0.39735 0.64939-0.87266 0.47920
   2  -5   7 4731.70  271.33   1 0.84170-0.51692 0.53389-0.76797 0.08054 0.37815
   2  -5   7 4929.50  165.59   1 0.75577-0.43098 0.62712-0.86096 0.18845 0.27017
  -2   5  -7 4705.27  161.66   1 0.42993-0.75427-0.28946 0.52344-0.85519 0.39633
   2  -5   8 1999.47  262.10   1 0.84311-0.50029 0.53076-0.74692 0.08626 0.43796
   2  -5   8 1316.23  134.34   1 0.76158-0.41872 0.62337-0.83921 0.17718 0.34696
   2  -5   9 1051.74  257.31   1 0.84577-0.48490 0.52457-0.72281 0.09741 0.49234
   2  -5   9  577.68  156.25   1 0.75773-0.39680 0.62588-0.82372 0.18468 0.40498
   2  -5  10  462.22  234.23   1 0.84922-0.47030 0.51582-0.69614 0.11289 0.54239
   2  -5  11   33.30  123.75   1 0.85309-0.45613 0.50479-0.66719 0.13193 0.58888
   2  -5  12  987.25  185.72   1 0.85706-0.44205 0.49166-0.63614 0.15396 0.63237
  -2   4  11  433.36  172.50   1 0.78587-0.79539 0.60530-0.11954 0.12652 0.59418
  -2   4  10  306.50  128.44   1 0.79591-0.82393 0.59654-0.12906 0.10323 0.55179
  -2   4   9  468.66  171.74   1 0.80455-0.85059 0.58815-0.13864 0.08229 0.50722
  -2   4   8  241.80   69.66   1 0.85331-0.91739 0.50414-0.07319 0.13303 0.39119
  -2   4   8  492.89  175.53   1 0.81150-0.87555 0.58077-0.14923 0.06452 0.45948
  -2   4   7 2694.57  123.14   1 0.84793-0.93006 0.51918-0.10615 0.10698 0.35171
  -2   4   7 1886.38  231.59   1 0.81665-0.89872 0.57489-0.16132 0.05074 0.40776
  -2   4   6  661.59   55.18   1 0.38566-0.48541-0.34670 0.74243 0.85501-0.46170
  -2   4   6  830.99   66.59   1 0.84503-0.94520 0.52634-0.13123 0.09423 0.29893
  -2   4   6 1165.88  181.19   1 0.81974-0.91983 0.57117-0.17557 0.04218 0.35083
  -2   4   5  137.47   24.54   1 0.60618-0.72415-0.14040 0.51819 0.78283-0.45505
  -2   4   5  251.26  117.06   1 0.82026-0.93836 0.57052-0.19290 0.04071 0.28679
  -2   4   4  803.47  124.39   1 0.81715-0.95326 0.57430-0.21465 0.04938 0.21262
  -2   4   337689.28 1148.63   1 0.80810-0.96222 0.58446-0.24278 0.07333 0.12317
  -2   4   257406.81 1671.94   1 0.78782-0.96000 0.60365-0.27984 0.12216 0.00887
   2  -4  -251757.81 1504.50   1 0.87467-0.70261 0.36150-0.68520-0.32289 0.19188
   2  -4  -126982.37  683.20   1 0.81214-0.62177 0.16686-0.47254 0.55909-0.62458
  -2   4   125068.61  639.64   1 0.64382-0.83414 0.69074-0.38523-0.32917 0.39471
  -2   4   125608.93  691.95   1 0.74229-0.93254 0.63512-0.32930 0.21355-0.14803
   2  -4  -124266.79  655.47   1 0.87637-0.68629 0.38723-0.69297-0.28638 0.22088
   2  -4   065009.21 1613.18   1 0.86876-0.66034 0.41023-0.69784 0.27741-0.27741
  -2   4   058915.91 1464.71   1 0.64880-0.85713 0.68930-0.40175-0.32234 0.32234
  -2   4   061185.88 1516.92   1 0.62991-0.83812 0.67484-0.38698 0.38444-0.38444
   2  -4   059191.52 1468.45   1 0.87622-0.66812 0.41451-0.70228-0.24576 0.24576
   2  -4   113546.23  404.70   1 0.85194-0.62543 0.50823-0.77792 0.12603-0.06050
  -2   4  -112982.76  390.05   1 0.63858-0.86493 0.69218-0.42258-0.33627 0.27074
  -2   4  -113228.81  380.15   1 0.30921-0.53551 0.66262-0.39274 0.68213-0.74764
   2  -4   112505.80  333.97   1 0.87314-0.64702 0.44690-0.71671-0.19466 0.26017
   2  -4   2 8054.46  314.33   1 0.83206-0.58751 0.55285-0.80461 0.04493 0.08611
  -2   4  -2 7799.22  302.05   1 0.62212-0.86649 0.69629-0.44464-0.35796 0.22690
   2  -4   2 8380.92  246.15   1 0.85824-0.61410 0.50441-0.75625-0.09472 0.22573
   2  -4   2 8238.47  242.12   1 0.49496-0.25061-0.23396-0.01787-0.83681 0.96792
   2  -4   3 2775.10  224.55   1 0.81862-0.55615 0.57432-0.80810 0.00256 0.19404
   2  -4   3 2919.51  183.69   1 0.59739-0.33499 0.68037-0.91422 0.42452-0.22798
   2  -4   3 2786.82  176.05   1 0.87400-0.61153 0.36164-0.59540-0.32455 0.52106
   2  -4   416220.71  843.55   1 0.81159-0.53110 0.58396-0.79978-0.01762 0.27977
   2  -4   416063.96  773.13   1 0.00059 0.27990 0.55860-0.77444 0.82943-0.56735
   2  -4   416407.86  790.48   1 0.87336-0.59318 0.44536-0.66126-0.19718 0.45919
   2  -4   5 9280.17  531.81   1 0.80944-0.51093 0.58672-0.78459-0.02354 0.35123
   2  -4   5 9318.07  469.92   1 0.86637-0.56816 0.47944-0.67738-0.13975 0.46727
  -2   4  -5 9248.33  465.95   1 0.31096-0.60960-0.37870 0.57674-0.87171 0.54383
   2  -4   6  236.51  122.40   1 0.81079-0.49426 0.58499-0.76490-0.01984 0.41306
   2  -4   6   18.42   40.76   1 0.85821-0.54198 0.50449-0.68447-0.09457 0.48759
  -2   4  -6  184.27   72.92   1 0.44757-0.76396-0.27490 0.45489-0.85094 0.45763
   2  -4   7  530.96  115.70   1 0.81454-0.47999 0.58002-0.74197-0.00930 0.46805
   2  -4   7  605.33   93.03   1 0.84870-0.51445 0.52619-0.68819-0.05305 0.51158
  -2   4  -7  533.75   82.73   1 0.51290-0.84740-0.21789 0.37956-0.83033 0.37125
   2  -4   8 1136.23  187.07   1 0.81988-0.46731 0.57248-0.71647 0.00633 0.51795
   2  -4   8  464.32  116.76   1 0.83775-0.48546 0.54589-0.68988-0.01300 0.53701
   2  -4   9  113.94  114.75   1 0.82620-0.45560 0.56277-0.68880 0.02594 0.56388
   2  -4   9  239.98   78.77   1 0.82506-0.45475 0.56439-0.69041 0.02691 0.56260
   2  -4  10   84.66  118.61   1 0.83314-0.44422 0.55090-0.65932 0.04868 0.60659
   2  -4  10  508.30  131.36   1 0.81057-0.42224 0.58179-0.68984 0.06695 0.58806
   2  -4  11  140.89  128.83   1 0.84007-0.43309 0.53738-0.62788 0.07414 0.64667
   2  -4  12   60.31  120.16   1 0.84679-0.42177 0.52206-0.59465 0.10188 0.68446
  -2   3  12  121.53  122.43   1 0.76431-0.76580 0.62154-0.18975 0.17178 0.61443
  -2   3  11  373.62  158.91   1 0.77577-0.79534 0.61332-0.19952 0.14833 0.57237
  -2   3  10 2071.27  240.33   1 0.78544-0.82308 0.60566-0.20985 0.12746 0.52771
  -2   3   9  349.74   87.60   1 0.86460-0.92097 0.45729-0.08012 0.20819 0.38128
  -2   3   9  331.21  108.01   1 0.79327-0.84899 0.59889-0.22107 0.10973 0.47993
  -2   3   8 4716.83  307.35   1 0.86249-0.93659 0.46849-0.10944 0.19134 0.33288
  -2   3   8 4969.20  396.89   1 0.79887-0.87299 0.59375-0.23415 0.09618 0.42783
  -2   3   7 8596.92  720.48   1-0.01749-0.07425-0.59404 0.93565 0.80423-0.34502
  -2   3   710334.89  861.99   1 0.86224-0.95438 0.46980-0.12867 0.18926 0.26943
  -2   3   711099.62  972.73   1 0.80252-0.89466 0.59019-0.24856 0.08731 0.37120
  -2   3   6 5604.88  393.95   1 0.03842-0.14836-0.56758 0.89121 0.82241-0.42862
  -2   3   6 6154.22  435.21   1 0.86537-0.97576 0.45212-0.12878 0.21609 0.17689
  -2   3   6 7078.83  570.84   1 0.80342-0.91357 0.58929-0.26564 0.08509 0.30791
  -2   3   5  654.20  142.47   1 0.80055-0.92872 0.59213-0.28644 0.09211 0.23539
  -2   3   4 5213.09  387.33   1 0.79211-0.93819 0.59992-0.31208 0.11241 0.14965
  -2   3   3 7473.56  313.13   1 0.77335-0.93750 0.61513-0.34528 0.15339 0.04316
   2  -3  -3 7055.77  270.50   1 0.87483-0.71071 0.43347-0.70319-0.21626 0.01975
  -2   3   2121767.2 3003.44   1 0.73465-0.91688 0.63926-0.38740 0.22719-0.09615
   2  -3  -2117275.5 2885.07   1 0.86710-0.68497 0.47668-0.72844-0.14456 0.01355
   2  -3  -122835.43  579.78   1-0.37259 0.57320-0.70176 0.46761 0.60719-0.67288
   2  -3  -122773.25  576.01   1 0.86085-0.66043 0.47641-0.71003 0.17877-0.24429
  -2   3   122545.12  612.88   1 0.65163-0.85183 0.66990-0.43600 0.35581-0.29030
   2  -3  -121834.16  590.51   1 0.84781-0.64766 0.52796-0.76176-0.04954-0.01595
   2  -3   041930.62 1054.22   1-0.48539 0.70401-0.70973 0.49365 0.51055-0.51055
   2  -3   043119.66 1085.96   1 0.80303-0.58461 0.59455-0.81029-0.04063 0.04063
  -2   3   042766.13 1075.35   1 0.46081-0.67912 0.68427-0.46837 0.56516-0.56516
   2  -3   042047.78 1056.01   1 0.80098-0.58274 0.59171-0.80753 0.09107-0.09107
   2  -3   1 8992.86  295.08   1-0.51651 0.75324-0.70920 0.51099 0.47983-0.41414
   2  -3   1 8584.47  289.63   1 0.76875-0.53237 0.62803-0.82574-0.12079 0.18633
  -2   3  -1 8849.46  280.74   1 0.05046-0.28679 0.58031-0.38243 0.81282-0.87834
   2  -3   1 8660.87  246.37   1 0.67611-0.43978 0.66295-0.86085 0.32149-0.25598
   2  -3   2 1882.71  150.13   1 0.75397-0.49957 0.63935-0.81910-0.15085 0.28192
   2  -3   2 1734.95   75.29   1 0.37388-0.11947 0.67480-0.85468 0.63627-0.50521
   2  -3   2 2222.49   95.40   1 0.48653-0.23212-0.24145 0.06155-0.83963 0.97073
   2  -3   310045.63  346.42   1-0.51432 0.78725-0.70928 0.54681 0.48205-0.28499
   2  -3   310096.12  374.28   1 0.75038-0.47797 0.64187-0.80368-0.15784 0.35444
   2  -3   310513.96  293.74   1-0.02241 0.29490 0.54798-0.70986 0.83618-0.63962
   2  -3   310886.95  312.86   1 0.76257-0.48998 0.07383-0.23569-0.64267 0.83926
   2  -3   426409.23  851.45   1 0.75333-0.46290 0.63980-0.78366-0.15211 0.41424
   2  -3   427171.74  802.55   1 0.84652-0.55584 0.24345-0.38732-0.47342 0.73553
  -2   3  -425609.56  756.72   1 0.29471-0.58534-0.38995 0.53400-0.87239 0.61009
   2  -3   527263.68 1373.16   1 0.76017-0.45173 0.63478-0.76068-0.13848 0.46615
   2  -3   527109.18 1322.72   1 0.87083-0.56218 0.33724-0.46313-0.35764 0.68517
  -2   3  -526720.01 1300.96   1 0.43702-0.74546-0.28365 0.40967-0.85355 0.52579
   2  -3   6 5410.57  457.95   1 0.76934-0.44288 0.62754-0.73549-0.11954 0.51274
   2  -3   6 4212.02  334.54   1 0.87656-0.55025 0.39720-0.50523-0.27177 0.66479
  -2   3  -6 2823.18  269.04   1 0.51093-0.83744-0.21970 0.32743-0.83106 0.43757
   2  -3   7 1734.38  208.21   1 0.77973-0.43516 0.61860-0.70864-0.09663 0.55538
   2  -3   7 1662.45  146.09   1 0.87376-0.52943 0.44248-0.53254-0.20184 0.66037
   2  -3   8 1117.93  178.52   1 0.79087-0.42828 0.60786-0.67993-0.07090 0.59519
   2  -3   8 1819.58  211.60   1 0.86658-0.50423 0.47866-0.55076-0.14110 0.66513
   2  -3   9 1095.34  160.96   1 0.80219-0.42158 0.59553-0.64964-0.04280 0.63263
   2  -3   9  987.88  133.52   1 0.85637-0.47600 0.50917-0.56330-0.08582 0.67535
   2  -3  10 1900.78  228.59   1 0.81334-0.41471 0.58164-0.61780-0.01271 0.66808
   2  -3  10 1426.93  272.75   1 0.84371-0.44532 0.53570-0.57181-0.03397 0.68899
   2  -3  11  368.59  157.84   1 0.82404-0.40739 0.56619-0.58439 0.01911 0.70179
   2  -3  11  139.71   67.01   1 0.82872-0.41231 0.55943-0.57756 0.01595 0.70456
   2  -3  12  228.08  125.34   1 0.83422-0.39918 0.54892-0.54960 0.05246 0.73387
  -2   2  12  277.70  115.58   1 0.75068-0.76222 0.63026-0.27042 0.19810 0.58811
  -2   2  11  132.35   89.52   1 0.86885-0.89921 0.40310-0.06196 0.28739 0.43308
  -2   2  11  152.70  117.90   1 0.76138-0.79099 0.62350-0.28166 0.17757 0.54312
  -2   2  10 8391.36  472.33   1 0.86852-0.91689 0.41748-0.09428 0.26714 0.38783
  -2   2  10 8077.80  547.53   1 0.77006-0.81775 0.61752-0.29367 0.16017 0.49500
  -2   2   9 8750.89  534.08   1 0.86805-0.93442 0.42627-0.12101 0.25451 0.33497
  -2   2   9 9605.02  667.08   1 0.77658-0.84234 0.61270-0.30685 0.14662 0.44304
  -2   2   815017.13  496.79   1 0.78066-0.86449 0.60954-0.32167 0.13792 0.38622
  -2   2   716870.11 1189.53   1-0.30575 0.20359-0.69023 0.95922 0.65581-0.19603
  -2   2   718288.38 1249.86   1 0.86859-0.97097 0.41588-0.14650 0.26942 0.18906
  -2   2   721044.70 1485.93   1 0.78174-0.88365 0.60867-0.33880 0.13557 0.32305
  -2   2   6 5610.07  397.50   1-0.33235 0.21211-0.69535 0.94652 0.63720-0.24310
  -2   2   6 5681.54  356.64   1 0.86833-0.98872 0.38086-0.12941 0.31769 0.07529
  -2   2   6 6310.19  451.55   1 0.77885-0.89883 0.61096-0.35908 0.14180 0.25130
  -2   2   5 3023.82  269.26   1-0.34837 0.21005-0.69810 0.93145 0.62552-0.29711
  -2   2   5 3473.20  232.56   1 0.85487-0.99310 0.28993-0.05641 0.43025-0.10276
  -2   2   5 3221.14  299.03   1 0.77012-0.90817 0.61748-0.38360 0.16005 0.16753
  -2   2   4 8323.56  233.17   1-0.32610 0.16970-0.69421 0.90973 0.64165-0.37892
  -2   2   4 8819.81  329.19   1 0.75190-0.90802 0.62952-0.41363 0.19580 0.06627
  -2   2   3 2869.77  185.94   1 0.71667-0.89087 0.64800-0.45010 0.25780-0.06125
   2  -2  -3 2687.35  162.92   1 0.84859-0.67440 0.52642-0.72420-0.05260-0.14390
   2  -2  -2  685.83   34.81   1 0.66842-0.47604-0.06505-0.11472 0.74092-0.87190
  -2   2   2  496.12   77.86   1 0.64843-0.84063 0.67070-0.49076 0.36013-0.22910
   2  -2  -2  842.45   94.64   1 0.81162-0.61934 0.58063-0.76046 0.06420-0.19520
   2  -2  -126051.88  408.44   1-0.03783 0.24835-0.60295 0.44096 0.79687-0.86248
   2  -2  -126630.63  421.44   1 0.59495-0.38459 0.70172-0.86345-0.39191 0.32638
  -2   2   126456.40  475.45   1 0.51192-0.72215 0.68602-0.52405 0.51701-0.45150
   2  -2  -125438.85  449.29   1 0.73765-0.52731 0.63767-0.79958 0.22189-0.28740
   2  -2   0 6045.83  165.10   1-0.26980 0.49842-0.68168 0.53764 0.68008-0.68008
   2  -2   0 6154.41  178.20   1 0.60058-0.37220 0.70073-0.84450-0.38506 0.38506
  -2   2   0 6215.81  220.47   1 0.24905-0.47739 0.64816-0.50422 0.71962-0.71962
   2  -2   0 6548.15  171.52   1 0.58916-0.36087 0.68134-0.82529 0.43435-0.43435
   2  -2   114809.22  405.49   1-0.35835 0.60514-0.69968 0.57329 0.61807-0.55239
   2  -2   116200.64  344.16   1 0.61709-0.37069 0.69741-0.82324-0.36442 0.42995
   2  -2   115023.08  327.59   1 0.32627-0.07985 0.66615-0.79209 0.67065-0.60514
   2  -2   115683.03  296.26   1 0.14797 0.09859-0.48136 0.35544-0.86393 0.92948
   2  -2   239072.08 1098.95   1-0.39421 0.65907-0.70451 0.59594 0.59012-0.45876
   2  -2   241618.91 1092.96   1 0.63699-0.37257 0.69261-0.80048-0.33841 0.46948
   2  -2   238931.65  980.20   1 0.00528 0.25919 0.56072-0.66864 0.82798-0.69694
   2  -2   240741.78 1026.58   1 0.50873-0.24426-0.22154 0.11358-0.83193 0.96303
   2  -2   313502.96  469.31   1-0.40601 0.68895-0.70580 0.61505 0.58051-0.38346
   2  -2   314148.22  463.09   1 0.65796-0.37553 0.68648-0.77640-0.30953 0.50613
   2  -2   315314.68  432.36   1 0.71271-0.43021 0.00122-0.09113-0.70144 0.89811
  -2   2  -314683.65  415.42   1 0.24932-0.53196-0.42016 0.51021-0.87252 0.67579
   2  -2   4 5215.88  389.24   1 0.67906-0.37860 0.67908-0.75105-0.27876 0.54089
   2  -2   4 5302.40  365.91   1 0.80696-0.50624 0.15167-0.22359-0.57078 0.83290
  -2   2  -4 5323.85  369.40   1 0.40323-0.70371-0.31086 0.38290-0.86067 0.59847
   2  -2   5  132.48  107.16   1 0.69979-0.38132 0.67042-0.72443-0.24660 0.57426
   2  -2   5  225.68   81.10   1 0.84995-0.53124 0.25304-0.30700-0.46211 0.78963
  -2   2  -5    9.85   61.32   1 0.48994-0.80843-0.23843 0.29251-0.83851 0.51075
   2  -2   6  231.89  121.41   1 0.71990-0.38341 0.66048-0.69654-0.21327 0.60647
   2  -2   6  406.68  127.80   1 0.86893-0.53216 0.32614-0.36213-0.37225 0.76528
   2  -2   7  198.16  123.71   1 0.73921-0.38471 0.64925-0.66736-0.17893 0.63766
   2  -2   7  492.70  131.12   1 0.87611-0.52170 0.38089-0.39902-0.29553 0.75405
   2  -2   8  705.94  192.19   1 0.75760-0.38508 0.63670-0.63686-0.14366 0.66792
   2  -2   8  777.31  179.16   1 0.87550-0.50307 0.42618-0.42633-0.22773 0.75176
   2  -2   9 1495.11  218.73   1 0.77484-0.38421 0.62295-0.60515-0.10742 0.69725
   2  -2   9 1548.49  217.64   1 0.87003-0.47958 0.46422-0.44641-0.16592 0.75545
   2  -2  10 1910.63  230.39   1 0.79109-0.38244 0.60763-0.57187-0.07037 0.72573
   2  -2  10 2356.33  222.02   1 0.86091-0.45243 0.49712-0.46135-0.10815 0.76318
   2  -2  11  379.35  192.79   1 0.80614-0.37948 0.59082-0.53710-0.03243 0.75333
   2  -2  11  362.73  146.23   1 0.84872-0.42223 0.52616-0.47241-0.05311 0.77365
   2  -2  12  201.69  163.18   1 0.81991-0.37522 0.57245-0.50077 0.00641 0.78001
   2  -2  12   61.39   78.27   1 0.83379-0.38930 0.55207-0.48029 0.00004 0.78597
  -2   1  13  168.06  112.51   1 0.72037-0.72388 0.64631-0.34044 0.25167 0.60007
  -2   1  12  439.14  168.34   1 0.73210-0.75369 0.64058-0.35270 0.23165 0.55456
  -2   1  11  586.03  147.76   1 0.86832-0.90868 0.38055-0.11131 0.31810 0.40236
  -2   1  11  719.38  193.16   1 0.74160-0.78126 0.63551-0.36562 0.21480 0.50590
  -2   1  10  895.00  124.51   1 0.86867-0.92704 0.38929-0.13799 0.30634 0.34863
  -2   1  10  618.46  153.07   1 0.74871-0.80644 0.63143-0.37954 0.20177 0.45341
  -2   1   916131.45  939.12   1 0.86873-0.94510 0.39139-0.15803 0.30348 0.28599
  -2   1   915759.80  967.47   1 0.75312-0.82892 0.62877-0.39487 0.19350 0.39616
  -2   1   8 2082.14  149.84   1-0.47478 0.38096-0.70960 0.92457 0.52061 0.00488
  -2   1   8 2954.19  194.03   1 0.86849-0.96287 0.38417-0.16875 0.31326 0.21072
  -2   1   8 2615.03  242.32   1 0.75426-0.84814 0.62806-0.41216 0.19132 0.33282
  -2   1   7 7971.58  578.77   1 0.86712-0.97930 0.36261-0.16513 0.34146 0.11701
   2  -1  -7 6938.82  496.25   1 0.53497-0.42269 0.70871-0.90627-0.45991 0.00118
  -2   1   7 8104.82  618.12   1 0.75117-0.86311 0.62996-0.43205 0.19718 0.26144
   2  -1  -6  604.09   75.72   1 0.60646-0.47616 0.69961-0.87922-0.37779-0.01539
  -2   1   6  574.90  139.98   1 0.74208-0.87210 0.63524-0.45532 0.21393 0.17917
  -2   1   5 8709.33  296.94   1 0.83392-0.98219 0.22071-0.05911 0.50581-0.17832
   2  -1  -5 8682.85  291.51   1 0.69472-0.54640 0.67268-0.83433-0.25467-0.07299
  -2   1   5 9392.66  381.80   1 0.72383-0.87193 0.64468-0.48275 0.24585 0.08173
  -2   1   4 4999.69  162.75   1 0.73741-0.90384 0.03108 0.11267 0.67471-0.41274
   2  -1  -4 5317.80  170.14   1 0.80375-0.63738 0.59369-0.73744-0.03874-0.22340
  -2   1   4 5775.13  277.50   1 0.69082-0.85695 0.65798-0.51400 0.29968-0.03763
   2  -1  -4 5080.90  230.54   1 0.83317-0.66685 0.55300-0.69683 0.00205-0.26406
  -2   1   311554.79  310.20   1 0.46448-0.64877-0.28067 0.40658 0.83992-0.64325
   2  -1  -310807.64  289.16   1 0.86479-0.68043 0.34223-0.46796 0.36743-0.56392
  -2   1   310708.48  358.18   1 0.63063-0.81482 0.67469-0.54872 0.38351-0.18697
   2  -1  -3 9705.35  316.73   1 0.78660-0.60236 0.60469-0.73063 0.12489-0.32145
  -2   1   2 3128.54   94.87   1 0.07420-0.27662-0.54958 0.65745 0.83213-0.70087
   2  -1  -2 2921.45   92.36   1 0.60423-0.40183-0.14256 0.03463 0.78394-0.91505
  -2   1   2 2934.30  158.07   1 0.52224-0.72447 0.68591-0.57790 0.50673-0.37571
   2  -1  -2 3210.00  136.85   1 0.70306-0.50081 0.65334-0.76131 0.28078-0.41181
  -2   1   131327.35  515.95   1-0.19154-0.02912-0.66032 0.75025 0.72614-0.66050
   2  -1  -131042.68  496.30   1 0.19734 0.02310-0.47921 0.38923 0.85522-0.92084
  -2   1   131468.81  551.74   1 0.33242-0.55273 0.66736-0.57739 0.66641-0.60091
   2  -1  -131488.46  537.23   1 0.55757-0.33728 0.68437-0.77437 0.46982-0.53533
  -2   1   0 1824.41  322.97   1-0.34073 0.10200-0.69682 0.76893 0.63113-0.63113
   2  -1   0 1266.87   79.92   1-0.05381 0.29247-0.60972 0.53769 0.79078-0.79078
  -2   1   0 1649.72  271.31   1 0.04433-0.28273 0.57774-0.50578 0.81501-0.81501
   2  -1   0 1632.62  227.13   1 0.33148-0.09308 0.66718-0.73915 0.66707-0.66707
  -2   1  -115161.60  353.73   1-0.43432 0.17756-0.70779 0.76195 0.55712-0.62281
   2  -1   115124.18  318.63   1-0.18286 0.43966-0.65763 0.60352 0.73080-0.66516
   2  -1   115090.22  315.07   1 0.05810 0.19837 0.58347-0.63743 0.81004-0.74452
   2  -1   115321.47  319.79   1 0.28143-0.02488-0.39897 0.34497-0.87270 0.93828
  -2   1  -2 1602.40  147.64   1-0.50147 0.22660-0.70963 0.74592 0.49492-0.62629
   2  -1   2 1624.11  191.28   1-0.24893 0.52379-0.67650 0.64032 0.69308-0.56180
   2  -1   2 1481.32  106.34   1 0.53749-0.26302-0.19491 0.15900-0.82043 0.95159
  -2   1  -2 1351.25   98.82   1 0.18302-0.45764-0.46104 0.49707-0.86829 0.73720
   2  -1   336066.52  988.66   1 0.55272-0.26026 0.70730-0.72533-0.44070 0.63730
   2  -1   338160.05  995.92   1 0.69479-0.40222-0.02239 0.00442-0.71886 0.91552
   2  -1   430841.96  974.29   1 0.59594-0.28546 0.70155-0.70163-0.39072 0.65285
   2  -1   429220.71  895.33   1 0.78283-0.47206 0.10732-0.10729-0.61289 0.87501
  -2   1  -429435.21  897.66   1 0.45156-0.76210-0.27155 0.27165-0.84990 0.58770
   2  -1   511279.65  628.56   1 0.63311-0.30462 0.69362-0.67574-0.34358 0.67124
   2  -1   510426.96  562.45   1 0.83151-0.50264 0.20449-0.18647-0.51649 0.84414
   2  -1   6  161.59  116.44   1 0.66587-0.31936 0.68386-0.64804-0.29821 0.69141
   2  -1   6  349.78  138.86   1 0.85792-0.51110 0.27901-0.24306-0.43140 0.82443
   2  -1   7  985.13  157.50   1 0.69519-0.33066 0.67247-0.61869-0.25392 0.71265
   2  -1   7  579.46  116.90   1 0.87109-0.50619 0.33891-0.28499-0.35543 0.81396
   2  -1   8 2317.35  265.91   1 0.72167-0.33912 0.65953-0.58780-0.21023 0.73449
   2  -1   8 2675.66  284.02   1 0.87637-0.49387 0.38734-0.31555-0.28622 0.81025
   2  -1   9 3623.91  307.59   1 0.74570-0.34513 0.64505-0.55537-0.16680 0.75659
   2  -1   9 3910.27  314.52   1 0.87520-0.47467 0.42960-0.33985-0.22236 0.81189
   2  -1  10 1115.40  253.09   1 0.76752-0.34893 0.62903-0.52139-0.12338 0.77870
   2  -1  10 1070.94  234.28   1 0.86956-0.45101 0.46640-0.35868-0.16223 0.81726
   2  -1  11  372.48  165.80   1 0.78713-0.35045 0.61160-0.48597-0.07973 0.80063
   2  -1  11  457.30  188.36   1 0.86026-0.42368 0.49897-0.37328-0.10477 0.82531
   2  -1  12  289.87  176.19   1 0.80489-0.35019 0.59233-0.44874-0.03574 0.82218
   2  -1  12  134.77  100.20   1 0.84772-0.39313 0.52814-0.38449-0.04918 0.83522
  -2   0  13  675.60  170.12   1 0.69770-0.71133 0.65543-0.42139 0.28916 0.56252
  -2   0  12 1002.79  289.08   1 0.86517-0.89717 0.34511-0.12986 0.36381 0.42215
  -2   0  12 1335.78  192.14   1 0.70799-0.73969 0.65132-0.43529 0.27296 0.51320
  -2   0  11 3295.93  263.30   1 0.86628-0.91632 0.35433-0.15702 0.35211 0.36835
  -2   0  11 3023.35  280.66   1 0.71564-0.76539 0.64803-0.45000 0.26058 0.46007
  -2   0  10  716.02  122.59   1 0.86665-0.93474 0.35779-0.17841 0.34768 0.30728
  -2   0  10  928.50  189.85   1 0.71976-0.78754 0.64659-0.46666 0.25268 0.40249
  -2   0   9 1343.32  157.12   1 0.86622-0.95235 0.35380-0.19236 0.35280 0.23667
  -2   0   9 1137.49  200.91   1 0.72087-0.80672 0.64608-0.48414 0.25083 0.33883
  -2   0   8  466.18   90.01   1 0.86440-0.96858 0.33948-0.19598 0.37087 0.15310
  -2   0   8  799.79  159.83   1 0.71745-0.82137 0.64765-0.50370 0.25652 0.26762
  -2   0   7 2144.27  178.37   1 0.85929-0.98151 0.30988-0.18431 0.40692 0.05156
   2   0  -7 1706.91  153.97   1 0.68855-0.56624 0.67530-0.80097-0.26429-0.19443
  -2   0   6  723.28   98.70   1 0.84577-0.98603 0.25637-0.14874 0.46791-0.07492
   2   0  -6  472.53   64.35   1 0.75983-0.61950 0.63504-0.74275-0.13918-0.25400
  -2   0   6  721.10  151.48   1 0.68981-0.82987 0.65834-0.55033 0.30122 0.09186
  -2   0   512313.12  405.43   1 0.81087-0.96932 0.16406-0.07427 0.56175-0.23428
   2   0  -511790.88  382.03   1 0.82823-0.66987 0.55943-0.64922 0.03255-0.36024
  -2   0   512354.49  451.88   1 0.65737-0.81549 0.66841-0.57839 0.34797-0.02040
  -2   0   4 6869.90  241.29   1 0.72750-0.90396 0.01605 0.05576 0.68591-0.42394
   2   0  -4 5593.50  195.44   1 0.86863-0.69223 0.41474-0.48649 0.27104-0.53303
  -2   0   4 5785.91  254.68   1 0.60264-0.77881 0.67951-0.60744 0.41841-0.15638
   2   0  -4 5840.86  243.64   1 0.77420-0.59799 0.61450-0.68647 0.15162-0.41370
  -2   0   3 6305.64  166.87   1 0.55947-0.75379-0.19028 0.24422 0.80670-0.61004
   2   0  -3 6134.28  159.64   1 0.81326-0.61878 0.16939-0.22326 0.55668-0.75316
  -2   0   3 6572.29  216.14   1 0.51095-0.70518 0.68602-0.63197 0.51796-0.32144
   2   0  -3 6029.54  196.92   1 0.69060-0.49634 0.65806-0.71207 0.30003-0.49657
  -2   0   2 3124.22  114.25   1 0.31400-0.52634-0.40139 0.43737 0.86039-0.72915
   2   0  -2 3625.33  128.08   1 0.60868-0.39625-0.13760 0.10165 0.78138-0.91249
  -2   0   2 3243.57  165.26   1 0.36250-0.57479 0.67277-0.63677 0.64495-0.51393
   2   0  -2 3355.75  161.22   1 0.55650-0.34421 0.68445-0.72048 0.47098-0.60200
  -2   0   1 7347.88  204.46   1 0.06820-0.29875-0.55266 0.57058 0.83060-0.76497
   2   0  -1 6999.41  189.51   1 0.33991-0.10939-0.38187 0.36391 0.85943-0.92498
  -2   0   1 7123.17  229.19   1 0.14323-0.37362 0.61584-0.59784 0.77473-0.70921
   2   0  -1 7030.38  203.62   1 0.36138-0.13101 0.67258-0.69058 0.64577-0.71128
  -2   0   023354.31  445.93   1-0.12442-0.12442-0.63789 0.63789 0.76000-0.76000
   2   0   023064.35  424.13   1 0.12433 0.12433-0.52267 0.52267 0.84341-0.84341
   2   0   024993.46  457.17   1 0.12423 0.12423 0.60908-0.60908 0.78331-0.78331
   2   0   023839.00  448.22   1 0.12428 0.12428-0.49457 0.49457-0.86020 0.86020
  -2   0  -130421.25  809.45   1-0.26452-0.00238-0.68041 0.66249 0.68342-0.74906
   2   0   128564.51  518.99   1-0.01592 0.28274-0.59335 0.61128 0.80478-0.73918
   2   0   130107.96  541.25   1 0.37696-0.11039-0.33118 0.34914-0.86499 0.93054
  -2   0  -128646.91  512.03   1 0.10263-0.36923-0.50627 0.48832-0.85624 0.79069
  -2   0  -226137.97  744.12   1-0.36861 0.08370-0.70120 0.66555 0.61027-0.74163
   2   0   225321.77  702.96   1-0.10104 0.38598-0.62856 0.66442 0.77116-0.63995
   2   0   224458.57  684.58   1 0.56757-0.28307-0.16558 0.20162-0.80650 0.93766
  -2   0  -225304.65  691.72   1 0.27779-0.56250-0.40142 0.36553-0.87274 0.74159
   2   0   378576.60 1980.52   1 0.69282-0.39020-0.02492 0.07890-0.72067 0.91734
  -2   0  -4107716.9 6258.80   1-0.51337 0.19228-0.70932 0.63784 0.48302-0.74577
   2   0   4100040.8 2868.24   1 0.77112-0.45029 0.08761-0.01564-0.63063 0.89274
   2   0   5 7169.97  494.42   1 0.56539-0.22687 0.70597-0.61620-0.42653 0.75419
   2   0   5 6761.18  466.59   1 0.81949-0.48057 0.17738-0.08741-0.54494 0.87258
   2   0   6 7421.84  589.76   1 0.61085-0.25431 0.69873-0.59102-0.37232 0.76551
   2   0   6 7732.13  594.25   1 0.84883-0.49195 0.24971-0.14184-0.46595 0.85898
   2   0   7 2765.94  244.95   1 0.65033-0.27578 0.68885-0.56318-0.32022 0.77895
   2   0   7 2091.57  240.11   1 0.86568-0.49073 0.30994-0.18409-0.39310 0.85163
   2   0   8 2373.27  285.10   1 0.68509-0.29252 0.67671-0.53309-0.26961 0.79387
   2   0   8 2485.40  294.94   1 0.87451-0.48192 0.35992-0.21619-0.32509 0.84912
   2   0   9 1311.98  276.12   1 0.71596-0.30537 0.66256-0.50099-0.21999 0.80978
   2   0   9 1279.21  280.02   1 0.87653-0.46592 0.40416-0.24246-0.26142 0.85095
   2   0  10  685.59  219.62   1 0.74349-0.31488 0.64651-0.46698-0.17097 0.82629
   2   0  10  480.42  212.29   1 0.87368-0.44505 0.44310-0.26344-0.20084 0.85587
   2   0  11  263.97  109.38   1 0.76806-0.32143 0.62859-0.43111-0.12224 0.84309
   2   0  11   82.91   94.73   1 0.86680-0.42015 0.47782-0.28020-0.14256 0.86310
  -2  -1  13 1097.25  195.13   1 0.85930-0.88329 0.30993-0.14866 0.40685 0.44461
  -2  -1  13  839.48  275.41   1 0.66772-0.69141 0.66551-0.50344 0.33351 0.51816
  -2  -1  12 1114.35  168.50   1 0.86122-0.90326 0.31991-0.17657 0.39489 0.39107
  -2  -1  12  834.72  270.27   1 0.67591-0.71766 0.66302-0.51895 0.32178 0.46438
  -2  -1  11 3651.71  280.53   1 0.86208-0.92216 0.32475-0.19936 0.38901 0.33145
  -2  -1  11 4093.95  369.43   1 0.68081-0.74062 0.66143-0.53537 0.31463 0.40602
  -2  -1  10 2534.02  276.22   1 0.86184-0.93996 0.32337-0.21591 0.39070 0.26427
  -2  -1  10 2595.65  312.22   1 0.68184-0.75971 0.66109-0.55303 0.31311 0.34202
  -2  -1   9 2174.17  421.96   1 0.86011-0.95627 0.31399-0.22447 0.40201 0.18746
  -2  -1   9 2280.53  195.60   1 0.67806-0.77400 0.66233-0.57227 0.31865 0.27097
  -2  -1   8  183.73   85.75   1 0.85580-0.97001 0.29386-0.22227 0.42572 0.09826
  -2  -1   8  529.99  128.61   1 0.66794-0.78194 0.66544-0.59339 0.33320 0.19091
  -2  -1   7 2387.01  199.17   1 0.84646-0.97872 0.25870-0.20505 0.46536-0.00687
  -2  -1   7 2613.16  232.68   1 0.64901-0.78107 0.67055-0.61650 0.35935 0.09924
  -2  -1   630069.51  921.15   1 0.82691-0.97721 0.20213-0.16642 0.52474-0.13176
   2   1  -627734.59  846.43   1 0.83043-0.68008 0.55567-0.59151 0.03990-0.43312
  -2  -1   631249.76  997.31   1 0.61740-0.76751 0.67712-0.64099 0.40039-0.00734
  -2  -1   556097.42 1429.04   1 0.78693-0.95542 0.11523-0.09738 0.60617-0.27871
   2   1  -552829.67 1340.29   1 0.86504-0.69665 0.45442-0.47222 0.21258-0.54007
  -2  -1   555722.88 1460.17   1 0.56623-0.73440 0.68371-0.66559 0.46034-0.13280
  -2  -1   4162547.3 9901.75   1 0.71088-0.89731-0.00813 0.00805 0.70326-0.44131
   2   1  -4156608.5 3810.62   1 0.85815-0.67176 0.30439-0.30422 0.41341-0.67540
  -2  -1   4163914.8 9998.07   1 0.48592-0.67216 0.68543-0.68535 0.54227-0.28015
  -2  -1   3 8085.73  220.49   1 0.58270-0.78704-0.16600 0.14795 0.79555-0.59888
   2   1  -3 7884.48  222.62   1 0.78055-0.57604 0.10332-0.08526 0.61648-0.81296
  -2  -1   3 9024.23  265.45   1 0.36329-0.56756 0.67290-0.69087 0.64437-0.44784
   2   1  -3 7699.23  226.56   1 0.57307-0.36878 0.68309-0.66517 0.45273-0.64925
  -2  -1   2  156.24   86.97   1 0.40346-0.62592-0.33242 0.29638 0.85247-0.72136
   2   1  -2  116.92   60.57   1 0.62612-0.40365-0.11776 0.15378 0.77078-0.90189
  -2  -1   2  212.32   84.19   1 0.18872-0.41110 0.63091-0.66686 0.75255-0.62151
   2   1  -2   97.86   67.18   1 0.40417-0.18182 0.67901-0.64306 0.61285-0.74391
  -2  -1   114780.90  326.24   1 0.20476-0.44531-0.47461 0.42063 0.85604-0.79041
   2   1  -113820.00  298.91   1 0.43480-0.19423-0.30641 0.36042 0.84678-0.91234
  -2  -1   114791.76  335.32   1-0.02912-0.21134 0.54481-0.59877 0.83804-0.77252
   2   1  -114473.83  373.09   1 0.19695 0.04350 0.63346-0.57950 0.74828-0.81380
  -2  -1   013060.84  317.09   1 0.02106-0.27977-0.57628 0.50425 0.81697-0.81697
   2   1   012784.05  292.72   1 0.26125-0.00253-0.43808 0.51006 0.86013-0.86013
   2   1   013659.17  312.16   1-0.01429 0.27283 0.55177-0.47981 0.83386-0.83386
   2   1   013432.20  323.19   1 0.25513 0.00349-0.41639 0.48832-0.87265 0.87265
  -2  -1  -132741.81  885.95   1-0.13212-0.14489-0.64065 0.55071 0.75637-0.82201
   2   1   130569.30  820.56   1 0.12950 0.14727-0.51978 0.60974 0.84442-0.77879
   2   1   131602.82  859.75   1 0.45064-0.17401-0.27233 0.36223-0.85014 0.91569
  -2  -1  -130106.90  815.12   1 0.19314-0.46976-0.45499 0.36510-0.86929 0.80375
  -2  -1  -265107.74 1686.98   1-0.25524-0.03984-0.67811 0.57025 0.68921-0.82049
   2   1   264989.35 1664.15   1 0.59764-0.30311-0.13476 0.24274-0.79035 0.92151
  -2  -1  -263721.16 1623.86   1 0.32579-0.62059-0.36823 0.26041-0.87078 0.73962
  -2  -1  -3 3175.00  523.73   1-0.35427 0.04126-0.69905 0.57346 0.62114-0.81818
   2   1   3 2560.12  235.02   1 0.69948-0.38680-0.01631 0.14224-0.71446 0.91112
  -2  -1  -447403.24 2351.77   1-0.43544 0.10433-0.70787 0.56437 0.55614-0.81889
   2   1   443118.17 2111.09   1 0.76792-0.43703 0.08240 0.06151-0.63522 0.89733
  -2  -1  -5 6871.38  531.97   1-0.50274 0.15352-0.70960 0.54824 0.49366-0.82210
   2   1   5 6376.10  511.19   1 0.81338-0.46441 0.16455-0.00263-0.55797 0.88561
   2   1   6  330.91  116.14   1 0.55814-0.19157 0.70676-0.52716-0.43469 0.82788
   2   1   6  356.33  135.88   1 0.84293-0.47588 0.23348-0.05357-0.48470 0.87787
   2   1   7  218.94  113.22   1 0.60705-0.22247 0.69950-0.50194-0.37706 0.83579
   2   1   7  552.14  171.06   1 0.86140-0.47640 0.29193-0.09416-0.41563 0.87416
   2   1   8 1254.83  208.51   1 0.64967-0.24707 0.68904-0.47354-0.32114 0.84540
   2   1   8 1271.90  197.99   1 0.87168-0.46861 0.34284-0.12709-0.35017 0.87421
   2   1   9  208.08  138.01   1 0.68713-0.26651 0.67589-0.44243-0.26649 0.85628
   2   1   9  166.26  122.99   1 0.87635-0.45566 0.38654-0.15290-0.28738 0.87691
   2   1  10  309.72  122.23   1 0.72023-0.28159 0.66031-0.40890-0.21271 0.86804
   2   1  10  110.57  104.51   1 0.87548-0.43677 0.42640-0.17480-0.22738 0.88242
   2   1  11  214.67  125.78   1 0.74953-0.29287 0.64246-0.37309-0.15949 0.88035
   2   1  11  659.50  178.15   1 0.87044-0.41371 0.46225-0.19269-0.16924 0.88978
  -2  -2  13  249.54  118.23   1 0.85381-0.88784 0.28558-0.19622 0.43525 0.41621
  -2  -2  13   22.56   96.69   1 0.62961-0.66336 0.67490-0.58479 0.38481 0.46686
  -2  -2  12  454.87  185.90   1 0.85532-0.90739 0.29179-0.22038 0.42811 0.35786
  -2  -2  12  274.88  134.39   1 0.63480-0.68661 0.67382-0.60172 0.37812 0.40804
  -2  -2  11  534.36  165.89   1 0.85551-0.92563 0.29260-0.23912 0.42717 0.29330
  -2  -2  11  688.04  256.35   1 0.63581-0.70568 0.67360-0.61950 0.37681 0.34383
  -2  -2  10 4787.42  358.44   1 0.85412-0.94229 0.28686-0.25132 0.43378 0.22118
  -2  -2  10 5207.99  405.05   1 0.63174-0.71967 0.67447-0.63837 0.38209 0.27304
  -2  -2   9 1938.29  236.35   1 0.85050-0.95670 0.27286-0.25526 0.44965 0.13982
  -2  -2   9 1529.31  202.56   1 0.62117-0.72716 0.67653-0.65844 0.39551 0.19410
  -2  -2   8 2655.30  293.11   1 0.84323-0.96748 0.24815-0.24848 0.47683 0.04714
  -2  -2   8 2839.86  315.50   1 0.60216-0.72621 0.67958-0.67939 0.41900 0.10507
  -2  -2   7 5334.03  386.83   1 0.82967-0.97197 0.20928-0.22755 0.51752-0.05904
  -2  -2   7 4454.12  332.80   1 0.57092-0.71303 0.68329-0.70112 0.45513 0.00342
  -2  -2   641294.31 1248.36   1 0.80500-0.96550 0.15136-0.18748 0.57364-0.18068
  -2  -2   638700.35 1191.71   1 0.52265-0.68282 0.68590-0.72174 0.50632-0.11326
  -2  -2   5 4033.62  297.32   1 0.76189-0.94041 0.07049-0.12457 0.64385-0.31639
   2   2  -5 3618.19  265.50   1 0.86829-0.68989 0.37992-0.32581 0.31895-0.64644
  -2  -2   5 3322.49  278.87   1 0.45054-0.62877 0.68358-0.73746 0.57420-0.24655
  -2  -2   475948.50 1911.67   1 0.69046-0.88693-0.03627-0.03573 0.72245-0.46050
   2   2  -472235.40 1812.67   1 0.84139-0.64496 0.24242-0.17034 0.48299-0.74498
  -2  -2   475651.63 1924.90   1 0.34563-0.54188 0.66984-0.74178 0.65714-0.39510
   2   2  -472769.44 1841.97   1 0.60001-0.40373 0.67989-0.60802 0.42156-0.68360
   2   2  -355172.03 1399.33   1 0.76666-0.55211 0.07863 0.01135 0.63721-0.83369
  -2  -2   356679.49 1463.64   1 0.20148-0.41585 0.63484-0.72476 0.74590-0.54934
  -2  -2   2  292.16   80.32   1 0.43923-0.67174-0.30264 0.19463 0.84585-0.71475
   2   2  -2   47.86   56.60   1 0.64706-0.41454-0.09155 0.19949 0.75691-0.88789
  -2  -2   2   76.15   64.85   1 0.02182-0.25427 0.56806-0.67598 0.82269-0.69165
   2   2  -2  181.68   61.59   1 0.27224-0.03983 0.65410-0.54616 0.70571-0.83673
  -2  -2   1 6665.23  232.42   1 0.27523-0.52583-0.42860 0.30263 0.86054-0.79492
   2   2  -1 5753.97  185.76   1 0.50477-0.25417-0.24394 0.36992 0.82806-0.89361
   2   2  -1 5861.18  341.89   1 0.07803 0.17249 0.59153-0.46561 0.80249-0.86801
   2   2  -1 6082.71  209.59   1 0.17323 0.07733-0.46681 0.59273-0.86722 0.80167
  -2  -2   027918.66  771.46   1 0.11123-0.37990-0.52989 0.38579 0.84073-0.84073
   2   2   027109.51  742.28   1 0.36662-0.09788-0.36160 0.50556 0.85722-0.85722
   2   2   026416.51  737.55   1 0.35763-0.08891-0.34508 0.48895-0.86776 0.86776
  -2  -2   025486.03  705.43   1 0.09929-0.36789-0.50805 0.36418-0.85558 0.85558
  -2  -2  -125514.02  726.41   1-0.03827-0.24858-0.60314 0.44115 0.79671-0.86231
   2   2   125114.69  719.20   1 0.51090-0.22436-0.21972 0.38164-0.83108 0.89666
  -2  -2  -123023.75  656.30   1 0.24246-0.52926-0.42457 0.26276-0.87232 0.80674
  -2  -2  -2 6484.63  746.21   1-0.16713-0.13806-0.65259 0.47271 0.73904-0.87032
   2   2   2 4438.20  344.03   1 0.62693-0.32227-0.10329 0.28317-0.77218 0.90329
  -2  -2  -3 1230.01  214.68   1-0.27584-0.04718-0.68367 0.48597 0.67564-0.87269
   2   2   3  913.06  133.39   1 0.71104-0.38830-0.00103 0.19890-0.70314 0.89980
  -2  -2  -4  742.46  143.92   1-0.36755 0.02644-0.70105 0.48553 0.61108-0.87381
   2   2   4  744.00  176.29   1 0.77042-0.42948 0.08647 0.12939-0.63164 0.89375
  -2  -2  -5  821.62  156.73   1-0.44559 0.08635-0.70850 0.47511 0.54723-0.87567
   2   2   5  991.29  208.90   1 0.81190-0.45288 0.16154 0.07231-0.56098 0.88863
  -2  -2  -6 1373.63  185.13   1-0.51188 0.13454-0.70937 0.45811 0.48452-0.87865
   2   2   6 1119.74  182.89   1 0.84023-0.46312 0.22627 0.02558-0.49275 0.88592
   2   2   7 1885.18  246.18   1 0.56732-0.17272 0.70574-0.43629-0.42434 0.88306
   2   2   7 1329.48  220.80   1 0.85887-0.46381 0.28239-0.01270-0.42730 0.88583
   2   2   8  509.67  205.76   1 0.61693-0.20431 0.69745-0.41005-0.36462 0.88888
   2   2   8   10.84  116.39   1 0.86999-0.45687 0.33216-0.04448-0.36437 0.88841
   2   2   9  454.43  205.53   1 0.66041-0.22977 0.68569-0.38034-0.30605 0.89584
   2   2   9  176.93  127.54   1 0.87580-0.44504 0.37550-0.06992-0.30324 0.89277
   2   2  10   94.62  110.56   1 0.69870-0.25004 0.67092-0.34761-0.24835 0.90368
   2   2  10  167.08  109.79   1 0.87618-0.42740 0.41544-0.09189-0.24434 0.89937
  -2  -3  14  525.17  156.58   1 0.84411-0.87013 0.25095-0.21557 0.47381 0.44315
  -2  -3  14  203.63  103.70   1 0.57656-0.60232 0.68275-0.64642 0.44879 0.46833
  -2  -3  13  748.73  247.12   1 0.84641-0.89048 0.25851-0.24107 0.46556 0.38590
  -2  -3  13  517.64  186.87   1 0.58217-0.62598 0.68216-0.66385 0.44241 0.40919
  -2  -3  12 1635.14  339.13   1 0.84722-0.90933 0.26125-0.26175 0.46255 0.32341
  -2  -3  12 1662.52  322.81   1 0.58328-0.64515 0.68203-0.68174 0.44114 0.34496
  -2  -3  11 2204.38  399.90   1 0.84637-0.92653 0.25839-0.27682 0.46570 0.25476
  -2  -3  11 2634.23  849.21   1 0.57905-0.65898 0.68249-0.70022 0.44597 0.27462
  -2  -3  10 5547.61  413.53   1 0.84343-0.94164 0.24880-0.28517 0.47613 0.17884
  -2  -3  10 5135.56  385.07   1 0.56822-0.66621 0.68354-0.71928 0.45814 0.19694
  -2  -3   9  563.06  138.82   1 0.83754-0.95379 0.23095-0.28526 0.49514 0.09433
  -2  -3   9  423.50   94.60   1 0.54888-0.66493 0.68492-0.73869 0.47916 0.11041
  -2  -3   8 1336.99  173.91   1 0.82715-0.96144 0.20275-0.27500 0.52412-0.00014
  -2  -3   8 1357.11  162.69   1 0.51829-0.65240 0.68597-0.75775 0.51069 0.01337
  -2  -3   7  142.07   97.62   1 0.80956-0.96209 0.16118-0.25127 0.56446-0.10601
  -2  -3   7  544.57  145.12   1 0.47284-0.62499 0.68492-0.77474 0.55434-0.09563
  -2  -3   6  193.64  100.24   1 0.78094-0.95148 0.10403-0.21208 0.61587-0.22291
  -2  -3   6   57.03   91.32   1 0.40689-0.57710 0.67934-0.78717 0.61067-0.21750
  -2  -3   5 4552.27  339.25   1 0.73564-0.92420 0.02835-0.15436 0.67677-0.34930
  -2  -3   5 4586.77  634.34   1 0.31501-0.50324 0.66385-0.78977 0.67827-0.35072
  -2  -3   4  300.57  119.64   1 0.66746-0.87396-0.06627-0.07766 0.74168-0.47973
  -2  -3   4  215.22   93.83   1 0.19266-0.39902 0.63213-0.77601 0.75052-0.48844
   2   3  -4  194.27   80.20   1 0.50571-0.29937 0.68601-0.54216 0.52309-0.78513
  -2  -3   338949.72 1040.64   1 0.57246-0.79686-0.17682 0.01483 0.80063-0.60396
   2   3  -336439.21  969.49   1 0.76398-0.53939 0.07403 0.08788 0.64097-0.83745
  -2  -3   338420.27 1023.65   1 0.04189-0.26633 0.57670-0.73858 0.81587-0.61931
   2   3  -337654.94 1005.05   1 0.34749-0.12310 0.67018-0.50826 0.65582-0.85235
  -2  -3   223287.81  666.62   1 0.45004-0.69261-0.29334 0.11335 0.84344-0.71234
   2   3  -220399.89  584.72   1 0.66978-0.42723-0.06331 0.24318 0.73984-0.87082
   2   3  -222437.47  645.23   1 0.17105 0.07147 0.62524-0.44536 0.76145-0.89249
   2   3  -224327.03  692.62   1 0.12499 0.11755-0.49418 0.67408-0.86032 0.72923
  -2  -3   140669.92 1084.79   1 0.30994-0.57059-0.40431 0.20636 0.86050-0.79488
   2   3  -139750.78 1048.67   1 0.56036-0.29973-0.18937 0.38732 0.80630-0.87185
   2   3  -136614.43  977.06   1-0.00120 0.26181 0.55779-0.35990 0.82998-0.89550
   2   3  -139638.64 1060.21   1 0.29173-0.03102-0.39198 0.58985-0.87248 0.80691
  -2  -3   024891.82  721.13   1 0.16442-0.44310-0.49970 0.28355 0.85044-0.85044
   2   3   024421.95  705.68   1 0.44039-0.16165-0.28087 0.49669-0.85273 0.85273
  -2  -3  -1 7286.61  315.36   1 0.02435-0.32123-0.57472 0.34070 0.81798-0.88358
   2   3   1 7355.53  329.14   1 0.56181-0.26524-0.17131 0.40518-0.80933 0.87491
  -2  -3  -222451.45  743.80   1-0.10306-0.21194-0.62933 0.37738 0.77027-0.90147
   2   3   223128.81  777.46   1 0.65536-0.34064-0.07083 0.32266-0.75198 0.88309
  -2  -3  -3 6112.75  802.87   1-0.21514-0.11824-0.66731 0.39750 0.71302-0.90994
   2   3   3 5297.98  413.93   1 0.72527-0.39237 0.01846 0.25136-0.68820 0.88479
  -2  -3  -4  736.18  195.81   1-0.31243-0.03869-0.69158 0.40395 0.65123-0.91396
   2   3   4  846.54  192.12   1 0.77670-0.42571 0.09688 0.19093-0.62236 0.88448
  -2  -3  -5 1911.07  306.83   1-0.39689 0.02769-0.70482 0.39936 0.58795-0.91637
   2   3   5 2339.29  221.72   1 0.81388-0.44480 0.16558 0.14022-0.55693 0.88458
  -2  -3  -6 3964.69  319.27   1-0.47061 0.08325-0.70951 0.38622 0.52451-0.91863
   2   3   6 3219.41  368.86   1 0.84016-0.45300 0.22607 0.09772-0.49296 0.88613
   2   3   7 2098.61  279.84   1 0.53259-0.12796 0.70886-0.36753-0.46243 0.92116
   2   3   7 2074.75  271.01   1 0.85806-0.45295 0.27948 0.06213-0.43083 0.88936
   2   3   8  215.83  128.09   1 0.58808-0.16543 0.70286-0.34357-0.40017 0.92443
   2   3   8  383.79  210.08   1 0.86919-0.44601 0.32756 0.03203-0.37040 0.89445
   2   3   9  237.54  123.44   1 0.63680-0.19613 0.69266-0.31542-0.33866 0.92845
   2   3   9  677.29  259.33   1 0.87541-0.43457 0.36996 0.00755-0.31107 0.90060
   2   3  10  203.16  174.52   1 0.67971-0.22103 0.67883-0.28364-0.27778 0.93310
   2   3  10  172.38  159.66   1 0.87641-0.41755 0.40941-0.01393-0.25350 0.90854
  -2  -4  14  392.34  122.03   1 0.83534-0.87140 0.22466-0.26119 0.50172 0.41524
  -2  -4  14   60.32   79.10   1 0.52198-0.55779 0.68591-0.72156 0.50700 0.41012
  -2  -4  13 1548.11  224.60   1 0.52343-0.57730 0.68589-0.73955 0.50553 0.34607
  -2  -4  12 7559.01  468.68   1 0.83676-0.90891 0.22869-0.30110 0.49751 0.28845
  -2  -4  12 8028.58  486.62   1 0.51930-0.59123 0.68595-0.75764 0.50968 0.27642
  -2  -4  11 1454.39  295.37   1 0.83458-0.92477 0.22253-0.31288 0.50393 0.21653
  -2  -4  11 1853.29  355.40   1 0.50847-0.59846 0.68602-0.77573 0.52040 0.20019
  -2  -4  10 1584.84  208.94   1 0.82980-0.93805 0.20963-0.31791 0.51717 0.13780
  -2  -4  10 2158.17  258.12   1 0.48957-0.59760 0.68553-0.79328 0.53884 0.11644
  -2  -4   9 4707.66  306.18   1 0.82138-0.94791 0.18828-0.31439 0.53839 0.05103
  -2  -4   9 3329.77  223.96   1 0.45988-0.58597 0.68421-0.80998 0.56599 0.02377
  -2  -4   8 3118.78  227.50   1 0.80787-0.95242 0.15751-0.30158 0.56790-0.04396
  -2  -4   8 3306.33  338.06   1 0.41661-0.56075 0.68046-0.82424 0.60282-0.07858
  -2  -4   713358.87  966.47   1 0.78683-0.94940 0.11504-0.27706 0.60634-0.14789
  -2  -4   713022.02  937.67   1 0.35618-0.51830 0.67170-0.83359 0.64956-0.19100
  -2  -4   631722.55 1584.80   1 0.75495-0.93553 0.05895-0.23893 0.65311-0.26016
  -2  -4   629358.37 1464.78   1 0.27439-0.45459 0.65462-0.83451 0.70439-0.31133
  -2  -4   541662.95 1271.88   1 0.70822-0.90673-0.01189-0.18601 0.70589-0.37845
  -2  -4   541421.37 1309.14   1 0.16851-0.36687 0.62441-0.82224 0.76270-0.43510
  -2  -4   4 9835.12  399.33   1 0.64232-0.85886-0.09727-0.11860 0.76023-0.49828
  -2  -4   4 9320.31  361.22   1 0.03994-0.25638 0.57588-0.79172 0.81655-0.55447
  -2  -4   3 1161.36  160.05   1 0.55560-0.79003-0.19425-0.03972 0.80843-0.61177
   2   4  -3 1259.59  136.99   1 0.10304 0.13148-0.50605 0.73994-0.85632 0.65968
  -2  -4   220961.51  696.74   1 0.44716-0.69978-0.29584 0.04387 0.84411-0.71300
   2   4  -220799.38  683.77   1 0.25083 0.00188-0.41918 0.67105-0.87256 0.74140
  -2  -4   110517.55  417.03   1 0.32378-0.59448-0.39430 0.12437 0.86005-0.79442
   2   4  -110707.23  408.66   1 0.38933-0.11854-0.32171 0.59150-0.86308 0.79753
  -2  -4   0 7609.81  333.15   1 0.19261-0.48148-0.48211 0.19419 0.85466-0.85466
   2   4   0 6752.46  461.79   1 0.50882-0.22025-0.22162 0.50942-0.83185 0.83185
  -2  -4  -1 2215.34  223.01   1 0.06335-0.37015-0.55514 0.24902 0.82933-0.89496
   2   4   1 1412.99  169.00   1 0.60619-0.29959-0.12570 0.43152-0.78532 0.85090
  -2  -4  -2   90.30   89.99   1-0.05897-0.26606-0.61186 0.28788 0.78875-0.91996
   2   4   2   49.87  127.62   1 0.68259-0.35780-0.03786 0.36163-0.72981 0.86092
  -2  -4  -3 2494.73  368.61   1-0.17047-0.17301-0.65368 0.31185 0.73731-0.93424
   2   4   3 2064.78  257.68   1 0.74115-0.39819 0.04119 0.30057-0.67007 0.86665
  -2  -4  -4  150.68   83.82   1-0.27033-0.09122-0.68181 0.32206 0.67974-0.94231
   2   4   4  393.52  198.88   1 0.78543-0.42439 0.11183 0.24793-0.60875 0.87087
  -2  -4  -5 3009.50  395.79   1-0.35838-0.02084-0.69969 0.32212 0.61805-0.94646
   2   4   5 2778.47  257.89   1 0.81830-0.43918 0.17484 0.20291-0.54754 0.87518
  -2  -4  -6 3830.63  344.44   1-0.43685 0.03947-0.70796 0.31265 0.55491-0.94904
   2   4   6 3911.67  394.96   1 0.84212-0.44490 0.23128 0.16447-0.48717 0.88034
  -2  -4  -7 1447.67  298.48   1-0.50541 0.08992-0.70955 0.29637 0.49101-0.95083
   2   4   7 1488.35  313.76   1 0.85871-0.44355 0.28184 0.13170-0.42798 0.88651
   2   4   8   55.23   83.90   1 0.56393-0.13125 0.70613-0.27496-0.42819 0.95245
   2   4   8  -67.17  114.06   1 0.86926-0.43603 0.32794 0.10357-0.36990 0.89394
   2   4   9  991.13  231.83   1 0.61703-0.16633 0.69743-0.24830-0.36449 0.95429
   2   4   9  571.67  216.97   1 0.87534-0.42442 0.36905 0.08040-0.31235 0.90188
  -2  -5  13 1351.27  261.68   1 0.82513-0.88964 0.19747-0.32369 0.52929 0.32211
  -2  -5  13  818.38  257.70   1 0.45257-0.51648 0.68373-0.80941 0.57243 0.27944
  -2  -5  12 3196.19  317.37   1 0.82378-0.90630 0.19412-0.33830 0.53262 0.25329
  -2  -5  12 2660.91  262.18   1 0.44215-0.52411 0.68293-0.82663 0.58146 0.20489
  -2  -5  11 4033.22  366.38   1 0.82004-0.92057 0.18505-0.34719 0.54155 0.17886
  -2  -5  11 3111.08  264.03   1 0.42360-0.52361 0.68121-0.84291 0.59708 0.12374
  -2  -5  10 1830.92  243.21   1 0.81324-0.93180 0.16934-0.34943 0.55672 0.09819
  -2  -5  10 1649.96  211.35   1 0.39509-0.51316 0.67784-0.85756 0.62001 0.03527
  -2  -5   9 4483.59  354.71   1 0.80237-0.93894 0.14586-0.34390 0.57871 0.01071
  -2  -5   9 4271.59  415.96   1 0.35451-0.49053 0.67141-0.86927 0.65078-0.06119
  -2  -5   8 5279.67  515.99   1 0.78591-0.94049 0.11328-0.32928 0.60787-0.08393
  -2  -5   8 4717.89  862.22   1 0.29877-0.45287 0.66034-0.87619 0.68897-0.16489
  -2  -5   7  832.18  134.37   1 0.76175-0.93434 0.07025-0.30421 0.64404-0.18559
  -2  -5   7 1286.78  215.65   1 0.22544-0.39762 0.64165-0.87551 0.73310-0.27454
  -2  -5   6 2571.86  284.69   1 0.72730-0.91782 0.01573-0.26761 0.68613-0.29321
  -2  -5   6 2763.90  402.53   1 0.13263-0.32299 0.61210-0.86390 0.77957-0.38645
  -2  -5   518141.62  952.82   1 0.67936-0.88791-0.05096-0.21887 0.73202-0.40458
  -2  -5   515454.32  802.93   1 0.02164-0.23007 0.56798-0.83778 0.82275-0.49515
  -2  -5   4   39.35   97.73   1 0.61617-0.84251-0.12917-0.15880 0.77694-0.51472
   2   5  -4  -48.43   79.07   1 0.10139 0.12512-0.50693 0.79480-0.85599 0.59382
  -2  -5   3 1581.05  174.77   1 0.53439-0.77885-0.21547-0.09047 0.81730-0.62064
   2   5  -3 1789.17  185.35   1 0.23125 0.01346-0.43171 0.73757-0.87186 0.67513
  -2  -5   2 6340.44  457.99   1 0.43569-0.69837-0.30565-0.01828 0.84660-0.71550
   2   5  -2 6239.05  449.75   1 0.35660-0.09380-0.34584 0.66964-0.86788 0.73673
  -2  -5   110263.33  583.64   1 0.32441-0.60516-0.39384 0.05193 0.86002-0.79440
   2   5  -1 8686.71  500.47   1 0.47008-0.18924-0.25580 0.59753-0.84474 0.77919
  -2  -5   0  507.85  113.97   1 0.20508-0.50400-0.47441 0.11451 0.85607-0.85607
   2   5   0  556.95  128.49   1 0.56663-0.26802-0.16652 0.52627-0.80696 0.80696
  -2  -5  -1 1412.91  182.07   1 0.08527-0.40208-0.54380 0.16564 0.83486-0.90049
   2   5   1  895.03  163.62   1 0.64556-0.32879-0.08224 0.45996-0.75926 0.82481
  -2  -5  -2 5103.46  420.41   1-0.03107-0.30397-0.60003 0.20402 0.79937-0.93057
   2   5   2 5092.51  449.21   1 0.70849-0.37364-0.00444 0.40016-0.70570 0.83681
  -2  -5  -3  297.76  156.11   1-0.13993-0.21366-0.64340 0.22955 0.75262-0.94955
   2   5   3  268.43  154.85   1 0.75768-0.40468 0.06617 0.34754-0.64925 0.84583
  -2  -5  -4 3339.03  489.63   1-0.23979-0.13188-0.67412 0.24235 0.69861-0.96118
   2   5   4 3252.70  262.25   1 0.79565-0.42456 0.13016 0.30154-0.59159 0.85370
  -2  -5  -5 4533.52  835.19   1-0.32952-0.05972-0.69484 0.24516 0.63922-0.96763
   2   5   5 6581.35  552.86   1 0.82439-0.43521 0.18810 0.26159-0.53383 0.86148
  -2  -5  -6 1425.48  312.75   1-0.41091 0.00350-0.70584 0.23850 0.57700-0.97113
   2   5   6 2411.61  459.48   1 0.84555-0.43829 0.24072 0.22697-0.47653 0.86970
  -2  -5  -7  785.40  188.53   1-0.48287 0.05737-0.70971 0.22450 0.51296-0.97278
   2   5   7  661.24  186.62   1 0.86049-0.43528 0.28844 0.19703-0.41993 0.87846
   2   5   8  183.25  101.27   1 0.54499-0.10229 0.70798-0.20492-0.44915 0.97341
   2   5   8  239.23  124.86   1 0.87004-0.42676 0.33244 0.17100-0.36400 0.88804
   2   5   9   84.57  100.97   1 0.60159-0.14087 0.70054-0.17953-0.38381 0.97361
   2   5   9  167.24  122.31   1 0.87557-0.41457 0.37204 0.14936-0.30814 0.89767
  -2  -6  13  158.51  115.11   1 0.81108-0.88562 0.16451-0.36266 0.56131 0.29008
  -2  -6  13  556.79  190.03   1 0.36834-0.44229 0.67393-0.87158 0.64041 0.21146
  -2  -6  12  320.35  159.07   1 0.80836-0.90092 0.15857-0.37467 0.56691 0.21899
  -2  -6  12   62.10   71.20   1 0.35110-0.44294 0.67082-0.88664 0.65323 0.13287
  -2  -6  11  355.41  210.59   1 0.80290-0.91348 0.14697-0.38103 0.57769 0.14272
  -2  -6  11  168.51   97.50   1 0.32417-0.43409 0.66573-0.89956 0.67208 0.04851
  -2  -6  10  484.90  173.61   1 0.79401-0.92259 0.12891-0.38093 0.59407 0.06085
  -2  -6  10  169.55   92.86   1 0.28610-0.41410 0.65743-0.90926 0.69707-0.04198
  -2  -6   9  572.04  212.25   1 0.78065-0.92725 0.10349-0.37346 0.61633-0.02690
  -2  -6   9  276.94   98.83   1 0.23499-0.38107 0.64434-0.91416 0.72773-0.13815
  -2  -6   8  775.81  191.23   1 0.76142-0.92604 0.06971-0.35764 0.64449-0.12054
  -2  -6   8  741.52  143.66   1 0.16881-0.33307 0.62451-0.91226 0.76255-0.23839
  -2  -6   7 4476.05  476.62   1 0.73453-0.91716 0.02665-0.33253 0.67805-0.21960
  -2  -6   7 2987.00  565.68   1 0.08716-0.26951 0.59512-0.90088 0.79888-0.34025
  -2  -6   610461.19  915.01   1 0.69790-0.89846-0.02620-0.29760 0.71571-0.32278
  -2  -6   6 9446.16  814.69   1-0.00942-0.19100 0.55402-0.87778 0.83244-0.43932
  -2  -6   5  400.12  194.77   1 0.64913-0.86772-0.08904-0.25272 0.75544-0.42800
   2   6  -5  104.73   87.25   1 0.11567 0.10283-0.49927 0.84112-0.85868 0.53096
  -2  -6   4 4534.68  383.67   1 0.58735-0.82373-0.16101-0.19893 0.79314-0.53092
   2   6  -4 4635.51  375.09   1 0.22920 0.00733-0.43279 0.79260-0.87186 0.60969
  -2  -6   3 9057.65  530.04   1 0.50986-0.76436-0.23914-0.13877 0.82634-0.62967
   2   6  -3 9680.47  553.64   1 0.34142-0.08662-0.35698 0.73478-0.86947 0.67274
  -2  -6   215520.24  832.21   1 0.41827-0.69100-0.32027-0.07565 0.84998-0.71887
   2   6  -216000.14  844.12   1 0.44618-0.17329-0.27606 0.67177-0.85129 0.72019
  -2  -6   116576.97 1172.70   1 0.31602-0.60682-0.39994-0.01395 0.86033-0.79471
   2   6  -115258.80 1096.66   1 0.53836-0.24774-0.19409 0.60777-0.82005 0.75447
  -2  -6   0 8794.37  664.84   1 0.20601-0.51498-0.47384 0.04195 0.85617-0.85617
   2   6   0 8936.04  684.02   1 0.61650-0.30786-0.11458 0.54628-0.77896 0.77896
  -2  -6  -1 9689.14  853.83   1 0.09434-0.42115-0.53900 0.08878 0.83699-0.90263
   2   6   1 9809.65  881.10   1 0.68093-0.35410-0.03992 0.48959-0.73125 0.79680
  -2  -6  -2 3009.63  215.22   1-0.01602-0.32904-0.59339 0.12535 0.80475-0.93595
   2   6   2 4367.26  359.08   1 0.73292-0.38795 0.02926 0.43840-0.67968 0.81073
  -2  -6  -3 1507.11  190.74   1-0.12132-0.24239-0.63677 0.15090 0.76144-0.95837
   2   6   3 1872.91  301.07   1 0.77430-0.41124 0.09286 0.39279-0.62596 0.82255
  -2  -6  -4 4170.01  576.54   1-0.21979-0.16198-0.66864 0.16485 0.71035-0.97292
   2   6   4 4661.30  436.36   1 0.80668-0.42554 0.15112 0.35253-0.57133 0.83344
  -2  -6  -5 2926.72  863.46   1-0.30974-0.08952-0.69104 0.16925 0.65308-0.98149
   2   6   5 3850.49  390.48   1 0.83151-0.43228 0.20451 0.31714-0.51648 0.84412
  -2  -6  -6  274.36  120.81   1-0.39197-0.02537-0.70425 0.16464 0.59193-0.98602
   2   6   6  213.98  142.55   1 0.85003-0.43283 0.25328 0.28613-0.46182 0.85485
  -2  -6  -7  373.05  148.21   1-0.46680 0.03127-0.70941 0.15217 0.52804-0.98785
   2   6   7  245.73  137.61   1 0.86304-0.42777 0.29851 0.25888-0.40748 0.86601
   2   6   8  896.98  172.00   1 0.53150-0.07878 0.70893-0.13398-0.46358 0.98784
   2   6   8  167.60  129.59   1 0.87131-0.41798 0.34036 0.23500-0.35349 0.87753
  -2  -7  13   48.56  109.64   1 0.79463-0.87921 0.13016-0.40023 0.59296 0.25844
  -2  -7  13  115.24   77.89   1 0.27101-0.35483 0.65379-0.92359 0.70646 0.14515
  -2  -7  12  395.01  169.11   1 0.79042-0.89302 0.12191-0.40995 0.60029 0.18561
  -2  -7  12  140.89   67.50   1 0.24623-0.34812 0.64740-0.93520 0.72127 0.06484
  -2  -7  11  264.64  151.90   1 0.78316-0.90377 0.10814-0.41413 0.61233 0.10808
  -2  -7  11  355.57  158.91   1 0.21095-0.33104 0.63768-0.94339 0.74084-0.02012
  -2  -7  10 1438.37  310.93   1 0.77214-0.91076 0.08818-0.41212 0.62929 0.02562
  -2  -7  10 1136.82  352.41   1 0.16448-0.30266 0.62307-0.94679 0.76466-0.10946
  -2  -7   912325.82  869.75   1 0.75638-0.91302 0.06129-0.40320 0.65125-0.06181
  -2  -7   910601.88  818.08   1 0.10541-0.26166 0.60212-0.94383 0.79141-0.20173
  -2  -7   813685.84  866.37   1 0.73462-0.90927 0.02679-0.38665 0.67794-0.15400
  -2  -7   812666.18  937.50   1 0.03330-0.20764 0.57304-0.93276 0.81884-0.29468
  -2  -7   719199.78  562.04   1 0.70541-0.89799-0.01582-0.36195 0.70861-0.25020
  -2  -7   722003.94  556.79   1-0.05102-0.14139 0.53423-0.91195 0.84379-0.38515
  -2  -7   614860.94  506.93   1 0.66689-0.87748-0.06700-0.32873 0.74213-0.34921
   2   7  -613892.57  437.12   1 0.14282 0.06766-0.48427 0.88011-0.86317 0.46991
  -2  -7   511751.12 1023.31   1 0.61841-0.84670-0.12661-0.28732 0.77558-0.44780
   2   7  -512316.17 1051.72   1 0.24203-0.01331-0.42485 0.83870-0.87230 0.54442
  -2  -7   4 2037.59  212.53   1 0.55680-0.80321-0.19301-0.23890 0.80790-0.54568
   2   7  -4 1731.38  175.20   1 0.34122-0.09442-0.35713 0.78892-0.86949 0.60719
  -2  -7   3 3396.23  373.98   1 0.48258-0.74710-0.26444-0.18545 0.83497-0.63830
   2   7  -3 2704.93  227.73   1 0.43611-0.17117-0.28440 0.73409-0.85376 0.65711
  -2  -7   2 9528.12  840.64   1 0.39636-0.67915-0.33816-0.12974 0.85354-0.72243
   2   7  -2 9160.68  808.25   1 0.52178-0.23916-0.20970 0.67731-0.82690 0.69573
  -2  -7   111370.83 1001.79   1 0.30102-0.60187-0.41066-0.07521 0.86066-0.79504
   2   7  -112626.63 1105.45   1 0.59660-0.29595-0.13585 0.62148-0.79095 0.72537
  -2  -7   014384.20  469.77   1 0.19841-0.51743-0.47855-0.02531 0.85534-0.85534
   2   7   015687.87  501.18   1 0.66015-0.34134-0.06518 0.56880-0.74829 0.74829
  -2  -7  -1 4298.59  271.84   1 0.09361-0.43042-0.53939 0.01712 0.83683-0.90246
   2   7   1 6521.92  368.75   1 0.71287-0.37598 0.00143 0.52018-0.70128 0.76684
  -2  -7  -2 3886.05  323.50   1-0.01122-0.34387-0.59124 0.05117 0.80641-0.93762
   2   7   2 4525.37  396.51   1 0.75591-0.40089 0.06343 0.47618-0.65158 0.78264
  -2  -7  -3 1837.12  230.03   1-0.11299-0.26023-0.63305 0.07505 0.76581-0.96262
   2   7   3 1860.63  269.06   1 0.79057-0.41746 0.12093 0.43667-0.60030 0.79689
  -2  -7  -4  687.63  268.49   1-0.20905-0.18284-0.66555 0.08975 0.71646-0.97903
   2   7   4 1326.79  316.17   1 0.81798-0.42678 0.17415 0.40145-0.54824 0.81036
  -2  -7  -5  340.81  161.48   1-0.29828-0.11101-0.68867 0.09477 0.66087-0.98928
   2   7   5  397.27  219.82   1 0.83914-0.42986 0.22344 0.37015-0.49588 0.82352
  -2  -7  -6  512.15  354.26   1-0.38098-0.04638-0.70289 0.09117 0.60065-0.99475
   2   7   6  997.53  241.38   1 0.85498-0.42772 0.26890 0.34243-0.44350 0.83653
  -2  -7  -7  277.41  104.85   1-0.45709 0.01154-0.70906 0.07980 0.53692-0.99674
   2   7   7  669.27  210.94   1 0.86601-0.42068 0.31147 0.31785-0.39116 0.84970
  -2  -8  13  121.89  120.89   1 0.77577-0.87038 0.09463-0.43664 0.62387 0.22753
  -2  -8  12   15.08  114.99   1 0.76998-0.88261 0.08438-0.44435 0.63245 0.15345
  -2  -8  11 1722.64  244.33   1 0.76087-0.89151 0.06878-0.44670 0.64524 0.07517
  -2  -8  11  885.13  379.79   1 0.08744-0.21761 0.59523-0.97290 0.79877-0.07805
  -2  -8  10 3545.36  304.67   1 0.74775-0.89641 0.04728-0.44316 0.66229-0.00736
  -2  -8  10 3314.24  345.74   1 0.03499-0.18324 0.57377-0.96944 0.81826-0.16306
  -2  -8   9 5001.40  391.56   1 0.72970-0.89638 0.01935-0.43318 0.68348-0.09404
  -2  -8   9 4795.70  329.61   1-0.02837-0.13795 0.54516-0.95884 0.83784-0.24816
  -2  -8   816603.45 1153.70   1 0.70572-0.89030-0.01539-0.41634 0.70832-0.18442
   2   8  -817357.58 1150.75   1 0.09969 0.08473-0.50783 0.93970-0.85566 0.33131
  -2  -8   7 2221.82  272.23   1 0.67432-0.87693-0.05750-0.39220 0.73619-0.27777
   2   8  -7 2278.31  255.92   1 0.18083 0.02163-0.46233 0.91216-0.86806 0.40925
  -2  -8   612377.47  794.22   1 0.63523-0.85543-0.10711-0.36082 0.76485-0.37152
   2   8  -612785.69  779.53   1 0.26706-0.04633-0.40856 0.87641-0.87278 0.47932
  -2  -8   5  987.32  189.44   1 0.58527-0.82359-0.16325-0.32266 0.79423-0.46645
   2   8  -5 1046.73  185.20   1 0.35401-0.11521-0.34776 0.83354-0.86818 0.54029
  -2  -8   4  336.88  163.52   1 0.52454-0.78098-0.22509-0.27880 0.82108-0.55886
   2   8  -4  436.77  161.44   1 0.43865-0.18166-0.28231 0.78598-0.85315 0.59095
  -2  -8   3 9140.20  383.82   1 0.45271-0.72743-0.29103-0.23087 0.84282-0.64616
   2   8  -3 9904.71  378.05   1 0.51656-0.24193-0.21453 0.73607-0.82893 0.63219
  -2  -8   215896.02  527.67   1 0.37082-0.66366-0.35835-0.18152 0.85678-0.72567
   2   8  -215401.39  504.55   1 0.58628-0.29363-0.14659 0.68615-0.79672 0.66556
  -2  -8   112674.39  808.24   1 0.28088-0.59179-0.42472-0.13313 0.86064-0.79502
   2   8  -111240.88  729.11   1 0.64703-0.33624-0.08054 0.63812-0.75819 0.69263
  -2  -8   0 6453.64  469.09   1 0.18422-0.51329-0.48722-0.08862 0.85362-0.85362
   2   8   0 7864.59  552.67   1 0.69862-0.36974-0.01744 0.59301-0.71527 0.71527
  -2  -8  -1 1987.57  250.16   1 0.08516-0.43198-0.54386-0.05045 0.83483-0.90046
   2   8   1 1955.95  280.79   1 0.74176-0.39477 0.04209 0.55147-0.66933 0.73486
  -2  -8  -2  179.90   95.48   1-0.01473-0.35038-0.59281-0.01928 0.80520-0.93640
   2   8   2  697.82  298.44   1 0.77732-0.41225 0.09793 0.51363-0.62142 0.75248
  -2  -8  -3   47.95   87.72   1-0.11277-0.27047-0.63297 0.00294 0.76591-0.96272
   2   8   3  381.53  212.10   1 0.80617-0.42301 0.15012 0.47943-0.57231 0.76889
  -2  -8  -4  162.31   71.95   1-0.20639-0.19561-0.66477 0.01695 0.71796-0.98053
   2   8   4  265.33  139.95   1 0.82912-0.42787 0.19887 0.44867-0.52249 0.78461
  -2  -8  -5  102.13  101.26   1-0.29435-0.12495-0.68783 0.02182 0.66350-0.99192
   2   8   5  272.34  135.95   1 0.84693-0.42769 0.24417 0.42111-0.47230 0.79983
  -2  -8  -6  191.67   76.97   1-0.37684-0.06054-0.70234 0.01851 0.60389-0.99799
   2   8   6  627.62  238.07   1 0.86007-0.42276 0.28683 0.39643-0.42189 0.81492
  -2  -9  12   91.08  115.31   1 0.74704-0.86971 0.04616-0.47805 0.66316 0.12274
  -2  -9  11  167.13  116.38   1 0.73608-0.87676 0.02903-0.47888 0.67626 0.04415
  -2  -9  10  219.66  117.26   1 0.72101-0.87958 0.00646-0.47421 0.69288-0.03800
   2   9 -10   91.52   67.22   1 0.09560 0.06277-0.51000 0.97790-0.85484 0.19940
  -2  -9   9  671.81  213.62   1 0.70082-0.87742-0.02218-0.46352 0.71298-0.12359
   2   9  -9  392.09  158.16   1 0.15864 0.01776-0.47527 0.96113-0.86541 0.27551
  -2  -9   8  200.41  134.12   1 0.67463-0.86925-0.05709-0.44657 0.73593-0.21203
   2   9  -8  378.07  156.59   1 0.22846-0.03401-0.43326 0.93707-0.87182 0.34747
  -2  -9   7  740.04  229.58   1 0.64139-0.85403-0.09838-0.42324 0.76087-0.30246
   2   9  -7  749.40  173.42   1 0.30278-0.09006-0.38439 0.90623-0.87210 0.41306
  -2  -9   6 4223.27  395.19   1 0.60099-0.83122-0.14615-0.39376 0.78577-0.39244
   2   9  -6 4333.45  358.15   1 0.37885-0.14783-0.32974 0.86943-0.86471 0.47140
  -2  -9   519606.30 1324.89   1 0.55057-0.79892-0.19934-0.35855 0.81063-0.48285
   2   9  -519477.38 1288.89   1 0.45255-0.20351-0.27072 0.82837-0.84964 0.52189
  -2  -9   4 8869.05  654.39   1 0.49056-0.75702-0.25715-0.31871 0.83259-0.57037
   2   9  -4 9736.15  692.22   1 0.52202-0.25539-0.20947 0.78494-0.82680 0.56447
  -2  -9   3 1523.86  214.82   1 0.42074-0.70552-0.31822-0.27566 0.84953-0.65287
   2   9  -3  875.05  111.11   1 0.58545-0.30079-0.14745 0.74094-0.79718 0.60043
  -2  -9   2  682.06  159.00   1 0.34215-0.64504-0.38020-0.23165 0.85928-0.72818
   2   9  -2  819.29  169.37   1 0.64193-0.33915-0.08640 0.69793-0.76187 0.63076
  -2  -9   1  207.39   97.78   1 0.25653-0.57748-0.44124-0.18859 0.85993-0.79431
   2   9  -1  590.36  155.64   1 0.69087-0.37001-0.02741 0.65693-0.72245 0.65690
  -2  -9   0  295.21  118.16   1 0.16544-0.50415-0.49910-0.14935 0.85060-0.85060
   2   9   0  515.49  213.17   1 0.73269-0.39373 0.02894 0.61858-0.67994 0.67994
  -2  -9  -1 1052.99  231.51   1 0.07042-0.42725-0.55153-0.11484 0.83117-0.89680
   2   9   1 1119.70  264.52   1 0.76788-0.41084 0.08234 0.58317-0.63527 0.70079
  -2  -9  -2 1943.78  213.07   1-0.02514-0.35000-0.59743-0.08669 0.80152-0.93272
   2   9   2 1880.30  273.10   1 0.79706-0.42193 0.13276 0.55074-0.58911 0.72017
  -2  -9  -3  757.32  230.19   1-0.11970-0.27356-0.63552-0.06653 0.76274-0.95954
   2   9   3 1399.44  229.99   1 0.82083-0.42762 0.18027 0.52123-0.54196 0.73855
  -2  -9  -4  192.23   41.72   1-0.21080-0.20131-0.66606-0.05377 0.71548-0.97804
   2   9   4  268.34  139.38   1 0.83975-0.42845 0.22502 0.49447-0.49413 0.75625
  -2  -9  -5  263.28  134.94   1-0.29724-0.13209-0.68844-0.04966 0.66157-0.98999
   2   9   5  129.80  137.27   1 0.85437-0.42508 0.26692 0.47029-0.44585 0.77338
  -2 -10  11  465.85  174.57   1 0.70895-0.85953-0.01086-0.51085 0.70517 0.01518
  -2 -10  10  707.65  249.29   1 0.69182-0.86043-0.03445-0.50522 0.72124-0.06636
  -2 -10   9 1723.06  230.46   1 0.66962-0.85625-0.06352-0.49411 0.73997-0.15058
   2  10  -9 1786.62  191.89   1 0.28541-0.09876-0.39628 0.95418-0.87263 0.28245
  -2 -10   8 5110.80  432.77   1 0.64151-0.84616-0.09823-0.47736 0.76079-0.23689
   2  10  -8 3435.97  273.08   1 0.34820-0.14348-0.35203 0.92786-0.86880 0.34419
  -2 -10   7  778.12  230.36   1 0.60759-0.82974-0.13882-0.45509 0.78201-0.32313
   2  10  -7  642.66  162.65   1 0.41322-0.19014-0.30295 0.89661-0.85876 0.39990
  -2 -10   6 2001.57  225.94   1 0.56508-0.80534-0.18451-0.42738 0.80413-0.41080
   2  10  -6 1963.58  212.52   1 0.47672-0.23564-0.25004 0.86167-0.84273 0.44943
  -2 -10   5 2832.32  305.94   1 0.51427-0.77265-0.23495-0.39491 0.82481-0.49703
   2  10  -5 2630.24  845.17   1 0.53738-0.27874-0.19502 0.82442-0.82047 0.49256
  -2 -10   4 1005.05  234.65   1 0.45462-0.73135-0.28936-0.35852 0.84236-0.58015
   2  10  -4 1449.46  292.84   1 0.59370-0.31704-0.13889 0.78631-0.79260 0.53027
  -2 -10   3   89.43   99.64   1 0.38661-0.68145-0.34595-0.31991 0.85489-0.65823
   2  10  -3  385.05  171.07   1 0.64484-0.35007-0.08307 0.74855-0.75978 0.56312
  -2 -10   2 1371.77  292.16   1 0.31130-0.62414-0.40333-0.28049 0.86047-0.72922
   2  10  -2 2424.56  239.08   1 0.68991-0.37707-0.02863 0.71210-0.72332 0.59221
  -2 -10   1  217.93  117.00   1 0.22854-0.55954-0.45957-0.24224 0.85822-0.79260
   2  10  -1 -130.06  110.05   1 0.72919-0.39827 0.02397 0.67750-0.68388 0.61835
  -2 -10   0  237.77   97.25   1 0.14137-0.49009-0.51306-0.20744 0.84662-0.84662
   2  10   0   42.52  103.46   1 0.76287-0.41386 0.07432 0.64514-0.64225 0.64225
  -2 -10  -1 1582.87  227.70   1 0.05038-0.41721-0.56167-0.17674 0.82582-0.89145
   2  10   1 1303.64  249.40   1 0.79134-0.42425 0.12231 0.61514-0.59900 0.66453
  -2 -10  -2 7181.24 1463.40   1-0.04142-0.34374-0.60449-0.15166 0.79553-0.92673
   2  10   2 4411.81  501.81   1 0.81502-0.42984 0.16794 0.58751-0.55455 0.68561
  -2 -10  -3 2867.39  325.68   1-0.13248-0.27168-0.64078-0.13316 0.75620-0.95312
   2  10   3 2793.95  292.58   1 0.83431-0.43104 0.21126 0.56218-0.50920 0.70579
  -2 -11  10  889.39  197.72   1 0.66030-0.83894-0.07528-0.53632 0.74721-0.09234
  -2 -11   9  581.27  179.01   1 0.63622-0.83289-0.10453-0.52503 0.76438-0.17499
  -2 -11   8 2584.83  372.45   1 0.60733-0.82139-0.13911-0.50880 0.78216-0.25772
  -2 -11   7 2792.36  353.04   1 0.57097-0.80315-0.17838-0.48750 0.80135-0.34246
   2  11  -7 2895.35  339.41   1 0.51025-0.27764-0.22032 0.88563-0.83132 0.37224
  -2 -11   6  452.64  166.79   1 0.52744-0.77774-0.22227-0.46160 0.81999-0.42666
   2  11  -6  138.61   82.17   1 0.56192-0.31128-0.17120 0.85453-0.80927 0.41578
  -2 -11   5 2930.51  346.04   1 0.47628-0.74468-0.27014-0.43170 0.83676-0.50898
   2  11  -5 3413.00  298.21   1 0.61055-0.34188-0.12102 0.82237-0.78267 0.45476
  -2 -11   4 3103.79  313.73   1 0.41706-0.70384-0.32127-0.39859 0.85019-0.58798
   2  11  -4 3156.43  288.27   1 0.65551-0.36876-0.07066 0.79009-0.75186 0.48964
  -2 -11   3 4335.84  380.19   1 0.35036-0.65525-0.37403-0.36380 0.85868-0.66202
   2  11  -3 4496.74  346.64   1 0.69576-0.39094-0.02113 0.75856-0.71795 0.52129
  -2 -11   2 2613.40  269.54   1 0.27720-0.60009-0.42725-0.32855 0.86058-0.72934
   2  11  -2 3254.35  321.24   1 0.73149-0.40860 0.02723 0.72819-0.68130 0.55024
  -2 -11   1 1121.65  220.05   1 0.19726-0.53832-0.47926-0.29453 0.85521-0.78959
   2  11  -1 1225.55  220.46   1 0.76266-0.42168 0.07398 0.69944-0.64255 0.57702
  -2 -11   0 2393.71  315.95   1 0.11332-0.47204-0.52875-0.26380 0.84117-0.84117
   2  11   0 2097.34  303.32   1 0.78948-0.43042 0.11897 0.67244-0.60213 0.60213
  -2 -11  -1  310.54  132.71   1 0.02604-0.40311-0.57391-0.23634 0.81850-0.88410
   2  11   1  635.19  178.52   1 0.81220-0.43505 0.16214 0.64726-0.56038 0.62591
  -2 -12   8  424.95  160.99   1 0.57014-0.79423-0.17925-0.54064 0.80175-0.27730
  -2 -12   7 1154.91  207.61   1 0.53244-0.77465-0.21739-0.52048 0.81807-0.35918
  -2 -12   6 1418.59  228.50   1 0.48800-0.74833-0.25949-0.49635 0.83337-0.44003
  -2 -12   5  683.38  170.24   1 0.43628-0.71500-0.30516-0.46871 0.84648-0.51872
   2  12  -5 1080.42  177.64   1 0.67362-0.39489-0.04894 0.82232-0.73744 0.40967
  -2 -12   4 2431.83  270.90   1 0.37760-0.67443-0.35306-0.43878 0.85601-0.59380
   2  12  -4 1753.69  230.18   1 0.70826-0.41145-0.00475 0.79613-0.70593 0.44371
  -2 -12   3  894.48  192.44   1 0.31266-0.62743-0.40236-0.40743 0.86043-0.66356
   2  12  -3 1105.36  199.25   1 0.73958-0.42473 0.03890 0.77048-0.67193 0.47535
  -2 -12   2  161.93  103.85   1 0.24054-0.57348-0.45179-0.37599 0.85907-0.72783
   2  12  -2  213.33  116.13   1 0.76737-0.43443 0.08152 0.74585-0.63599 0.50493
  -2 -12   1  526.17  161.83   1 0.16346-0.51408-0.50026-0.34643 0.85030-0.78466
   2  12  -1  252.89  117.96   1 0.79171-0.44068 0.12297 0.72239-0.59838 0.53285
   3 -12   5  446.95  120.94   1 0.76603-0.42359 0.07754-0.85092 0.63810-0.31063
   3 -11   3   94.54   72.78   1 0.73911-0.42266 0.03369-0.77105 0.67273-0.47625
   3 -11   4  463.05  176.02   1 0.78000-0.44553 0.10229-0.82170 0.61736-0.35539
   3 -11   5  543.59  213.18   1 0.80704-0.45457 0.15572-0.85717 0.56958-0.24211
   3 -11   6  215.99  102.29   1 0.82483-0.45434 0.19672-0.88021 0.53004-0.13708
   3 -11   7   24.34   94.33   1 0.83643-0.44776 0.22774-0.89325 0.49851-0.04002
  -3  10   5 1903.77  236.69   1 0.77981-0.96175 0.61021 0.19933 0.13974 0.18784
  -3  10   4 1315.26  202.30   1 0.77693-0.97694 0.61244 0.17910 0.14589 0.11617
  -3  10   3  974.30  276.04   1 0.76916-0.98725 0.61817 0.15538 0.16202 0.03453
  -3  10   2  123.69   62.36   1 0.75382-0.98998 0.62834 0.12721 0.19216-0.06112
   3 -10   2 5236.37  320.27   1 0.74285-0.43439 0.03953-0.72292 0.66827-0.53729
   3 -10   3 2165.45  212.56   1 0.79110-0.46462 0.12323-0.78866 0.59913-0.40265
   3 -10   4 4962.77  350.32   1 0.82075-0.47625 0.18675-0.83422 0.53989-0.27792
   3 -10   5 3091.08  262.34   1 0.83875-0.47613 0.23448-0.86395 0.49143-0.16394
   3 -10   6 1688.80  205.50   1 0.84961-0.46894 0.26963-0.88116 0.45327-0.06028
   3 -10   7 1763.38  277.40   1 0.85607-0.45736 0.29502-0.88862 0.42437 0.03411
   3 -10   8  351.33  143.95   1 0.85985-0.44310 0.31268-0.88834 0.40357 0.12040
   3 -10   9  130.92  123.81   1 0.86197-0.42718 0.32412-0.88184 0.38979 0.19968
  -3   9   7  403.03  151.64   1 0.77871-0.93455 0.61106 0.16250 0.14210 0.31652
  -3   9   6  381.73  144.55   1 0.78138-0.95529 0.60897 0.14660 0.13637 0.25674
  -3   9   5  451.01  197.32   1 0.78119-0.97318 0.60911 0.12846 0.13677 0.19081
  -3   9   4  906.21  194.34   1 0.77726-0.98732 0.61219 0.10739 0.14519 0.11687
  -3   9   3  381.42  161.32   1 0.76793-0.99607 0.61903 0.08256 0.16450 0.03204
  -3   9   2 1478.99  279.73   1 0.75005-0.99626 0.63063 0.05296 0.19927-0.06823
  -3   9   1 4758.90  303.04   1 0.71700-0.98128 0.64785 0.01775 0.25726-0.19174
   3  -9   0 5046.06  368.80   1 0.63193-0.34950-0.10959-0.53777 0.76723-0.76723
  -3   9   0 4649.38  334.67   1 0.65270-0.93485 0.66963-0.02194 0.35434-0.35434
   3  -9   1  216.89   79.57   1 0.73854-0.43805 0.03281-0.66222 0.67340-0.60791
   3  -9   210423.08  719.43   1 0.79894-0.48044 0.13880-0.75026 0.58516-0.45417
   3  -9   3 5977.08  466.90   1 0.83232-0.49575 0.21634-0.80977 0.51031-0.31382
   3  -9   4 6178.50  406.01   1 0.85035-0.49573 0.27232-0.84781 0.45026-0.18827
   3  -9   5 5215.73  387.13   1 0.85980-0.48714 0.31241-0.86997 0.40389-0.07640
   3  -9   6 4440.85  339.96   1 0.86457-0.47387 0.34066-0.88027 0.36940 0.02358
   3  -9   7 2895.93  274.65   1 0.86687-0.45812 0.35992-0.88160 0.34494 0.11354
   3  -9   8 1256.98  233.99   1 0.86782-0.44114 0.37237-0.87598 0.32895 0.19502
   3  -9   9  233.93  155.01   1 0.86825-0.42356 0.37916-0.86483 0.31995 0.26952
  -3   8   8  192.50  109.63   1 0.77422-0.92203 0.61449 0.10511 0.15159 0.37255
  -3   8   7  140.55  106.65   1 0.77852-0.94440 0.61122 0.09039 0.14252 0.31610
  -3   8   6  640.58  214.39   1 0.78031-0.96427 0.60982 0.07380 0.13868 0.25443
  -3   8   5 1222.26  253.95   1 0.77898-0.98101 0.61086 0.05476 0.14153 0.18605
  -3   8   4 3909.05  311.66   1 0.77342-0.99352 0.61508 0.03255 0.15325 0.10881
  -3   8   3 6706.74  501.34   1 0.76161-0.99979 0.62335 0.00628 0.17712 0.01943
  -3   8   219251.50 1258.71   1 0.73961-0.99586 0.63661-0.02496 0.21839-0.08735
   3  -8  -119361.31 1080.64   1 0.55154-0.27689-0.19837-0.39541 0.81021-0.87577
  -3   8   118456.03 1056.69   1 0.69910-0.97324 0.65489-0.06117 0.28698-0.22146
   3  -8   020401.53 1153.20   1 0.71885-0.42639 0.00331-0.57875 0.69514-0.69514
  -3   8   020091.71 1130.73   1 0.62009-0.91229 0.67673-0.10101 0.39687-0.39687
   3  -8   1  892.96  110.88   1 0.80236-0.49184 0.14584-0.70332 0.57873-0.51323
  -3   8  -1 1040.68  103.98   1 0.44071-0.75110 0.68281-0.12508 0.58269-0.64822
   3  -8   2 4201.67  301.12   1 0.84189-0.51333 0.24397-0.78342 0.48133-0.35034
   3  -8   3  209.72  102.56   1 0.85953-0.51292 0.31108-0.83260 0.40548-0.20898
   3  -8   4  244.25  134.35   1 0.86657-0.50191 0.35697-0.86055 0.34873-0.08674
   3  -8   5 2477.15  302.43   1 0.86864-0.48598 0.38821-0.87374 0.30780 0.01968
   3  -8   6 2932.77  293.57   1 0.86879-0.46812 0.40875-0.87634 0.27949 0.11349
   3  -8   7 1887.84  230.32   1 0.86833-0.44966 0.42152-0.87117 0.26136 0.19712
   3  -8   8  281.58  166.87   1 0.86790-0.43123 0.42838-0.86009 0.25144 0.27254
   3  -8   9  191.91  123.13   1 0.86774-0.41305 0.43058-0.84435 0.24823 0.34124
   3  -8  10  542.05  139.67   1 0.86786-0.39517 0.42897-0.82480 0.25058 0.40439
  -3   7   9  100.37  108.90   1 0.76601-0.90579 0.62037 0.04526 0.16838 0.42128
  -3   7   8 1086.25  207.22   1 0.77170-0.92956 0.61634 0.03130 0.15681 0.36733
  -3   7   7  245.98  108.75   1 0.77506-0.95099 0.61386 0.01579 0.14983 0.30880
  -3   7   6  356.29  167.55   1 0.77564-0.96964 0.61342-0.00176 0.14861 0.24449
  -3   7   5 2714.49  314.01   1 0.77264-0.98472 0.61565-0.02198 0.15486 0.17272
  -3   7   4 1966.29  216.07   1 0.76465-0.99480 0.62130-0.04563 0.17109 0.09097
  -3   7   3 4547.31  337.98   1 0.74905-0.99728 0.63123-0.07354 0.20113-0.00457
   3  -7  -2 6884.31  160.00   1 0.29161-0.02527-0.41674-0.12303 0.86097-0.99208
  -3   7   2 6787.77  266.39   1 0.72075-0.98705 0.64613-0.10644 0.25103-0.11999
   3  -7  -1 4059.87  157.35   1 0.65900-0.37452-0.07690-0.44457 0.74819-0.81368
  -3   7   1 3345.21  135.45   1 0.56810-0.85255 0.70564-0.18448-0.42346 0.48899
  -3   7   1 3855.79  188.30   1 0.66899-0.95319 0.66513-0.14337 0.33170-0.26619
   3  -7   0 1079.86  108.70   1 0.79797-0.49542 0.13682-0.64033 0.58695-0.58695
  -3   7   0 1145.20  103.72   1 0.59702-0.89949 0.70137-0.19815-0.38941 0.38941
  -3   7   0  862.83   90.06   1 0.56846-0.87066 0.68351-0.17968 0.45787-0.45787
   3  -7   0  852.93   85.89   1 0.79957-0.49721 0.13745-0.64108-0.58462 0.58462
   3  -7   1 6656.26  582.31   1 0.84947-0.52891 0.26915-0.75462 0.45381-0.38831
  -3   7  -1 6182.39  568.74   1 0.34657-0.66693 0.67001-0.18422 0.65647-0.72198
   3  -7   1 5792.53  489.35   1 0.74792-0.42748 0.05125-0.53689-0.66179 0.72732
   3  -7   3 3234.35  206.71   1 0.86884-0.51219 0.40478-0.85429 0.28504-0.08855
   3  -7   4 4085.85  245.13   1 0.86703-0.49238 0.43844-0.87000 0.23666 0.02533
   3  -7   5 5635.07  405.85   1 0.86422-0.47156 0.45960-0.87322 0.20462 0.12286
   3  -7   6 2474.73  309.23   1 0.86173-0.45077 0.47230-0.86809 0.18531 0.20785
   3  -7   7  633.09  206.06   1 0.86035-0.43135 0.47861-0.85649 0.17523 0.28346
   3  -7   8  275.25  148.00   1 0.85998-0.41293 0.48021-0.84017 0.17267 0.35156
   3  -7   9  509.30  209.65   1 0.86048-0.39538 0.47806-0.82010 0.17612 0.41363
   3  -7  10  -32.87  108.09   1 0.86162-0.37848 0.47281-0.79693 0.18450 0.47078
  -3   6  10  239.50  134.87   1 0.75413-0.88589 0.62815-0.01647 0.19158 0.46359
  -3   6   9 1252.35  226.98   1 0.76108-0.91091 0.62370-0.03002 0.17816 0.41150
  -3   6   8 2349.37  261.59   1 0.76577-0.93368 0.62054-0.04484 0.16886 0.35528
  -3   6   7 7714.22  509.97   1 0.76786-0.95384 0.61908-0.06139 0.16465 0.29397
  -3   6   6 1758.32  241.89   1 0.76673-0.97078 0.61987-0.08017 0.16693 0.22617
  -3   6   5  374.64  123.07   1 0.76132-0.98344 0.62354-0.10183 0.17769 0.14989
  -3   6   4  193.32   88.19   1 0.74974-0.98993 0.63082-0.12710 0.19986 0.06221
  -3   6   3 2491.26  213.27   1 0.72851-0.98678 0.64239-0.15667 0.23786-0.04131
   3  -6  -2 4220.20  364.86   1-0.25469 0.53114-0.67797 0.21002 0.68955-0.82083
   3  -6  -2 4529.17  375.03   1 0.39177-0.11537-0.34184-0.12595 0.85419-0.98530
  -3   6   2 4751.42  438.84   1 0.69102-0.96721 0.65791-0.19011 0.29938-0.16835
   3  -6  -1 3771.49  329.07   1-0.46720 0.76199-0.70942 0.25939 0.52767-0.59335
   3  -6  -1 3704.82  328.95   1 0.77219-0.47763 0.08827-0.53780 0.62922-0.69471
  -3   6   1 4125.43  232.23   1 0.62299-0.91724 0.67620-0.22640 0.39323-0.32772
   3  -6  -1 2873.99  270.95   1 0.86305-0.56872 0.29855-0.74808-0.40742 0.34192
   3  -6   0 2436.64  234.86   1 0.85497-0.54242 0.29036-0.72185 0.42977-0.42977
  -3   6   0 2534.01  240.12   1 0.49302-0.80543 0.68561-0.25381 0.53559-0.53559
   3  -6   0 2051.97  202.38   1 0.86226-0.54986 0.29533-0.72688-0.41143 0.41143
   3  -6   120001.64 1374.36   1 0.86884-0.53820 0.39741-0.81089 0.29525-0.22975
  -3   6  -115993.33 1103.33   1 0.54444-0.87495 0.70802-0.29465-0.44975 0.38422
  -3   6  -117544.88 1190.07   1 0.22919-0.55960 0.64272-0.22889 0.73101-0.79652
   3  -6   117657.70 1194.36   1 0.85498-0.52452 0.26892-0.68250-0.44347 0.50898
   3  -6   212126.87 1030.74   1 0.86454-0.51589 0.45767-0.85321 0.20759-0.07659
   3  -6   211118.35  908.69   1 0.80006-0.45148 0.13838-0.53408-0.58373 0.71478
   3  -6   212000.07  980.14   1 0.36112-0.01261-0.34247-0.05325-0.86734 0.99850
   3  -6   3 4421.06  431.01   1 0.85669-0.48986 0.49299-0.87064 0.15176 0.04482
   3  -6   4 2862.52  218.82   1 0.85008-0.46521 0.51348-0.87321 0.11696 0.14514
   3  -6   5 1959.21  227.13   1 0.84572-0.44280 0.52468-0.86650 0.09721 0.23043
   3  -6   6  226.93  168.95   1 0.84363-0.42266 0.52960-0.85349 0.08837 0.30479
   3  -6   7  118.73  106.44   1 0.84347-0.40445 0.52995-0.83593 0.08772 0.37097
   3  -6   8 2741.80  272.58   1 0.84483-0.38776 0.52681-0.81487 0.09339 0.43083
   3  -6   9 1413.52  202.87   1 0.84729-0.37218 0.52081-0.79095 0.10410 0.48565
   3  -6  10  696.14  227.16   1 0.85049-0.35733 0.51237-0.76459 0.11890 0.53638
   3  -6  11  218.14  131.98   1 0.85408-0.34288 0.50172-0.73603 0.13713 0.58368
  -3   5  11  265.35  140.98   1 0.73847-0.86220 0.63723-0.07951 0.22042 0.50027
  -3   5  10 1576.51  294.25   1 0.74661-0.88841 0.63266-0.09294 0.20566 0.44952
  -3   5   9 4352.74  370.93   1 0.75250-0.91238 0.62915-0.10742 0.19467 0.39499
  -3   5   8 3840.21  322.96   1 0.75585-0.93380 0.62707-0.12334 0.18829 0.33585
  -3   5   7 7241.90  554.04   1 0.75617-0.95219 0.62687-0.14113 0.18769 0.27093
  -3   5   6 6822.22  474.27   1 0.75260-0.96670 0.62909-0.16134 0.19447 0.19863
  -3   5   5  189.84  110.81   1 0.74371-0.97587 0.63433-0.18457 0.21098 0.11660
  -3   5   4 1080.13  143.65   1 0.72691-0.97715 0.64319-0.21142 0.24061 0.02146
  -3   5   3 6003.30  463.57   1 0.69777-0.96596 0.65540-0.24157 0.28904-0.09250
   3  -5  -211715.38  785.98   1 0.04375 0.24297-0.56496 0.16888 0.82395-0.95521
   3  -5  -212216.38  819.71   1 0.58846-0.30184-0.15981-0.23601 0.79256-0.92367
  -3   5   211430.07  810.93   1 0.64693-0.93318 0.67106-0.27523 0.36213-0.23110
   3  -5  -1 5532.64  347.23   1-0.33059 0.63554-0.69503 0.31666 0.63845-0.70414
   3  -5  -1 5811.59  361.06   1 0.85777-0.55322 0.30260-0.68012 0.41551-0.48101
  -3   5   1 5212.23  345.44   1 0.55737-0.86163 0.68439-0.30649 0.47004-0.40453
   3  -5  -1 4542.69  307.51   1 0.87541-0.57120 0.42728-0.80495-0.22601 0.16051
   3  -5   0  204.21   49.98   1-0.42643 0.74935-0.70720 0.34707 0.56391-0.56391
   3  -5   0  310.83   70.49   1 0.86538-0.54275 0.45208-0.81159 0.21616-0.21616
  -3   5   0  225.45   52.29   1 0.39433-0.71677 0.67774-0.31790 0.62061-0.62061
   3  -5   0  146.32   32.62   1 0.87154-0.54931 0.45654-0.81625-0.17880 0.17880
   3  -5   1  118.23   54.10   1-0.46533 0.80635-0.70936 0.36710 0.52939-0.46370
   3  -5   1  144.65   69.95   1 0.84790-0.50715 0.51927-0.86086 0.10681-0.04128
  -3   5  -1    7.73   21.07   1 0.10308-0.44349 0.60124-0.25943 0.79238-0.85790
   3  -5   1  129.56   50.92   1 0.86335-0.52310 0.48975-0.83150-0.12148 0.18698
   3  -5   2   49.18   82.78   1 0.83195-0.47316 0.55305-0.87671 0.04455 0.08650
   3  -5   2  170.38   34.43   1 0.84544-0.48717 0.53252-0.85630-0.04045 0.17145
   3  -5   2   49.02   35.57   1 0.35125 0.00733-0.34979 0.02599-0.86848 0.99963
   3  -5   3  317.57  103.48   1 0.82123-0.44455 0.57049-0.87618 0.01042 0.18618
   3  -5   3  410.51   49.40   1 0.79317-0.41679 0.59904-0.90483 0.10963 0.08687
   3  -5   3  243.40   39.62   1 0.75431-0.37758 0.06095-0.36671-0.65367 0.85026
   3  -5   4 1260.81  169.32   1 0.81550-0.42080 0.57870-0.86644-0.00654 0.26868
   3  -5   4 1363.91   71.55   1 0.61748-0.22286 0.67720-0.96502 0.40013-0.13807
   3  -5   4 1332.95   73.25   1 0.87161-0.47689 0.34236-0.63008-0.35081 0.61283
   3  -5   5  550.16  126.06   1 0.81372-0.40099 0.58113-0.85091-0.01164 0.33932
   3  -5   5  289.56   57.89   1 0.33120 0.08158 0.66713-0.93698 0.66726-0.33971
   3  -5   5  418.49   53.05   1 0.87356-0.46122 0.44397-0.71385-0.19944 0.52695
   3  -5   6 1436.03  247.38   1 0.81488-0.38413 0.57956-0.83138-0.00832 0.40154
   3  -5   6  586.49  118.16   1 0.86219-0.43183 0.49335-0.74526-0.11500 0.50802
   3  -5   7  598.22  150.44   1 0.81817-0.36940 0.57497-0.80883 0.00123 0.45752
   3  -5   8 2196.54  427.96   1 0.82292-0.35613 0.56793-0.78384 0.01560 0.50868
   3  -5   9 1200.47  261.45   1 0.82861-0.34380 0.55879-0.75673 0.03381 0.55600
   3  -5  10  823.92  277.27   1 0.83497-0.33180 0.54751-0.72783 0.05515 0.60013
   3  -5  11  361.73  147.01   1 0.84136-0.32015 0.53462-0.69702 0.07921 0.64160
  -3   4  11  388.67  134.34   1 0.72814-0.86191 0.64258-0.15682 0.23851 0.48218
  -3   4  10 1044.90  334.53   1 0.73514-0.88699 0.63900-0.17124 0.22633 0.42885
  -3   4   9   25.85  107.37   1 0.73961-0.90953 0.63661-0.18684 0.21839 0.37127
  -3   4   8  118.98  115.60   1 0.74111-0.92910 0.63578-0.20401 0.21569 0.30845
  -3   4   7  554.22  166.44   1 0.73894-0.94501 0.63697-0.22319 0.21959 0.23904
  -3   4   6  437.27  123.74   1 0.73192-0.95606 0.64067-0.24488 0.23197 0.16114
  -3   4   5  171.48  112.10   1 0.71806-0.96027 0.64737-0.26957 0.25551 0.07208
  -3   4   4  578.81  139.90   1 0.69417-0.95435 0.65676-0.29688 0.29458-0.03252
  -3   4   3 5038.36  357.47   1 0.65349-0.93173 0.66942-0.32755 0.35327-0.15673
   3  -4  -2  582.54   49.85   1 0.85088-0.55434 0.27430-0.59783 0.44804-0.57904
  -3   4   2  650.57  113.48   1 0.58534-0.88160 0.68180-0.35786 0.43877-0.30775
   3  -4  -2  447.57   90.42   1 0.85906-0.56279 0.50226-0.82596-0.09872-0.03228
   3  -4  -126848.89 1297.83   1-0.16751 0.48226-0.65271 0.34672 0.73884-0.80449
   3  -4  -129395.50 1414.48   1 0.84424-0.52958 0.52818-0.83370 0.09093-0.15646
  -3   4   128518.57 1394.04   1 0.46948-0.78391 0.68476-0.37888 0.55738-0.49186
   3  -4  -124470.83 1197.42   1 0.83869-0.52430 0.54436-0.85009-0.01619-0.04930
   3  -4   011428.22  583.34   1-0.30650 0.63954-0.69038 0.40194 0.65530-0.65530
   3  -4   012486.05  636.08   1 0.80393-0.47129 0.59348-0.88114-0.03827 0.03827
  -3   4   010877.64  588.57   1 0.27643-0.60888 0.65512-0.36724 0.70312-0.70312
   3  -4   010169.44  519.43   1 0.80208-0.46968 0.59063-0.87839 0.08839-0.08839
   3  -4   1 5317.85  349.75   1-0.36860 0.71972-0.70120 0.43059 0.61027-0.54459
   3  -4   1 5893.52  393.20   1 0.77939-0.42873 0.61891-0.88861-0.09739 0.16292
  -3   4  -1 5193.27  328.11   1-0.01772-0.33276 0.55018-0.28033 0.83485-0.90037
   3  -4   1 5061.78  320.20   1 0.73475-0.38410 0.63921-0.90905 0.22702-0.16150
   3  -4   218050.89  921.25   1 0.76722-0.39864 0.62927-0.88092-0.12400 0.25507
   3  -4   217880.26  870.89   1 0.61256-0.24400 0.67805-0.92990 0.40621-0.27518
   3  -4   219140.22  933.18   1 0.37454-0.00587-0.33238 0.08052-0.86558 0.99673
   3  -4   310696.74  585.21   1 0.76333-0.37673 0.63236-0.86605-0.13206 0.32866
   3  -4   310766.39  537.19   1 0.42128-0.03464 0.68097-0.91480 0.59899-0.40240
   3  -4   310705.27  542.31   1 0.65294-0.26637-0.07367-0.16012-0.75381 0.95047
   3  -4   4 5717.56  453.96   1 0.76483-0.36021 0.63118-0.84692-0.12897 0.39110
   3  -4   4 5346.32  452.20   1 0.19915 0.20557 0.63413-0.84997 0.74713-0.48505
   3  -4   4 6308.20  452.22   1 0.79698-0.39212 0.13262-0.34843-0.58925 0.85137
   3  -4   5  486.44  169.64   1 0.76988-0.34725 0.62710-0.82488-0.11840 0.44606
   3  -4   5  260.62   47.55   1 0.00556 0.41724 0.56085-0.75868 0.82789-0.50029
   3  -4   5  490.42   76.14   1 0.85453-0.43169 0.26743-0.46524-0.44525 0.77278
   3  -4   6 2327.41  196.62   1 0.77718-0.33642 0.62089-0.80080-0.10228 0.49550
   3  -4   6 2770.68  141.11   1 0.87343-0.43253 0.35637-0.53621-0.33180 0.72483
   3  -4   7 1432.40  234.55   1 0.78599-0.32721 0.61271-0.77466-0.08237 0.54113
   3  -4   7 1283.42  157.44   1 0.87609-0.41763 0.41734-0.57935-0.24142 0.69995
   3  -4   8  362.57  153.46   1 0.79565-0.31884 0.60284-0.74683-0.05929 0.58359
   3  -4   8  308.54  106.86   1 0.86988-0.39340 0.46493-0.60897-0.16472 0.68875
   3  -4   9 1318.64  297.59   1 0.80569-0.31087 0.59136-0.71739-0.03362 0.62345
   3  -4  10  145.87  121.49   1 0.81578-0.30293 0.57833-0.68640-0.00575 0.66111
   3  -4  11  131.79  129.02   1 0.82560-0.29473 0.56373-0.65384 0.02404 0.69686
  -3   3  12  289.46  168.60   1 0.70586-0.83160 0.65220-0.22027 0.27636 0.50980
  -3   3  11  159.14  150.61   1 0.71394-0.85774 0.64878-0.23486 0.26336 0.45729
  -3   3  10  148.56  166.83   1 0.71899-0.88088 0.64695-0.25114 0.25397 0.40121
  -3   3   9 2582.37  500.39   1 0.72151-0.90147 0.64578-0.26796 0.24976 0.33989
  -3   3   8 3113.05  327.80   1 0.72045-0.91849 0.64627-0.28645 0.25153 0.27260
  -3   3   7  108.90  118.09   1 0.71520-0.93125 0.64823-0.30631 0.26129 0.19730
  -3   3   6  452.47  123.12   1 0.70335-0.93746 0.65322-0.32931 0.28033 0.11274
  -3   3   5 8215.91  623.15   1 0.68258-0.93476 0.66084-0.35493 0.31201 0.01555
  -3   3   414048.35  745.50   1 0.64835-0.91859 0.67071-0.38281 0.36023-0.09817
  -3   3   3 7831.62  692.33   1 0.59310-0.88136 0.68084-0.41086 0.42974-0.23321
   3  -3  -2 3731.36  243.00   1 0.33671-0.03015-0.38426 0.13239 0.85963-0.99073
   3  -3  -2 3750.37  246.15   1 0.74144-0.43490 0.64784-0.89941-0.17480 0.04374
  -3   3   2 3291.16  247.17   1 0.50394-0.81026 0.68600-0.43404 0.52481-0.39379
   3  -3  -2 3370.20  253.74   1 0.80403-0.49759 0.58867-0.84044 0.08358-0.21459
   3  -3  -1 7383.18  252.16   1-0.00877 0.33361-0.59013 0.35611 0.80725-0.87285
   3  -3  -1 8506.08  299.09   1 0.68564-0.36109 0.67649-0.91011-0.26877 0.20324
  -3   3   1 8062.19  303.73   1 0.36216-0.68658 0.67271-0.43880 0.64520-0.57969
   3  -3  -1 7290.63  281.61   1 0.74881-0.42426 0.63137-0.86524 0.20159-0.26711
   3  -3   054843.27 1587.88   1-0.17279 0.51571-0.65442 0.43836 0.73611-0.73611
   3  -3   061942.93 1779.16   1 0.66900-0.32643 0.68278-0.89844-0.29366 0.29366
  -3   3   056739.38 1702.22   1 0.15050-0.49298 0.61835-0.40247 0.77135-0.77135
   3  -3   053745.23 1546.71   1 0.66016-0.31768 0.66765-0.88355 0.34410-0.34410
   3  -3   113425.02  454.50   1-0.25671 0.61771-0.67848 0.48034 0.68829-0.62265
   3  -3   114754.60  502.51   1 0.66844-0.30785 0.68297-0.88068-0.29448 0.36001
   3  -3   113614.92  435.58   1 0.52557-0.16508 0.68584-0.88375 0.50336-0.43786
   3  -3   114480.94  469.59   1 0.12636 0.23446-0.49343 0.29557-0.86055 0.92609
   3  -3   231295.30  978.14   1 0.67583-0.29722 0.68030-0.86006-0.28359 0.41465
   3  -3   230797.45  978.44   1 0.34561 0.03305 0.66984-0.84975 0.65716-0.52614
   3  -3   232252.19  954.53   1 0.40587-0.02718-0.30877 0.12888-0.86018 0.99128
   3  -3   3 8903.92  508.89   1 0.68751-0.29088 0.67573-0.83754-0.26590 0.46250
   3  -3   3 9281.43  697.96   1 0.15005 0.24666 0.61820-0.78008 0.77156-0.57500
   3  -3   310695.48  555.28   1 0.62024-0.22359-0.11049-0.05129-0.77658 0.97333
   3  -3   4 1781.32  222.51   1 0.70155-0.28691 0.66962-0.81347-0.24377 0.50590
   3  -3   4 1598.86  160.95   1-0.02344 0.43825 0.54749-0.69137 0.83647-0.57439
   3  -3   4 2116.05  220.52   1 0.75037-0.33546 0.05495-0.19882-0.65871 0.92083
   3  -3   5   55.59  111.49   1 0.71685-0.28419 0.66210-0.78800-0.21848 0.54615
   3  -3   5  243.63   91.13   1 0.82103-0.38803 0.18071-0.30658-0.54151 0.86915
  -3   3  -5   54.19   69.54   1 0.15750-0.59048-0.47593 0.60198-0.86526 0.53754
   3  -3   6 5841.07  301.13   1 0.73271-0.28203 0.65324-0.76119-0.19078 0.58398
   3  -3   6 5100.95  214.88   1 0.85648-0.40552 0.27397-0.38188-0.43746 0.83049
   3  -3   7 9961.12  664.14   1 0.74867-0.27997 0.64305-0.73305-0.16114 0.61987
   3  -3   7 8305.90  527.41   1 0.87209-0.40307 0.34574-0.43567-0.34627 0.80481
   3  -3   8 2517.59  467.54   1 0.76440-0.27768 0.63152-0.70356-0.12986 0.65412
   3  -3   8 1244.94  238.68   1 0.87656-0.39000 0.40121-0.47331-0.26582 0.78985
   3  -3   9 1597.27  334.53   1 0.77956-0.27471 0.61876-0.67288-0.09702 0.68684
   3  -3   9 1123.71  222.49   1 0.87297-0.36839 0.44802-0.50215-0.19285 0.78238
   3  -3  10  742.18  268.30   1 0.79415-0.27128 0.60444-0.64060-0.06298 0.71835
   3  -3  11  471.42  143.92   1 0.80790-0.26702 0.58865-0.60685-0.02771 0.74861
  -3   2  12  206.81  117.51   1 0.68779-0.82359 0.65906-0.29909 0.30426 0.48190
  -3   2  11  611.91  197.70   1 0.69424-0.84810 0.65673-0.31477 0.29447 0.42617
  -3   2  10 1179.56  267.19   1 0.69767-0.86959 0.65544-0.33148 0.28919 0.36594
  -3   2   9 1129.09   95.98   1 0.79352-0.98410 0.12796 0.17750 0.59493-0.00549
  -3   2   9 1287.40  211.24   1 0.69753-0.88752 0.65550-0.34954 0.28941 0.30021
  -3   2   829532.00 1627.74   1 0.75807-0.96666 0.06409 0.22341 0.64901-0.12507
  -3   2   832557.19  645.11   1 0.69296-0.90100 0.65721-0.36925 0.29644 0.22767
  -3   2   7 3351.75  375.44   1-0.41422 0.18768-0.70660 0.97560 0.57369-0.11391
  -3   2   7 4237.68  364.26   1 0.68276-0.90927-0.04651 0.31610 0.72915-0.27074
  -3   2   7 5034.51  482.61   1 0.68258-0.90868 0.66085-0.39089 0.31202 0.14657
  -3   2   620672.50 1390.78   1-0.50293 0.25858-0.70960 0.96086 0.49347-0.09934
  -3   2   622905.84 1600.25   1 0.66420-0.90837 0.66653-0.41458 0.33848 0.05460
   3  -2  -539138.58 1857.48   1 0.64507-0.38256 0.69038-0.92392-0.32747-0.00019
  -3   2   539687.43 1963.39   1 0.63431-0.89654 0.67393-0.43998 0.37876-0.05119
   3  -2  -433220.75 1577.88   1 0.85079-0.57024 0.51153-0.72701 0.12034-0.38246
  -3   2   431104.36 1539.06   1 0.58744-0.86769 0.68155-0.46552 0.43634-0.17431
  -3   2   3 7771.86  270.06   1-0.30144 0.00258-0.68933 0.88703 0.65874-0.46169
   3  -2  -3 7458.03  237.20   1 0.74596-0.44729 0.04443-0.24216 0.66450-0.86097
  -3   2   3 7762.13  319.11   1 0.51459-0.81291 0.68600-0.48800 0.51437-0.31784
  -3   2   2 4510.31  305.46   1-0.39047 0.07354-0.70407 0.88394 0.59312-0.46176
   3  -2  -2 4547.00  298.86   1 0.39884-0.08222-0.33616 0.15627 0.85317-0.98428
  -3   2   2 3947.59  302.60   1 0.40357-0.72002 0.67893-0.49897 0.61332-0.48226
   3  -2  -2 4243.29  307.67   1 0.71423-0.39781 0.64866-0.82859 0.26288-0.39391
  -3   2   1 6903.90  431.14   1-0.44893 0.11406-0.70868 0.87060 0.54426-0.47857
   3  -2  -1 6409.99  419.03   1 0.12599 0.20887-0.52174 0.35973 0.84374-0.90937
  -3   2   1 6113.74  430.11   1 0.24177-0.57625 0.64620-0.48426 0.72385-0.65834
   3  -2  -1 6160.07  416.98   1 0.61868-0.28420 0.67699-0.83892 0.39862-0.46414
  -3   2   0 1532.74  140.28   1-0.49552 0.14254-0.70971 0.85376 0.50076-0.50076
   3  -2   0 1215.21  111.94   1-0.04068 0.39367-0.60417 0.46011 0.79581-0.79581
  -3   2   0 1466.93  226.59   1 0.02720-0.37976 0.57041-0.42649 0.82090-0.82090
   3  -2   0 1343.61  126.28   1 0.48548-0.13293 0.68541-0.82935 0.54268-0.54268
   3  -2   115227.57  512.54   1-0.13896 0.51007-0.64306 0.51694 0.75309-0.68745
   3  -2   115505.78  522.11   1 0.53449-0.16387 0.70874-0.83457-0.46043 0.52596
   3  -2   115061.94  492.53   1 0.31894 0.05170 0.66467-0.79061 0.67563-0.61012
   3  -2   117154.77  552.01   1 0.21702 0.15382-0.44041 0.31449-0.87117 0.93671
   3  -2   222291.19  730.32   1 0.56948-0.18084 0.70548-0.81335-0.42188 0.55295
   3  -2   223557.80  766.48   1 0.14055 0.24815 0.61490-0.72282 0.77597-0.64493
   3  -2   224028.47  742.37   1 0.44116-0.05241-0.28023 0.17228-0.85254 0.98365
   3  -2   3 8397.40  488.90   1 0.60138-0.19473 0.70058-0.79050-0.38407 0.58067
   3  -2   3 7481.80  469.57   1-0.02198 0.42878 0.54818-0.63810 0.83606-0.63950
   3  -2   3 7999.52  443.83   1 0.61263-0.20595-0.11877 0.02893-0.78138 0.97813
   3  -2   4 4896.40  412.69   1 0.63087-0.20620 0.69418-0.76615-0.34654 0.60867
   3  -2   4 4486.18  362.00   1 0.72647-0.30151 0.02014-0.09206-0.68689 0.94900
  -3   2  -4 3731.66  343.00   1 0.15279-0.57775-0.47862 0.55069-0.86462 0.60244
   3  -2   5  546.05  147.90   1 0.65835-0.21566 0.68636-0.74037-0.30899 0.63665
   3  -2   5  237.61  115.36   1 0.79740-0.35435 0.13339-0.18732-0.58851 0.91615
   3  -2   6  828.53  233.32   1 0.68404-0.22333 0.67714-0.71320-0.27123 0.66442
   3  -2   6  449.40  167.20   1 0.83934-0.37820 0.22395-0.25988-0.49532 0.88849
   3  -2   7 1899.39  241.98   1 0.70809-0.22936 0.66652-0.68463-0.23313 0.69185
   3  -2   7 1253.08  187.28   1 0.86260-0.38352 0.29672-0.31472-0.40971 0.86824
   3  -2   8  503.74  190.03   1 0.73059-0.23385 0.65449-0.65465-0.19458 0.71884
   3  -2   8  552.06  185.17   1 0.87405-0.37742 0.35569-0.35585-0.33091 0.85493
   3  -2   9  360.91  177.08   1 0.75158-0.23683 0.64103-0.62324-0.15551 0.74530
   3  -2   9  366.05  173.57   1 0.87648-0.36183 0.40659-0.38878-0.25777 0.84730
   3  -2  10  316.52  149.73   1 0.77109-0.23831 0.62609-0.59034-0.11583 0.77116
   3  -2  10  100.96   80.01   1 0.87261-0.33994 0.45029-0.41451-0.18913 0.84416
   3  -2  11  119.69  122.12   1 0.78897-0.23807 0.60977-0.55606-0.07541 0.79631
  -3   1  13 1178.49  217.19   1 0.65681-0.78460 0.66856-0.36256 0.34874 0.50293
  -3   1  12 1170.06  234.37   1 0.66423-0.81009 0.66652-0.37852 0.33843 0.44773
  -3   1  11  443.91  209.76   1 0.66853-0.83245 0.66527-0.39527 0.33236 0.38829
  -3   1  10  855.40  171.64   1 0.80919-0.99179 0.16036 0.09112 0.56523 0.08969
  -3   1  10 1373.54  285.18   1 0.66922-0.85120 0.66507-0.41307 0.33138 0.32375
  -3   1   9 3395.42  301.95   1 0.79385-0.99446 0.12860 0.10492 0.59435-0.00492
  -3   1   9 4145.90  368.37   1 0.66553-0.86557 0.66615-0.43215 0.33660 0.25301
  -3   1   8  542.53   87.80   1 0.76462-0.98325 0.07512 0.14045 0.64008-0.11614
  -3   1   8  763.45  181.60   1 0.65628-0.87438 0.66870-0.45271 0.34946 0.17464
  -3   1   720793.84 1711.29   1 0.71098-0.94752-0.00798 0.20564 0.70316-0.24474
   3  -1  -719837.16 1632.46   1 0.68333-0.44683 0.67742-0.87498-0.27231-0.18641
  -3   1   723614.55 1985.59   1 0.63965-0.87581 0.67276-0.47477 0.37180 0.08679
  -3   1   612359.39  849.40   1 0.61560-0.86988-0.12980 0.30964 0.77728-0.38395
   3  -1  -612380.03  847.34   1 0.77862-0.52407 0.61960-0.79927-0.09909-0.29411
  -3   1   613676.85  989.37   1 0.61300-0.86719 0.67788-0.49779 0.40583-0.01278
  -3   1   548479.64 3976.19   1 0.46185-0.73424-0.28299 0.44485 0.84059-0.51281
   3  -1  -547327.31 2258.02   1 0.85694-0.58443 0.49209-0.65358 0.15325-0.48090
  -3   1   546904.94 2298.94   1 0.57175-0.84401 0.68322-0.52115 0.45420-0.12666
  -3   1   4 9626.10  319.38   1 0.26087-0.55116-0.43833 0.58228 0.86011-0.59762
   3  -1  -4 9419.64  304.83   1 0.84644-0.55587 0.25862-0.40229 0.46544-0.72743
  -3   1   4 8845.09  368.90   1 0.50979-0.80010 0.68602-0.54197 0.51911-0.25707
  -3   1   3 5037.89  337.77   1 0.05806-0.36670-0.55782 0.68361 0.82792-0.63103
   3  -1  -3 4927.93  326.79   1 0.68762-0.37898-0.04008-0.08573 0.72495-0.92142
  -3   1   3 4829.74  354.50   1 0.41864-0.72707 0.68068-0.55468 0.60116-0.40457
  -3   1   2  478.47   75.02   1-0.10733-0.21942-0.63094 0.73883 0.76836-0.63716
   3  -1  -2  202.98   45.49   1 0.44883-0.12216-0.29439 0.18648 0.84372-0.97483
  -3   1   2  427.18   80.30   1 0.28926-0.61571 0.65817-0.55020 0.69508-0.56406
   3  -1  -2  254.68   67.31   1 0.60102-0.27458 0.67975-0.78776 0.42036-0.55138
  -3   1   1   99.21   41.93   1-0.23185-0.11323-0.67198 0.76192 0.70333-0.63769
   3  -1  -1   46.51   56.88   1 0.23496 0.10981-0.45542 0.36545 0.85870-0.92432
  -3   1   1   57.93   40.95   1 0.11766-0.46221 0.60668-0.51672 0.78618-0.72066
   3  -1  -1  102.97   54.36   1 0.47431-0.12978 0.68499-0.77497 0.55299-0.61852
  -3   1   0 3258.63  495.67   1-0.32659-0.03651-0.69430 0.76641 0.64130-0.64130
   3  -1   0 2387.65  141.76   1 0.08016 0.28281-0.54648 0.47443 0.83362-0.83362
   3  -1   0 2563.16  384.28   1 0.32043 0.04218 0.66497-0.73694 0.67462-0.67462
   3  -1   0 2346.59  147.93   1 0.08648 0.27634-0.51478 0.44284-0.85294 0.85294
  -3   1  -140231.42 1239.15   1-0.40126 0.02007-0.70530 0.75958 0.58441-0.65009
   3  -1   139773.44 1204.03   1 0.15533 0.22537 0.62000-0.67396 0.76906-0.70354
   3  -1   137957.08 1132.03   1 0.29483 0.08600-0.38987 0.33587-0.87239 0.93797
  -3   1  -220578.03  690.65   1-0.46244 0.06323-0.70927 0.74556 0.53205-0.66342
   3  -1   219385.46  626.62   1 0.00033 0.39845 0.55848-0.59444 0.82951-0.69847
   3  -1   220480.63  656.68   1 0.47702-0.07822-0.24978 0.21376-0.84264 0.97374
  -3   1  -3 4271.77  324.17   1-0.51447 0.09716-0.70928 0.72770 0.48191-0.67897
   3  -1   3 3998.03  293.88   1 0.61773-0.20102-0.11324 0.09534-0.77818 0.97493
   3  -1   4  158.26  114.34   1 0.55843-0.12374 0.70673-0.70681-0.43436 0.69649
   3  -1   4  131.68   87.74   1 0.71688-0.28205 0.00687-0.00684-0.69715 0.95937
   3  -1   5 2056.18  202.03   1 0.59831-0.14560 0.70114-0.68326-0.38784 0.71550
   3  -1   5 1653.01  180.43   1 0.78349-0.33038 0.10845-0.09043-0.61186 0.93950
   3  -1   6 6611.40  342.41   1 0.63408-0.16335 0.69337-0.65754-0.34229 0.73549
   3  -1   6 5906.48  311.00   1 0.82683-0.35564 0.19361-0.15759-0.52806 0.92123
   3  -1   7 1026.73  189.08   1 0.66647-0.17772 0.68366-0.62988-0.29735 0.75608
   3  -1   7 1384.99  213.68   1 0.85369-0.36456 0.26471-0.21078-0.44847 0.90700
   3  -1   8    2.42  121.88   1 0.69595-0.18918 0.67214-0.60041-0.25272 0.77698
   3  -1   8  308.94  108.36   1 0.86881-0.36161 0.32546-0.25356-0.37314 0.89718
   3  -1   9  455.66  210.23   1 0.72285-0.19807 0.65888-0.56920-0.20818 0.79798
   3  -1   9  287.94  109.38   1 0.87587-0.35113 0.37651-0.28676-0.30179 0.89132
   3  -1  10  314.43  193.87   1 0.74742-0.20461 0.64390-0.53626-0.16354 0.81886
   3  -1  10  339.66  147.31   1 0.87579-0.33303 0.42223-0.31452-0.23387 0.88891
   3  -1  11  257.31  144.82   1 0.76978-0.20896 0.62718-0.50159-0.11862 0.83948
   3  -1  11   -0.77   83.33   1 0.87037-0.30959 0.46262-0.33693-0.16863 0.88917
  -3   0  13  237.55  154.39   1 0.62909-0.76694 0.67501-0.44097 0.38548 0.46619
  -3   0  12  996.76  308.18   1 0.63427-0.79018 0.67393-0.45790 0.37882 0.40734
  -3   0  11 3005.00  252.48   1 0.81187-0.98649 0.16628 0.03123 0.55964 0.16077
  -3   0  11 2750.10  281.97   1 0.63574-0.80972 0.67362-0.47559 0.37690 0.34375
  -3   0  10 2303.79  242.53   1 0.80377-0.99640 0.14877 0.03078 0.57603 0.07889
  -3   0  10 2630.79  307.18   1 0.63284-0.82487 0.67424-0.49421 0.38067 0.27446
  -3   0   9 6017.34  402.30   1 0.78828-0.99893 0.11779 0.04381 0.60393-0.01449
  -3   0   9 6374.30  476.92   1 0.62452-0.83462 0.67590-0.51388 0.39130 0.19832
  -3   0   8 6390.45  558.40   1 0.76122-0.98989 0.06936 0.07428 0.64476-0.12082
   3   0  -8 5725.11  211.14   1 0.73237-0.50386 0.65344-0.79706-0.19139-0.33286
  -3   0   7 8675.15  621.68   1 0.71598-0.96255-0.00084 0.12657 0.69811-0.23970
   3   0  -7 8133.34  576.85   1 0.80096-0.55441 0.59694-0.72265-0.04596-0.41278
  -3   0   7 9912.94  750.95   1 0.58494-0.83114 0.68184-0.55571 0.43922 0.01933
  -3   0   610216.95  538.66   1 0.64297-0.90757-0.09649 0.20426 0.75978-0.36686
   3   0  -6 8788.37  460.82   1 0.85407-0.58959 0.50176-0.60927 0.13707-0.53025
  -3   0   6 9327.61  537.54   1 0.54791-0.81217 0.68498-0.57687 0.48019-0.08713
  -3   0   5 2242.98  192.64   1 0.53428-0.81670-0.21558 0.30547 0.81735-0.48957
   3   0  -5 2176.43  164.00   1 0.86625-0.58368 0.35399-0.44368 0.35255-0.68004
  -3   0   5 1951.46  183.26   1 0.49374-0.77610 0.68563-0.59557 0.53491-0.20726
  -3   0   4  264.54   79.78   1 0.39023-0.69073-0.34307 0.41495 0.85441-0.59219
   3   0  -4  129.38   67.22   1 0.80676-0.50603 0.15511-0.22694 0.57015-0.83212
  -3   0   4   24.27   79.15   1 0.41623-0.71664 0.68042-0.60837 0.60313-0.34101
  -3   0   3 1050.98  119.80   1 0.22780-0.54630-0.46005 0.51402 0.85817-0.66130
   3   0  -3 1079.55  119.26   1 0.66984-0.35117-0.06324 0.00935 0.73980-0.93626
  -3   0   3  990.58  132.51   1 0.30899-0.62743 0.66258-0.60858 0.68228-0.48575
  -3   0   2 6483.51  247.88   1 0.06925-0.40601-0.55213 0.58795 0.83087-0.69961
   3   0  -2 5820.61  216.37   1 0.49247-0.15571-0.25539 0.21943 0.83200-0.96311
  -3   0   2 5847.46  265.79   1 0.16812-0.50466 0.62428-0.58828 0.76288-0.63185
  -3   0   1  258.92   91.83   1-0.07014-0.28476-0.61643 0.63436 0.78427-0.71866
   3   0  -1  167.43   54.80   1 0.32289 0.03194-0.39442 0.37645 0.86033-0.92588
  -3   0   1  267.28   68.27   1-0.00212-0.35249 0.55737-0.53936 0.83026-0.76474
   3   0  -1  156.12   48.97   1 0.33990 0.01469 0.66879-0.68679 0.66119-0.72670
  -3   0   0 7998.96  392.46   1-0.18663-0.18663-0.65880 0.65880 0.72879-0.72879
   3   0   0 6822.65  270.47   1 0.18650 0.18650-0.48584 0.48584 0.85391-0.85391
   3   0   0 7654.23  289.45   1 0.18635 0.18635 0.63016-0.63016 0.75376-0.75376
   3   0   0 7630.00  290.29   1 0.18642 0.18642-0.45901 0.45901-0.86864 0.86864
  -3   0  -1 8712.38  364.37   1-0.28296-0.10824-0.68530 0.66748 0.67103-0.73671
   3   0   1 7448.15  305.24   1 0.03778 0.35300 0.57496-0.55696 0.81730-0.75178
   3   0   1 7829.39  325.29   1 0.36251 0.02840-0.34144 0.35938-0.86717 0.93275
  -3   0  -2  349.97  111.33   1-0.36341-0.04586-0.70045 0.66480 0.61424-0.74561
   3   0   2  202.80  123.30   1 0.51271-0.10398-0.21807 0.25411-0.83040 0.96156
  -3   0  -3 2127.77  398.98   1-0.43167 0.00435-0.70760 0.65400 0.55941-0.75647
   3   0   3 1766.58  179.19   1 0.62974-0.20292-0.10017 0.15416-0.77031 0.96698
  -3   0  -4  419.15  101.57   1-0.49039 0.04496-0.70973 0.63826 0.50574-0.76850
   3   0   4  484.86  135.15   1 0.71604-0.27114 0.00572 0.06625-0.69803 0.96025
   3   0   515119.63 1302.62   1 0.54030-0.07756 0.70834-0.61858-0.45421 0.78188
   3   0   515227.40 1294.19   1 0.77710-0.31394 0.09754-0.00757-0.62176 0.94941
   3   0   6 9457.12  405.40   1 0.58548-0.10472 0.70326-0.59555-0.40326 0.79645
   3   0   6 9362.34  396.17   1 0.81927-0.33802 0.17689-0.06893-0.54543 0.93860
   3   0   7 1499.95  216.67   1 0.62579-0.12702 0.69543-0.56976-0.35320 0.81193
   3   0   7 2153.14  261.06   1 0.84723-0.34804 0.24502-0.11917-0.47133 0.92987
   3   0   8 1551.78  333.63   1 0.66201-0.14522 0.68516-0.54154-0.30376 0.82803
   3   0   8 1630.87  313.85   1 0.86448-0.34722 0.30460-0.16078-0.39985 0.92389
   3   0   9  695.26  254.65   1 0.69469-0.15988 0.67269-0.51112-0.25471 0.84450
   3   0   9  277.95  106.27   1 0.87405-0.33924 0.35566-0.19397-0.33095 0.92048
   3   0  10  460.60  211.09   1 0.72422-0.17139 0.65813-0.47860-0.20581 0.86113
   3   0  10  291.15  134.93   1 0.87655-0.32372 0.40202-0.22236-0.26461 0.91965
  -3  -1  13  623.83  176.26   1 0.59481-0.74271 0.68061-0.51835 0.42773 0.42388
  -3  -1  12 3841.07  311.14   1 0.80877-0.97541 0.15945-0.01590 0.56609 0.21981
  -3  -1  12 3237.52  331.11   1 0.59709-0.76305 0.68030-0.53606 0.42503 0.36107
  -3  -1  11 7443.45  458.88   1 0.80438-0.98904 0.15007-0.02448 0.57483 0.14558
  -3  -1  11 7640.86  509.14   1 0.59495-0.77897 0.68059-0.55437 0.42756 0.29303
  -3  -1  10 4556.32  361.73   1 0.79508-0.99775 0.13104-0.02341 0.59217 0.06275
  -3  -1  10 5510.22  475.68   1 0.58748-0.78956 0.68154-0.57334 0.43629 0.21879
  -3  -1   9 3646.49  190.37   1 0.77881-0.99950 0.10013-0.01046 0.61920-0.02977
  -3  -1   9 4524.91  364.02   1 0.57338-0.79351 0.68306-0.59288 0.45238 0.13719
  -3  -1   8  394.22   87.42   1 0.75232-0.99102 0.05464 0.01707 0.65652-0.13258
  -3  -1   8  288.51  121.50   1 0.55076-0.78895 0.68482-0.61265 0.47715 0.04691
  -3  -1   7 1973.60  215.66   1 0.71101-0.96762-0.00794 0.06174 0.70313-0.24471
  -3  -1   7 1673.17  222.19   1 0.51700-0.77325 0.68598-0.63183 0.51198-0.05342
  -3  -1   6  382.69   85.63   1 0.64877-0.92341-0.08947 0.12531 0.75569-0.36277
   3   1  -6  300.72   59.87   1 0.86872-0.59413 0.41156-0.44729 0.27554-0.66853
  -3  -1   6  343.64  109.97   1 0.46868-0.74302 0.68472-0.64861 0.55811-0.16493
  -3  -1   5 8897.67  329.95   1 0.56125-0.85370-0.18846 0.20637 0.80589-0.47812
   3   1  -5 8075.04  298.38   1 0.85039-0.55778 0.27248-0.29025 0.45008-0.77757
  -3  -1   5 9516.80  404.66   1 0.40111-0.69351 0.67862-0.66053 0.61528-0.28763
  -3  -1   416845.39  548.15   1 0.44688-0.75743-0.29608 0.29598 0.84417-0.58196
   3   1  -415870.26  514.15   1 0.78265-0.47188 0.10718-0.10708 0.61316-0.87513
  -3  -1   417079.45  595.40   1 0.30977-0.62018 0.66274-0.66271 0.68176-0.41973
  -3  -1   329694.24  905.17   1 0.31380-0.64235-0.40154 0.38353 0.86040-0.66353
   3   1  -327103.29  825.16   1 0.66942-0.34071-0.06378 0.08182 0.74013-0.93659
  -3  -1   328587.79  902.07   1 0.19135-0.51988 0.63173-0.64968 0.75119-0.55463
  -3  -1   253463.50 1384.92   1 0.17395-0.52071-0.49405 0.45783 0.85185-0.72058
  -3  -1   252045.05 1382.88   1 0.04765-0.39426 0.57913-0.61509 0.81383-0.68279
  -3  -1   1 5167.70  239.73   1 0.03975-0.40463-0.56692 0.51279 0.82280-0.75717
   3   1  -1 5523.38  226.62   1 0.39580-0.03091-0.33861 0.39262 0.85362-0.91917
   3   1  -1 5672.63  259.05   1 0.11229 0.25254-0.50110 0.55508-0.85807 0.79252
  -3  -1   010317.62  411.53   1-0.08152-0.30152-0.62099 0.54896 0.77956-0.77956
   3   1   0 8845.51  346.28   1 0.27409 0.10882-0.40389 0.47583-0.87277 0.87277
  -3  -1  -1  190.19   77.61   1-0.18758-0.21385-0.65910 0.56916 0.72828-0.79392
   3   1   1  191.37   96.11   1 0.42229-0.02138-0.29566 0.38556-0.85688 0.92243
  -3  -1  -2  279.56   98.35   1-0.27917-0.14012-0.68444 0.57668 0.67349-0.80485
   3   1   2  192.78  105.00   1 0.54730-0.12855-0.18550 0.29349-0.81611 0.94727
  -3  -1  -3 3884.53  623.11   1-0.35857-0.07880-0.69972 0.57413 0.61791-0.81495
   3   1   3 3474.59  311.40   1 0.64603-0.20916-0.08169 0.20762-0.75892 0.95558
  -3  -1  -4 7288.93 1074.71   1-0.42788-0.02756-0.70732 0.56382 0.56268-0.82543
   3   1   4 6540.08  608.98   1 0.72092-0.26579 0.01241 0.13150-0.69290 0.95501
  -3  -1  -5 3902.49  260.76   1-0.48841 0.01485-0.70974 0.54837 0.50766-0.83610
   3   1   5 3465.89  255.86   1 0.77624-0.30303 0.09610 0.06580-0.62306 0.95070
   3   1   617958.17 1096.99   1 0.54038-0.04959 0.70833-0.52873-0.45413 0.84733
   3   1   613599.24  843.22   1 0.81594-0.32464 0.16986 0.01004-0.55261 0.94578
   3   1   7 3369.35  330.73   1 0.58775-0.07896 0.70291-0.50535-0.40056 0.85928
   3   1   7 2414.04  300.06   1 0.84345-0.33407 0.23489-0.03698-0.48312 0.94182
   3   1   8   28.41  116.80   1 0.63013-0.10331 0.69437-0.47886-0.34752 0.87178
   3   1   8  -28.12  107.63   1 0.86145-0.33415 0.29214-0.07639-0.41537 0.93941
   3   1   9   44.45  102.79   1 0.66817-0.12334 0.68307-0.44961-0.29487 0.88466
   3   1   9   51.44   97.61   1 0.87178-0.32640 0.34350-0.10977-0.34928 0.93883
   3   1  10  181.86  158.62   1 0.70239-0.13954 0.66923-0.41781-0.24242 0.89775
   3   1  10  150.41  109.09   1 0.87641-0.31349 0.38843-0.13683-0.28464 0.93967
  -3  -2  13  291.79  110.09   1 0.80202-0.96068 0.14513-0.05556 0.57938 0.27201
  -3  -2  13  532.18  200.82   1 0.55263-0.71059 0.68470-0.59442 0.47515 0.37645
  -3  -2  12 1273.27  178.49   1 0.80006-0.97674 0.14109-0.06948 0.58307 0.20283
  -3  -2  12  953.73  295.73   1 0.55131-0.72732 0.68478-0.61252 0.47657 0.30953
  -3  -2  11  -82.83   94.78   1 0.54469-0.73877 0.68515-0.63090 0.48359 0.23699
  -3  -2  10 1474.80  187.09   1 0.78365-0.99636 0.10905-0.07335 0.61154 0.04337
  -3  -2  10 1959.45  267.89   1 0.53168-0.74381 0.68568-0.64945 0.49714 0.15794
  -3  -2   9  188.73  126.40   1 0.76629-0.99701 0.07798-0.06024 0.63774-0.04830
  -3  -2   9  166.30  149.25   1 0.51070-0.74089 0.68602-0.66781 0.51821 0.07136
  -3  -2   8 2568.22  205.69   1 0.73960-0.98834 0.03446-0.03467 0.67215-0.14821
  -3  -2   8 2232.74  204.34   1 0.47982-0.72809 0.68522-0.68506 0.54794-0.02370
  -3  -2   7 4277.45  364.10   1 0.70025-0.96689-0.02298 0.00485 0.71352-0.25511
  -3  -2   7 4121.46  269.25   1 0.43599-0.70232 0.68240-0.70025 0.58671-0.12800
  -3  -2   610286.12  564.91   1 0.64400-0.92867-0.09524 0.05916 0.75906-0.36614
  -3  -2   6 9989.39  567.79   1 0.37605-0.66043 0.67513-0.71099 0.63464-0.24147
  -3  -2   514003.92  733.94   1 0.56840-0.87088-0.18106 0.12700 0.80257-0.47480
  -3  -2   513677.69 1034.76   1 0.29665-0.59904 0.65986-0.71380 0.69034-0.36279
  -3  -2   444791.43 1345.98   1 0.47151-0.79211-0.27442 0.20237 0.83807-0.57585
  -3  -2   444389.83 1375.39   1 0.19513-0.51566 0.63290-0.70482 0.74923-0.48715
  -3  -2   3  839.88  131.00   1 0.35772-0.69644-0.36844 0.27839 0.85807-0.66141
  -3  -2   3  926.02  179.71   1 0.07234-0.41095 0.58926-0.67918 0.80469-0.60813
  -3  -2   263463.54 1858.36   1 0.23487-0.59164-0.45548 0.34750 0.85869-0.72745
  -3  -2   136626.08 1130.29   1 0.11114-0.48602-0.52994 0.40375 0.84071-0.77508
   3   2  -135987.04 1124.77   1 0.21120 0.16365-0.44401 0.56993-0.87077 0.80523
  -3  -2   0 3829.35  314.63   1-0.00696-0.38611-0.58931 0.44525 0.80787-0.80787
   3   2   0 4105.35  345.42   1 0.35096 0.04202-0.35000 0.49387-0.86851 0.86851
  -3  -2  -1  534.11  109.84   1-0.11507-0.29612-0.63382 0.47183 0.76486-0.83046
   3   2   1  907.43  182.32   1 0.47582-0.06485-0.25083 0.41267-0.84301 0.90856
  -3  -2  -2 1377.33  196.38   1-0.21195-0.21766-0.66640 0.48652 0.71483-0.84611
   3   2   2 1066.82  152.05   1 0.58074-0.15195-0.15228 0.33221-0.79971 0.93088
  -3  -2  -3 3482.74  689.60   1-0.29774-0.14966-0.68855 0.49086 0.66123-0.85828
   3   2   3 3338.46  343.75   1 0.66469-0.21775-0.05976 0.25763-0.74471 0.94138
  -3  -2  -4 3653.03  609.72   1-0.37391-0.09156-0.70195 0.48642 0.60617-0.86890
   3   2   4 3472.80  387.73   1 0.72987-0.26469 0.02493 0.19093-0.68312 0.94523
  -3  -2  -5   -4.91   89.81   1-0.44177-0.04180-0.70828 0.47488 0.55061-0.87905
   3   2   5   32.68  127.98   1 0.77938-0.29612 0.10141 0.13244-0.61827 0.94592
  -3  -2  -6  338.96  145.10   1-0.50176 0.00008-0.70962 0.45836 0.49463-0.88876
   3   2   6  634.08  181.29   1 0.81599-0.31464 0.16997 0.08188-0.55249 0.94567
   3   2   7  647.48  216.27   1 0.55364-0.03482 0.70721-0.43777-0.43968 0.89841
   3   2   7  214.83  130.71   1 0.84217-0.32274 0.23142 0.03842-0.48700 0.94570
   3   2   8  152.68  105.85   1 0.60137-0.06453 0.70058-0.41318-0.38409 0.90835
   3   2   8  290.91  198.72   1 0.85994-0.32258 0.28634 0.00133-0.42250 0.94654
   3   2   9  225.82  116.03   1 0.64420-0.08934 0.69063-0.38528-0.32866 0.91846
   3   2   9  243.03  121.39   1 0.87067-0.31524 0.33625-0.03059-0.35897 0.94851
  -3  -3  13  117.36   86.26   1 0.79234-0.96104 0.12565-0.10801 0.59698 0.25441
  -3  -3  13  118.96   99.12   1 0.50185-0.66986 0.68599-0.66768 0.52684 0.32477
  -3  -3  12  177.08  114.37   1 0.78905-0.97576 0.11926-0.11957 0.60263 0.18327
  -3  -3  12   53.69   93.53   1 0.49632-0.68242 0.68568-0.68544 0.53245 0.25390
  -3  -3  11  898.29  212.80   1 0.78187-0.98660 0.10574-0.12401 0.61440 0.10601
  -3  -3  11  892.10  217.39   1 0.48445-0.68860 0.68538-0.70315 0.54364 0.17717
  -3  -3  10  154.29   86.21   1 0.76975-0.99250 0.08399-0.12022 0.63278 0.02214
  -3  -3  10  249.41  143.66   1 0.46505-0.68726 0.68452-0.72030 0.56137 0.09391
  -3  -3   9 2997.89  312.78   1 0.75114-0.99189 0.05273-0.10691 0.65803-0.06859
  -3  -3   9 2478.32  267.26   1 0.43645-0.67670 0.68244-0.73624 0.58632 0.00344
  -3  -3   813984.86 1200.36   1 0.72400-0.98266 0.01084-0.08294 0.68970-0.16580
  -3  -3   813966.62 1202.01   1 0.39649-0.65480 0.67803-0.74983 0.61892-0.09468
  -3  -3   7 3595.64  374.75   1 0.68546-0.96214-0.04294-0.04711 0.72683-0.26842
  -3  -3   7 4056.78  498.23   1 0.34283-0.61912 0.66933-0.75924 0.65913-0.20056
  -3  -3   6 5719.06  458.81   1 0.63359-0.92798-0.10904 0.00097 0.76594-0.37260
  -3  -3   6 6576.07  662.80   1 0.27271-0.56708 0.65421-0.76212 0.70542-0.31237
  -3  -3   5 1049.22  145.38   1 0.56466-0.87716-0.18495 0.05890 0.80433-0.47655
  -3  -3   5  955.37  148.16   1 0.18434-0.49686 0.62952-0.75540 0.75479-0.42719
  -3  -3   4 1633.86  169.37   1 0.47899-0.80961-0.26770 0.12368 0.83600-0.57378
  -3  -3   4 2200.03  357.90   1 0.07817-0.40877 0.59159-0.73546 0.80243-0.54036
  -3  -3   3  321.46  133.44   1 0.37873-0.72750-0.35217 0.19015 0.85588-0.65922
  -3  -3   3  280.43  110.92   1-0.04274-0.30593 0.53827-0.70015 0.84168-0.64512
  -3  -3   2 3246.75  280.59   1 0.26912-0.63594-0.43277 0.25281 0.86039-0.72915
   3   3  -2 2624.86  229.04   1 0.17079 0.19604-0.46824 0.64814-0.86693 0.73584
  -3  -3   141391.82 1272.74   1 0.15569-0.54058-0.50481 0.30657 0.84906-0.78343
   3   3  -140347.73 1247.47   1 0.29919 0.08579-0.38687 0.58474-0.87224 0.80666
  -3  -3   0 9547.39  539.77   1 0.04359-0.44659-0.56504 0.34889 0.82390-0.82390
   3   3   0 9893.16  585.16   1 0.41903-0.01601-0.29829 0.51411-0.85757 0.85757
  -3  -3  -1 5657.48  406.60   1-0.06258-0.35864-0.61335 0.37933 0.78732-0.85292
   3   3   1 4917.06  372.98   1 0.52440-0.10360-0.20726 0.44112-0.82586 0.89144
  -3  -3  -2 2705.90  408.39   1-0.16064-0.27908-0.65045 0.39856 0.74236-0.87364
   3   3   2 3037.01  328.63   1 0.61286-0.17404-0.11853 0.37042-0.78124 0.91241
  -3  -3  -3 3244.10  562.91   1-0.24982-0.20797-0.67673 0.40692 0.69254-0.88946
   3   3   3 4185.22  450.23   1 0.68462-0.22762-0.03531 0.30513-0.72803 0.92470
  -3  -3  -4 9263.58 1030.08   1-0.32998-0.14552-0.69492 0.40729 0.63889-0.90162
   3   3   4 9476.36  408.26   1 0.74136-0.26613 0.04150 0.24631-0.66982 0.93193
  -3  -3  -5 3026.16  515.24   1-0.40229-0.09128-0.70541 0.39995 0.58356-0.91197
   3   3   5 3676.52  281.50   1 0.78537-0.29205 0.11172 0.19408-0.60885 0.93650
  -3  -3  -6  611.79  204.04   1-0.46765-0.04404-0.70943 0.38615 0.52725-0.92138
   3   3   6  210.09  138.63   1 0.81862-0.30722 0.17552 0.14827-0.54684 0.94001
   3   3   7  471.53  235.22   1 0.84293-0.31344 0.23348 0.10831-0.48470 0.94340
   3   3   8  466.94  204.70   1 0.57652-0.02965 0.70456-0.34528-0.41376 0.93803
   3   3   8  324.24  127.76   1 0.85982-0.31240 0.28589 0.07370-0.42304 0.94708
   3   3   9  458.27  164.36   1 0.62346-0.05857 0.69597-0.31874-0.35623 0.94602
   3   3   9  134.82  127.20   1 0.87031-0.30483 0.33406 0.04351-0.36186 0.95140
  -3  -4  13  497.07  184.30   1 0.78047-0.95920 0.10317-0.15746 0.61661 0.23479
  -3  -4  13  345.22  157.61   1 0.44189-0.61997 0.68291-0.73662 0.58168 0.27019
  -3  -4  12  898.46  292.13   1 0.77580-0.97255 0.09469-0.16694 0.62382 0.16208
  -3  -4  12  713.76  233.87   1 0.43128-0.62741 0.68197-0.75369 0.59068 0.19566
  -3  -4  11 2037.57  243.39   1 0.76715-0.98192 0.07948-0.16968 0.63651 0.08390
  -3  -4  11 1134.61  250.10   1 0.41349-0.62768 0.68011-0.76985 0.60536 0.11546
  -3  -4  1011118.47  784.93   1 0.75354-0.98632 0.05664-0.16480 0.65494-0.00002
  -3  -4  1010737.14  758.78   1 0.38718-0.61942 0.67676-0.78451 0.62616 0.02913
  -3  -4   9 4394.17  367.91   1 0.73360-0.98440 0.02524-0.15136 0.67910-0.08966
  -3  -4   9 4223.71  413.46   1 0.35085-0.60104 0.67078-0.79666 0.65341-0.06383
  -3  -4   811298.70  409.68   1 0.70570-0.97439-0.01542-0.12860 0.70834-0.18444
  -3  -4   8 9995.77  610.21   1 0.30228-0.57054 0.66111-0.80500 0.68669-0.16261
  -3  -4   7 7998.81  718.13   1 0.66754-0.95425-0.06617-0.09581 0.74162-0.28321
  -3  -4   7 6749.03 1134.39   1 0.23984-0.52619 0.64567-0.80756 0.72496-0.26640
  -3  -4   6 4419.97  382.53   1 0.61801-0.92243-0.12707-0.05297 0.77582-0.38249
  -3  -4   6 3616.42  586.49   1 0.16207-0.46658 0.62227-0.80210 0.76583-0.37271
  -3  -4   5 5956.85  480.48   1 0.55397-0.87650-0.19590-0.00211 0.80915-0.48138
  -3  -4   5 5777.92  730.49   1 0.06938-0.39197 0.58807-0.78590 0.80582-0.47822
  -3  -4   415879.92  844.32   1 0.47594-0.81659-0.27045 0.05445 0.83685-0.57463
  -3  -4   416850.96  894.82   1-0.03631-0.30435 0.54138-0.75721 0.83999-0.57791
  -3  -4   336437.75 1809.70   1 0.38530-0.74413-0.34699 0.11299 0.85506-0.65840
   3   4  -334382.23 1707.83   1 0.14926 0.20955-0.48063 0.71452-0.86412 0.66749
  -3  -4   224342.27 1241.16   1 0.28586-0.66273-0.42128 0.16934 0.86069-0.72945
   3   4  -223886.64 1216.52   1 0.26547 0.11152-0.40961 0.66148-0.87277 0.74162
  -3  -4   111759.52  646.95   1 0.18143-0.57632-0.48956 0.21927 0.85288-0.78724
   3   4  -111400.55  647.27   1 0.37748 0.01757-0.33079 0.60058-0.86491 0.79936
  -3  -4   0 6249.82  491.80   1 0.07584-0.48886-0.54873 0.26052 0.83255-0.83255
   3   4   0 7059.69  546.40   1 0.47935-0.06628-0.24775 0.53551-0.84192 0.84192
  -3  -4  -1 1052.37  189.50   1-0.02661-0.40463-0.59808 0.29203 0.80099-0.86659
   3   4   1 1175.05  193.49   1 0.56851-0.13768-0.16464 0.47046-0.80602 0.87161
  -3  -4  -2 1389.55  159.89   1-0.12353-0.32631-0.63757 0.31366 0.76041-0.89170
   3   4   2 1317.92  191.11   1 0.64352-0.19454-0.08459 0.40836-0.76073 0.89184
  -3  -4  -3  108.88   70.75   1-0.21355-0.25436-0.66686 0.32503 0.71392-0.91085
   3   4   3  267.80  141.44   1 0.70509-0.23803-0.00895 0.35072-0.70905 0.90572
  -3  -4  -4 1691.22  367.94   1-0.29578-0.18974-0.68813 0.32839 0.66255-0.92528
   3   4   4 2331.56  327.91   1 0.75443-0.26915 0.06114 0.29861-0.65351 0.91563
  -3  -4  -5 2316.16  451.64   1-0.37114-0.13246-0.70156 0.32399 0.60832-0.93673
   3   4   5 3110.77  785.04   1 0.79331-0.28994 0.12587 0.25188-0.59566 0.92330
  -3  -4  -6  247.57  122.92   1-0.44002-0.08169-0.70817 0.31286 0.55215-0.94627
   3   4   6  510.95  203.58   1 0.82315-0.30169 0.18533 0.21041-0.53672 0.92989
  -3  -4  -7  182.10   95.40   1-0.50191-0.03790-0.70962 0.29644 0.49448-0.95429
   3   4   7   56.77  117.16   1 0.84528-0.30573 0.23994 0.17380-0.47741 0.93611
   3   4   8  212.55  118.31   1 0.55611 0.00078 0.70697-0.27580-0.43695 0.96121
   3   4   8  365.67  193.98   1 0.86086-0.30339 0.28982 0.14169-0.41823 0.94227
  -3  -5  13  328.41  131.10   1 0.76645-0.95521 0.07826-0.20447 0.63751 0.21388
  -3  -5  13  222.43  102.93   1 0.37204-0.56016 0.67451-0.80020 0.63765 0.21422
  -3  -5  12  557.06  198.95   1 0.76037-0.96716 0.06795-0.21212 0.64591 0.13999
  -3  -5  12  660.46  205.59   1 0.35628-0.56228 0.67172-0.81557 0.64949 0.13661
  -3  -5  11 1084.41  249.10   1 0.75024-0.97504 0.05128-0.21341 0.65917 0.06124
  -3  -5  11  396.17  189.04   1 0.33226-0.55634 0.66733-0.82918 0.66653 0.05407
  -3  -5  10 9041.11  573.06   1 0.73513-0.97794 0.02756-0.20765 0.67736-0.02243
  -3  -5  10 6878.00 1129.28   1 0.29899-0.54116 0.66038-0.84024 0.68883-0.03373
  -3  -5   912171.04  867.76   1 0.71397-0.97467-0.00372-0.19426 0.70016-0.11077
  -3  -5   911184.93  955.35   1 0.25509-0.51533 0.64974-0.84760 0.71606-0.12648
  -3  -5   8 9423.92  388.54   1 0.68508-0.96380-0.04345-0.17249 0.72716-0.20326
  -3  -5   8 7967.68  857.58   1 0.19900-0.47743 0.63409-0.84988 0.74720-0.22304
  -3  -5   7 9260.67  373.85   1 0.64697-0.94372-0.09166-0.14225 0.75698-0.29856
  -3  -5   7 8244.04 1098.29   1 0.13032-0.42682 0.61128-0.84507 0.78060-0.32197
  -3  -5   6 7839.92  712.84   1 0.59898-0.91343-0.14836-0.10365 0.78689-0.39356
  -3  -5   6 7497.81  736.52   1 0.04883-0.36342 0.57963-0.83142 0.81341-0.42029
  -3  -5   5  189.68  102.46   1 0.53834-0.87091-0.21157-0.05841 0.81573-0.48795
  -3  -5   5  309.97  111.52   1-0.04395-0.28871 0.53769-0.80749 0.84199-0.51439
  -3  -5   4 5076.91  421.54   1 0.46575-0.81643-0.27955-0.00842 0.83959-0.57737
   3   5  -4 5850.55  474.72   1 0.14343 0.20737-0.48393 0.77180-0.86327 0.60109
  -3  -5   330686.27 2114.83   1 0.38217-0.75105-0.34946 0.04348 0.85546-0.65880
   3   5  -331755.27 2185.10   1 0.24769 0.12130-0.42121 0.72707-0.87248 0.67575
  -3  -5   2 5913.47  496.18   1 0.29058-0.67750-0.41799 0.09407 0.86071-0.72947
   3   5  -2 6016.31  496.93   1 0.35016 0.03690-0.35059 0.67439-0.86859 0.73744
  -3  -5   1 2250.41  288.80   1 0.19302-0.59811-0.48186 0.13995 0.85471-0.78909
   3   5  -1 2021.45  275.41   1 0.44674-0.04162-0.27559 0.61732-0.85115 0.78560
  -3  -5   0 1166.25  178.74   1 0.09419-0.51721-0.53908 0.17883 0.83696-0.83696
   3   5   0 1444.08  224.31   1 0.53351-0.11067-0.19870 0.55844-0.82212 0.82212
  -3  -5  -1  327.41  101.78   1-0.00397-0.43729-0.58795 0.20987 0.80888-0.87448
   3   5   1  550.43  203.37   1 0.60893-0.16807-0.12276 0.50053-0.78366 0.84924
  -3  -5  -2   88.41   94.20   1-0.09862-0.36077-0.62764 0.23163 0.77222-0.90343
   3   5   2  241.19  144.43   1 0.67275-0.21371-0.05000 0.44572-0.73817 0.86928
  -3  -5  -3  158.60   75.87   1-0.18795-0.29007-0.65921 0.24536 0.72808-0.92501
   3   5   3  548.95  222.69   1 0.72551-0.24826 0.01879 0.39492-0.68794 0.88453
  -3  -5  -4  114.73   82.14   1-0.27077-0.22477-0.68248 0.25062 0.67889-0.94162
   3   5   4  702.12  194.89   1 0.76840-0.27307 0.08319 0.34851-0.63452 0.89664
  -3  -5  -5  411.14  191.58   1-0.34779-0.16583-0.69800 0.24833 0.62595-0.95437
   3   5   5  286.45  169.78   1 0.80252-0.28910 0.14305 0.30664-0.57921 0.90685
  -3  -5  -6  428.63  181.13   1-0.41897-0.11276-0.70658 0.23924 0.57025-0.96438
   3   5   6   62.62  124.75   1 0.82898-0.29747 0.19855 0.26914-0.52283 0.91600
  -3  -5  -7  258.11  130.10   1-0.48347-0.06636-0.70972 0.22451 0.51239-0.97220
   3   5   7  322.21  155.71   1 0.84882-0.29937 0.24967 0.23580-0.46600 0.92453
   3   5   8  348.15  135.49   1 0.54043 0.02648 0.70833-0.20527-0.45408 0.97834
   3   5   8  324.16  192.17   1 0.86276-0.29524 0.29738 0.20606-0.40889 0.93293
  -3  -6  13  571.52  171.20   1 0.75028-0.94909 0.05135-0.24950 0.65911 0.19229
  -3  -6  13  318.72  165.71   1 0.29266-0.49064 0.65895-0.85678 0.69290 0.15871
  -3  -6  12  683.38  243.80   1 0.74280-0.95962 0.03944-0.25555 0.66834 0.11756
  -3  -6  12  240.57  129.92   1 0.27112-0.48719 0.65382-0.86964 0.70639 0.07971
  -3  -6  11 1606.94  327.88   1 0.73117-0.96600 0.02155-0.25561 0.68185 0.03856
  -3  -6  11 1096.81  379.53   1 0.24110-0.47524 0.64602-0.87984 0.72424-0.00363
  -3  -6  10  881.46  226.52   1 0.71469-0.96740-0.00269-0.24926 0.69943-0.04455
  -3  -6  10  590.95  208.83   1 0.20130-0.45364 0.63479-0.88654 0.74599-0.09079
  -3  -6   9 2689.02  326.20   1 0.69210-0.96283-0.03408-0.23584 0.72099-0.13160
  -3  -6   9 2912.56  536.19   1 0.15134-0.42176 0.61864-0.88839 0.77095-0.18127
  -3  -6   8 2065.36  271.88   1 0.66231-0.95107-0.07277-0.21511 0.74568-0.22178
  -3  -6   8 1021.81  158.46   1 0.09037-0.37887 0.59637-0.88413 0.79760-0.27344
  -3  -6   7  407.27  156.33   1 0.62494-0.93130-0.11912-0.18688 0.77152-0.31264
  -3  -6   7  200.35   91.18   1 0.01848-0.32506 0.56659-0.87235 0.82378-0.36514
  -3  -6   6 6582.67  338.82   1 0.57709-0.90156-0.17195-0.15203 0.79837-0.40503
  -3  -6   5  224.32  105.33   1 0.51890-0.86149-0.23053-0.11143 0.82316-0.49538
   3   6  -5  184.04  155.23   1 0.15069 0.19208-0.47982 0.82167-0.86432 0.53660
  -3  -6   412582.93 1093.22   1 0.45018-0.81101-0.29322-0.06676 0.84341-0.58120
   3   6  -412038.39 1040.61   1 0.24371 0.11727-0.42377 0.78362-0.87236 0.61005
  -3  -6   3 6938.28  639.49   1 0.37206-0.75099-0.35739-0.02056 0.85664-0.65998
   3   6  -3 8015.30  729.78   1 0.33663 0.04244-0.36046 0.73825-0.86991 0.67318
  -3  -6   2 6980.16  652.27   1 0.28660-0.68357-0.42077 0.02486 0.86070-0.72945
   3   6  -2 6217.32  588.76   1 0.42621-0.02903-0.29249 0.68821-0.85603 0.72492
  -3  -6   1 3118.84  245.99   1 0.19517-0.61031-0.48054 0.06665 0.85497-0.78935
   3   6  -1 3780.76  389.91   1 0.50857-0.09373-0.22185 0.63553-0.83194 0.76636
  -3  -6   0 2728.25  266.74   1 0.10181-0.53483-0.53500 0.10270 0.83869-0.83869
   3   6   0 2265.78  248.31   1 0.58214-0.14927-0.15085 0.58254-0.79897 0.79897
  -3  -6  -1 2113.99  244.34   1 0.00791-0.45920-0.58247 0.13236 0.81280-0.87841
   3   6   1 2562.74  309.92   1 0.64610-0.19508-0.08161 0.53128-0.75886 0.82442
  -3  -6  -2 1511.20  222.04   1-0.08389-0.38552-0.62192 0.15388 0.77856-0.90977
   3   6   2 1813.26  269.68   1 0.70044-0.23133-0.01506 0.48273-0.71354 0.84465
  -3  -6  -3 3316.53  927.06   1-0.17173-0.31640-0.65408 0.16822 0.73666-0.93359
   3   6   3 4264.84  432.36   1 0.74568-0.25838 0.04789 0.43776-0.66457 0.86116
  -3  -6  -4 1157.47  268.71   1-0.25477-0.25142-0.67799 0.17421 0.68949-0.95206
   3   6   4  611.29  229.84   1 0.78275-0.27737 0.10718 0.39647-0.61302 0.87514
  -3  -6  -5  462.14  191.22   1-0.33184-0.19180-0.69526 0.17347 0.63756-0.96597
   3   6   5  383.45  199.36   1 0.81247-0.28899 0.16269 0.35896-0.55984 0.88748
  -3  -6  -6  223.46  111.96   1-0.40379-0.13793-0.70557 0.16596 0.58234-0.97643
   3   6   6  382.18  162.07   1 0.83564-0.29408 0.21456 0.32508-0.50562 0.89879
  -3  -6  -7  841.52  176.98   1-0.47063-0.08922-0.70951 0.15228 0.52448-0.98430
   3   6   7  388.31  145.69   1 0.85307-0.29356 0.26269 0.29470-0.45084 0.90937
  -3  -7  13  331.40  163.33   1 0.73199-0.94083 0.02279-0.29287 0.68093 0.17047
  -3  -7  13  343.81  144.82   1 0.20334-0.41151 0.63541-0.90511 0.74491 0.10684
  -3  -7  12  209.97  150.89   1 0.72321-0.94991 0.00967-0.29764 0.69056 0.09528
  -3  -7  12  144.53   88.60   1 0.17672-0.40296 0.62708-0.91479 0.75863 0.02760
  -3  -7  11  405.75  213.91   1 0.71010-0.95483-0.00922-0.29670 0.70403 0.01632
  -3  -7  11  132.51   62.36   1 0.14148-0.38581 0.61523-0.92094 0.77554-0.05482
  -3  -7  10  467.78  221.18   1 0.69206-0.95481-0.03413-0.28975 0.72102-0.06615
  -3  -7  10  335.71  153.93   1 0.09702-0.35943 0.59894-0.92265 0.79489-0.13969
  -3  -7   9 1560.30  330.38   1 0.66818-0.94896-0.06535-0.27649 0.74111-0.15172
  -3  -7   9 1421.61  361.57   1 0.04300-0.32349 0.57717-0.91889 0.81548-0.22580
  -3  -7   8 2447.83  310.69   1 0.63749-0.93629-0.10303-0.25678 0.76353-0.23963
  -3  -7   8 1803.24  215.96   1-0.02041-0.27815 0.54892-0.90863 0.83562-0.31146
  -3  -7   711972.62  857.14   1 0.59987-0.91627-0.14738-0.23061 0.78639-0.32751
   3   7  -710381.21  735.06   1 0.09075 0.22597-0.51255 0.89043-0.85384 0.39503
  -3  -7   6 1990.38  251.84   1 0.55268-0.88719-0.19721-0.19875 0.80971-0.41638
   3   7  -6 2616.46  289.80   1 0.16907 0.16569-0.46924 0.86508-0.86673 0.47346
  -3  -7   520429.55 1220.96   1 0.49630-0.84892-0.25185-0.16209 0.83081-0.50303
   3   7  -520813.36 1219.96   1 0.25168 0.10131-0.41863 0.83248-0.87258 0.54470
  -3  -7   4 8844.48  388.81   1 0.43061-0.80148-0.30996-0.12200 0.84764-0.58543
   3   7  -4 8416.11  369.69   1 0.33514 0.03593-0.36153 0.79332-0.87004 0.60773
  -3  -7   3 2768.66  263.65   1 0.35659-0.74558-0.36930-0.08063 0.85816-0.66151
   3   7  -3 1724.72  236.85   1 0.41705-0.02783-0.29988 0.74957-0.85798 0.66132
  -3  -7   2 2250.94  273.86   1 0.27599-0.68301-0.42808-0.03979 0.86056-0.72931
   3   7  -2 1761.57  225.85   1 0.49368-0.08645-0.23510 0.70276-0.83725 0.70615
  -3  -7   1  971.02  185.55   1 0.18961-0.61479-0.48395-0.00192 0.85430-0.78868
   3   7  -1  759.06  219.84   1 0.56380-0.13893-0.16933 0.65496-0.80835 0.74277
  -3  -7   0 2098.87  273.90   1 0.10097-0.54400-0.53545 0.03109 0.83850-0.83850
   3   7   0 1833.91  300.46   1 0.62617-0.18316-0.10414 0.60777-0.77269 0.77269
  -3  -7  -1 3711.15  349.40   1 0.01106-0.47238-0.58100 0.05886 0.81382-0.87942
   3   7   1 2942.35  358.78   1 0.68032-0.21923-0.04068 0.56230-0.73178 0.79733
  -3  -7  -2 6314.28  423.49   1-0.07778-0.40166-0.61950 0.07943 0.78112-0.91233
   3   7   2 6125.12  473.55   1 0.72648-0.24721 0.02014 0.51946-0.68688 0.81794
  -3  -7  -3 2240.70  485.81   1-0.16371-0.33453-0.65147 0.09358 0.74079-0.93772
   3   7   3 3495.82  333.83   1 0.76520-0.26785 0.07803 0.47957-0.63903 0.83562
  -3  -7  -4  816.28  261.39   1-0.24585-0.27046-0.67571 0.09990 0.69496-0.95753
   3   7   4 1321.41  238.29   1 0.79706-0.28162 0.13277 0.44283-0.58911 0.85122
  -3  -7  -5  213.75  148.14   1-0.32279-0.21088-0.69359 0.09969 0.64400-0.97241
   3   7   5  396.38  211.60   1 0.82270-0.28917 0.18435 0.40924-0.53774 0.86538
  -3  -7  -6  322.62  116.08   1-0.39534-0.15640-0.70464 0.09292 0.58921-0.98331
   3   7   6  377.02  147.61   1 0.84271-0.29110 0.23288 0.37870-0.48537 0.87854
  -3  -8  12  590.88  136.10   1 0.70137-0.93811-0.02143-0.33846 0.71246 0.07338
  -3  -8  12  268.31   80.71   1 0.07520-0.31152 0.59040-0.95007 0.80359-0.01735
  -3  -8  11  377.39  163.27   1 0.68683-0.94158-0.04113-0.33672 0.72565-0.00529
  -3  -8  11  134.52   70.14   1 0.03611-0.29051 0.57425-0.95192 0.81788-0.09716
  -3  -8  10  772.56  232.19   1 0.66738-0.94016-0.06637-0.32944 0.74174-0.08687
  -3  -8  10 1323.97  186.68   1-0.01139-0.26109 0.55312-0.94879 0.83302-0.17782
  -3  -8   9 4737.73  378.55   1 0.64228-0.93308-0.09732-0.31646 0.76026-0.17087
  -3  -8   8 5920.45  444.12   1 0.61161-0.91991-0.13432-0.29766 0.77967-0.25522
   3   8  -8 5672.51  398.75   1 0.12831 0.18040-0.49236 0.92423-0.86088 0.33652
  -3  -8   7 4796.15  393.88   1 0.57276-0.89918-0.17651-0.27345 0.80049-0.34160
   3   8  -7 5997.90  406.79   1 0.19709 0.12965-0.45261 0.90243-0.86965 0.41084
  -3  -8   618117.44 1230.99   1 0.52599-0.87053-0.22368-0.24425 0.82054-0.42721
   3   8  -615645.12 1063.34   1 0.27005 0.07494-0.40658 0.87442-0.87278 0.47933
  -3  -8   5 5549.47  482.88   1 0.47096-0.83361-0.27491-0.21101 0.83821-0.51044
   3   8  -5 5419.10  440.36   1 0.34438 0.01868-0.35482 0.84061-0.86919 0.54130
  -3  -8   417011.88 1167.56   1 0.40760-0.78853-0.32905-0.17488 0.85181-0.58960
   3   8  -415972.26 1087.01   1 0.41837-0.03710-0.29882 0.80249-0.85770 0.59550
  -3  -8   3  351.29  162.37   1 0.33682-0.73586-0.38417-0.13773 0.85962-0.66296
   3   8  -3  425.15  164.37   1 0.48862-0.08935-0.23960 0.76123-0.83894 0.64229
  -3  -8   2  160.20  132.26   1 0.26011-0.67718-0.43884-0.10101 0.86008-0.72884
   3   8  -2  598.90  178.65   1 0.55405-0.13717-0.17894 0.71850-0.81302 0.68185
  -3  -8   1 1882.18  263.65   1 0.17854-0.61346-0.49130-0.06719 0.85249-0.78685
   3   8  -1 2518.51  330.25   1 0.61335-0.17845-0.11800 0.67558-0.78094 0.71536
  -3  -8   0 7503.94  502.96   1 0.09329-0.54633-0.53956-0.03684 0.83675-0.83675
   3   8   0 7805.78  537.90   1 0.66602-0.21295-0.05816 0.63373-0.74365 0.74365
  -3  -8  -1 6019.06  404.55   1 0.00698-0.47832-0.58290-0.01126 0.81250-0.87810
   3   8   1 7848.49  493.98   1 0.71179-0.24064-0.00002 0.59359-0.70239 0.76794
  -3  -8  -2 7219.33  361.99   1-0.07898-0.41048-0.61998 0.00788 0.78062-0.91183
   3   8   2 6871.24  514.09   1 0.75092-0.26160 0.05577 0.55578-0.65803 0.78908
  -3  -8  -3  785.04  297.59   1-0.16284-0.34552-0.65118 0.02127 0.74124-0.93816
   3   8   3  907.06  291.26   1 0.78384-0.27644 0.10907 0.52048-0.61129 0.80788
  -3  -8  -4  327.46  170.69   1-0.24372-0.28270-0.67515 0.02733 0.69624-0.95881
   3   8   4  -39.54  127.29   1 0.81100-0.28551 0.15972 0.48783-0.56281 0.82492
  -3  -8  -5  116.42   57.76   1-0.32010-0.22359-0.69307 0.02707 0.64589-0.97430
   3   8   5  154.74  130.24   1 0.83285-0.28927 0.20773 0.45781-0.51302 0.84066
  -3  -9  11  812.97  174.57   1 0.66147-0.92626-0.07381-0.37597 0.74632-0.02596
  -3  -9  10  204.61  117.01   1 0.64068-0.92350-0.09923-0.36851 0.76136-0.10649
   3   9 -10  267.59  141.14   1 0.11920 0.16345-0.49735 0.96525-0.85931 0.20387
  -3  -9   9   67.60  109.65   1 0.61532-0.91554-0.13013-0.35585 0.77745-0.18746
   3   9  -9   58.87   76.21   1 0.17379 0.12690-0.46648 0.95233-0.86728 0.27738
  -3  -9   8  192.95  113.21   1 0.58288-0.90121-0.16580-0.33816 0.79545-0.27101
   3   9  -8  155.39  121.07   1 0.23400 0.08491-0.42997 0.93387-0.87198 0.34737
  -3  -9   7  231.83  128.08   1 0.54364-0.88009-0.20630-0.31564 0.81356-0.35467
   3   9  -7  347.41  184.98   1 0.29767 0.03932-0.38792 0.90976-0.87229 0.41326
  -3  -9   6  551.73  173.90   1 0.49714-0.85170-0.25107-0.28884 0.83054-0.43721
   3   9  -6  570.00  174.58   1 0.36323-0.00815-0.34090 0.88068-0.86708 0.47363
  -3  -9   5 1906.40  384.36   1 0.44296-0.81584-0.29945-0.25849 0.84504-0.51728
   3   9  -5 2980.13  287.28   1 0.42927-0.05595-0.29000 0.84765-0.85534 0.52759
  -3  -9   4 4926.20  376.04   1 0.38160-0.77258-0.34991-0.22599 0.85553-0.59332
   3   9  -4 4438.25  355.52   1 0.49272-0.10139-0.23596 0.81157-0.83758 0.57537
  -3  -9   3 8914.47  566.82   1 0.31401-0.72296-0.40138-0.19246 0.86039-0.66352
   3   9  -3 8034.12  520.10   1 0.55267-0.14379-0.18029 0.77378-0.81366 0.61691
  -3  -9   2 2538.91  265.50   1 0.23985-0.66697-0.45225-0.15959 0.85903-0.72778
   3   9  -2 2349.01  265.59   1 0.60796-0.18105-0.12381 0.73531-0.78425 0.65308
  -3  -9   1 1057.32  257.74   1 0.16171-0.60664-0.50129-0.12925 0.85002-0.78439
   3   9  -1  504.90  163.51   1 0.65797-0.21291-0.06777 0.69729-0.74998 0.68443
  -3  -9   0 1956.17  255.84   1 0.07991-0.54295-0.54661-0.10184 0.83356-0.83356
   3   9   0 1254.19  194.67   1 0.70215-0.23902-0.01282 0.66034-0.71190 0.71190
  -3  -9  -1 1233.22  217.26   1-0.00320-0.47816-0.58760-0.07859 0.80914-0.87474
   3   9   1 1335.09  229.58   1 0.74063-0.25935 0.04044 0.62507-0.67068 0.73621
  -3  -9  -2   79.99   88.91   1-0.08649-0.41300-0.62294-0.06118 0.77746-0.90867
   3   9   2  592.56  254.38   1 0.77362-0.27425 0.09174 0.59176-0.62696 0.75802
  -3  -9  -3  246.77  124.12   1-0.16826-0.35021-0.65296-0.04896 0.73846-0.93538
   3   9   3  541.07  194.97   1 0.80139-0.28393 0.14090 0.56060-0.58129 0.77788
  -3 -10  10 1343.64  249.96   1 0.61288-0.90501-0.13289-0.40709 0.77891-0.12336
   3  10 -10 1183.72  182.39   1 0.22687 0.06580-0.43426 0.97410-0.87174 0.21630
  -3 -10   9  232.54  151.47   1 0.58548-0.89573-0.16301-0.39494 0.79412-0.20412
   3  10  -9  405.45  170.62   1 0.27869 0.03222-0.40081 0.95870-0.87274 0.28255
  -3 -10   8   65.09  112.97   1 0.55221-0.88058-0.19768-0.37825 0.80992-0.28548
   3  10  -8   73.81   79.48   1 0.33373-0.00473-0.36255 0.93838-0.87015 0.34554
  -3 -10   7 3495.01  354.96   1 0.51257-0.85905-0.23658-0.35733 0.82540-0.36652
   3  10  -7 3223.32  290.82   1 0.39143-0.04407-0.32008 0.91374-0.86274 0.40388
  -3 -10   6 6622.31  475.48   1 0.46620-0.83080-0.27915-0.33274 0.83948-0.44614
   3  10  -6 6320.04  452.66   1 0.44894-0.08357-0.27375 0.88538-0.85059 0.45728
  -3 -10   5 1678.37  219.35   1 0.41279-0.79572-0.32479-0.30512 0.85094-0.52317
   3  10  -5 1488.80  191.80   1 0.50534-0.12196-0.22462 0.85421-0.83316 0.50541
  -3 -10   4 2926.80  283.16   1 0.35288-0.75392-0.37212-0.27577 0.85848-0.59627
   3  10  -4 2972.91  295.97   1 0.55931-0.15842-0.17378 0.82120-0.81053 0.54820
  -3 -10   3 1599.57  220.11   1 0.28738-0.70639-0.42022-0.24560 0.86070-0.66384
   3  10  -3 1149.13  175.59   1 0.60984-0.19093-0.12178 0.78722-0.78310 0.58635
  -3 -10   2  181.88  134.35   1 0.21579-0.65296-0.46770-0.21612 0.85713-0.72589
   3  10  -2  372.18  152.31   1 0.65630-0.21926-0.06973 0.75321-0.75126 0.62015
  -3 -10   1   94.72   95.93   1 0.14051-0.59544-0.51355-0.18903 0.84647-0.78083
   3  10  -1  323.14  132.68   1 0.69795-0.24284-0.01830 0.71977-0.71590 0.65035
  -3 -10   0  188.61  131.23   1 0.06164-0.53469-0.55601-0.16449 0.82888-0.82888
   3  10   0  302.93  130.38   1 0.73484-0.26159 0.03202 0.68745-0.67748 0.67748
  -3 -10  -1  162.40  105.76   1-0.01867-0.47271-0.59457-0.14365 0.80382-0.86942
   3  10   1  427.01  177.35   1 0.76697-0.27564 0.08088 0.65658-0.63655 0.70208
  -3 -10  -2  161.45  103.06   1-0.09952-0.40999-0.62798-0.12817 0.77183-0.90303
   3  10   2   25.21  123.13   1 0.79451-0.28509 0.12807 0.62738-0.59358 0.72464
  -3 -11   9  537.58  145.18   1 0.55367-0.87395-0.19621-0.43373 0.80928-0.21929
  -3 -11   8  956.35  232.10   1 0.51959-0.85799-0.22986-0.41805 0.82290-0.29846
   3  11  -8 1321.23  191.24   1 0.42713-0.08772-0.29175 0.93939-0.85582 0.33141
  -3 -11   7  732.82  172.62   1 0.47952-0.83603-0.26722-0.39867 0.83585-0.37696
   3  11  -7  886.84  179.27   1 0.47673-0.11932-0.25003 0.91564-0.84273 0.38387
  -3 -11   6 5685.32  618.08   1 0.43299-0.80787-0.30794-0.37598 0.84716-0.45384
   3  11  -6 5488.14  587.05   1 0.52583-0.15097-0.20591 0.88925-0.82528 0.43178
  -3 -11   5 4290.87  493.43   1 0.38037-0.77336-0.35088-0.35101 0.85568-0.52791
   3  11  -5 4229.71  476.76   1 0.57355-0.18066-0.15958 0.86093-0.80347 0.47556
  -3 -11   4  481.80  193.88   1 0.32231-0.73320-0.39537-0.32444 0.86011-0.59762
  -3 -11   3 1314.81  268.86   1 0.25781-0.68687-0.44038-0.29743 0.85999-0.66312
   3  11  -3 1161.48  203.73   1 0.66098-0.23195-0.06420 0.80162-0.74765 0.55098
  -3 -11   2  857.83  213.90   1 0.18833-0.63555-0.48473-0.27107 0.85414-0.72290
  -3 -11   1 1463.30  217.77   1 0.11542-0.58035-0.52760-0.24704 0.84161-0.77598
   3  11  -1 1674.38  257.40   1 0.73379-0.26858 0.03052 0.74290-0.67868 0.61315
   4 -11   5   24.92   73.10   1 0.83189-0.35504 0.21516-0.91655 0.51152-0.18403
   4 -10   3 1052.12  293.36   1 0.82641-0.37561 0.20086-0.86621 0.52601-0.32952
   4 -10   4 3281.47  372.77   1 0.84552-0.37668 0.25555-0.90295 0.46881-0.20682
   4 -10   5  893.56  277.68   1 0.85602-0.36914 0.29481-0.92428 0.42462-0.09713
   4 -10   6 1319.94  220.10   1 0.86171-0.35679 0.32265-0.93418 0.39158 0.00140
   4 -10   7  652.48  165.03   1 0.86473-0.34176 0.34182-0.93541 0.36795 0.09052
  -4   9   6  277.74  116.18   1 0.69252-0.99051 0.65737 0.09833 0.29711 0.09597
  -4   9   5  678.67  225.78   1 0.68094-0.99699 0.66139 0.07630 0.31443 0.01313
  -4   9   4  523.06  172.42   1 0.66126-0.99537 0.66735 0.05234 0.34259-0.08053
  -4   9   3  642.91  199.68   1 0.62955-0.98173 0.67491 0.02677 0.38489-0.18835
  -4   9   2 1839.08  176.56   1 0.57885-0.94903 0.68251 0.00129 0.44620-0.31518
   4  -9   2  289.69  132.05   1 0.83813-0.39534 0.23267-0.84404 0.49334-0.36234
   4  -9   3  651.42  157.92   1 0.85647-0.39564 0.29677-0.89020 0.42234-0.22584
   4  -9   4 9159.34  522.17   1 0.86460-0.38572 0.34087-0.91637 0.36913-0.10714
   4  -9   5 5045.33  387.69   1 0.86774-0.37087 0.37124-0.92867 0.33044-0.00295
   4  -9   6 2540.71  341.86   1 0.86873-0.35386 0.39150-0.93099 0.30334 0.08964
   4  -9   7 1585.24  270.18   1 0.86885-0.33596 0.40433-0.92588 0.28567 0.17280
   4  -9   8  619.14  182.23   1 0.86873-0.31784 0.41144-0.91505 0.27570 0.24827
  -4   8   7  518.96  176.24   1 0.69517-0.98515 0.65639 0.04535 0.29305 0.16554
  -4   8   6  289.85  131.26   1 0.68770-0.99575 0.65909 0.02464 0.30439 0.08869
  -4   8   5  158.74   82.05   1 0.67388-0.99999 0.66365 0.00208 0.32471 0.00285
  -4   8   4  565.58  148.19   1 0.65110-0.99527 0.67003-0.02230 0.35652-0.09446
  -4   8   3 1503.97  286.25   1 0.61505-0.97722 0.67753-0.04767 0.40331-0.20678
  -4   8   2 5678.53  348.92   1 0.55798-0.93821 0.68434-0.07250 0.46937-0.33835
  -4   8   1 5658.26  338.31   1 0.46526-0.86375 0.68453-0.09078 0.56119-0.49566
   4  -8   1 7465.24  517.06   1 0.84781-0.41303 0.26330-0.82069 0.46030-0.39480
   4  -8   2 8860.85  501.12   1 0.86446-0.41163 0.33990-0.87935 0.37035-0.23935
   4  -8   3  200.18  101.43   1 0.86868-0.39782 0.38948-0.91089 0.30608-0.10958
   4  -8   4  381.97  157.44   1 0.86832-0.37945 0.42174-0.92520 0.26105 0.00094
   4  -8   5  398.31  190.68   1 0.86660-0.35973 0.44248-0.92801 0.23064 0.09684
   4  -8   6  157.35  105.19   1 0.86493-0.34006 0.45513-0.92272 0.21150 0.18148
   4  -8   7  331.58  181.98   1 0.86385-0.32097 0.46182-0.91146 0.20118 0.25729
   4  -8   8  534.35  154.38   1 0.86348-0.30259 0.46390-0.89561 0.19794 0.32604
  -4   7   8  557.13  154.61   1 0.69203-0.97401 0.65754-0.00976 0.29785 0.22626
  -4   7   7  256.60  108.05   1 0.68758-0.98763 0.65913-0.02935 0.30457 0.15402
  -4   7   6  537.23  161.92   1 0.67785-0.99596 0.66240-0.05062 0.31895 0.07412
  -4   7   5  310.43  136.58   1 0.66099-0.99716 0.66743-0.07365 0.34295-0.01538
  -4   7   4  397.72  142.86   1 0.63402-0.98825 0.67399-0.09822 0.37914-0.11708
  -4   7   3 6781.55  501.96   1 0.59208-0.96431 0.68097-0.12309 0.43094-0.23441
  -4   7   2 6987.17  497.47   1 0.52672-0.91701 0.68582-0.14595 0.50220-0.37118
  -4   7   1 3523.58  161.60   1 0.42310-0.83162 0.68116-0.15937 0.59749-0.53196
   4  -7   0 3579.55  156.13   1 0.85553-0.42875 0.29268-0.79609 0.42708-0.42708
  -4   7   0 2978.40  287.70   1 0.25742-0.68392 0.65035-0.14656 0.71468-0.71468
   4  -7   1 1519.41  172.30   1 0.86859-0.42375 0.38688-0.87226 0.30960-0.24410
  -4   7  -1 1089.34  110.88   1-0.01015-0.43434 0.55369-0.06796 0.83265-0.89817
   4  -7   2 3089.54  289.85   1 0.86667-0.40382 0.44184-0.90928 0.23160-0.10060
   4  -7   3 2844.21  294.07   1 0.86110-0.38003 0.47528-0.92483 0.18057 0.01601
   4  -7   4  254.23  133.75   1 0.85598-0.35686 0.49548-0.92711 0.14762 0.11448
   4  -7   5  737.13  203.75   1 0.85234-0.33518 0.50705-0.92077 0.12806 0.19958
   4  -7   6  589.79  189.11   1 0.85040-0.31519 0.51260-0.90840 0.11848 0.27468
   4  -7   7  956.91  284.40   1 0.85001-0.29675 0.51369-0.89157 0.11660 0.34210
   4  -7   8  696.71  249.06   1 0.85088-0.27957 0.51128-0.87124 0.12078 0.40344
   4  -7   9  789.20  194.48   1 0.85270-0.26334 0.50599-0.84803 0.12988 0.45987
  -4   6   9  386.37  119.10   1 0.68385-0.95783 0.66042-0.06660 0.31013 0.27949
  -4   6   8 1127.52  229.27   1 0.68174-0.97378 0.66112-0.08531 0.31325 0.21085
  -4   6   7 1564.58  343.65   1 0.67503-0.98513 0.66329-0.10548 0.32304 0.13554
  -4   6   6  708.58  262.32   1 0.66234-0.99050 0.66705-0.12724 0.34107 0.05200
  -4   6   5 7424.65  562.99   1 0.64149-0.98772 0.67234-0.15053 0.36937-0.04180
  -4   6   4 2410.97  275.76   1 0.60914-0.97337 0.67851-0.17458 0.41055-0.14852
  -4   6   3 4827.97  351.52   1 0.55961-0.94190 0.68423-0.19832 0.46760-0.27107
  -4   6   2 1726.87  180.60   1 0.48374-0.88425 0.68536-0.21753 0.54431-0.41325
   4  -6  -1  871.18  100.00   1 0.86134-0.44257 0.32056-0.76999 0.39411-0.45961
  -4   6   1 1213.35  145.21   1 0.36840-0.78696 0.67394-0.22412 0.64037-0.57484
   4  -6   0 1679.23  161.06   1 0.86679-0.42994 0.44081-0.87223 0.23314-0.23314
  -4   6   0 1319.97  203.14   1 0.19387-0.63037 0.63251-0.20074 0.74988-0.74988
   4  -6   1 1127.33  131.27   1 0.85456-0.39957 0.50021-0.91369 0.13969-0.07416
   4  -6   2 2224.39  424.26   1 0.84233-0.36930 0.53250-0.92807 0.08309 0.04795
   4  -6   2 2587.01  114.23   1 0.39162 0.08118-0.31993-0.07577-0.86271 0.99381
   4  -6   312449.27  754.81   1 0.83344-0.34235 0.55036-0.92801 0.04971 0.14687
   4  -6   4 3940.09  349.79   1 0.82808-0.31915 0.55969-0.91934 0.03205 0.23009
   4  -6   5  738.64  136.58   1 0.82588-0.29894 0.56328-0.90497 0.02494 0.30273
   4  -6   6  714.81  262.86   1 0.82617-0.28121 0.56281-0.88655 0.02586 0.36735
   4  -6   7  963.79  222.09   1 0.82835-0.26536 0.55924-0.86501 0.03293 0.42582
   4  -6   8  401.24  161.99   1 0.83201-0.25070 0.55293-0.84099 0.04477 0.47945
   4  -6   9  905.55  206.69   1 0.83649-0.23712 0.54460-0.81474 0.06065 0.52910
  -4   5  10  388.74  114.64   1 0.67102-0.93699 0.66453-0.12467 0.32881 0.32632
  -4   5   9 1183.88  172.12   1 0.67082-0.95485 0.66459-0.14273 0.32910 0.26052
  -4   5   8 2290.98  266.27   1 0.66645-0.96855 0.66588-0.16203 0.33530 0.18880
  -4   5   7 8270.51  539.77   1 0.65684-0.97700 0.66855-0.18270 0.34869 0.10990
  -4   5   6 5782.01  468.10   1 0.64034-0.97855 0.67260-0.20476 0.37089 0.02219
  -4   5   518848.13 1115.46   1 0.61450-0.97073 0.67762-0.22765 0.40398-0.07643
  -4   5   417182.71  506.61   1 0.57523-0.94951 0.68288-0.25093 0.45030-0.18826
  -4   5   3 1091.84  167.42   1 0.51662-0.90897 0.68599-0.27205 0.51235-0.31582
   4  -5  -2  437.18   41.19   1 0.28657 0.12418-0.42079 0.02490 0.86070-0.99194
   4  -5  -2  556.57   49.98   1 0.86526-0.45449 0.34576-0.74121 0.36300-0.49399
  -4   5   2  879.20  129.57   1 0.42942-0.83997 0.68179-0.28593 0.59224-0.46118
   4  -5  -1  899.33   80.75   1-0.01169 0.44083-0.59145 0.21337 0.80625-0.87185
  -4   5   1 1131.01  219.17   1 0.30202-0.73055 0.66106-0.28321 0.68686-0.62135
   4  -5   0 5688.67  493.31   1-0.15330 0.60043-0.64799 0.28790 0.74605-0.74605
   4  -5   0 5514.92  487.97   1 0.82389-0.37704 0.56643-0.92600 0.01863-0.01863
  -4   5   0 5656.62  663.23   1 0.12180-0.56837 0.60820-0.24839 0.78437-0.78437
   4  -5   0 5095.53  448.96   1 0.82395-0.37739 0.56585-0.92555 0.03016-0.03016
   4  -5   1 4570.79  417.58   1 0.80400-0.33913 0.59339-0.93501-0.03808 0.10362
   4  -5   1 3847.44  341.45   1 0.78897-0.32412 0.60267-0.94446 0.11956-0.05404
   4  -5   1 4785.59  420.58   1 0.11774 0.34733-0.49814 0.15641-0.85906 0.92460
   4  -5   2  359.85  105.77   1 0.79236-0.30946 0.60632-0.92998-0.06733 0.19840
   4  -5   2   45.92   53.98   1 0.38376 0.09909-0.32599 0.00221-0.86397 0.99507
   4  -5   3  907.56  166.35   1 0.78702-0.28611 0.61171-0.91740-0.07998 0.27659
   4  -5   3  907.67  109.49   1 0.61980-0.11899-0.11098-0.19470-0.77686 0.97361
   4  -5   4  234.63  116.37   1 0.78629-0.26735 0.61242-0.90016-0.08168 0.34383
   4  -5   4  247.87   82.40   1 0.77280-0.25375 0.09038-0.37814-0.62817 0.89028
   4  -5   5  597.79  156.96   1 0.78885-0.25189 0.60989-0.87967-0.07569 0.40337
   4  -5   6  136.20  119.64   1 0.79373-0.23875 0.60488-0.85670-0.06399 0.45721
   4  -5   7  948.26  243.10   1 0.80020-0.22720 0.59781-0.83167-0.04789 0.50665
   4  -5   8  272.97  120.49   1 0.80770-0.21668 0.58890-0.80481-0.02826 0.55256
   4  -5   9  239.79  125.73   1 0.81579-0.20674 0.57831-0.77626-0.00571 0.59554
  -4   4  11 1099.73  199.26   1 0.65371-0.91167 0.66937-0.18348 0.35298 0.36766
  -4   4  10  226.51  119.17   1 0.65514-0.93116 0.66900-0.20111 0.35103 0.30410
  -4   4   9 1978.23  223.14   1 0.65268-0.94676 0.66963-0.21975 0.35438 0.23523
  -4   4   8 2505.85  481.95   1 0.64546-0.95761 0.67141-0.23953 0.36410 0.16000
  -4   4   7  471.73  128.60   1 0.63218-0.96239 0.67437-0.26049 0.38152 0.07707
  -4   4   6 -162.73  107.57   1 0.61100-0.95923 0.67821-0.28220 0.40828-0.01523
  -4   4   5  359.26  113.12   1 0.57878-0.94507 0.68252-0.30453 0.44627-0.11873
  -4   4   4  566.89  127.57   1 0.53133-0.91567 0.68569-0.32571 0.49750-0.23546
   4  -4  -3  978.66   45.40   1 0.79031-0.38754 0.12183-0.46331 0.60047-0.79696
  -4   4   3 1460.30  153.49   1 0.46221-0.86475 0.68436-0.34245 0.56391-0.36732
   4  -4  -2  833.06   66.74   1 0.31638 0.10443-0.39914 0.07529 0.86057-0.99167
   4  -4  -2 1098.44   86.92   1 0.79998-0.37915 0.59806-0.92163-0.04846-0.08260
  -4   4   2  788.09  107.59   1 0.36361-0.78412 0.67295-0.34907 0.64413-0.51311
   4  -4  -1  377.86   61.38   1 0.07132 0.36786-0.55106 0.24495 0.83140-0.89703
   4  -4  -1  457.34   85.23   1 0.75340-0.31465 0.63975-0.94526-0.15197 0.08644
  -4   4   1  749.41  154.49   1 0.22624-0.66483 0.64188-0.33600 0.73266-0.66715
   4  -4   0 1583.57  169.70   1-0.06858 0.52587-0.61580 0.32768 0.78490-0.78490
   4  -4   0 2038.82  214.09   1 0.73083-0.27407 0.65435-0.94190-0.19414 0.19414
  -4   4   0 1807.64  335.17   1 0.04543-0.50207 0.57820-0.29035 0.81462-0.81462
   4  -4   0 1731.08  185.17   1 0.72494-0.26812 0.64415-0.93198 0.24397-0.24397
   4  -4   118689.46 1561.95   1 0.72187-0.24709 0.65942-0.92902-0.20989 0.27542
   4  -4   116179.78 1341.37   1 0.65023-0.17552 0.67025-0.94011 0.35770-0.29219
   4  -4   118772.07 1554.99   1 0.17321 0.30187-0.46682 0.19703-0.86722 0.93276
   4  -4   2 5541.32  511.89   1 0.72116-0.22836 0.65981-0.91145-0.21112 0.34218
   4  -4   2 4624.62  408.68   1 0.55153-0.05884 0.68477-0.93664 0.47633-0.34531
   4  -4   2 5109.03  448.61   1 0.39564 0.09727-0.31681 0.06497-0.86203 0.99313
   4  -4   3 1033.01  151.32   1 0.72566-0.21484 0.65732-0.89102-0.20330 0.39989
   4  -4   3  836.26  103.96   1 0.43181 0.07903 0.68202-0.91585 0.59023-0.39364
   4  -4   3  785.36  114.93   1 0.58666-0.07582-0.14620-0.08753-0.79652 0.99327
   4  -4   4  574.50  134.32   1 0.73352-0.20469 0.65275-0.86850-0.18932 0.45145
   4  -4   4  551.82   86.21   1 0.72213-0.19329 0.01409-0.22990-0.69160 0.95382
   4  -4   5  586.10  166.08   1 0.74355-0.19670 0.64647-0.84426-0.17086 0.49852
   4  -4   5  488.48  111.06   1 0.80494-0.25775 0.14771-0.34553-0.57467 0.90231
   4  -4   6 1355.34  223.46   1 0.75493-0.19006 0.63866-0.81849-0.14896 0.54216
   4  -4   6 1070.09  107.93   1 0.84987-0.28472 0.25278-0.43261-0.46240 0.85543
   4  -4   7  697.41  202.68   1 0.76707-0.18418 0.62939-0.79128-0.12432 0.58305
   4  -4   8 1543.47  261.70   1 0.77948-0.17844 0.61883-0.76282-0.09720 0.62149
   4  -4   9  155.95  120.08   1 0.79195-0.17289 0.60674-0.73277-0.06830 0.65813
   4  -4  10  499.96  181.24   1 0.80416-0.16708 0.59320-0.70127-0.03766 0.69302
  -4   3  11   18.40  113.46   1 0.63481-0.90283 0.67382-0.25989 0.37811 0.34254
  -4   3  10  516.28  216.32   1 0.63398-0.92006 0.67399-0.27807 0.37919 0.27594
  -4   3   9   75.91  106.32   1 0.62871-0.93285 0.67508-0.29716 0.38597 0.20364
  -4   3   8  435.18  163.94   1 0.61807-0.94023 0.67700-0.31693 0.39956 0.12450
  -4   3   7 3308.24  327.67   1 0.60024-0.94047 0.67986-0.33781 0.42128 0.03727
  -4   3   6 2710.94  244.72   1 0.57312-0.93140 0.68309-0.35905 0.45267-0.05961
  -4   3   5  543.04  106.54   1 0.53346-0.90980 0.68562-0.37960 0.49530-0.16776
   4  -3  -4  226.30   20.42   1 0.75660-0.36188 0.63744-0.92491-0.14564-0.11648
  -4   3   4  585.79  127.50   1 0.47662-0.87114 0.68509-0.39714 0.55088-0.28876
   4  -3  -3   47.90   23.75   1 0.63714-0.22433-0.10344-0.16622 0.76376-0.96023
   4  -3  -3   45.02   36.20   1 0.62818-0.21544 0.69485-0.96437-0.35009 0.15349
  -4   3   3  456.03  141.73   1 0.39697-0.80954 0.67809-0.40815 0.61854-0.42195
   4  -3  -2  535.01   73.32   1 0.35254 0.07832-0.37237 0.12050 0.85851-0.98961
   4  -3  -2  535.61   81.97   1 0.60095-0.17019 0.70066-0.95223-0.38461 0.25354
  -4   3   2  526.24  136.17   1 0.28775-0.71832 0.65782-0.40591 0.69603-0.56501
   4  -3  -1 3164.93  288.64   1 0.14928 0.29989-0.50852 0.27446 0.84800-0.91363
   4  -3  -1 3609.26  341.47   1 0.59833-0.14956 0.70113-0.93475-0.38781 0.32228
  -4   3   1 3858.85  616.08   1 0.14425-0.59288 0.61619-0.38231 0.77426-0.70874
   4  -3   0 4530.93  359.96   1 0.60644-0.13965 0.69962-0.91528-0.37782 0.37782
  -4   3   0 4799.39  378.20   1-0.03188-0.43483 0.54350-0.32761 0.83880-0.83880
   4  -3   120173.57 1401.29   1 0.62004-0.13523 0.69676-0.89447-0.36064 0.42617
   4  -3   117612.50 1212.66   1 0.49494-0.01016 0.68565-0.88354 0.53376-0.46823
   4  -3   120421.15 1405.68   1 0.22840 0.25671-0.43330 0.23544-0.87182 0.93737
   4  -3   223986.39 2004.95   1 0.63661-0.13378 0.69271-0.87247-0.33892 0.46999
   4  -3   219871.62 1644.89   1 0.37701 0.12582 0.67527-0.85515 0.63392-0.50286
   4  -3   222587.76 1870.20   1 0.41714 0.08583-0.29981 0.11991-0.85796 0.98906
   4  -3   3 2720.22  249.99   1 0.65477-0.13393 0.68749-0.84930-0.31403 0.51063
   4  -3   3 2475.80  177.77   1 0.57706-0.05618-0.15602-0.00576-0.80165 0.99840
   4  -3   4 2597.74  240.44   1 0.67370-0.13484 0.68109-0.82494-0.28675 0.54888
   4  -3   4 2167.42  416.07   1 0.69611-0.15720-0.02069-0.12317-0.71763 0.97985
   4  -3   5 2076.91  287.75   1 0.69288-0.13600 0.67348-0.79938-0.25756 0.58522
   4  -3   5 1953.10  211.17   1 0.77688-0.21964 0.09718-0.22305-0.62209 0.94973
   4  -3   6 1308.18  202.64   1 0.71193-0.13703 0.66462-0.77257-0.22676 0.61995
   4  -3   6 1188.86  307.85   1 0.82794-0.25261 0.19614-0.30402-0.52539 0.91856
   4  -3   7  328.15  146.05   1 0.73060-0.13769 0.65448-0.74448-0.19455 0.65328
   4  -3   7  250.96   97.30   1 0.85751-0.26425 0.27755-0.36747-0.43316 0.89170
   4  -3   8 1458.05  219.22   1 0.74870-0.13777 0.64303-0.71507-0.16107 0.68533
   4  -3   9 1443.34  259.32   1 0.76607-0.13712 0.63019-0.68429-0.12640 0.71620
   4  -3  10   82.57  127.97   1 0.78247-0.13537 0.61607-0.65223-0.09046 0.74583
  -4   2  12 1291.98  255.05   1 0.61001-0.87000 0.67837-0.31820 0.40949 0.37660
  -4   2  11   70.84  105.80   1 0.61063-0.88868 0.67827-0.33612 0.40873 0.31186
  -4   2  10  618.87  197.49   1 0.60701-0.90312 0.67885-0.35471 0.41314 0.24194
  -4   2   9  826.45  229.66   1 0.59828-0.91244 0.68014-0.37403 0.42362 0.16595
  -4   2   8 1087.00  179.10   1 0.58316-0.91539 0.68204-0.39395 0.44127 0.08279
  -4   2   7 4846.12  384.18   1 0.55989-0.91017 0.68421-0.41413 0.46730-0.00874
  -4   2   671554.7412584.50   1 0.52594-0.89428 0.68583-0.43377 0.50299-0.10994
  -4   2   5 6897.56  578.05   1-0.17622-0.21089-0.65552 0.88915 0.73432-0.40610
   4  -2  -5 7849.91  651.03   1 0.86694-0.48012 0.43937-0.67288 0.23527-0.56276
  -4   2   5 8048.54  724.78   1 0.47787-0.86437 0.68514-0.45115 0.54973-0.22209
  -4   2   414174.70  971.90   1-0.26435-0.14083-0.68036 0.89607 0.68353-0.42096
   4  -2  -414143.32  962.96   1 0.79733-0.39241 0.13555-0.35123 0.58811-0.85008
  -4   2   415202.27 1076.91   1 0.41143-0.81598 0.67988-0.46389 0.60702-0.34490
  -4   2   3 9814.46  685.40   1-0.33139-0.09183-0.69518 0.89287 0.63788-0.44083
   4  -2  -3 9022.73  630.62   1 0.60032-0.17740-0.14689-0.05098 0.78615-0.98281
  -4   2   3 9433.86  701.15   1 0.32166-0.74421 0.66523-0.46729 0.67379-0.47726
  -4   2   213800.22  702.27   1-0.38598-0.05531-0.70353 0.88340 0.59670-0.46534
   4  -2  -212368.34  626.26   1 0.39093 0.04999-0.34251 0.16262 0.85431-0.98542
  -4   2   212450.48  686.42   1 0.20442-0.64505 0.63573-0.45581 0.74434-0.61330
  -4   2   1 8000.50  564.71   1-0.43245-0.02675-0.70766 0.86958 0.55874-0.49305
   4  -2  -1 7240.43  457.94   1 0.22172 0.23734-0.46394 0.30198 0.85766-0.92329
  -4   2   1 8246.49  590.43   1 0.05915-0.51786 0.58391-0.42198 0.80966-0.74414
  -4   2   012649.73  678.26   1-0.47455-0.00276-0.70960 0.85365 0.52083-0.52083
   4  -2   010761.82  578.72   1 0.10851 0.36857-0.50313 0.35925-0.85736 0.85736
  -4   2  -1 1330.21  171.13   1-0.51291 0.01749-0.70933 0.83552 0.48349-0.54917
   4  -2   1 1372.63  175.12   1 0.28210 0.21293-0.39852 0.27259-0.87269 0.93827
   4  -2   2 3296.67  343.03   1 0.54748-0.03463 0.70777-0.81564-0.44645 0.57751
   4  -2   2 3586.24  352.27   1 0.44381 0.06921-0.27803 0.17008-0.85189 0.98299
   4  -2   3  788.85  145.68   1 0.58030-0.04943 0.70403-0.79395-0.40936 0.60596
   4  -2   3  913.93  133.97   1 0.58012-0.04921-0.15291 0.06307-0.80004 0.99679
   4  -2   4 3278.50  259.38   1 0.61105-0.06216 0.69869-0.77066-0.37207 0.63420
   4  -2   4 2856.69  182.86   1 0.68488-0.13591-0.03499-0.03692-0.72781 0.99003
   4  -2   5 2676.97  313.14   1 0.63994-0.07303 0.69182-0.74583-0.33445 0.66211
   4  -2   5 2820.59  298.56   1 0.76040-0.19310 0.07041-0.12433-0.64562 0.97326
   4  -2   6 2514.22  310.83   1 0.66711-0.08219 0.68344-0.71950-0.29641 0.68960
   4  -2   6 2252.23  258.01   1 0.81218-0.22680 0.16211-0.19804-0.56042 0.95359
   4  -2   7  -73.34  116.32   1 0.69267-0.08973 0.67356-0.69167-0.25788 0.71661
   4  -2   7  305.14  154.28   1 0.84560-0.24213 0.24084-0.25878-0.47639 0.93509
   4  -2   8  223.73  131.42   1 0.71667-0.09571 0.66219-0.66235-0.21879 0.74305
   4  -2   8  199.73   91.28   1 0.86525-0.24387 0.30802-0.30804-0.39554 0.91958
   4  -2   9   90.99  122.69   1 0.73914-0.10016 0.64930-0.63150-0.17907 0.76887
   4  -2   9  504.44  173.94   1 0.87500-0.23613 0.36498-0.34717-0.31805 0.90758
  -4   1  12 1664.48  231.61   1 0.58233-0.85238 0.68214-0.39394 0.44223 0.34387
  -4   1  11 2012.11  259.77   1 0.58019-0.86830 0.68237-0.41220 0.44467 0.27592
  -4   1  10 1103.98  257.07   1 0.57320-0.87936 0.68308-0.43092 0.45258 0.20250
  -4   1   9 1477.01  223.95   1 0.56031-0.88453 0.68418-0.45004 0.46685 0.12273
  -4   1   8 1344.57  139.40   1 0.46963-0.81200-0.27610 0.49189 0.83857-0.31413
  -4   1   8 1088.20  191.53   1 0.54006-0.88234 0.68537-0.46925 0.48846 0.03560
  -4   1   7 3627.69  145.19   1 0.36626-0.72669-0.36188 0.55964 0.85725-0.39838
  -4   1   7 3897.83  245.67   1 0.51049-0.87083 0.68602-0.48792 0.51842-0.05986
  -4   1   6 6252.49  535.80   1 0.24353-0.62182-0.44984 0.62977 0.85926-0.46552
   4  -1  -6 6085.30  519.90   1 0.86393-0.48512 0.46135-0.64089 0.20191-0.59490
  -4   1   6 6258.03  586.05   1 0.46896-0.84744 0.68473-0.50469 0.55786-0.16468
  -4   1   521193.69 1440.89   1 0.11341-0.51014-0.52870 0.69031 0.84119-0.51303
   4  -1  -519151.19 1301.78   1 0.84987-0.45308 0.27059-0.43219 0.45220-0.77969
  -4   1   519503.54 1371.82   1 0.41218-0.80871 0.67996-0.51794 0.60642-0.27877
  -4   1   4 9262.33  650.78   1-0.00944-0.40540-0.59043 0.73419 0.80702-0.54461
   4  -1  -4 7560.31  535.47   1 0.74922-0.33426 0.04964-0.19340 0.66044-0.92242
  -4   1   4 9411.61  713.56   1 0.33646-0.75098 0.66814-0.52417 0.66361-0.40157
  -4   1   325178.97 1240.76   1-0.11645-0.31652-0.63433 0.76015 0.76423-0.56742
   4  -1  -322179.21 1091.37   1 0.59335-0.16040-0.15452 0.02861 0.78997-0.98663
  -4   1   323961.53 1213.36   1 0.23834-0.67095 0.64526-0.51929 0.72582-0.52929
  -4   1   210165.25  645.95   1-0.20812-0.24330-0.66528 0.77314 0.71699-0.58570
   4  -1  -2 8782.99  465.51   1 0.42955 0.02142-0.31085 0.20293 0.84785-0.97895
  -4   1   210436.79  573.66   1 0.11662-0.56732 0.60630-0.49833 0.78663-0.65559
  -4   1   1 7096.01  470.92   1-0.28568-0.18371-0.68592 0.77585 0.66924-0.60356
  -4   1   1 7236.55  478.09   1-0.02573-0.44304 0.54641-0.45645 0.83711-0.77159
  -4   1   0 4117.40  546.45   1-0.35243-0.13504-0.69876 0.77087 0.62251-0.62251
   4  -1   0 3417.46  279.65   1 0.18056 0.30654-0.46249 0.39055-0.86803 0.86803
  -4   1  -1  682.49  118.59   1-0.41054-0.09489-0.70580 0.75996 0.57731-0.64299
   4  -1   1  484.72  127.92   1 0.33392 0.17118-0.36241 0.30842-0.87014 0.93571
  -4   1  -2   88.19   83.83   1-0.46223-0.06130-0.70926 0.74555 0.53224-0.66361
   4  -1   2  185.38   86.88   1 0.47327 0.04981-0.25304 0.21702-0.84379 0.97489
  -4   1  -3 4412.22  454.25   1-0.50859-0.03304-0.70947 0.72789 0.48783-0.68489
   4  -1   3 3603.20  360.83   1 0.59073-0.04979-0.14198 0.12409-0.79427 0.99102
   4  -1   4 8000.99  379.19   1 0.54941 0.00949 0.70760-0.70768-0.44433 0.70646
   4  -1   4 7597.72  332.70   1 0.68312-0.12409-0.03719 0.03722-0.72935 0.99157
   4  -1   5 2114.41  254.42   1 0.58760-0.01067 0.70293-0.68506-0.40074 0.72840
   4  -1   5 3142.95  320.30   1 0.75244-0.17509 0.05808-0.04006-0.65609 0.98373
   4  -1   6  852.45  174.07   1 0.62267-0.02772 0.69616-0.66033-0.35726 0.75045
   4  -1   6  687.79  180.00   1 0.80248-0.20704 0.14297-0.10695-0.57929 0.97246
   4  -1   7  301.52  163.29   1 0.65498-0.04201 0.68743-0.63365-0.31374 0.77247
   4  -1   7  808.87  232.45   1 0.83690-0.22338 0.21771-0.16370-0.50218 0.96088
   4  -1   8 1782.84  244.27   1 0.68480-0.05382 0.67683-0.60510-0.27006 0.79432
   4  -1   8 1197.31  170.85   1 0.85904-0.22760 0.28301-0.21111-0.42655 0.95059
   4  -1   9  816.34  199.27   1 0.71233-0.06333 0.66442-0.57473-0.22608 0.81588
   4  -1   9  759.43  173.06   1 0.87141-0.22190 0.34101-0.25113-0.35262 0.94217
  -4   0  13 1088.57  206.55   1 0.54911-0.81116 0.68491-0.45068 0.47891 0.37269
  -4   0  12 1000.29  212.99   1 0.54838-0.82848 0.68495-0.46874 0.47969 0.30641
  -4   0  11  623.85  218.57   1 0.54295-0.84112 0.68523-0.48704 0.48542 0.23516
  -4   0  10  402.96  119.11   1 0.63539-0.95214-0.10552 0.28514 0.76494-0.11007
  -4   0  10  595.17  216.67   1 0.53197-0.84819 0.68567-0.50549 0.49684 0.15824
  -4   0   9  722.83   90.14   1 0.59275-0.92704-0.15517 0.31696 0.79029-0.20029
  -4   0   9 1659.17  270.75   1 0.51423-0.84851 0.68601-0.52384 0.51473 0.07484
  -4   0   8 5240.49  336.67   1 0.53286-0.88527-0.21698 0.36079 0.81790-0.29346
  -4   0   8 4322.67  355.24   1 0.48820-0.84061 0.68549-0.54140 0.54014-0.01590
  -4   0   711841.56  326.99   1 0.45432-0.82480-0.28963 0.41541 0.84244-0.38357
  -4   0   711406.60  445.19   1 0.45171-0.82218 0.68367-0.55759 0.57318-0.11447
  -4   0   6 1571.38  136.24   1 0.35800-0.74660-0.36822 0.47604 0.85804-0.46472
   4   0  -6 1547.77  120.70   1 0.86584-0.47705 0.35045-0.45808 0.35706-0.75005
  -4   0   6 1627.34  184.26   1 0.40229-0.79080 0.67877-0.57070 0.61434-0.22117
  -4   0   517410.10 1204.21   1 0.24952-0.65603-0.44589 0.53585 0.85959-0.53148
   4   0  -514266.23  985.55   1 0.82074-0.41377 0.18674-0.27652 0.53990-0.86736
  -4   0   516257.00 1167.78   1 0.33712-0.74362 0.66826-0.57826 0.66315-0.33560
  -4   0   4 6395.57  472.57   1 0.13589-0.56075-0.51618 0.58783 0.84562-0.58310
   4   0  -4 5751.89  429.42   1 0.72563-0.30073 0.01325-0.08510 0.68795-0.94990
  -4   0   4 5749.01  592.43   1 0.25339-0.67798 0.64930-0.57730 0.71706-0.45503
  -4   0   3 3536.82  271.40   1 0.02531-0.46831-0.57426 0.62805 0.81828-0.62147
   4   0  -3 2893.31  220.46   1 0.59964-0.15666-0.14764 0.09371 0.78653-0.98319
  -4   0   3 3360.17  594.32   1 0.14976-0.59246 0.61810-0.56409 0.77169-0.57513
  -4   0   2  204.76   66.97   1-0.07633-0.38479-0.61892 0.65478 0.78173-0.65052
  -4   0   2  439.27   81.65   1 0.02757-0.48835 0.57057-0.53457 0.82078-0.68974
  -4   0   1 4360.50  630.20   1-0.16793-0.31168-0.65285 0.67077 0.73863-0.67299
   4   0  -1 3601.92  307.34   1 0.10822 0.37087-0.50329 0.48533-0.85731 0.79176
  -4   0   0 1211.52  254.14   1-0.24884-0.24884-0.67648 0.67648 0.69314-0.69314
   4   0   0 1076.98  150.58   1 0.24855 0.24855-0.42066 0.42066-0.87250 0.87250
  -4   0  -1  449.37  114.63   1-0.32056-0.19502-0.69316 0.67534 0.64556-0.71125
   4   0   1  721.45  148.16   1 0.38337 0.13176-0.32629 0.34425-0.86403 0.92958
  -4   0  -2  185.84   90.96   1-0.38439-0.14926-0.70333 0.66768 0.59796-0.72933
   4   0   2  393.83  146.23   1 0.50410 0.02904-0.22575 0.26167-0.83361 0.96471
  -4   0  -3 2975.86  256.83   1-0.44156-0.11009-0.70826 0.65466 0.55079-0.74785
   4   0   3 2546.74  247.34   1 0.60606-0.05509-0.12583 0.17989-0.78539 0.98214
  -4   0  -4 2423.80  234.77   1-0.49299-0.07677-0.70972 0.63825 0.50323-0.76598
   4   0   4 1815.86  210.35   1 0.68769-0.11860-0.03145 0.10342-0.72532 0.98754
   4   0   5 1353.55  228.79   1 0.53824 0.04870 0.70849-0.61873-0.45642 0.78409
   4   0   5 1792.44  267.27   1 0.75068-0.16328 0.05541 0.03455-0.65833 0.98597
   4   0   6  142.38  123.66   1 0.58045 0.02452 0.70401-0.59630-0.40919 0.80238
   4   0   6  258.48  122.54   1 0.79779-0.19231 0.13413-0.02616-0.58781 0.98098
   4   0   7 1973.46  265.73   1 0.61900 0.00398 0.69699-0.57132-0.36198 0.82071
   4   0   7 1397.35  295.73   1 0.83160-0.20803 0.20473-0.07877-0.51624 0.97494
   4   0   8  520.48  227.41   1 0.65429-0.01329 0.68764-0.54402-0.31470 0.83896
   4   0   8  118.37   99.80   1 0.85456-0.21307 0.26753-0.12370-0.44513 0.96917
   4   0   9  229.29  141.35   1 0.68664-0.02762 0.67609-0.51451-0.26724 0.85703
   4   0   9  269.41  147.39   1 0.86857-0.20901 0.32420-0.16240-0.37478 0.96433
  -4  -1  13  241.25  124.95   1 0.51148-0.78358 0.68602-0.52376 0.51745 0.33416
  -4  -1  12 1296.79  258.85   1 0.50755-0.79771 0.68602-0.54178 0.52130 0.26480
  -4  -1  11 1741.18  191.67   1 0.67414-0.98291-0.05772 0.18337 0.73633-0.01597
  -4  -1  11 1677.81  217.06   1 0.49835-0.80664 0.68571-0.55955 0.53050 0.19032
  -4  -1  10 2376.03  420.20   1 0.64820-0.97498-0.09017 0.19786 0.75611-0.10123
  -4  -1  10 2980.91  303.21   1 0.48281-0.80915 0.68533-0.57717 0.54517 0.11012
  -4  -1   914541.14  963.11   1 0.61159-0.95591-0.13434 0.22415 0.77968-0.18968
  -4  -1   915600.94 1076.51   1 0.45967-0.80406 0.68420-0.59406 0.56618 0.02358
  -4  -1   819839.58 1136.30   1 0.56108-0.92352-0.18863 0.26047 0.80597-0.28153
  -4  -1   818373.06 1102.94   1 0.42729-0.78974 0.68158-0.60945 0.59402-0.06978
  -4  -1   717524.85  447.18   1 0.49560-0.87615-0.25250 0.30636 0.83103-0.37214
  -4  -1   714929.31  499.57   1 0.38368-0.76418 0.67626-0.62214 0.62884-0.17014
  -4  -1   6  132.90   66.02   1 0.41517-0.81381-0.32284 0.35868 0.85053-0.45721
  -4  -1   6  163.11   70.63   1 0.32673-0.72521 0.66625-0.63022 0.67034-0.27728
  -4  -1   5 2172.01  233.17   1 0.32205-0.73881-0.39503 0.41290 0.86036-0.53260
  -4  -1   5 2249.43  459.51   1 0.25415-0.67071 0.64950-0.63147 0.71662-0.38907
  -4  -1   4  287.15   78.24   1 0.22125-0.65597-0.46424 0.46422 0.85762-0.59513
  -4  -1   4  201.61   93.64   1 0.16468-0.59937 0.62314-0.62310 0.76456-0.50248
  -4  -1   3 6884.13  465.67   1 0.11765-0.57062-0.52637 0.50806 0.84207-0.64517
  -4  -1   3 5933.67  467.03   1 0.05896-0.51173 0.58383-0.60178 0.80973-0.61317
  -4  -1   212181.64  661.53   1 0.01627-0.48742-0.57855 0.54239 0.81547-0.68427
  -4  -1   126825.71 1353.44   1-0.07880-0.41047-0.61991 0.56581 0.78070-0.71510
   4   1  -126351.88 1337.33   1 0.18620 0.30291-0.45914 0.51313-0.86862 0.80308
  -4  -1   0 9366.17  694.05   1-0.16648-0.34131-0.65237 0.58036 0.73938-0.73938
   4   1   0 8947.21  675.18   1 0.31228 0.19491-0.37778 0.44972-0.87164 0.87164
  -4  -1  -1  151.04   51.23   1-0.24589-0.27996-0.67572 0.58578 0.69493-0.76057
   4   1   1   76.98  152.31   1 0.43056 0.09462-0.28895 0.37885-0.85505 0.92060
  -4  -1  -2 1159.30  205.24   1-0.31759-0.22608-0.69259 0.58483 0.64764-0.77900
   4   1   2  886.77  163.82   1 0.53558 0.00739-0.19673 0.30472-0.82124 0.95241
  -4  -1  -3 1387.35  221.56   1-0.38255-0.17920-0.70309 0.57751 0.59942-0.79647
   4   1   3 1275.17  219.66   1 0.62426-0.06319-0.10625 0.23218-0.77395 0.97061
  -4  -1  -4 1125.53  193.62   1-0.44152-0.13826-0.70826 0.56476 0.55083-0.81358
   4   1   4  905.63  151.70   1 0.69655-0.11740-0.02012 0.16404-0.71722 0.97944
  -4  -1  -5 2845.02  321.24   1-0.49483-0.10305-0.70971 0.54835 0.50143-0.82987
   4   1   5 2299.51  304.21   1 0.75344-0.15598 0.05962 0.10229-0.65480 0.98244
   4   1   6  451.27  171.27   1 0.54189 0.07310 0.70822-0.52862-0.45250 0.84570
   4   1   6  490.99  194.53   1 0.79708-0.18154 0.13280 0.04710-0.58908 0.98225
   4   1   7 1599.93  237.71   1 0.58593 0.04708 0.70319-0.50564-0.40272 0.86145
   4   1   7  483.48  198.46   1 0.82933-0.19571 0.19938-0.00147-0.52196 0.98066
   4   1   8 1085.90  222.19   1 0.62615 0.02488 0.69534-0.47983-0.35274 0.87700
   4   1   8 1498.10  253.70   1 0.85203-0.20048 0.25942-0.04367-0.45468 0.97872
   4   1   9  868.75  241.28   1 0.66290 0.00614 0.68487-0.45141-0.30250 0.89229
   4   1   9  364.21  141.18   1 0.86661-0.19700 0.31431-0.08058-0.38754 0.97708
  -4  -2  13  185.16  145.75   1 0.46696-0.74918 0.68463-0.59441 0.55966 0.29222
  -4  -2  12 1150.58  186.95   1 0.69144-0.99221-0.03496 0.10665 0.72158 0.06426
  -4  -2  12 1286.70  228.72   1 0.45940-0.75967 0.68418-0.61198 0.56642 0.21993
  -4  -2  11  931.45  201.36   1 0.67497-0.99377-0.05666 0.11038 0.73566-0.01530
  -4  -2  11  505.27  163.35   1 0.44586-0.76419 0.68323-0.62903 0.57826 0.14255
  -4  -2  10 3085.08  244.88   1 0.65057-0.98739-0.08728 0.12304 0.75440-0.09953
  -4  -2  10 3178.64  296.76   1 0.42530-0.76168 0.68138-0.64520 0.59567 0.05962
  -4  -2   9 1101.82  136.80   1 0.61727-0.97162-0.12791 0.14575 0.77627-0.18628
  -4  -2   9 1599.20  244.17   1 0.39639-0.75083 0.67801-0.65984 0.61899-0.02923
  -4  -2   8  193.15  113.77   1 0.57215-0.94461-0.17715 0.17701 0.80078-0.27634
  -4  -2   8  395.49  171.83   1 0.35773-0.73011 0.67197-0.67191 0.64844-0.12436
  -4  -2   7 -100.36   73.58   1 0.51455-0.90513-0.23469 0.21658 0.82471-0.36582
  -4  -2   7  518.92  158.31   1 0.30727-0.69773 0.66221-0.68015 0.68341-0.22485
  -4  -2   6  131.80   69.26   1 0.44416-0.85286-0.29842 0.26228 0.84478-0.45146
  -4  -2   6  273.88   92.66   1 0.24358-0.65212 0.64669-0.68263 0.72280-0.32975
  -4  -2   5  247.12  113.40   1 0.36220-0.78902-0.36500 0.31089 0.85765-0.52989
  -4  -2   5  279.94  103.00   1 0.16545-0.59213 0.62340-0.67731 0.76419-0.43659
  -4  -2   4 3113.75  321.84   1 0.27189-0.71667-0.43088 0.35889 0.86046-0.59798
  -4  -2   4 2559.84  531.30   1 0.07322-0.51798 0.58961-0.66153 0.80435-0.54227
  -4  -2   322076.49 1529.68   1 0.17638-0.63936-0.49260 0.40223 0.85219-0.65529
  -4  -2   321728.44 1513.78   1-0.03136-0.43147 0.54374-0.63366 0.83866-0.64210
  -4  -2   244451.29 3022.33   1 0.07981-0.56091-0.54666 0.43839 0.83353-0.70227
   4   2  -244676.73 1816.42   1 0.14384 0.33726-0.48370 0.59167-0.86333 0.73224
  -4  -2   1 6152.57  484.41   1-0.01436-0.48493-0.59265 0.46652 0.80532-0.73972
   4   2  -1 6037.73  480.83   1 0.25947 0.23972-0.41356 0.53949-0.87272 0.80714
  -4  -2   011320.60  824.14   1-0.10350-0.41392-0.62949 0.48543 0.77007-0.77007
   4   2   011379.49  842.42   1 0.37169 0.14557-0.33454 0.47841-0.86598 0.86598
  -4  -2  -1 2108.00  287.67   1-0.18665-0.34931-0.65881 0.49685 0.72878-0.79442
   4   2   1 1659.81  196.08   1 0.47533 0.05991-0.25125 0.41309-0.84316 0.90871
  -4  -2  -2  981.75  169.97   1-0.26313-0.29090-0.68007 0.50019 0.68429-0.81558
   4   2   2  958.13  157.04   1 0.56682-0.01381-0.16632 0.34626-0.80687 0.93803
  -4  -2  -3 1245.92  307.22   1-0.33299-0.23878-0.69546 0.49777 0.63673-0.83378
   4   2   3 1263.00  194.48   1 0.64439-0.07326-0.08358 0.28145-0.76010 0.95677
  -4  -2  -4 1187.79  362.10   1-0.39709-0.19276-0.70484 0.48932 0.58780-0.85053
   4   2   4 1039.38  171.89   1 0.70833-0.11912-0.00465 0.22052-0.70585 0.96807
  -4  -2  -5 1282.32  280.88   1-0.45593-0.15198-0.70901 0.47562 0.53797-0.86641
   4   2   5 1944.33  382.84   1 0.75946-0.15195 0.06894 0.16492-0.64688 0.97453
  -4  -2  -6  564.35  165.58   1-0.50938-0.11663-0.70944 0.45818 0.48704-0.88117
   4   2   6  309.02  192.21   1 0.79942-0.17382 0.13716 0.11469-0.58490 0.97807
   4   2   7   94.12  121.97   1 0.55665 0.08638 0.70691-0.43747-0.43634 0.89507
   4   2   7  194.99  119.93   1 0.82957-0.18589 0.19992 0.06992-0.52137 0.98007
   4   2   8  272.71  176.23   1 0.60113 0.05992 0.70062-0.41323-0.38439 0.90865
   4   2   8  102.54  123.39   1 0.85130-0.18970 0.25716 0.03051-0.45732 0.98136
  -4  -3  13  336.55  159.03   1 0.69705-0.98984-0.02736 0.04507 0.71649 0.13484
  -4  -3  13  414.93  119.33   1 0.41506-0.70731 0.68029-0.66204 0.60408 0.24779
  -4  -3  12   67.83   75.72   1 0.68653-0.99734-0.04152 0.04127 0.72590 0.05994
  -4  -3  12  135.23   99.56   1 0.40346-0.71377 0.67892-0.67868 0.61341 0.17294
  -4  -3  11  325.66  134.65   1 0.66997-0.99880-0.06308 0.04487 0.73970-0.01933
  -4  -3  11  531.19  176.00   1 0.38529-0.71365 0.67649-0.69426 0.62761 0.09320
  -4  -3  10  764.12  175.72   1 0.64626-0.99312-0.09252 0.05634 0.75748-0.10260
  -4  -3  10  590.18  196.16   1 0.35967-0.70595 0.67230-0.70821 0.64702 0.00806
  -4  -3   9 4792.62  384.41   1 0.61485-0.97923-0.13066 0.07652 0.77774-0.18774
  -4  -3   9 4257.70  883.36   1 0.32496-0.68931 0.66589-0.71980 0.67155-0.08196
  -4  -3   8  261.92  108.67   1 0.57303-0.95552-0.17623 0.10411 0.80035-0.27591
  -4  -3   8  277.42  166.85   1 0.28004-0.66248 0.65599-0.72791 0.70088-0.17680
  -4  -3   7 1012.21  163.82   1 0.52049-0.92110-0.22900 0.13891 0.82258-0.36369
  -4  -3   7  941.36  254.23   1 0.22351-0.62410 0.64134-0.73121 0.73397-0.27533
  -4  -3   6 3966.18  393.07   1 0.45684-0.87560-0.28742 0.17930 0.84182-0.44851
  -4  -3   6 3586.86  572.06   1 0.15484-0.57351 0.61983-0.72771 0.76929-0.37618
  -4  -3   5  887.11  136.99   1 0.38287-0.81973-0.34891 0.22282 0.85537-0.52761
  -4  -3   5  884.37  215.86   1 0.07379-0.51054 0.58984-0.71571 0.80413-0.47653
  -4  -3   4 6994.04  637.40   1 0.30081-0.75563-0.41081 0.26683 0.86066-0.59817
  -4  -3   4 6165.61  574.66   1-0.01844-0.43639 0.54984-0.69372 0.83506-0.57298
  -4  -3   3 2510.30  302.58   1 0.21232-0.68531-0.46988 0.30791 0.85680-0.65994
   4   3  -3 1814.09  233.11   1 0.11842 0.35466-0.49777 0.65973-0.85918 0.66254
  -4  -3   2 1091.34  164.89   1 0.12156-0.61266-0.52421 0.34388 0.84286-0.71160
   4   3  -2 1864.99  231.63   1 0.22327 0.26784-0.43651 0.61642-0.87154 0.74046
  -4  -3   1 1855.57  183.87   1 0.03060-0.53992-0.57171 0.37355 0.81987-0.75427
   4   3  -1 1825.96  227.18   1 0.32772 0.18154-0.36685 0.56472-0.87063 0.80506
  -4  -3   0  191.54  121.84   1-0.05755-0.46989-0.61128 0.39519 0.78931-0.78931
   4   3   0  280.13  120.68   1 0.42720 0.10009-0.29169 0.50751-0.85581 0.85581
  -4  -3  -1 6437.58  752.40   1-0.14157-0.40451-0.64397 0.41000 0.75183-0.81747
   4   3   1 5319.60  283.54   1 0.51786 0.02715-0.21333 0.44720-0.82843 0.89402
  -4  -3  -2 3097.27  343.69   1-0.22023-0.34392-0.66876 0.41687 0.71010-0.84138
   4   3   2 2949.91  279.14   1 0.59758-0.03454-0.13482 0.38671-0.79038 0.92155
  -4  -3  -3 2361.30  484.95   1-0.29301-0.28879-0.68753 0.41773 0.66440-0.86145
   4   3   3 3067.04  364.11   1 0.66554-0.08435-0.05874 0.32856-0.74404 0.94070
  -4  -3  -4 1124.50  305.18   1-0.36069-0.23918-0.70004 0.41241 0.61630-0.87903
   4   3   4 1595.42  261.43   1 0.72196-0.12249 0.01385 0.27396-0.69179 0.95390
  -4  -3  -5  944.14  296.96   1-0.42340-0.19452-0.70696 0.40154 0.56650-0.89494
   4   3   5  981.87  255.80   1 0.76780-0.15024 0.08221 0.22359-0.63538 0.96303
  -4  -3  -6 1296.05  216.01   1-0.48070-0.15532-0.70969 0.38640 0.51502-0.90915
   4   3   6  851.77  290.10   1 0.80404-0.16839 0.14597 0.17783-0.57637 0.96954
   4   3   7  668.60  247.35   1 0.53176 0.12130 0.70891-0.36758-0.46331 0.92204
   4   3   7  109.68  114.37   1 0.83178-0.17805 0.20516 0.13663-0.51578 0.97448
  -4  -4  13  371.92  157.60   1 0.68889-0.99171-0.03838-0.01582 0.72384 0.12749
  -4  -4  13  127.86   97.56   1 0.35584-0.65793 0.67164-0.72553 0.64981 0.20180
  -4  -4  12  187.24  137.14   1 0.67760-0.99844-0.05325-0.01891 0.73349 0.05235
  -4  -4  12  310.81   93.89   1 0.33995-0.66013 0.66880-0.74068 0.66116 0.12495
  -4  -4  11  445.36  171.07   1 0.66066-0.99952-0.07483-0.01530 0.74694-0.02658
  -4  -4  11  477.69  190.67   1 0.31699-0.65524 0.66427-0.75415 0.67694 0.04365
  -4  -4  10 2392.91  434.59   1 0.63715-0.99404-0.10344-0.00465 0.76376-0.10889
  -4  -4  10 2504.94  523.59   1 0.28597-0.64231 0.65740-0.76528 0.69716-0.04206
  -4  -4   9 8183.53  610.58   1 0.60679-0.98120-0.13971 0.01360 0.78247-0.19248
  -4  -4   9 5863.72  604.45   1 0.24588-0.62029 0.64731-0.77319 0.72147-0.13188
  -4  -4   811754.56  744.13   1 0.56707-0.95959-0.18245 0.03836 0.80320-0.27876
  -4  -4   8 9889.81  708.65   1 0.19556-0.58814 0.63303-0.77686 0.74901-0.22485
  -4  -4   7 1241.65  160.20   1 0.51792-0.92856-0.23146 0.06940 0.82351-0.36462
  -4  -4   7 1726.90  296.79   1 0.13474-0.54540 0.61285-0.77468 0.77862-0.31998
  -4  -4   6 5895.03  298.72   1 0.45898-0.88779-0.28554 0.10545 0.84130-0.44798
  -4  -4   6 5443.80  643.48   1 0.06311-0.49186 0.58553-0.76536 0.80818-0.41506
  -4  -4   5 3028.74  248.53   1 0.39083-0.83775-0.34259 0.14452 0.85432-0.52656
  -4  -4   5 3289.91  356.50   1-0.01849-0.42833 0.54982-0.74765 0.83507-0.50747
  -4  -4   4 9197.34  820.00   1 0.31517-0.78004-0.40055 0.18459 0.86036-0.59787
   4   4  -4 9583.77  869.81   1 0.10728 0.35778-0.50379 0.71973-0.85713 0.59495
  -4  -4   312950.89 1120.41   1 0.23285-0.71589-0.45679 0.22284 0.85855-0.66168
   4   4  -312187.40 1061.17   1 0.20180 0.28130-0.44976 0.68364-0.87005 0.67342
  -4  -4   214668.97 1264.18   1 0.14740-0.64851-0.50961 0.25723 0.84768-0.71641
   4   4  -211381.54  995.68   1 0.29773 0.20354-0.38788 0.63974-0.87229 0.74114
  -4  -4   1 4572.33  449.13   1 0.06038-0.57961-0.55665 0.28635 0.82854-0.76291
   4   4  -1 5044.42  523.06   1 0.39131 0.12803-0.32017 0.58996-0.86276 0.79721
  -4  -4   0 2474.09  213.39   1-0.02559-0.51188-0.59763 0.30951 0.80136-0.80136
   4   4   0 2784.36  244.66   1 0.47870 0.05865-0.24832 0.53608-0.84212 0.84212
  -4  -4  -1 5476.30  406.25   1-0.10876-0.44683-0.63147 0.32542 0.76772-0.83332
   4   4   1 5262.25  439.80   1 0.55797-0.00292-0.17510 0.48092-0.81117 0.87675
  -4  -4  -2 3673.72  609.12   1-0.18807-0.38619-0.65925 0.33534 0.72801-0.85930
   4   4   2 4048.86  335.16   1 0.62754-0.05436-0.10262 0.42640-0.77178 0.90289
  -4  -4  -3 1450.82  402.12   1-0.26272-0.32961-0.67997 0.33814 0.68455-0.88148
   4   4   3 1949.68  285.22   1 0.68712-0.09587-0.03216 0.37392-0.72582 0.92248
  -4  -4  -4  251.27  161.35   1-0.33209-0.27781-0.69530 0.33556 0.63738-0.90011
   4   4   4  717.99  280.37   1 0.73692-0.12739 0.03502 0.32473-0.67507 0.93718
  -4  -4  -5  189.48   76.03   1-0.39702-0.23095-0.70483 0.32727 0.58785-0.91627
   4   4   5  162.71  173.54   1 0.77774-0.15012 0.09862 0.27913-0.62080 0.94844
  -4  -4  -6  249.70  140.85   1-0.45758-0.18846-0.70908 0.31377 0.53647-0.93060
   4   4   6  721.47  258.02   1 0.81032-0.16462 0.15834 0.23741-0.56418 0.95735
  -4  -4  -7  105.05   99.26   1-0.51309-0.15106-0.70933 0.29614 0.48330-0.94312
  -4  -5  13  417.93  166.41   1 0.67751-0.99037-0.05337-0.07277 0.73356 0.11776
  -4  -5  13   61.69  108.42   1 0.28875-0.60090 0.65805-0.78390 0.69540 0.15621
  -4  -5  12  372.27  170.46   1 0.66538-0.99626-0.06890-0.07519 0.74331 0.04253
  -4  -5  12  394.05  231.91   1 0.26860-0.59883 0.65319-0.79705 0.70794 0.07816
  -4  -5  11  918.78  283.86   1 0.64788-0.99679-0.09055-0.07151 0.75633-0.03597
  -4  -5  11 1282.31  222.76   1 0.24105-0.58936 0.64600-0.80786 0.72427-0.00366
  -4  -5  10 4227.58  306.03   1 0.62505-0.99137-0.11899-0.06111 0.77145-0.11590
  -4  -5  10 3315.11  711.46   1 0.20508-0.57158 0.63593-0.81572 0.74399-0.08879
  -4  -5   9 2115.58  396.32   1 0.59446-0.97890-0.15331-0.04477 0.78937-0.19937
  -4  -5   9 2074.16  395.12   1 0.16046-0.54504 0.62173-0.81952 0.76661-0.17693
  -4  -5   810969.76  782.18   1 0.55607-0.95862-0.19376-0.02229 0.80822-0.28378
  -4  -5   810423.83  768.78   1 0.10644-0.50909 0.60251-0.81830 0.79097-0.26682
  -4  -5   7 8176.20  564.98   1 0.50927-0.92994-0.23970 0.00566 0.82654-0.36765
  -4  -5   7 6058.53 1150.51   1 0.04294-0.46368 0.57715-0.81095 0.81550-0.35686
  -4  -5   6 7334.18  499.50   1 0.45372-0.89258-0.29015 0.03808 0.84258-0.44926
  -4  -5   6 6449.08  465.64   1-0.02942-0.40939 0.54467-0.79646 0.83813-0.44501
  -4  -5   510877.90  410.87   1 0.38991-0.84689-0.34332 0.07328 0.85445-0.52669
   4   5  -510707.04  420.53   1 0.10822 0.34882-0.50328 0.77320-0.85731 0.52959
  -4  -5   417969.78  544.13   1 0.31922-0.79415-0.39761 0.10967 0.86022-0.59773
   4   5  -418203.23  581.37   1 0.19309 0.28198-0.45502 0.74289-0.86929 0.60711
  -4  -5   3 1103.85  185.97   1 0.24199-0.73508-0.45084 0.14491 0.85916-0.66230
   4   5  -3  585.34  146.03   1 0.28043 0.21283-0.39964 0.70550-0.87271 0.67598
  -4  -5   2 4840.18  304.42   1 0.16126-0.67238-0.50156 0.17713 0.84995-0.71869
   4   5  -2 4475.04  269.53   1 0.36688 0.14447-0.33817 0.66197-0.86662 0.73547
  -4  -5   1 9637.33  636.00   1 0.07810-0.60733-0.54756 0.20521 0.83311-0.76748
   4   5  -110557.75  691.77   1 0.44994 0.07946-0.27292 0.61465-0.85033 0.78478
  -4  -5   0 2393.62  290.04   1-0.00510-0.54239-0.58846 0.22831 0.80850-0.80850
   4   5   0 2797.43  328.60   1 0.52669 0.02035-0.20511 0.56486-0.82493 0.82493
  -4  -5  -1 1240.90  214.91   1-0.08668-0.47893-0.62302 0.24494 0.77738-0.84298
   4   5   1 1418.02  223.96   1 0.59583-0.03075-0.13666 0.51443-0.79139 0.85697
  -4  -5  -2 1614.06  391.31   1-0.16549-0.41888-0.65205 0.25612 0.73988-0.87116
   4   5   2 2063.06  403.13   1 0.65655-0.07331-0.06944 0.46516-0.75107 0.88218
  -4  -5  -3   96.49   93.12   1-0.24054-0.36190-0.67432 0.26047 0.69816-0.89508
   4   5   3   79.66  133.59   1 0.70872-0.10740-0.00414 0.41785-0.70547 0.90214
  -4  -5  -4  133.65  102.14   1-0.31093-0.30899-0.69128 0.25943 0.65226-0.91499
   4   5   4  479.64  228.26   1 0.75254-0.13297 0.05825 0.37345-0.65595 0.91806
  -4  -5  -5  327.33  133.46   1-0.37750-0.26050-0.70243 0.25275 0.60338-0.93180
   4   5   5  364.68  158.46   1 0.78870-0.15103 0.11758 0.33211-0.60342 0.93106
  -4  -5  -6  135.16  126.24   1-0.44008-0.21599-0.70817 0.24083 0.55209-0.94622
   4   5   6  407.18  171.93   1 0.81773-0.16198 0.17362 0.29407-0.54878 0.94195
  -4  -6  12 1852.98  242.24   1 0.65031-0.99122-0.08760-0.12843 0.75459 0.03125
  -4  -6  12 1032.28  298.63   1 0.18999-0.53039 0.63130-0.84705 0.75190 0.03433
  -4  -6  11 2918.86  294.85   1 0.63297-0.99120-0.10977-0.12433 0.76635-0.04524
  -4  -6  11 1196.92  486.43   1 0.15837-0.51686 0.62103-0.85478 0.76761-0.04689
  -4  -6  10 2094.14  225.10   1 0.60905-0.98540-0.13719-0.11488 0.78117-0.12562
  -4  -6  10 1476.88  434.81   1 0.11876-0.49533 0.60709-0.85884 0.78570-0.13050
  -4  -6   9 2725.22  289.62   1 0.57864-0.97311-0.17030-0.09975 0.79759-0.20759
  -4  -6   9 2189.50  465.74   1 0.07081-0.46546 0.58864-0.85840 0.80528-0.21560
  -4  -6   8 1129.98  241.63   1 0.54111-0.95369-0.20883-0.07920 0.81460-0.29016
  -4  -6   8 1442.19  290.46   1 0.01450-0.42723 0.56484-0.85259 0.82507-0.30091
  -4  -6   7 2443.02  289.63   1 0.49596-0.92665-0.25217-0.05384 0.83092-0.37203
  -4  -6   7 2433.77  284.49   1-0.04971-0.38109 0.53488-0.84063 0.84346-0.38482
  -4  -6   6 2827.45  334.11   1 0.44288-0.89180-0.29951-0.02452 0.84506-0.45175
   4   6  -6 3416.09  337.69   1 0.11953 0.32950-0.49717 0.82107-0.85937 0.46611
  -4  -6   5  122.95  110.62   1 0.38238-0.84941-0.34929 0.00728 0.85543-0.52767
   4   6  -5  246.32  121.67   1 0.19550 0.27156-0.45357 0.79543-0.86950 0.54178
  -4  -6   4 1005.91  174.46   1 0.31561-0.80058-0.40023 0.04031 0.86034-0.59785
   4   6  -4 1030.11  177.98   1 0.27450 0.21077-0.40362 0.76347-0.87277 0.61047
  -4  -6   3 1761.99  256.20   1 0.24254-0.74568-0.45049 0.07258 0.85920-0.66233
   4   6  -3 1137.62  186.95   1 0.35373 0.14961-0.34796 0.72575-0.86821 0.67148
  -4  -6   211113.05  719.78   1 0.16588-0.68700-0.49884 0.10236 0.85066-0.71940
   4   6  -210755.86  707.07   1 0.43126 0.09019-0.28838 0.68409-0.85489 0.72379
  -4  -6   1 2922.18  333.06   1 0.08629-0.62553-0.54327 0.12887 0.83510-0.76947
   4   6  -1 2361.58  287.00   1 0.50412 0.03533-0.22573 0.63940-0.83360 0.76805
  -4  -6   0 3778.68  353.77   1 0.00596-0.56347-0.58338 0.15120 0.81217-0.81217
   4   6   0 4591.44  421.77   1 0.57126-0.01417-0.16189 0.59358-0.80464 0.80464
  -4  -6  -1 2884.55  284.11   1-0.07364-0.50200-0.61784 0.16773 0.78284-0.84844
   4   6   1 2847.37  312.03   1 0.63151-0.05629-0.09819 0.54786-0.76911 0.83467
  -4  -6  -2 1012.38  253.76   1-0.15134-0.44315-0.64733 0.17938 0.74703-0.87831
   4   6   2 1189.98  279.21   1 0.68441-0.09112-0.03557 0.50323-0.72822 0.85933
  -4  -6  -3  407.81  156.03   1-0.22607-0.38648-0.67040 0.18453 0.70671-0.90364
   4   6   3  879.92  300.64   1 0.72993-0.11838 0.02500 0.46065-0.68306 0.87964
  -4  -6  -4   84.92   57.46   1-0.29673-0.33321-0.68834 0.18438 0.66191-0.92464
   4   6   4  142.66  131.46   1 0.76841-0.13878 0.08320 0.42045-0.63452 0.89663
  -4  -6  -5  508.11  174.43   1-0.36420-0.28382-0.70056 0.17878 0.61364-0.94206
   4   6   5   78.27  126.49   1 0.80022-0.15251 0.13868 0.38296-0.58344 0.91108
  -4  -7  12  755.74  170.82   1 0.63349-0.98364-0.10916-0.17894 0.76600 0.02065
  -4  -7  12  450.83  183.15   1 0.10562-0.45610 0.60220-0.88991 0.79132-0.00508
  -4  -7  11  723.29  244.90   1 0.61463-0.98289-0.13091-0.17517 0.77787-0.05676
  -4  -7  11  182.96  139.46   1 0.07076-0.43932 0.58862-0.89433 0.80530-0.08458
  -4  -7  10  159.45  164.46   1 0.59028-0.97665-0.15785-0.16620 0.79161-0.13606
  -4  -7  10  108.09   70.73   1 0.02841-0.41506 0.57093-0.89465 0.82050-0.16530
  -4  -7   9  553.78  182.73   1 0.55985-0.96434-0.18990-0.15213 0.80653-0.21653
  -4  -7   9  168.15   93.22   1-0.02138-0.38334 0.54846-0.89018 0.83589-0.24621
  -4  -7   8  313.49  154.57   1 0.52283-0.94544-0.22674-0.13326 0.82172-0.29728
   4   7  -8  408.71  201.06   1 0.07703 0.34594-0.51966 0.87960-0.85088 0.32653
  -4  -7   7 1148.66  249.73   1 0.47885-0.91957-0.26783-0.11016 0.83604-0.37715
   4   7  -7 1510.73  302.38   1 0.13988 0.30112-0.48592 0.86381-0.86273 0.40392
  -4  -7   6 1819.00  348.83   1 0.42763-0.88660-0.31246-0.08355 0.84822-0.45491
   4   7  -6 2117.78  391.38   1 0.20764 0.25141-0.44619 0.84203-0.87051 0.47724
  -4  -7   512151.51  884.64   1 0.36968-0.84676-0.35923-0.05475 0.85690-0.52913
   4   7  -510156.78  735.41   1 0.27868 0.19859-0.40082 0.81467-0.87274 0.54485
  -4  -7   4  841.71  165.05   1 0.30601-0.80104-0.40711-0.02478 0.86058-0.59809
   4   7  -4  587.92  171.14   1 0.35067 0.14467-0.35021 0.78201-0.86854 0.60624
  -4  -7   3 6550.66  535.18   1 0.23635-0.74954-0.45452 0.00463 0.85880-0.66193
   4   7  -3 6821.06  532.79   1 0.42216 0.09133-0.29577 0.74546-0.85690 0.66025
  -4  -7   2  486.60  191.68   1 0.16315-0.69428-0.50044 0.03191 0.85025-0.71898
   4   7  -2  576.50  222.36   1 0.49034 0.04117-0.23808 0.70573-0.83838 0.70727
  -4  -7   1   76.68   99.07   1 0.08677-0.63602-0.54301 0.05657 0.83522-0.76959
   4   7  -1  390.13  198.54   1 0.55422-0.00513-0.17877 0.66440-0.81293 0.74735
  -4  -7   0 2329.38  245.70   1 0.00920-0.57674-0.58187 0.07766 0.81322-0.81322
   4   7   0 2370.67  294.03   1 0.61266-0.04554-0.11875 0.62240-0.78137 0.78137
  -4  -7  -1 1758.93  242.43   1-0.06828-0.51737-0.61568 0.09354 0.78502-0.85062
   4   7   1 1924.30  229.72   1 0.66503-0.07975-0.05935 0.58097-0.74445 0.81000
  -4  -7  -2  460.77  173.14   1-0.14456-0.46004-0.64501 0.10504 0.75037-0.88166
   4   7   2  837.20  290.48   1 0.71100-0.10764-0.00108 0.54070-0.70318 0.83429
  -4  -7  -3  219.66  107.89   1-0.21853-0.40414-0.66828 0.11039 0.71108-0.90801
   4   7   3  154.06  121.15   1 0.75061-0.12901 0.05530 0.50230-0.65842 0.85501
  -4  -7  -4  196.93  136.93   1-0.28896-0.35100-0.68665 0.11058 0.66708-0.92982
   4   7   4  354.42  160.79   1 0.78416-0.14447 0.10961 0.46599-0.61079 0.87291
  -4  -8  11  773.11  182.87   1 0.59385-0.97215-0.15397-0.22408 0.78969-0.06859
  -4  -8  11  405.28  116.07   1-0.02048-0.35815 0.54889-0.92656 0.83564-0.11492
  -4  -8  10  360.11  152.17   1 0.56898-0.96539-0.18045-0.21557 0.80230-0.14674
  -4  -8   9 1185.90  226.55   1 0.53839-0.95291-0.21152-0.20248 0.81571-0.22571
   4   8  -9 1147.11  176.35   1 0.11281 0.30214-0.50081 0.91473-0.85816 0.26827
  -4  -8   8  391.97  156.63   1 0.50166-0.93430-0.24686-0.18512 0.82909-0.30464
   4   8  -8  268.19  131.55   1 0.16833 0.26466-0.46967 0.90154-0.86664 0.34228
  -4  -8   7 4504.85  355.85   1 0.45834-0.90925-0.28611-0.16392 0.84146-0.38259
   4   8  -7 5459.88  393.23   1 0.22844 0.22259-0.43327 0.88310-0.87182 0.41301
  -4  -8   6 9773.29  838.81   1 0.40869-0.87771-0.32816-0.13983 0.85163-0.45831
   4   8  -6 9531.24  558.12   1 0.29193 0.17734-0.39185 0.85970-0.87248 0.47902
  -4  -8   5 9641.64  570.98   1 0.35273-0.83987-0.37223-0.11373 0.85849-0.53073
   4   8  -5 9550.04  563.82   1 0.35679 0.13056-0.34570 0.83148-0.86786 0.53998
  -4  -8   4 7703.55  494.86   1 0.29156-0.79663-0.41731-0.08656 0.86071-0.59822
   4   8  -4 8260.56  508.34   1 0.42201 0.08354-0.29589 0.79956-0.85694 0.59473
  -4  -8   3 2352.45  255.84   1 0.22470-0.74794-0.46203-0.05983 0.85792-0.66105
   4   8  -3 2804.98  287.36   1 0.48495 0.03860-0.24284 0.76447-0.84014 0.64349
  -4  -8   2 4778.82  383.84   1 0.15443-0.69557-0.50554-0.03503 0.84886-0.71760
   4   8  -2 5192.25  395.59   1 0.54477-0.00367-0.18795 0.72751-0.81725 0.68608
  -4  -8   1  204.46  122.11   1 0.08088-0.64013-0.54611-0.01238 0.83379-0.76816
   4   8  -1  243.74  152.01   1 0.60040-0.04127-0.13185 0.68943-0.78875 0.72317
  -4  -8   0  133.79  105.36   1 0.00585-0.58341-0.58343 0.00719 0.81213-0.81213
   4   8   0  235.01  182.73   1 0.65113-0.07387-0.07578 0.65135-0.75516 0.75516
  -4  -8  -1 1716.25  258.35   1-0.06955-0.52613-0.61619 0.02202 0.78451-0.85011
   4   8   1 1723.60  286.81   1 0.69641-0.10106-0.02030 0.61386-0.71735 0.78291
  -4  -8  -2 1354.92  483.76   1-0.14425-0.47045-0.64490 0.03291 0.75052-0.88180
   4   8   2 1776.83  300.29   1 0.73615-0.12259 0.03391 0.57765-0.67596 0.80702
  -4  -8  -3  731.30  261.86   1-0.21721-0.41557-0.66790 0.03800 0.71183-0.90876
   4   8   3 1167.59  260.11   1 0.77046-0.13881 0.08654 0.54301-0.63158 0.82816
   4   9 -10  804.09  168.51   1 0.15558 0.25135-0.47703 0.94493-0.86500 0.20956
  -4  -9   9  175.41  116.27   1 0.51447-0.93903-0.23476-0.25122 0.82473-0.23474
   4   9  -9  270.57  123.58   1 0.20419 0.22078-0.44830 0.93416-0.87024 0.28034
  -4  -9   8  314.67  168.44   1 0.47786-0.92053-0.26871-0.23525 0.83632-0.31187
   4   9  -8  166.00  122.26   1 0.25733 0.18586-0.41495 0.91885-0.87268 0.34808
  -4  -9   7 1787.89  252.56   1 0.43511-0.89608-0.30615-0.21586 0.84672-0.38785
   4   9  -7 1008.50  294.31   1 0.31338 0.14789-0.37701 0.89885-0.87157 0.41254
  -4  -9   6 2168.29  245.40   1 0.38654-0.86562-0.34600-0.19397 0.85490-0.46158
   4   9  -6 1476.85  212.38   1 0.37128 0.10807-0.33485 0.87463-0.86603 0.47257
  -4  -9   5   83.97   98.34   1 0.33216-0.82935-0.38762-0.17032 0.85989-0.53212
   4   9  -5  599.09  211.96   1 0.43015 0.06744-0.28929 0.84694-0.85514 0.52739
  -4  -9   4  181.62  149.90   1 0.27300-0.78813-0.43013-0.14573 0.86049-0.59800
   4   9  -4  246.80  109.70   1 0.48752 0.02808-0.24057 0.81618-0.83931 0.57710
  -4  -9   3  179.38  109.61   1 0.20846-0.74175-0.47230-0.12154 0.85642-0.65955
   4   9  -3  184.20  111.72   1 0.54271-0.00960-0.18993 0.78342-0.81816 0.62141
  -4  -9   2 2807.09  328.76   1 0.14067-0.69181-0.51346-0.09916 0.84649-0.71523
   4   9  -2 2907.79  296.38   1 0.59478-0.04365-0.13776 0.74926-0.79199 0.66082
  -4  -9   1 3489.20  410.00   1 0.06957-0.63882-0.55196-0.07857 0.83095-0.76532
   4   9  -1 2310.45  323.22   1 0.64302-0.07377-0.08516 0.71468-0.76109 0.69554
  -4  -9   0 1114.32  228.48   1-0.00314-0.58444-0.58757-0.06069 0.80916-0.80916
   4   9   0 1024.97  249.55   1 0.68668-0.09935-0.03272 0.68024-0.72622 0.72622
  -4  -9  -1  456.89  158.84   1-0.07658-0.52912-0.61902-0.04717 0.78162-0.84722
   4   9   1  188.91  138.67   1 0.72563-0.12010 0.01895 0.64656-0.68781 0.75334
  -4 -10   9 6422.21  487.34   1 0.48823-0.92281-0.25929-0.29867 0.83330-0.24330
   4  10  -9 5789.83  411.49   1 0.29333 0.14186-0.39089 0.94879-0.87244 0.28225
  -4 -10   8 2028.43  276.66   1 0.45143-0.90434-0.29214-0.28387 0.84312-0.31870
   4  10  -8 2124.37  268.97   1 0.34239 0.11087-0.35627 0.93211-0.86938 0.34477
  -4 -10   7 1327.90  213.77   1 0.40926-0.88028-0.32769-0.26628 0.85153-0.39266
   4  10  -7 1446.43  195.47   1 0.39406 0.07758-0.31804 0.91170-0.86230 0.40344
  -4 -10   6  544.46  200.28   1 0.36151-0.85065-0.36553-0.24641 0.85772-0.46440
   4  10  -6  209.28  106.10   1 0.44598 0.04366-0.27623 0.88785-0.85134 0.45804
  -4 -10   5 1508.36  254.78   1 0.30905-0.81606-0.40494-0.22490 0.86052-0.53241
   4  10  -5 1544.37  268.68   1 0.49759 0.01006-0.23161 0.86120-0.83591 0.50816
  -4 -10   4 2129.91  316.07   1 0.25086-0.77603-0.44501-0.20283 0.85966-0.59717
   4  10  -4 1502.70  261.40   1 0.54775-0.02264-0.18506 0.83248-0.81591 0.55358
  -4 -10   3  344.60  167.68   1 0.18824-0.73158-0.48478-0.18105 0.85413-0.65726
   4  10  -3  238.14  122.06   1 0.59572-0.05258-0.13678 0.80221-0.79145 0.59470
  -4 -10   2 1929.68  249.71   1 0.12253-0.68367-0.52367-0.16101 0.84306-0.71179
   4  10  -2 2058.15  252.91   1 0.64077-0.07953-0.08773 0.77121-0.76270 0.63159
  -4 -10   1  800.95  169.86   1 0.05356-0.63282-0.56008-0.14251 0.82669-0.76106
   4  10  -1 1102.01  219.89   1 0.68206-0.10275-0.03852 0.73999-0.73027 0.66472
  -5   9   5  249.75  122.38   1 0.54642-0.98662 0.68506 0.05280 0.48177-0.15423
   5  -9   4  148.38   78.26   1 0.86862-0.26554 0.38759-0.96296 0.30864-0.04664
   5  -9   5  214.35  103.37   1 0.86876-0.24768 0.41012-0.96755 0.27757 0.04991
  -5   8   6 1667.77  228.34   1 0.56547-0.99767 0.68377 0.00013 0.46118-0.06812
  -5   8   5  980.92  252.49   1 0.53577-0.98603 0.68554-0.01964 0.49292-0.16537
  -5   8   4  843.84  247.56   1 0.49243-0.96097 0.68560-0.03781 0.53614-0.27402
  -5   8   3  447.39  145.36   1 0.43082-0.91742 0.68192-0.05215 0.59106-0.39447
   5  -8   3 3326.62  276.29   1 0.86685-0.27178 0.44021-0.96162 0.23402-0.03753
   5  -8   4 2523.79  253.08   1 0.86371-0.25063 0.46262-0.96609 0.19994 0.06205
   5  -8   5  522.51  206.19   1 0.86088-0.22947 0.47627-0.96189 0.17898 0.14865
   5  -8   6  348.60  159.10   1 0.85917-0.20972 0.48359-0.95128 0.16719 0.22597
  -5   7   7 1407.75  213.31   1 0.57436-0.99856 0.68297-0.05301 0.45127 0.00728
  -5   7   6 1415.27  254.41   1 0.55161-0.99386 0.68476-0.07283 0.47625-0.08319
  -5   7   5  929.42  269.73   1 0.51848-0.97880 0.68597-0.09205 0.51050-0.18296
  -5   7   4  852.21  191.69   1 0.47102-0.94960 0.68483-0.10901 0.55599-0.29387
  -5   7   3  554.64  137.61   1 0.40467-0.90130 0.67907-0.12126 0.61245-0.41586
  -5   7   2  357.76  130.24   1 0.31185-0.82641 0.66319-0.12339 0.68038-0.54936
  -5   7   1  925.32  290.52   1 0.18349-0.71606 0.62925-0.10752 0.75522-0.68970
   5  -7   1 4684.16  314.50   1 0.86416-0.29510 0.45998-0.94536 0.20403-0.13853
   5  -7   2 2890.14  226.74   1 0.85593-0.26866 0.49562-0.96309 0.14738-0.01632
   5  -7   3  676.58  167.87   1 0.84893-0.24361 0.51658-0.96613 0.11155 0.08503
   5  -7   4 1425.43  183.06   1 0.84412-0.22075 0.52846-0.96009 0.09042 0.17169
   5  -7   5  194.55  131.19   1 0.84155-0.20013 0.53422-0.94794 0.07994 0.24769
   5  -7   6  100.10  103.91   1 0.84093-0.18146 0.53555-0.93135 0.07750 0.31567
   5  -7   7  363.67  181.92   1 0.84189-0.16438 0.53347-0.91135 0.08132 0.37737
  -5   6   8 1396.78  235.21   1 0.57532-0.99152 0.68287-0.10687 0.45019 0.07387
  -5   6   6 1583.78  201.94   1 0.53150-0.98381 0.68568-0.14572 0.49733-0.10427
  -5   6   5  628.65  184.07   1 0.49396-0.96452 0.68563-0.16377 0.53469-0.20705
  -5   6   4 1648.50  314.10   1 0.44186-0.93048 0.68291-0.17905 0.58170-0.31958
  -5   6   3 1546.54  294.61   1 0.37007-0.87673 0.67420-0.18836 0.63913-0.44254
  -5   6   2  221.56   97.48   1 0.27227-0.79689 0.65410-0.18628 0.70569-0.57468
  -5   6   1 2915.60  584.28   1 0.14203-0.68467 0.61542-0.16565 0.77529-0.70977
   5  -6   0 4536.13  342.48   1 0.84711-0.28592 0.52126-0.95266 0.10331-0.10331
  -5   6   0 4054.01  306.07   1-0.02590-0.53481 0.54633-0.11456 0.83716-0.83716
   5  -6   1 1875.87  194.50   1 0.83146-0.25222 0.55391-0.96740 0.04287 0.02265
   5  -6   2 1422.62  281.25   1 0.82062-0.22351 0.57140-0.96697 0.00856 0.12250
   5  -6   3  237.23  107.06   1 0.81431-0.19918 0.58033-0.95794-0.00994 0.20655
   5  -6   4  411.12  174.70   1 0.81173-0.17857 0.58377-0.94342-0.01723 0.27937
   5  -6   5 3129.52  302.64   1 0.81204-0.16086 0.58337-0.92506-0.01637 0.34405
   5  -6   6 1177.81  197.08   1 0.81453-0.14533 0.58004-0.90378-0.00934 0.40256
   5  -6   7  239.48  131.82   1 0.81861-0.13139 0.57433-0.88011 0.00254 0.45621
  -5   5   9  198.37  142.46   1 0.56968-0.97788 0.68341-0.16136 0.45651 0.13306
  -5   5   8  222.99  112.58   1 0.55592-0.98218 0.68449-0.18046 0.47160 0.05246
  -5   5   7 1338.15  198.72   1 0.53493-0.97925 0.68557-0.19956 0.49379-0.03522
  -5   5   6 6205.57  408.37   1 0.50474-0.96711 0.68601-0.21802 0.52404-0.13098
  -5   5   510055.00  593.67   1 0.46241-0.94301 0.68437-0.23447 0.56373-0.23609
  -5   5   4 4854.19  385.71   1 0.40480-0.90345 0.67908-0.24720 0.61235-0.35023
  -5   5   310155.15  776.28   1 0.32724-0.84384 0.66635-0.25250 0.66998-0.47345
  -5   5   2 8661.54 1014.66   1 0.22471-0.75939 0.64144-0.24559 0.73351-0.60249
   5  -5  -1 4507.61  327.10   1 0.80784-0.25477 0.58873-0.96626-0.02788-0.03764
  -5   5   1 3384.94  622.03   1 0.09351-0.64622 0.59758-0.21977 0.79633-0.73081
   5  -5   0 3687.73  294.62   1 0.78508-0.21399 0.61359-0.97317-0.08449 0.08449
   5  -5   1 1900.92  210.82   1 0.77221-0.18324 0.62515-0.96663-0.11343 0.17897
   5  -5   1 2090.23  210.36   1 0.25152 0.33754-0.41874 0.07699-0.87257 0.93815
   5  -5   2 1953.30  222.28   1 0.76660-0.15961 0.62977-0.95330-0.12530 0.25636
   5  -5   2 2221.48  217.01   1 0.43714 0.16999-0.28355-0.04021-0.85352 0.98462
   5  -5   3  276.57  115.60   1 0.76604-0.14103 0.63022-0.93580-0.12647 0.32307
   5  -5   4  492.53  188.96   1 0.76906-0.12603 0.62778-0.91541-0.12015 0.38228
   5  -5   5  439.25  186.45   1 0.77460-0.11340 0.62317-0.89295-0.10795 0.43563
   5  -5   6   43.65   94.86   1 0.78188-0.10266 0.61663-0.86845-0.09180 0.48502
   5  -5   7  102.96  108.20   1 0.79033-0.09309 0.60841-0.84227-0.07219 0.53095
   5  -5   8  158.92  115.47   1 0.79949-0.08423 0.59861-0.81451-0.04970 0.57399
  -5   4  10  193.99  120.18   1 0.55826-0.95845 0.68433-0.21624 0.46907 0.18600
  -5   4   9 1311.85  232.54   1 0.54761-0.96587 0.68500-0.23493 0.48050 0.10907
  -5   4   8  251.29  106.14   1 0.53063-0.96694 0.68571-0.25366 0.49821 0.02585
  -5   4   7 6175.65  408.00   1 0.50576-0.96013 0.68601-0.27199 0.52304-0.06448
  -5   4   6 6631.62  462.03   1 0.47079-0.94338 0.68482-0.28888 0.55620-0.16302
  -5   4   5 3188.48  773.37   1 0.42332-0.91395 0.68118-0.30325 0.59731-0.26966
  -5   4   4 1096.87  138.14   1 0.35991-0.86849 0.67234-0.31246 0.64684-0.38481
   5  -4  -3   27.39   28.30   1 0.77389-0.24696 0.62372-0.96513-0.10982-0.08676
  -5   4   3  163.62   86.82   1 0.27667-0.80333 0.65518-0.31330 0.70298-0.50645
   5  -4  -2  282.70   76.82   1 0.72548-0.18053 0.65743-0.98088-0.20362 0.07255
  -5   4   2  455.20  123.67   1 0.17048-0.71519 0.62505-0.30120 0.76173-0.63069
   5  -4  -1  169.48   81.25   1 0.70309-0.14013 0.66890-0.97440-0.24128 0.17575
  -5   4   1  140.58  105.23   1 0.03965-0.60244 0.57575-0.26991 0.81665-0.75113
   5  -4   0  227.07  114.64   1 0.69461-0.11363 0.67273-0.96028-0.25483 0.25483
   5  -4   0  342.14  131.13   1 0.11442 0.46691-0.49994 0.21220-0.85846 0.85846
   5  -4   1  391.81  117.12   1 0.69447-0.09547 0.67279-0.94239-0.25506 0.32059
   5  -4   1  140.30   95.31   1 0.27904 0.32010-0.40058 0.13077-0.87273 0.93831
   5  -4   2  281.41  100.44   1 0.69963-0.08262 0.67049-0.92214-0.24685 0.37792
   5  -4   2  585.97   95.59   1 0.44044 0.17675-0.28083 0.02899-0.85272 0.98382
   5  -4   3 1450.56  189.57   1 0.70827-0.07324 0.66643-0.90012-0.23282 0.42942
   5  -4   3 1913.20  204.51   1 0.58326 0.05179-0.14969-0.08404-0.79836 0.99511
   5  -4   4  763.62  192.90   1 0.71919-0.06614 0.66087-0.87661-0.21450 0.47663
   5  -4   4  534.65  160.46   1 0.69614-0.04310-0.02064-0.19516-0.71760 0.97982
   5  -4   5  650.03  189.00   1 0.73157-0.06050 0.65392-0.85171-0.19283 0.52050
   5  -4   6  278.83  123.94   1 0.74482-0.05573 0.64564-0.82547-0.16847 0.56167
   5  -4   7  520.69  225.36   1 0.75851-0.05140 0.63603-0.79791-0.14184 0.60057
   5  -4   8   27.49  107.04   1 0.77230-0.04718 0.62507-0.76900-0.11323 0.63749
  -5   3  11  602.06  177.43   1 0.54153-0.93373 0.68530-0.27117 0.48692 0.23367
  -5   3  10  112.00  106.20   1 0.53348-0.94373 0.68562-0.28951 0.49528 0.15980
  -5   3   9  101.37   96.05   1 0.51972-0.94803 0.68595-0.30786 0.50926 0.08031
  -5   3   8  255.73  134.29   1 0.49893-0.94544 0.68572-0.32572 0.52995-0.00571
  -5   3   7 1728.65  353.99   1 0.46966-0.93423 0.68477-0.34278 0.55722-0.09851
  -5   3   6  323.09  123.92   1 0.42975-0.91237 0.68182-0.35785 0.59196-0.19878
  -5   3   5 2361.67  269.39   1 0.37663-0.87730 0.67522-0.36926 0.63420-0.30656
   5  -3  -4  451.91   97.81   1 0.59724-0.07831 0.70133-0.98880-0.38914 0.12701
  -5   3   4  627.17  161.85   1 0.30744-0.82607 0.66224-0.37433 0.68330-0.42127
   5  -3  -3  161.04   54.24   1 0.57301-0.03606 0.70503-0.97455-0.41782 0.22123
  -5   3   3  152.75   61.76   1 0.21935-0.75605 0.64014-0.37025 0.73627-0.53971
   5  -3  -2  398.21   78.01   1 0.57031-0.01534 0.70537-0.95694-0.42092 0.28986
   5  -3  -1  262.63   91.20   1 0.57791-0.00492 0.70437-0.93799-0.41215 0.34662
  -5   3   1  295.20   85.07   1-0.01783-0.55503 0.55012-0.31624 0.83488-0.76936
   5  -3   0  573.03  122.34   1 0.59115-0.00014 0.70236-0.91803-0.39650 0.39650
   5  -3   0 1537.49  177.62   1 0.16240 0.42895-0.47311 0.25730-0.86590 0.86590
   5  -3   1  897.40  146.55   1 0.60766 0.00135 0.69938-0.89709-0.37630 0.44184
   5  -3   1  422.79  123.04   1 0.31114 0.29808-0.37857 0.18071-0.87170 0.93727
   5  -3   2  573.17  162.79   1 0.62608 0.00096 0.69536-0.87512-0.35283 0.48390
   5  -3   2  221.41   81.22   1 0.45318 0.17407-0.27020 0.09030-0.84948 0.98058
   5  -3   3 4748.08  402.36   1 0.64553-0.00047 0.69025-0.85206-0.32684 0.52343
   5  -3   3 4407.00  352.13   1 0.57832 0.06677-0.15474-0.00704-0.80099 0.99774
   5  -3   4 7166.27  490.30   1 0.66547-0.00239 0.68400-0.82786-0.29879 0.56092
   5  -3   4 6090.45  388.77   1 0.67960-0.01650-0.04157-0.10228-0.73239 0.99461
   5  -3   5 1792.62  229.12   1 0.68548-0.00439 0.67656-0.80246-0.26902 0.59668
   5  -3   5 1566.98  311.27   1 0.75606-0.07457 0.06365-0.18952-0.65139 0.97903
   5  -3   6  310.63  163.61   1 0.70528-0.00617 0.66787-0.77582-0.23772 0.63092
   5  -3   7  233.24  130.18   1 0.72465-0.00752 0.65789-0.74788-0.20505 0.66378
   5  -3   8  517.11  189.46   1 0.74342-0.00827 0.64656-0.71860-0.17110 0.69536
  -5   2  11  503.21  190.67   1 0.51398-0.91623 0.68601-0.34386 0.51498 0.20561
  -5   2  10   72.46   98.36   1 0.50291-0.92322 0.68600-0.36186 0.52581 0.12927
  -5   2   9  300.93  155.69   1 0.48554-0.92404 0.68541-0.37937 0.54262 0.04713
  -5   2   8  536.90  183.71   1 0.46068-0.91722 0.68426-0.39623 0.56528-0.04104
  -5   2   7 3701.98  341.85   1 0.42662-0.90122 0.68151-0.41150 0.59457-0.13587
  -5   2   6  406.32  118.33   1 0.38136-0.87402 0.67592-0.42392 0.63062-0.23744
  -5   2   5 4456.72  390.02   1-0.31098-0.20046-0.69129 0.92463 0.65222-0.32381
  -5   2   5 5276.46  691.89   1 0.32269-0.83330 0.66543-0.43149 0.67309-0.34554
  -5   2   432990.45 5806.18   1-0.34695-0.18257-0.69787 0.91339 0.62657-0.36384
  -5   2   432710.53 1066.81   1 0.24817-0.77687 0.64792-0.43198 0.72013-0.45809
  -5   2   3 4852.82  194.74   1-0.38333-0.16426-0.70319 0.90089 0.59880-0.40175
  -5   2   3 4836.98  514.64   1 0.15631-0.70309 0.62033-0.42240 0.76860-0.57204
  -5   2   2 9310.12  395.53   1-0.41866-0.14676-0.70656 0.88634 0.57051-0.43913
  -5   2   2 8867.40  444.01   1 0.04695-0.61181 0.57884-0.39891 0.81408-0.68304
  -5   2   1 4894.98  242.66   1-0.45387-0.12966-0.70892 0.87084 0.53983-0.47414
   5  -2  -1 6242.24  296.45   1 0.07816 0.50517-0.51908 0.35725-0.85114 0.78559
  -5   2   0 3923.89  236.54   1-0.48800-0.11364-0.70974 0.85379 0.50805-0.50805
   5  -2   0 3648.12  230.22   1 0.21175 0.38962-0.44366 0.29979-0.87081 0.87081
  -5   2  -1 1250.01  184.49   1-0.52094-0.09881-0.70901 0.83519 0.47530-0.54099
   5  -2   1 1380.94  202.62   1 0.34604 0.27326-0.35362 0.22768-0.86902 0.93460
   5  -2   2 2017.68  250.32   1 0.55180 0.08526 0.70738-0.81525-0.44171 0.57278
   5  -2   2 2116.36  243.52   1 0.47187 0.16543-0.25425 0.14629-0.84420 0.97530
   5  -2   3 1828.52  219.18   1 0.58205 0.07303 0.70378-0.79370-0.40731 0.60390
   5  -2   3 2643.02  288.83   1 0.58251 0.07261-0.15046 0.06062-0.79876 0.99551
   5  -2   4 3598.47  319.07   1 0.61104 0.06205 0.69869-0.77066-0.37208 0.63421
   5  -2   4 4146.06  321.42   1 0.67354-0.00037-0.04904-0.02287-0.73751 0.99973
   5  -2   5  549.93  186.46   1 0.63875 0.05236 0.69214-0.74615-0.33604 0.66371
   5  -2   5  809.10  202.00   1 0.74459-0.05305 0.04628-0.10020-0.66590 0.99355
   5  -2   6  704.57  256.56   1 0.66518 0.04395 0.68410-0.72016-0.29921 0.69240
   5  -2   7  217.04  122.90   1 0.69031 0.03684 0.67457-0.69268-0.26157 0.72030
   5  -2   7  165.01   88.03   1 0.83450-0.10679 0.21174-0.22968-0.50868 0.96738
   5  -2   8  483.79  188.59   1 0.71411 0.03105 0.66352-0.66367-0.22311 0.74737
  -5   1  11  386.85  162.13   1 0.48060-0.89303 0.68525-0.41515 0.54721 0.17360
  -5   1  10 2485.56  262.21   1 0.46614-0.89662 0.68458-0.43250 0.56040 0.09489
  -5   1   9 3362.97  320.72   1 0.44489-0.89342 0.68315-0.44908 0.57910 0.01065
  -5   1   8 3778.94  311.63   1 0.41552-0.88211 0.68034-0.46428 0.60370-0.07947
  -5   1   7  341.33   58.97   1 0.05622-0.54105-0.55875 0.75619 0.82742-0.36800
  -5   1   7  661.98  141.40   1 0.37645-0.86109 0.67519-0.47714 0.63434-0.17563
  -5   1   6   46.46   41.04   1-0.02248-0.48046-0.59626 0.77587 0.80247-0.40885
  -5   1   6  116.77   72.06   1 0.32596-0.82855 0.66609-0.48612 0.67086-0.27781
  -5   1   5 9055.36  540.56   1-0.09676-0.42430-0.62693 0.78861 0.77303-0.44502
  -5   1   5 9258.81 1306.95   1 0.26199-0.78266 0.65153-0.48956 0.71194-0.38439
  -5   1   410292.55  341.57   1-0.16701-0.37270-0.65255 0.79624 0.73910-0.47653
  -5   1   4 9950.17 1194.81   1 0.18320-0.72197 0.62916-0.48519 0.75537-0.49329
  -5   1   313476.36  494.63   1-0.23075-0.32703-0.67168 0.79745 0.70398-0.50705
  -5   1   312927.75  445.70   1 0.08914-0.64600 0.59590-0.46993 0.79809-0.60153
  -5   1   211721.28  384.05   1-0.28929-0.28640-0.68672 0.79448 0.66686-0.53550
  -5   1   211493.89  391.22   1-0.01896-0.55596 0.54960-0.44163 0.83521-0.70417
  -5   1   1 9363.52  563.17   1-0.34334-0.25044-0.69726 0.78720 0.62923-0.56355
   5  -1  -111395.06  412.27   1 0.13807 0.45528-0.48693 0.39704-0.86245 0.79690
  -5   1   0 3547.94  605.60   1-0.39319-0.21866-0.70439 0.77650 0.59094-0.59094
   5  -1   0 3199.08  218.04   1 0.26136 0.34994-0.41231 0.34038-0.87274 0.87274
  -5   1  -1  676.71  182.61   1-0.43920-0.19056-0.70812 0.76227 0.55286-0.61855
   5  -1   1  569.67  152.00   1 0.38236 0.24699-0.32706 0.27308-0.86418 0.92973
  -5   1  -2 1378.99  202.59   1-0.48218-0.16569-0.70971 0.74600 0.51362-0.64500
   5  -1   2 1211.27  179.23   1 0.49442 0.15294-0.23444 0.19843-0.83700 0.96810
   5  -1   3 1794.89  235.80   1 0.59275 0.07240-0.13988 0.12198-0.79313 0.98988
   5  -1   4 1081.02  258.35   1 0.55855 0.12456 0.70672-0.70680-0.43422 0.69635
   5  -1   4 1040.04  225.07   1 0.67464 0.00858-0.04770 0.04773-0.73660 0.99882
   5  -1   5  589.58  166.11   1 0.59346 0.10768 0.70198-0.68410-0.39372 0.72138
   5  -1   5  743.00  194.54   1 0.74005-0.03845 0.03958-0.02155-0.67138 0.99902
   5  -1   6  630.93  230.13   1 0.62616 0.09299 0.69534-0.65951-0.35272 0.74591
   5  -1   6  629.68  232.53   1 0.79030-0.07063 0.12045-0.08443-0.60075 0.99392
   5  -1   7  305.71  179.98   1 0.65680 0.08037 0.68685-0.63307-0.31117 0.76990
   5  -1   7   63.50  114.16   1 0.82712-0.08936 0.19426-0.14025-0.52737 0.98607
   5  -1   8  278.75  142.85   1 0.68547 0.06972 0.67656-0.60483-0.26903 0.79329
   5  -1   8  181.26  105.74   1 0.85243-0.09676 0.26069-0.18879-0.45319 0.97723
  -5   0  12  752.14  191.31   1 0.45312-0.85752 0.68377-0.46763 0.57195 0.21439
  -5   0  11 1836.38  273.81   1 0.44116-0.86362 0.68285-0.48472 0.58230 0.13851
  -5   0  10 2234.89  279.52   1 0.42298-0.86350 0.68114-0.50103 0.59759 0.05770
  -5   0   9 2458.38  268.07   1 0.39751-0.85608 0.67816-0.51605 0.61812-0.02835
  -5   0   8 1311.52  241.52   1 0.26800-0.74434-0.43353 0.57746 0.86036-0.33538
  -5   0   8 2502.13  483.73   1 0.36362-0.84011 0.67295-0.52895 0.64413-0.12005
  -5   0   7  121.01   61.28   1 0.19516-0.68967-0.48055 0.60649 0.85497-0.39561
  -5   0   7  375.98  157.58   1 0.31952-0.81409 0.66479-0.53879 0.67524-0.21667
  -5   0   6  672.82  156.12   1 0.11712-0.63008-0.52666 0.63414 0.84196-0.44817
  -5   0   6  468.62  129.08   1 0.26394-0.77658 0.65202-0.54402 0.71077-0.31771
  -5   0   5 1723.74  181.62   1 0.03783-0.56890-0.56787 0.65743 0.82224-0.49408
  -5   0   5 1186.23  195.56   1 0.19554-0.72631 0.63303-0.54302 0.74901-0.42142
  -5   0   4  405.57   90.64   1-0.04064-0.50857-0.60416 0.67588 0.79582-0.53341
  -5   0   4  943.52  192.89   1 0.11388-0.66272 0.60529-0.53328 0.78781-0.52573
  -5   0   325038.71  611.30   1-0.11514-0.45220-0.63385 0.68764 0.76483-0.56802
  -5   0   323983.73  632.50   1 0.01941-0.58634 0.56700-0.51300 0.82348-0.62692
  -5   0   210671.62  477.92   1-0.18565-0.40031-0.65850 0.69433 0.72931-0.59803
   5   0  -212990.55  464.30   1 0.08586 0.49947-0.51510 0.47919-0.85281 0.72172
  -5   0   1 3551.00  492.13   1-0.25073-0.35330-0.67696 0.69488 0.69198-0.62634
   5   0  -1 3145.28  262.11   1 0.19758 0.40579-0.45231 0.43436-0.86969 0.80415
  -5   0   0  346.43  147.89   1-0.31094-0.31094-0.69128 0.69128 0.65225-0.65225
   5   0   0  613.66  172.93   1 0.31069 0.31069-0.37889 0.37889-0.87172 0.87172
  -5   0  -1  108.80   98.59   1-0.36684-0.27311-0.70095 0.68312 0.61162-0.67730
   5   0   1  279.15  113.09   1 0.41959 0.21982-0.29784 0.31580-0.85745 0.92300
  -5   0  -2   93.22  104.45   1-0.41859-0.23930-0.70655 0.67081 0.57057-0.70195
   5   0   2  240.50  134.55   1 0.51949 0.13766-0.21181 0.24785-0.82780 0.95896
  -5   0  -3  345.26  144.33   1-0.46658-0.20941-0.70940 0.65580 0.52824-0.72530
   5   0   3  280.44  145.50   1 0.60709 0.06810-0.12474 0.17879-0.78477 0.98152
  -5   0  -4  287.07  129.15   1-0.51112-0.18298-0.70939 0.63792 0.48529-0.74804
   5   0   4  335.15  155.60   1 0.68076 0.01251-0.04013 0.11210-0.73139 0.99361
   5   0   5  411.09  180.59   1 0.55124 0.15992 0.70744-0.61767-0.44233 0.76999
   5   0   5  220.37  149.54   1 0.74061-0.02897 0.04041 0.04955-0.67070 0.99835
   5   0   6 1060.55  330.47   1 0.58958 0.13960 0.70262-0.59490-0.39838 0.79157
   5   0   6  323.98  145.37   1 0.78767-0.05794 0.11576-0.00780-0.60511 0.99828
   5   0   7  385.50  175.93   1 0.62526 0.12193 0.69555-0.56988-0.35389 0.81262
   5   0   7  200.92  108.39   1 0.82316-0.07535 0.18537-0.05941-0.53668 0.99538
  -5  -1  12  607.14  178.94   1 0.41084-0.82529 0.67981-0.53563 0.60750 0.17885
  -5  -1  11 1093.48  207.16   1 0.39538-0.82788 0.67788-0.55172 0.61979 0.10103
  -5  -1  10 2007.39  243.33   1 0.37326-0.82381 0.67470-0.56655 0.63674 0.01855
  -5  -1   9 5364.64  315.99   1 0.39554-0.86417-0.33882 0.42857 0.85366-0.26369
  -5  -1   9 4215.56  689.68   1 0.34361-0.81208 0.66947-0.57944 0.65857-0.06899
  -5  -1   8 2566.30  442.06   1 0.33841-0.82516-0.38299 0.45476 0.85952-0.33510
  -5  -1   8 2969.66  374.00   1 0.30491-0.79145 0.66169-0.58966 0.68497-0.16089
  -5  -1   7 8506.66  593.76   1 0.27315-0.77771-0.43003 0.48399 0.86050-0.40114
  -5  -1   7 6961.26 1228.78   1 0.25616-0.76079 0.65002-0.59600 0.71543-0.25686
  -5  -1   613360.37  794.93   1 0.20075-0.72348-0.47710 0.51307 0.85560-0.46187
  -5  -1   612109.05  781.93   1 0.19623-0.71899 0.63324-0.59719 0.74866-0.35554
  -5  -1   522087.57 1273.22   1 0.12426-0.66534-0.52270 0.54022 0.84340-0.51524
  -5  -1   520832.01 1229.59   1 0.12473-0.66557 0.60926-0.59121 0.78309-0.45549
  -5  -1   4 1992.05  218.45   1 0.04635-0.60554-0.56367 0.56328 0.82469-0.56216
  -5  -1   4 1814.65  336.93   1 0.04173-0.60065 0.57664-0.57659 0.81593-0.55385
  -5  -1   3 1783.80  198.82   1-0.03108-0.54628-0.60003 0.58179 0.79936-0.60256
  -5  -1   3 1670.60  214.86   1-0.05140-0.52559 0.53405-0.55201 0.84388-0.64732
  -5  -1   2  407.01  108.99   1-0.10555-0.48994-0.63027 0.59410 0.76916-0.63796
   5   1  -2  416.97  124.56   1 0.15185 0.44350-0.47916 0.51519-0.86449 0.73340
  -5  -1   1  654.60  107.54   1-0.17674-0.43740-0.65569 0.60159 0.73404-0.66840
   5   1  -1  809.60  190.01   1 0.25589 0.35749-0.41589 0.46989-0.87266 0.80708
  -5  -1   0  218.39   91.01   1-0.24331-0.38890-0.67504 0.60302 0.69649-0.69649
   5   1   0  169.05  118.98   1 0.35902 0.27244-0.34404 0.41598-0.86760 0.86760
  -5  -1  -1 5543.99 1000.79   1-0.30533-0.34464-0.69014 0.60021 0.65609-0.72178
   5   1   1 5811.55  435.31   1 0.45687 0.19260-0.26708 0.35698-0.84848 0.91403
  -5  -1  -2 2904.17  642.40   1-0.36343-0.30462-0.70045 0.59269 0.61423-0.74559
   5   1   2 3555.61  356.89   1 0.54601 0.12118-0.18675 0.29474-0.81669 0.94786
  -5  -1  -3  163.84  102.82   1-0.41758-0.26843-0.70646 0.58083 0.57142-0.76848
   5   1   3  384.25  169.03   1 0.62412 0.06114-0.10641 0.23234-0.77404 0.97071
  -5  -1  -4   99.80   91.78   1-0.46782-0.23630-0.70944 0.56594 0.52710-0.78985
   5   1   4  639.42  198.42   1 0.69047 0.01287-0.02792 0.17184-0.72282 0.98503
  -5  -1  -5  277.09   97.32   1-0.51449-0.20773-0.70928 0.54791 0.48188-0.81032
   5   1   5   67.84   97.07   1 0.74497-0.02328 0.04684 0.11506-0.66544 0.99308
   5   1   6  490.69  205.35   1 0.55645 0.18276 0.70693-0.52733-0.43657 0.82976
   5   1   6  349.69  206.83   1 0.78855-0.04876 0.11731 0.06259-0.60367 0.99684
   5   1   7  455.43  169.36   1 0.59657 0.16066 0.70144-0.50389-0.38996 0.84869
   5   1   7  377.43  126.43   1 0.82209-0.06422 0.18302 0.01487-0.53912 0.99782
  -5  -2  12  102.72  128.77   1 0.36259-0.78687 0.67278-0.60073 0.64488 0.14122
  -5  -2  11  212.62   94.26   1 0.34342-0.78579 0.66944-0.61538 0.65871 0.06189
  -5  -2  10 5217.57  361.04   1 0.47288-0.93345-0.27319 0.30901 0.83770-0.18214
  -5  -2  10 4283.12  484.90   1 0.31725-0.77769 0.66432-0.62826 0.67677-0.02168
  -5  -2   9 2498.93  206.19   1 0.43007-0.90876-0.31041 0.32817 0.84774-0.25777
  -5  -2   9 3107.94  681.95   1 0.28313-0.76166 0.65673-0.63867 0.69894-0.10936
  -5  -2   8 3706.87  268.04   1 0.37846-0.87525-0.35238 0.35218 0.85591-0.33149
  -5  -2   8 3125.47  440.77   1 0.24013-0.73673 0.64575-0.64569 0.72479-0.20072
  -5  -2   7  324.66  102.89   1 0.31915-0.83376-0.39767 0.37965 0.86023-0.40087
  -5  -2   7   86.96  103.34   1 0.18724-0.70199 0.63044-0.64835 0.75330-0.29467
  -5  -2   6  482.57  153.16   1 0.12422-0.65705 0.60908-0.64499 0.78331-0.39019
  -5  -2   5 1017.55  166.90   1 0.18023-0.73117-0.48963 0.43563 0.85309-0.52498
  -5  -2   5 1019.83  194.61   1 0.05093-0.60185 0.58050-0.63442 0.81265-0.48505
  -5  -2   4  329.73  122.51   1 0.10528-0.67448-0.53313 0.46068 0.83945-0.57692
  -5  -2   4  334.79  129.67   1-0.03176-0.53723 0.54355-0.61547 0.83876-0.57669
  -5  -2   3  333.80  132.37   1 0.02891-0.61630-0.57253 0.48226 0.81937-0.62256
   5   2  -3  725.00  190.79   1 0.12167 0.46567-0.49600 0.58601-0.85975 0.66312
  -5  -2   2  321.78  133.60   1-0.04627-0.55924-0.60655 0.49835 0.79369-0.66248
   5   2  -2  267.42  120.57   1 0.21648 0.38890-0.44074 0.54871-0.87113 0.74004
  -5  -2   1 2967.84  313.15   1-0.11927-0.50437-0.63536 0.50923 0.76294-0.69734
   5   2  -1 2452.24  285.62   1 0.31250 0.31097-0.37763 0.50356-0.87162 0.80605
  -5  -2   0 6945.62  743.88   1-0.18939-0.45293-0.65965 0.51562 0.72731-0.72731
   5   2   0 6730.03  489.30   1 0.40610 0.23541-0.30859 0.45247-0.86014 0.86014
  -5  -2  -1 5845.73 1019.72   1-0.25549-0.40490-0.67817 0.51622 0.68905-0.75469
   5   2   1 6444.68  509.24   1 0.49376 0.16576-0.23503 0.39687-0.83722 0.90278
  -5  -2  -2 5151.10  970.77   1-0.31740-0.36067-0.69255 0.51268 0.64777-0.77914
   5   2   2 6221.15  515.95   1 0.57332 0.10391-0.15981 0.33975-0.80359 0.93475
  -5  -2  -3  530.01  228.57   1-0.37579-0.32036-0.70220 0.50451 0.60472-0.80176
   5   2   3  935.34  250.13   1 0.64309 0.05223-0.08507 0.28295-0.76104 0.95771
  -5  -2  -4  283.10  152.67   1-0.43057-0.28356-0.70752 0.49200 0.56036-0.82311
   5   2   4  297.05  179.35   1 0.70269 0.01070-0.01211 0.22798-0.71138 0.97360
  -5  -2  -5  225.10  120.37   1-0.48145-0.25079-0.70970 0.47631 0.51431-0.84275
   5   2   5   25.68  109.37   1 0.75212-0.02038 0.05761 0.17624-0.65649 0.98413
   5   2   6   16.16  105.57   1 0.79212-0.04229 0.12372 0.12813-0.59768 0.99085
  -5  -3  12 1151.93  322.10   1 0.30782-0.74216 0.66232-0.66224 0.68305 0.10305
  -5  -3  11 1064.72  185.59   1 0.51952-0.97200-0.22993 0.21175 0.82293-0.10182
  -5  -3  11  670.51  261.38   1 0.28496-0.73739 0.65716-0.67508 0.69779 0.02280
  -5  -3  10 1255.82  165.21   1 0.48770-0.95830-0.25977 0.22361 0.83346-0.17790
  -5  -3  10  570.11  202.11   1 0.25489-0.72539 0.64969-0.68561 0.71618-0.06108
  -5  -3   9  592.45  154.39   1 0.44799-0.93673-0.29512 0.24091 0.84392-0.25394
  -5  -3   9  362.92  238.37   1 0.21667-0.70533 0.63937-0.69323 0.73773-0.14805
  -5  -3   8  353.62  120.95   1 0.40035-0.90720-0.33494 0.26276 0.85295-0.32853
  -5  -3   8  150.11  100.48   1 0.16998-0.67672 0.62489-0.69676 0.76197-0.23781
  -5  -3   7 1310.98  167.74   1 0.34507-0.87003-0.37801 0.28786 0.85908-0.40021
  -5  -3   7 1052.21  285.06   1 0.11417-0.63900 0.60539-0.69527 0.78768-0.32905
  -5  -3   6  717.19  127.94   1 0.28347-0.82630-0.42294 0.31494 0.86067-0.46694
  -5  -3   6  523.56  148.01   1 0.04920-0.59210 0.57978-0.68765 0.81328-0.42016
  -5  -3   5 1571.51  209.57   1 0.21576-0.77675-0.46772 0.34173 0.85713-0.52902
  -5  -3   5 1219.61  220.32   1-0.02438-0.53659 0.54705-0.67293 0.83674-0.50914
  -5  -3   4 3160.89  311.60   1 0.14442-0.72362-0.51132 0.36682 0.84716-0.58463
   5   3  -4 3171.95  343.19   1 0.10476 0.47456-0.50514 0.64914-0.85665 0.59447
  -5  -3   3  987.99  144.86   1 0.07073-0.66805-0.55137 0.38895 0.83125-0.63436
   5   3  -3  506.71  147.08   1 0.19068 0.40668-0.45647 0.61842-0.86906 0.67243
  -5  -3   2  255.86  111.48   1-0.00359-0.61194-0.58778 0.40755 0.80901-0.67780
   5   3  -2  344.56  196.98   1 0.27912 0.33634-0.40052 0.58045-0.87273 0.74158
  -5  -3   1  452.75  156.74   1-0.07670-0.55696-0.61907 0.42091 0.78157-0.71597
   5   3  -1  208.94  137.01   1 0.36696 0.26658-0.33810 0.53597-0.86661 0.80103
  -5  -3   0 1547.34  274.97   1-0.14800-0.50443-0.64619 0.43013 0.74868-0.74868
   5   3   0 1115.02  177.42   1 0.45149 0.20008-0.27161 0.48743-0.84992 0.84992
  -5  -3  -1  250.52  104.88   1-0.21608-0.45442-0.66758 0.43361 0.71248-0.77812
   5   3   1  522.03  181.10   1 0.52999 0.13924-0.20201 0.43588-0.82358 0.88916
  -5  -3  -2  213.46  109.90   1-0.28040-0.40769-0.68472 0.43274 0.67269-0.80406
   5   3   2  783.88  222.91   1 0.60091 0.08635-0.13131 0.38320-0.78845 0.91961
  -5  -3  -3  590.77  191.18   1-0.34173-0.36444-0.69699 0.42718 0.63040-0.82745
   5   3   3  503.50  190.03   1 0.66321 0.04217-0.06153 0.33135-0.74589 0.94256
  -5  -3  -4  179.34   51.43   1-0.39941-0.32484-0.70510 0.41747 0.58591-0.84864
   5   3   4  382.45  220.86   1 0.71666 0.00680 0.00656 0.28124-0.69739 0.95961
  -5  -3  -5  203.30  124.93   1-0.45382-0.28844-0.70892 0.40350 0.53988-0.86832
   5   3   5  527.71  232.95   1 0.76130-0.01950 0.07183 0.23397-0.64440 0.97204
  -5  -3  -6  177.85   96.90   1-0.50440-0.25597-0.70957 0.38628 0.49202-0.88614
   5   3   6  737.32  180.51   1 0.79773-0.03784 0.13401 0.18978-0.58792 0.98109
  -5  -4  12 1591.17  213.33   1 0.54664-0.99103-0.20330 0.13112 0.81231-0.02564
  -5  -4  12 1154.80  308.06   1 0.24701-0.69141 0.64761-0.71950 0.72081 0.06529
  -5  -4  11  702.96  219.44   1 0.52303-0.98553-0.22655 0.13640 0.82165-0.10054
  -5  -4  11  931.82  294.82   1 0.22041-0.68298 0.64045-0.73028 0.73568-0.01496
  -5  -4  10  359.58  147.91   1 0.49263-0.97326-0.25524 0.14711 0.83195-0.17640
  -5  -4  10  202.66  138.66   1 0.18679-0.66745 0.63030-0.73813 0.75354-0.09834
  -5  -4   9  142.49  101.27   1 0.45506-0.95386-0.28898 0.16279 0.84226-0.25228
  -5  -4   9  280.60  120.30   1 0.14540-0.64414 0.61660-0.74242 0.77373-0.18405
  -5  -4   8  591.13  197.59   1 0.41031-0.92722-0.32683 0.18267 0.85136-0.32694
  -5  -4   8  623.42  177.18   1 0.09587-0.61269 0.59849-0.74233 0.79536-0.27120
  -5  -4   7 5357.70  364.40   1 0.35850-0.89351-0.36784 0.20572 0.85799-0.39913
  -5  -4   7 5529.01  683.73   1 0.03812-0.57302 0.57510-0.73694 0.81718-0.35854
  -5  -4   6 6394.84  517.53   1 0.30074-0.85361-0.41086 0.23088 0.86066-0.46693
  -5  -4   6 7187.57  562.42   1-0.02745-0.52552 0.54560-0.72544 0.83759-0.44447
  -5  -4   5 2581.39  310.63   1 0.23683-0.80788-0.45421 0.25624 0.85883-0.53072
   5   4  -5 2853.52  346.86   1 0.09924 0.47206-0.50807 0.70606-0.85557 0.52785
  -5  -4   4 3348.95  318.43   1 0.16900-0.75821-0.49699 0.28044 0.85113-0.58860
   5   4  -4 2380.60  284.87   1 0.17684 0.41250-0.46469 0.68063-0.86763 0.60545
  -5  -4   3  275.85  106.63   1 0.09810-0.70543-0.53699 0.30253 0.83785-0.64096
   5   4  -3  454.56  179.56   1 0.25770 0.34976-0.41471 0.64863-0.87269 0.67596
  -5  -4   2 1405.87  228.27   1 0.02573-0.65130-0.57405 0.32180 0.81840-0.68720
   5   4  -2 1314.03  213.69   1 0.33925 0.28629-0.35856 0.61042-0.86967 0.73852
  -5  -4   1 4475.08  389.26   1-0.04638-0.59730-0.60660 0.33641 0.79365-0.72804
   5   4  -1 4234.83  411.49   1 0.41931 0.22432-0.29807 0.56786-0.85751 0.79196
  -5  -4   0 8665.25  555.53   1-0.11732-0.54448-0.63465 0.34653 0.76383-0.76383
   5   4   0 9940.70  626.82   1 0.49509 0.16654-0.23384 0.52160-0.83677 0.83677
  -5  -4  -1 1868.11  497.72   1-0.18640-0.49421-0.65873 0.35274 0.72891-0.79455
   5   4   1 2974.83  336.72   1 0.56522 0.11404-0.16792 0.47374-0.80766 0.87324
  -5  -4  -2  465.76  205.70   1-0.25252-0.44616-0.67742 0.35351 0.69088-0.82217
   5   4   2  192.71  176.34   1 0.62838 0.06899-0.10169 0.42546-0.77123 0.90233
  -5  -4  -3 1057.26  367.06   1-0.31508-0.40112-0.69210 0.35018 0.64939-0.84644
   5   4   3  400.64  167.95   1 0.68394 0.03150-0.03616 0.37792-0.72863 0.92529
  -5  -4  -4  760.16  291.32   1-0.37491-0.35936-0.70208 0.34234 0.60540-0.86813
   5   4   4  162.52  129.34   1 0.73169 0.00207 0.02751 0.33224-0.68107 0.94319
  -5  -4  -5  347.89  148.00   1-0.43171-0.32057-0.70761 0.33016 0.55938-0.88782
   5   4   5  167.13  170.70   1 0.77188-0.02003 0.08887 0.28887-0.62951 0.95715
  -5  -5  12  899.49  189.54   1 0.54325-0.99767-0.20669 0.06254 0.81372-0.02706
  -5  -5  12  465.49  123.81   1 0.18033-0.63489 0.62824-0.77203 0.75682 0.02941
  -5  -5  11  239.19  126.24   1 0.52000-0.99253-0.22947 0.06734 0.82276-0.10165
  -5  -5  11  171.92   59.50   1 0.15078-0.62343 0.61845-0.78024 0.77121-0.05049
  -5  -5  10  381.64  177.15   1 0.49052-0.98117-0.25719 0.07708 0.83260-0.17705
  -5  -5  10  260.04   92.25   1 0.11418-0.60491 0.60540-0.78519 0.78768-0.13248
  -5  -5   9  514.60  193.51   1 0.45444-0.96329-0.28952 0.09136 0.84241-0.25243
  -5  -5   9  186.90  145.80   1 0.07023-0.57904 0.58841-0.78620 0.80550-0.21582
  -5  -5   8 2960.69  286.03   1 0.41181-0.93877-0.32560 0.10947 0.85111-0.32668
  -5  -5   8 2742.77  264.44   1 0.01889-0.54578 0.56678-0.78257 0.82365-0.29949
  -5  -5   7 3532.87  319.59   1 0.36265-0.90771-0.36466 0.13056 0.85761-0.39874
  -5  -5   7 2817.94  297.57   1-0.03956-0.50540 0.53981-0.77361 0.84085-0.38221
  -5  -5   615008.66  846.83   1 0.30795-0.87088-0.40573 0.15377 0.86054-0.46681
   5   5  -615989.85 4997.07   1 0.10359 0.45969-0.50576 0.75773-0.85642 0.46316
  -5  -5   5 7552.54  486.44   1 0.24725-0.82834-0.44739 0.17744 0.85947-0.53136
   5   5  -5 8410.66  574.58   1 0.17348 0.40785-0.46666 0.73658-0.86725 0.53952
  -5  -5   4 3220.45  786.72   1 0.18219-0.78145-0.48845 0.20051 0.85335-0.59086
   5   5  -4 2903.74  352.41   1 0.24702 0.35245-0.42164 0.70956-0.87246 0.61015
  -5  -5   3 2313.90  289.84   1 0.11443-0.73176-0.52814 0.22162 0.84140-0.64451
   5   5  -3 1789.87  363.97   1 0.32206 0.29548-0.37088 0.67674-0.87104 0.67431
  -5  -5   2 7011.21  469.96   1 0.04441-0.67986-0.56463 0.24020 0.82414-0.69288
   5   5  -2 7194.37  500.58   1 0.39692 0.23875-0.31580 0.63958-0.86180 0.73070
  -5  -5   1 2966.73  298.75   1-0.02630-0.62740-0.59794 0.25572 0.80110-0.73550
   5   5  -1 2289.91  429.96   1 0.46895 0.18473-0.25677 0.59851-0.84507 0.77952
  -5  -5   0 7838.53  505.53   1-0.09644-0.57539-0.62680 0.26665 0.77318-0.77318
   5   5   0 7422.03  485.60   1 0.53683 0.13444-0.19554 0.55529-0.82071 0.82071
  -5  -5  -1 4366.14  888.85   1-0.16540-0.52532-0.65202 0.27401 0.73993-0.80557
   5   5   1 4053.02  363.09   1 0.59929 0.09000-0.13302 0.51079-0.78939 0.85497
  -5  -5  -2  298.25   85.27   1-0.23200-0.47679-0.67202 0.27609 0.70324-0.83452
   5   5   2  493.50  217.31   1 0.65546 0.05197-0.07072 0.46644-0.75191 0.88302
  -5  -5  -3  256.92   80.42   1-0.29543-0.43079-0.68806 0.27403 0.66278-0.85983
   5   5   3  216.62  169.12   1 0.70488 0.02062-0.00922 0.42294-0.70925 0.90592
  -5  -5  -4   57.89   79.21   1-0.35662-0.38767-0.69942 0.26756 0.61937-0.88210
   5   5   4   90.78  124.50   1 0.74745-0.00363 0.05054 0.38116-0.66238 0.92450
  -5  -6  11  788.50  181.98   1 0.51195-0.99451-0.23716 0.00306 0.82562-0.10451
  -5  -6  11 1199.57  382.09   1 0.07673-0.55945 0.59101-0.82476 0.80300-0.08228
  -5  -6  10 1553.42  259.18   1 0.48304-0.98372-0.26403 0.01194 0.83483-0.17928
  -5  -6  10  689.73  235.42   1 0.03789-0.53870 0.57501-0.82676 0.81726-0.16206
  -5  -6   9 1435.64  204.58   1 0.44799-0.96689-0.29512 0.02498 0.84392-0.25394
  -5  -6   9 1530.56  233.82   1-0.00765-0.51123 0.55484-0.82459 0.83191-0.24224
  -5  -6   8 4045.21  335.72   1 0.40692-0.94393-0.32960 0.04149 0.85192-0.32749
  -5  -6   7 6950.80  443.92   1 0.35980-0.91492-0.36684 0.06076 0.85788-0.39901
   5   6  -7 6774.21  453.44   1 0.11663 0.43864-0.49875 0.80470-0.85886 0.40005
  -5  -6   6 6874.62  461.52   1 0.30755-0.88053-0.40601 0.08208 0.86055-0.46682
   5   6  -6 6984.21  460.30   1 0.17938 0.39393-0.46319 0.78710-0.86791 0.47464
  -5  -6   5 2959.68  312.09   1 0.24951-0.84066-0.44590 0.10397 0.85959-0.53148
   5   6  -5 3115.64  293.11   1 0.24595 0.34552-0.42233 0.76425-0.87243 0.54455
  -5  -6   4  457.76  164.96   1 0.18716-0.79646-0.48544 0.12552 0.85399-0.59150
   5   6  -4  549.18  199.62   1 0.31450 0.29504-0.37622 0.73607-0.87151 0.60921
  -5  -6   3  679.64  186.58   1 0.12197-0.74931-0.52398 0.14541 0.84294-0.64605
   5   6  -3  587.95  182.21   1 0.38382 0.24390-0.32595 0.70370-0.86396 0.66731
  -5  -6   2  102.60  104.17   1 0.05416-0.69962-0.55978 0.16330 0.82686-0.69560
   5   6  -2  401.21  179.57   1 0.45137 0.19436-0.27172 0.66743-0.84995 0.71885
  -5  -6   1  283.29  139.26   1-0.01479-0.64894-0.59284 0.17859 0.80518-0.73957
   5   6  -1  431.39  215.83   1 0.51601 0.14726-0.21503 0.62871-0.82914 0.76356
  -5  -6   0 1325.09  199.70   1-0.08374-0.59812-0.62186 0.18968 0.77863-0.77863
   5   6   0  735.67  256.69   1 0.57659 0.10471-0.15650 0.58820-0.80190 0.80190
  -5  -6  -1  657.15  266.87   1-0.15208-0.54875-0.64758 0.19755 0.74666-0.81230
   5   6   1 1156.18  210.11   1 0.63209 0.06732-0.09754 0.54721-0.76872 0.83428
  -5  -6  -2  619.07  251.61   1-0.21858-0.50032-0.66830 0.20034 0.71105-0.84233
   5   6   2  814.25  274.44   1 0.68187 0.03561-0.03875 0.50642-0.73044 0.86155
  -5  -6  -3  221.14  159.07   1-0.28229-0.45395-0.68515 0.19902 0.67146-0.86851
   5   6   3  498.44  152.72   1 0.72566 0.01012 0.01899 0.46666-0.68778 0.88437
  -5  -7  10  261.08  123.10   1 0.47123-0.98194-0.27467-0.04938 0.83814-0.18259
  -5  -7  10  243.24  126.75   1-0.04092-0.46995 0.53915-0.86287 0.84120-0.18601
  -5  -7   9 1080.31  231.74   1 0.43689-0.96584-0.30464-0.03747 0.84635-0.25638
   5   7  -9  764.46  262.54   1 0.08603 0.44318-0.51501 0.85699-0.85285 0.26295
  -5  -7   8  789.57  260.59   1 0.39698-0.94405-0.33766-0.02242 0.85345-0.32903
   5   7  -8  271.05  124.32   1 0.13743 0.40982-0.48729 0.84722-0.86235 0.33800
  -5  -7   7 3666.06  318.79   1 0.35144-0.91661-0.37321-0.00484 0.85860-0.39973
   5   7  -7 3452.21  311.89   1 0.19355 0.37173-0.45474 0.83263-0.86933 0.41052
  -5  -7   6 1460.08  205.36   1 0.30114-0.88417-0.41057 0.01465 0.86066-0.46692
   5   7  -6 1158.50  189.92   1 0.25352 0.32994-0.41744 0.81334-0.87262 0.47916
  -5  -7   5  460.99  197.28   1 0.24530-0.84649-0.44867 0.03476 0.85936-0.53125
   5   7  -5  411.86  219.37   1 0.31574 0.28581-0.37535 0.78920-0.87144 0.54356
  -5  -7   4   92.67  102.47   1 0.18526-0.80461-0.48660 0.05469 0.85375-0.59126
   5   7  -4  359.76  158.27   1 0.37936 0.24041-0.32936 0.76109-0.86464 0.60243
  -5  -7   3 2250.33  273.01   1 0.12236-0.75971-0.52376 0.07314 0.84302-0.64613
   5   7  -3 1701.25  223.02   1 0.44202 0.19576-0.27952 0.72921-0.85233 0.65568
  -5  -7   2  327.71  117.76   1 0.05664-0.71210-0.55853 0.09000 0.82754-0.69627
   5   7  -2  475.04  211.07   1 0.50281 0.15297-0.22691 0.69456-0.83407 0.70297
  -5  -7   1 2324.11  262.01   1-0.01052-0.66323-0.59092 0.10464 0.80665-0.74105
   5   7  -1 2839.02  293.65   1 0.56055 0.11276-0.17256 0.65818-0.80994 0.74435
   5   7   0  280.57  136.52   1 0.61432 0.07701-0.11695 0.62059-0.78033 0.78033
  -5  -7  -1  180.77  117.75   1-0.14554-0.56541-0.64534 0.12329 0.74989-0.81553
  -5  -7  -2  258.72  135.49   1-0.21156-0.51745-0.66628 0.12631 0.71504-0.84633
   5   7   2  568.54  161.39   1 0.70742 0.02013-0.00587 0.54548-0.70676 0.83787
   5   8  -9 1490.94  235.59   1 0.16534 0.37390-0.47141 0.88533-0.86627 0.27637
  -5  -8   8  118.07  141.06   1 0.38285-0.93997-0.34892-0.08313 0.85537-0.33095
   5   8  -8  714.91  141.71   1 0.21524 0.34204-0.44151 0.87338-0.87105 0.34670
  -5  -8   7  357.46  180.63   1 0.33853-0.91376-0.38290-0.06713 0.85952-0.40065
   5   8  -7  137.94  106.89   1 0.26893 0.30653-0.40732 0.85722-0.87278 0.41375
  -5  -8   6  509.46  209.29   1 0.28981-0.88288-0.41854-0.04935 0.86071-0.46698
   5   8  -6  319.18  142.00   1 0.32499 0.26855-0.36880 0.83665-0.87083 0.47738
  -5  -8   5 1477.47  239.16   1 0.23578-0.84702-0.45490-0.03099 0.85876-0.53064
   5   8  -5  998.30  226.65   1 0.38291 0.22891-0.32665 0.81235-0.86410 0.53634
  -5  -8   4 2688.51  368.61   1 0.17813-0.80736-0.49155-0.01320 0.85243-0.58990
   5   8  -4 2198.11  302.52   1 0.44045 0.18937-0.28082 0.78449-0.85272 0.59051
  -5  -8   3 5749.28  645.22   1 0.11681-0.76416-0.52683 0.00416 0.84190-0.64500
   5   8  -3 5221.01  603.02   1 0.49692 0.15091-0.23220 0.75384-0.83614 0.63949
  -5  -8   2 4545.87  512.16   1 0.05300-0.71846-0.56036 0.01978 0.82654-0.69528
   5   8  -2 4671.02  539.08   1 0.55120 0.11411-0.18172 0.72128-0.81434 0.68317
  -5  -8   1 2901.79  329.26   1-0.01244-0.67133-0.59178 0.03348 0.80599-0.74039
   5   8  -1 2741.45  324.01   1 0.60249 0.08085-0.12963 0.68721-0.78752 0.72193
  -5  -8   0  539.27  163.18   1-0.07862-0.62328-0.61984 0.04360 0.78077-0.78077
   5   8   0  614.43  181.17   1 0.65007 0.05139-0.07702 0.65259-0.75595 0.75595
  -5  -9   8  694.76  205.00   1 0.36512-0.93230-0.36276-0.14127 0.85737-0.33294
   5   9  -8  579.80  148.68   1 0.29155 0.27592-0.39211 0.89601-0.87249 0.34788
  -5  -9   7  446.82  167.12   1 0.32243-0.90739-0.39528-0.12660 0.86010-0.40074
   5   9  -7  941.81  186.70   1 0.34164 0.24391-0.35682 0.87866-0.86945 0.41042
  -5  -9   6  142.35  111.41   1 0.27429-0.87742-0.42925-0.11062 0.86052-0.46679
   5   9  -6  145.39  114.54   1 0.39389 0.20998-0.31817 0.85786-0.86233 0.46902
  -5  -9   5  271.72  194.32   1 0.22176-0.84305-0.46391-0.09395 0.85767-0.52956
   5   9  -5  457.13  168.84   1 0.44620 0.17567-0.27604 0.83369-0.85129 0.52353
  -5  -9   4 1119.51  201.35   1 0.16577-0.80501-0.49891-0.07789 0.85065-0.58812
   5   9  -4 1500.40  266.51   1 0.49806 0.14182-0.23119 0.80680-0.83575 0.57354
  -5  -9   3 1425.79  213.13   1 0.10619-0.76354-0.53263-0.06208 0.83965-0.64275
   5   9  -3  833.06  198.76   1 0.54842 0.10890-0.18442 0.77791-0.81561 0.61886
  -5  -9   2  393.61  141.84   1 0.04408-0.71955-0.56480-0.04783 0.82404-0.69278
   5   9  -2   72.62  121.80   1 0.59663 0.07871-0.13582 0.74733-0.79093 0.65976
  -6   7   6  726.79  158.07   1 0.40707-0.97375 0.67936-0.06752 0.61053-0.21735
  -6   7   5  304.60  127.39   1 0.35981-0.94436 0.67232-0.07853 0.64692-0.31937
  -6   7   4  468.22  160.72   1 0.29725-0.89988 0.65999-0.08420 0.68995-0.42791
   6  -7   3  402.61   86.68   1 0.84032-0.11074 0.53684-0.98639 0.07512 0.12145
   6  -7   4  424.92  129.12   1 0.83679-0.08916 0.54402-0.97565 0.06175 0.20035
  -6   6   7 1257.26  223.47   1 0.42405-0.98271 0.68125-0.12337 0.59671-0.13800
  -6   6   6 2816.56  262.38   1 0.38585-0.96257 0.67657-0.13670 0.62718-0.23400
  -6   6   5  389.09  206.41   1 0.33560-0.93021 0.66797-0.14615 0.66420-0.33666
  -6   6   4  276.31   77.95   1 0.27028-0.88297 0.65361-0.14979 0.70691-0.44487
  -6   6   3  150.43   56.20   1 0.18727-0.81799 0.63045-0.14467 0.75329-0.55673
  -6   6   2  477.90  201.64   1 0.08341-0.73221 0.59365-0.12588 0.80038-0.66934
  -6   6   1 1035.89  281.48   1-0.04253-0.62434 0.53838-0.08860 0.84162-0.77610
   6  -6   2  945.40  272.22   1 0.80835-0.08700 0.58809-0.98366-0.02650 0.15757
   6  -6   3  906.56  279.92   1 0.80462-0.06526 0.59265-0.97026-0.03645 0.23306
   6  -6   4  958.28  174.03   1 0.80417-0.04678 0.59320-0.95285-0.03765 0.29979
   6  -6   5  262.71  153.91   1 0.80620-0.03079 0.59075-0.93245-0.03229 0.35997
  -6   5   8 2167.62  284.85   1 0.43112-0.98177 0.68195-0.17802 0.59081-0.06658
  -6   5   7  565.24  200.42   1 0.39985-0.96855 0.67846-0.19254 0.61627-0.15757
  -6   5   6  933.87  240.76   1 0.35859-0.94518 0.67211-0.20426 0.64781-0.25475
  -6   5   5  240.33  132.67   1 0.30493-0.90960 0.66170-0.21185 0.68495-0.35740
  -6   5   4  646.37  217.87   1 0.23672-0.85946 0.64482-0.21296 0.72675-0.46471
  -6   5   3 3169.23  670.11   1 0.15188-0.79267 0.61882-0.20501 0.77070-0.57414
  -6   5   2 4732.89  675.91   1 0.04858-0.70745 0.57952-0.18371 0.81350-0.68246
   6  -5  -1 9624.69  516.72   1 0.07460 0.60295-0.52091 0.14327-0.85034 0.78480
   6  -5   0 3061.62  220.45   1 0.76627-0.07110 0.63004-0.98947-0.12599 0.12599
   6  -5   0 3206.99  230.04   1 0.21120 0.48439-0.44400 0.08432-0.87077 0.87077
   6  -5   1 1986.42  195.38   1 0.75878-0.04559 0.63582-0.97731-0.14129 0.20682
   6  -5   2 2158.14  207.80   1 0.75688-0.02568 0.63723-0.96076-0.14509 0.27615
   6  -5   3 1675.73  234.08   1 0.75897-0.00974 0.63568-0.94126-0.14091 0.33751
   6  -5   4 1197.18  193.24   1 0.76391 0.00332 0.63190-0.91953-0.13086 0.39299
   6  -5   5  121.92   93.82   1 0.77088 0.01437 0.62626-0.89594-0.11627 0.44393
  -6   4   9  175.50  110.85   1 0.43011-0.97274 0.68186-0.23188 0.59166-0.00190
  -6   4   8  390.58  114.57   1 0.40426-0.96494 0.67902-0.24705 0.61278-0.08854
  -6   4   7 1085.13  195.88   1 0.36976-0.94850 0.67415-0.26020 0.63936-0.18065
  -6   4   6  788.79  261.68   1 0.32507-0.92171 0.66591-0.27003 0.67147-0.27841
  -6   4   5 2196.07  548.36   1 0.26806-0.88279 0.65306-0.27518 0.70826-0.38072
  -6   4   4 4064.25  593.88   1 0.19716-0.82994 0.63352-0.27367 0.74817-0.48609
  -6   4   3 3861.24  843.23   1 0.11073-0.76160 0.60412-0.26227 0.78915-0.59259
  -6   4   2   98.51   57.86   1 0.00844-0.67739 0.56214-0.23829 0.82699-0.69595
   6  -4  -1  345.47  118.05   1 0.68960-0.00242 0.67486-0.98037-0.26266 0.19713
   6  -4   0  391.07  170.82   1 0.68687 0.01832 0.67599-0.96355-0.26689 0.26689
   6  -4   0  351.68  147.63   1 0.23664 0.46870-0.42829 0.14054-0.87210 0.87210
   6  -4   1  466.34  188.53   1 0.69006 0.03314 0.67467-0.94427-0.26195 0.32748
   6  -4   1   54.68   63.77   1 0.36763 0.35579-0.33760 0.06780-0.86652 0.93210
   6  -4   2  221.11  114.24   1 0.69724 0.04398 0.67157-0.92322-0.25067 0.38174
   6  -4   3  223.19   96.59   1 0.70712 0.05212 0.66699-0.90068-0.23472 0.43132
   6  -4   4  599.91  223.81   1 0.71882 0.05844 0.66106-0.87681-0.21513 0.47726
   6  -4   5  466.48  191.72   1 0.73170 0.06358 0.65384-0.85163-0.19260 0.52026
   6  -4   6  181.33  123.32   1 0.74529 0.06800 0.64533-0.82516-0.16758 0.56077
  -6   3   9 2149.92  244.97   1 0.40074-0.95340 0.67858-0.30057 0.61557-0.02580
  -6   3   8  277.71  109.88   1 0.37171-0.94243 0.67446-0.31446 0.63790-0.11366
  -6   3   7  727.71  278.19   1 0.33394-0.92256 0.66765-0.32574 0.66536-0.20680
  -6   3   6  114.05   70.88   1 0.28560-0.89230 0.65731-0.33340 0.69739-0.30433
  -6   3   5 1222.92  304.06   1 0.22538-0.85016 0.64164-0.33572 0.73314-0.40559
  -6   3   4 1132.84  268.42   1 0.15201-0.79486 0.61887-0.33098 0.77064-0.50856
  -6   3   3 3692.70  832.20   1 0.06473-0.72567 0.58619-0.31629 0.80758-0.61102
   6  -3  -2  283.94  101.71   1 0.58067 0.09851 0.70398-0.95555-0.40893 0.27787
  -6   3   2  374.27  131.26   1-0.03588-0.64313 0.54158-0.28969 0.83987-0.70883
   6  -3  -1 1043.36  212.14   1 0.58876 0.10844 0.70275-0.93637-0.39936 0.33383
   6  -3  -1 1372.53  269.66   1 0.14870 0.54890-0.48095 0.24719-0.86404 0.79849
   6  -3   0  263.70  133.00   1 0.60137 0.11384 0.70058-0.91624-0.38409 0.38409
   6  -3   0  355.93  136.43   1 0.26700 0.44842-0.40860 0.19279-0.87278 0.87278
   6  -3   1  180.05  102.84   1 0.61686 0.11637 0.69746-0.89517-0.36471 0.43024
   6  -3   1  467.28  191.18   1 0.38610 0.34742-0.32419 0.12633-0.86360 0.92915
   6  -3   2  345.78  169.08   1 0.63416 0.11708 0.69335-0.87311-0.34218 0.47325
   6  -3   2    9.59   69.10   1 0.49939 0.25214-0.22999 0.05010-0.83528 0.96639
   6  -3   3 1006.51  298.84   1 0.65256 0.11670 0.68817-0.84998-0.31712 0.51372
   6  -3   3  704.08  218.92   1 0.60085 0.16847-0.13138-0.03040-0.78849 0.98523
   6  -3   4  394.61  156.20   1 0.67155 0.11574 0.68187-0.82572-0.28993 0.55206
   6  -3   5  322.98  143.89   1 0.69074 0.11456 0.67439-0.80029-0.26090 0.58856
   6  -3   6  432.95  185.41   1 0.70985 0.11347 0.66566-0.77361-0.23022 0.62341
  -6   2  10  384.00  129.28   1 0.39037-0.93503 0.67720-0.35315 0.62369 0.03160
  -6   2   9  787.23  267.14   1 0.36604-0.92856 0.67335-0.36741 0.64234-0.05276
  -6   2   8  145.09   69.25   1 0.33364-0.91423 0.66760-0.37966 0.66557-0.14150
  -6   2   7  125.74  105.63   1 0.29221-0.89089 0.65885-0.38891 0.69319-0.23463
  -6   2   6  171.08   88.27   1 0.24051-0.85727 0.64586-0.39392 0.72458-0.33152
  -6   2   5 2746.87  626.30   1 0.17740-0.81225 0.62730-0.39337 0.75829-0.43069
  -6   2   4 1737.01  412.31   1-0.41883-0.23473-0.70657 0.92210 0.57037-0.30762
  -6   2   4 1879.74  509.85   1 0.10216-0.75509 0.60089-0.38496 0.79277-0.53069
  -6   2   3 8719.09  485.35   1-0.44030-0.23136-0.70819 0.90584 0.55190-0.35483
  -6   2   3 9388.94  564.74   1 0.01482-0.68583 0.56498-0.36705 0.82496-0.62840
  -6   2   210583.52  580.41   1-0.46479-0.22497-0.70935 0.88914 0.52989-0.39851
   6  -2  -213921.15  777.62   1 0.08411 0.60547-0.51601 0.33623-0.85244 0.72135
  -6   2   1  523.96  166.13   1-0.49097-0.21690-0.70973 0.87165 0.50519-0.43950
   6  -2  -1  684.92  250.12   1 0.19043 0.51719-0.45662 0.29479-0.86903 0.80349
  -6   2   0  698.51  250.57   1-0.51799-0.20799-0.70914 0.85319 0.47832-0.47832
   6  -2   0 1170.40  249.78   1 0.30047 0.42503-0.38599 0.24212-0.87219 0.87219
   6  -2   1  682.81  181.96   1 0.54466 0.19860 0.70800-0.83383-0.44952 0.51505
   6  -2   1 1357.07  280.60   1 0.40928 0.33430-0.30608 0.18016-0.85953 0.92508
   6  -2   2 1650.76  326.90   1 0.57168 0.18959 0.70520-0.81307-0.41935 0.55042
   6  -2   2 1672.30  328.89   1 0.51170 0.24961-0.21899 0.11113-0.83078 0.96194
   6  -2   3 1218.77  191.79   1 0.59836 0.18093 0.70113-0.79105-0.38778 0.58437
   6  -2   3 1337.40  187.63   1 0.60352 0.17582-0.12854 0.03870-0.78691 0.98366
   6  -2   4  652.75  241.49   1 0.62447 0.17283 0.69574-0.76770-0.35491 0.61705
   6  -2   4  629.97  228.29   1 0.68177 0.11558-0.03888-0.03303-0.73052 0.99274
   6  -2   5  436.94  155.51   1 0.64988 0.16545 0.68898-0.74299-0.32085 0.64851
   6  -2   6  746.37  228.97   1 0.67445 0.15890 0.68082-0.71688-0.28565 0.67884
  -6   1  10 2004.47  421.22   1 0.35336-0.90786 0.67122-0.41925 0.65160 0.00348
  -6   1   9 1026.98  257.22   1 0.32557-0.89815 0.66601-0.43205 0.67113-0.08154
  -6   1   8 1319.37  420.75   1 0.28980-0.88046 0.65829-0.44233 0.69473-0.17065
  -6   1   7  558.69  202.61   1 0.24502-0.85376 0.64708-0.44911 0.72197-0.26340
  -6   1   6 1404.73  318.20   1 0.19022-0.81706 0.63137-0.45140 0.75178-0.35866
  -6   1   5  539.57  179.52   1-0.24065-0.40541-0.67434 0.83595 0.69809-0.36988
  -6   1   5  183.21  118.73   1 0.12478-0.76971 0.60928-0.44731 0.78306-0.45547
  -6   1   4  660.55  223.14   1-0.28146-0.38246-0.68496 0.82837 0.67201-0.40927
  -6   1   4  851.54  203.26   1 0.04848-0.71149 0.57948-0.43551 0.81354-0.55146
  -6   1   3 1006.83  323.85   1-0.32264-0.35935-0.69356 0.81914 0.64410-0.44705
  -6   1   3 1920.59  357.75   1-0.03802-0.64305 0.54055-0.41458 0.84044-0.64388
  -6   1   2 4212.15  770.68   1-0.36317-0.33690-0.70041 0.80817 0.61442-0.48306
   6  -1  -2 5090.94  373.99   1 0.13347 0.56613-0.48949 0.38165-0.86172 0.73063
  -6   1   1 1553.44  434.34   1-0.40271-0.31544-0.70545 0.79539 0.58321-0.51753
   6  -1  -1 1384.88  282.54   1 0.23381 0.48369-0.43009 0.34021-0.87198 0.80640
  -6   1   0 2324.84  437.01   1-0.44083-0.29517-0.70822 0.78025 0.55143-0.55143
   6  -1   0 1861.60  355.53   1 0.33601 0.39957-0.36090 0.28896-0.86996 0.86996
  -6   1  -1 3569.04  325.91   1-0.47791-0.27619-0.70965 0.76381 0.51766-0.58335
   6  -1   1 3548.28  286.14   1 0.43547 0.31817-0.28493 0.23095-0.85391 0.91946
  -6   1  -2 2801.02  270.84   1-0.51360-0.25860-0.70931 0.74560 0.48278-0.61416
   6  -1   2 2799.93  254.30   1 0.52835 0.24300-0.20356 0.16765-0.82426 0.95542
   6  -1   3  665.40  230.54   1 0.54688 0.24244 0.70782-0.72585-0.44710 0.64370
   6  -1   3  606.76  207.36   1 0.61160 0.17777-0.11989 0.10199-0.78202 0.97877
   6  -1   4  203.06  114.93   1 0.57950 0.22783 0.70415-0.70422-0.41029 0.67242
   6  -1   4  338.94  175.94   1 0.68315 0.12427-0.03716 0.03719-0.72933 0.99155
   6  -1   5  650.67  184.40   1 0.61067 0.21468 0.69877-0.68089-0.37254 0.70020
   6  -1   5   82.44   88.54   1 0.74241 0.08342 0.04305-0.02502-0.66855 0.99620
  -6   0  10 2951.77  683.04   1 0.31070-0.87526 0.66294-0.48294 0.68114-0.02605
  -6   0   9 2255.11  571.21   1 0.27969-0.86232 0.65591-0.49391 0.70110-0.11152
  -6   0   8 1079.32  238.82   1 0.24066-0.84138 0.64590-0.50190 0.72449-0.20041
  -6   0   7  645.15  230.25   1 0.19273-0.81156 0.63216-0.50614 0.75048-0.29184
  -6   0   6 1149.90  216.74   1-0.06842-0.56889-0.61573 0.72332 0.78497-0.39135
  -6   0   6 1488.11  394.77   1 0.13542-0.77234 0.61309-0.50508 0.77831-0.38519
  -6   0   5   90.68   57.70   1-0.12171-0.53373-0.63625 0.72591 0.76181-0.43380
  -6   0   5  288.65  148.28   1 0.06837-0.72337 0.58766-0.49765 0.80620-0.47861
  -6   0   4  707.51  281.24   1-0.17564-0.49861-0.65534 0.72701 0.73462-0.47205
  -6   0   4 1161.78  255.40   1-0.00809-0.66498 0.55463-0.48263 0.83205-0.56997
  -6   0   3  186.89   95.81   1-0.22756-0.46475-0.67081 0.72456 0.70585-0.50892
   6   0  -3  158.41  118.36   1 0.09312 0.59846-0.51130 0.45744-0.85433 0.65770
  -6   0   2  277.49  106.24   1-0.27766-0.43243-0.68409 0.71974 0.67447-0.54310
   6   0  -2  598.73  207.50   1 0.18411 0.52551-0.46039 0.42448-0.86841 0.73732
  -6   0   1 5770.98 1152.87   1-0.32640-0.40177-0.69426 0.71209 0.64144-0.57576
   6   0  -1 5876.71  437.41   1 0.27842 0.44916-0.40099 0.38305-0.87274 0.80716
  -6   0   0 4300.61  711.03   1-0.37312-0.37312-0.70184 0.70184 0.60678-0.60678
   6   0   0 4750.43  369.77   1 0.37283 0.37283-0.33368 0.33368-0.86582 0.86582
  -6   0  -1 2606.90  583.83   1-0.41769-0.34643-0.70647 0.68860 0.57133-0.63702
   6   0   1 2855.89  280.77   1 0.46368 0.30001-0.26129 0.27925-0.84659 0.91214
  -6   0  -2  707.51  183.74   1-0.46025-0.32197-0.70919 0.67345 0.53404-0.66542
   6   0   2  209.31  122.76   1 0.54800 0.23339-0.18483 0.22087-0.81580 0.94696
  -6   0  -3  194.25  104.52   1-0.50073-0.29960-0.70964 0.65603 0.49564-0.69271
   6   0   3  124.93   93.89   1 0.62347 0.17592-0.10712 0.16110-0.77446 0.97113
   6   0   4  268.85  128.25   1 0.53806 0.27930 0.70850-0.63669-0.45662 0.71875
   6   0   4  103.63   88.13   1 0.68890 0.12857-0.02991 0.10188-0.72423 0.98645
   6   0   5  320.58  167.43   1 0.57432 0.26105 0.70486-0.61509-0.41631 0.74397
   6   0   5   74.96   90.69   1 0.74364 0.09224 0.04486 0.04510-0.66707 0.99471
  -6  -1  11  292.71  167.50   1 0.28966-0.84620 0.65826-0.53223 0.69482 0.02578
  -6  -1  10  190.84   84.74   1 0.26277-0.83738 0.65172-0.54370 0.71147-0.05638
  -6  -1   9  799.65  290.18   1 0.22865-0.82134 0.64256-0.55254 0.73131-0.14173
  -6  -1   8  739.17  247.06   1 0.18652-0.79735 0.63021-0.55816 0.75368-0.22952
  -6  -1   7 2955.78  235.17   1 0.07711-0.70628-0.54807 0.60141 0.83286-0.37344
  -6  -1   7 2385.15  416.36   1 0.13607-0.76498 0.61333-0.55927 0.77801-0.31937
  -6  -1   6 4052.12  274.87   1 0.02072-0.66806-0.57645 0.61200 0.81686-0.42325
  -6  -1   6 3259.78  514.38   1 0.07688-0.72387 0.59107-0.55502 0.80294-0.40982
  -6  -1   5 6615.26  418.73   1-0.03678-0.62868-0.60250 0.62012 0.79726-0.46925
  -6  -1   5 5684.05  407.40   1 0.00906-0.67413 0.56241-0.54437 0.82680-0.49920
  -6  -1   4 9808.21  565.89   1-0.09480-0.58878-0.62617 0.62587 0.77389-0.51148
  -6  -1   3 8223.94  962.34   1-0.15301-0.54942-0.64789 0.62963 0.74619-0.54927
   6   1  -3 8900.94  562.50   1 0.14882 0.55278-0.48088 0.49896-0.86406 0.66742
  -6  -1   2  192.27  108.41   1-0.20915-0.51134-0.66558 0.62940 0.71641-0.58512
   6   1  -2  648.36  208.24   1 0.23521 0.48437-0.42920 0.46525-0.87204 0.74088
  -6  -1   1 1897.77  552.64   1-0.26356-0.47500-0.68017 0.62607 0.68402-0.61838
   6   1  -1 1527.72  318.28   1 0.32338 0.41428-0.36995 0.42395-0.87095 0.80537
  -6  -1   0 1639.56  377.12   1-0.31557-0.44070-0.69220 0.62009 0.64904-0.64904
   6   1   0 1861.44  236.51   1 0.41035 0.34539-0.30523 0.37717-0.85932 0.85932
  -6  -1  -1  557.47  212.93   1-0.36574-0.40861-0.70079 0.61085 0.61246-0.67815
   6   1   1  860.84  214.84   1 0.49319 0.28056-0.23554 0.32544-0.83742 0.90297
  -6  -1  -2  643.54  240.96   1-0.41361-0.37863-0.70610 0.59833 0.57475-0.70613
   6   1   2  206.70  106.75   1 0.56973 0.22169-0.16342 0.27141-0.80541 0.93658
  -6  -1  -3  435.66  185.98   1-0.45907-0.35128-0.70914 0.58351 0.53512-0.73219
   6   1   3  204.70  108.16   1 0.63824 0.17121-0.09060 0.21653-0.76447 0.96114
  -6  -1  -4   58.78   87.88   1-0.50216-0.32630-0.70961 0.56612 0.49423-0.75699
   6   1   4  352.77  164.44   1 0.69789 0.12964-0.01838 0.16230-0.71596 0.97818
   6   1   5   98.19  116.99   1 0.54170 0.30371 0.70824-0.54659-0.45272 0.78038
   6   1   5  420.61  155.39   1 0.74820 0.09772 0.05168 0.11023-0.66144 0.98908
  -6  -2  11 1838.74  382.63   1 0.23965-0.80624 0.64562-0.59156 0.72507-0.00447
  -6  -2  10  286.39  155.95   1 0.20967-0.79441 0.63730-0.60121 0.74153-0.08633
  -6  -2   9  102.77   59.40   1 0.23722-0.83983-0.45396 0.47192 0.85886-0.26825
  -6  -2   9  180.90   92.00   1 0.17272-0.77555 0.62579-0.60769 0.76062-0.17094
  -6  -2   8 3420.73  285.34   1 0.19017-0.81095-0.48361 0.48358 0.85437-0.32939
  -6  -2   8 2747.54  391.44   1 0.12818-0.74908 0.61051-0.61042 0.78156-0.25740
  -6  -2   7 4683.65  312.37   1 0.13821-0.77739-0.51486 0.49615 0.84605-0.38663
  -6  -2   7 4113.11  896.71   1 0.07574-0.71472 0.59062-0.60853 0.80338-0.34474
  -6  -2   6 6127.35  389.77   1 0.08252-0.73982-0.54525 0.50862 0.83420-0.44041
  -6  -2   6 6276.79  434.99   1 0.01544-0.67251 0.56525-0.60117 0.82476-0.43164
  -6  -2   5  763.97  164.38   1 0.02387-0.69935-0.57495 0.52054 0.81783-0.48982
  -6  -2   5  897.79  232.27   1-0.05224-0.62290 0.53364-0.58755 0.84409-0.51649
  -6  -2   4  159.09   95.06   1-0.03564-0.65796-0.60201 0.52967 0.79768-0.53527
   6   2  -4  221.96  147.68   1 0.12610 0.56749-0.49357 0.56563-0.86051 0.59833
  -6  -2   3  379.18  154.56   1-0.09543-0.61630-0.62642 0.53615 0.77361-0.57681
   6   2  -3  381.74  163.56   1 0.20485 0.50677-0.44789 0.53791-0.87029 0.67366
  -6  -2   2  168.07  102.10   1-0.15516-0.57545-0.64862 0.54042 0.74512-0.61384
   6   2  -2  188.82  124.04   1 0.28632 0.44334-0.39567 0.50366-0.87261 0.74146
  -6  -2   1  173.74  113.82   1-0.21290-0.53577-0.66667 0.54055 0.71429-0.64864
   6   2  -1  440.28  217.31   1 0.36815 0.37959-0.33721 0.46314-0.86645 0.80087
  -6  -2   0 1012.06  301.74   1-0.26888-0.49786-0.68146 0.53742 0.68066-0.68066
   6   2   0  616.25  201.61   1 0.44800 0.31780-0.27454 0.41842-0.85083 0.85083
  -6  -2  -1  978.00  324.55   1-0.32235-0.46202-0.69350 0.53146 0.64430-0.70998
   6   2   1 1248.41  214.26   1 0.52339 0.26003-0.20820 0.37012-0.82626 0.89184
  -6  -2  -2  637.30  261.23   1-0.37401-0.42844-0.70196 0.52209 0.60610-0.73746
   6   2   2 1077.01  348.61   1 0.59284 0.20861-0.13979 0.31973-0.79309 0.92425
  -6  -2  -3 1151.29  231.62   1-0.42341-0.39696-0.70696 0.50930 0.56649-0.76356
   6   2   3 1211.28  247.67   1 0.65498 0.16453-0.07128 0.26916-0.75227 0.94893
  -6  -2  -4  617.28  157.29   1-0.47021-0.36826-0.70950 0.49398 0.52487-0.78763
   6   2   4  861.35  199.02   1 0.70924 0.12835-0.00344 0.21931-0.70495 0.96717
  -6  -3  10  414.43  109.17   1 0.31357-0.90806-0.40170 0.36567 0.86040-0.20418
  -6  -3  10  392.55  206.36   1 0.15214-0.74695 0.61891-0.65478 0.77057-0.11538
  -6  -3   9  205.65   96.79   1 0.27401-0.88668-0.42943 0.37542 0.86052-0.26991
  -6  -3   9  245.24  103.04   1 0.11277-0.72567 0.60488-0.65874 0.78828-0.19861
  -6  -3   8 2504.14  257.35   1 0.22871-0.85954-0.45946 0.38745 0.85824-0.33326
  -6  -3   8 1397.25  278.58   1 0.06625-0.69723 0.58680-0.65867 0.80701-0.28285
  -6  -3   7 3033.41  274.97   1 0.17848-0.82767-0.49133 0.40057 0.85248-0.39306
  -6  -3   7 2595.76  270.44   1 0.01256-0.66162 0.56398-0.65385 0.82569-0.36705
  -6  -3   6 2430.45  251.52   1 0.12414-0.79144-0.52277 0.41410 0.84338-0.44959
  -6  -3   6 1614.36  337.75   1-0.04798-0.61915 0.53573-0.64360 0.84302-0.44990
  -6  -3   5  379.29  181.55   1 0.06674-0.75216-0.55341 0.42683 0.83022-0.50206
   6   3  -5  257.74  151.40   1 0.11428 0.57129-0.50002 0.62607-0.85843 0.53071
  -6  -3   4 1837.83  200.55   1 0.00705-0.71068-0.58287 0.43851 0.81252-0.55011
   6   3  -4 1927.21  241.60   1 0.18576 0.51785-0.45941 0.60341-0.86858 0.60640
  -6  -3   3  447.37  199.80   1-0.05322-0.66854-0.60947 0.44717 0.79101-0.59420
   6   3  -3   92.30  117.61   1 0.26058 0.46108-0.41283 0.57481-0.87273 0.67600
  -6  -3   2  416.13  170.09   1-0.11351-0.62637-0.63324 0.45301 0.76557-0.63437
   6   3  -2  552.34  199.22   1 0.33680 0.40294-0.36033 0.54026-0.86989 0.73874
  -6  -3   1 1143.28  366.72   1-0.17351-0.58528-0.65465 0.45651 0.73574-0.67009
   6   3  -1  989.10  259.21   1 0.41253 0.34532-0.30349 0.50135-0.85889 0.79334
  -6  -3   0  147.53   64.69   1-0.23160-0.54525-0.67191 0.45586 0.70347-0.70347
   6   3   0  558.20  228.32   1 0.48539 0.29047-0.24245 0.45827-0.84000 0.84000
  -6  -3  -1  300.48  123.72   1-0.28737-0.50702-0.68630 0.45214 0.66813-0.73381
   6   3   1  239.11  130.30   1 0.55389 0.23956-0.17909 0.41296-0.81309 0.87867
  -6  -3  -2  440.04  166.16   1-0.34170-0.47077-0.69698 0.44500 0.63043-0.76179
   6   3   2   91.38  109.02   1 0.61678 0.19470-0.11427 0.36616-0.77878 0.90995
  -6  -3  -3   38.58   76.53   1-0.39373-0.43682-0.70446 0.43465 0.59051-0.78756
   6   3   3   48.06  117.54   1 0.67306 0.15652-0.04963 0.31945-0.73791 0.93458
  -6  -4  10  259.96  132.53   1 0.33347-0.93847-0.38665 0.27843 0.85982-0.20429
  -6  -4  10  710.95  181.25   1 0.09060-0.69549 0.59646-0.70429 0.79750-0.14230
  -6  -4   9 1354.37  215.02   1 0.29596-0.91867-0.41423 0.28823 0.86070-0.27010
  -6  -4   9 1117.22  358.14   1 0.04936-0.67233 0.57985-0.70568 0.81322-0.22354
  -6  -4   8  277.25  113.88   1 0.25238-0.89326-0.44400 0.30001 0.85974-0.33476
  -6  -4   8  449.00  166.54   1 0.00156-0.64261 0.55904-0.70287 0.82913-0.30497
  -6  -4   7 1400.10  178.63   1 0.20387-0.86291-0.47517 0.31319 0.85594-0.39659
  -6  -4   7 1671.55  223.41   1-0.05258-0.60655 0.53347-0.69530 0.84417-0.38554
  -6  -4   6  312.50  101.17   1 0.15136-0.82867-0.50732 0.32660 0.84835-0.45456
   6   4  -6  440.67  200.20   1 0.11200 0.56555-0.50125 0.68128-0.85801 0.46475
  -6  -4   5 1925.13  239.07   1 0.09537-0.79079-0.53845 0.33982 0.83723-0.50907
   6   4  -5 1623.12  350.85   1 0.17669 0.51890-0.46478 0.66276-0.86761 0.53989
  -6  -4   4   94.18   93.93   1 0.03697-0.75051-0.56828 0.35173 0.82199-0.55947
   6   4  -4  462.80  213.70   1 0.24506 0.46860-0.42291 0.63889-0.87240 0.61009
  -6  -4   3  240.94  149.31   1-0.02309-0.70868-0.59653 0.36220 0.80225-0.60544
   6   4  -3  659.50  236.85   1 0.31547 0.41627-0.37554 0.60946-0.87145 0.67473
  -6  -4   2 1801.42  213.68   1-0.08346-0.66645-0.62175 0.36949 0.77875-0.64754
   6   4  -2 1211.14  207.59   1 0.38650 0.36340-0.32389 0.57572-0.86354 0.73244
  -6  -4   1 1489.96  304.39   1-0.14406-0.62483-0.64484 0.37468 0.75061-0.68497
   6   4  -1 1455.84  216.81   1 0.45583 0.31207-0.26795 0.53775-0.84876 0.78321
  -6  -4   0  378.93  126.91   1-0.20321-0.58376-0.66383 0.37576 0.71973-0.71973
   6   4   0  308.23  137.75   1 0.52216 0.26330-0.20934 0.49714-0.82675 0.82675
  -6  -4  -1  439.67  200.18   1-0.26096-0.54407-0.67953 0.37354 0.68565-0.75129
   6   4   1  466.82  185.40   1 0.58430 0.21918-0.14862 0.45444-0.79780 0.86338
  -6  -4  -2  996.44  419.45   1-0.31635-0.50614-0.69235 0.36826 0.64850-0.77987
   6   4   2 1037.88  254.96   1 0.64113 0.18043-0.08732 0.41109-0.76244 0.89355
  -6  -5  10  545.36  166.62   1 0.34356-0.95861-0.37915 0.19895 0.85919-0.20366
  -6  -5  10  172.53   82.62   1 0.02575-0.64071 0.56978-0.74957 0.82139-0.16619
  -6  -5   9  457.53  139.15   1 0.30733-0.94009-0.40617 0.20819 0.86056-0.26996
  -6  -5   9  283.74  126.37   1-0.01671-0.61633 0.55065-0.74844 0.83456-0.24488
  -6  -5   8  555.93  184.16   1 0.26528-0.91620-0.43537 0.21940 0.86027-0.33529
  -6  -5   7  580.77  205.58   1 0.21844-0.88753-0.46602 0.23206 0.85738-0.39802
   6   5  -7  532.81  218.39   1 0.11816 0.55137-0.49791 0.73193-0.85913 0.40032
  -6  -5   6 1424.87  229.23   1 0.16766-0.85497-0.49779 0.24501 0.85093-0.45714
   6   5  -6 1835.64  280.70   1 0.17654 0.51103-0.46486 0.71683-0.86759 0.47433
  -6  -5   5  305.07  116.47   1 0.11323-0.81866-0.52880 0.25811 0.84115-0.51299
   6   5  -5  663.66  228.99   1 0.23874 0.46692-0.42695 0.69693-0.87218 0.54430
  -6  -5   4 2909.79  288.55   1 0.05614-0.77968-0.55879 0.27019 0.82740-0.56487
   6   5  -4 3919.77  379.11   1 0.30337 0.42037-0.38399 0.67190-0.87207 0.60977
  -6  -5   3 2809.81  316.56   1-0.00295-0.73885-0.58748 0.28112 0.80922-0.61242
   6   5  -3 2619.23  333.88   1 0.36906 0.37276-0.33653 0.64239-0.86633 0.66960
  -6  -5   2 3107.06  305.48   1-0.06279-0.69714-0.61344 0.28915 0.78724-0.65603
   6   5  -2 2707.08  291.33   1 0.43460 0.32535-0.28564 0.60941-0.85412 0.72301
  -6  -5   1 1497.35  241.95   1-0.12332-0.65569-0.63750 0.29532 0.76051-0.69487
   6   5  -1 1593.31  280.82   1 0.49797 0.27999-0.23127 0.57301-0.83578 0.77023
  -6  -5   0 1402.68  494.20   1-0.18279-0.61428-0.65760 0.29751 0.73084-0.73084
   6   5   0 1989.29  303.11   1 0.55818 0.23731-0.17489 0.53464-0.81107 0.81107
  -6  -5  -1  578.62  179.58   1-0.24126-0.57389-0.67450 0.29649 0.69773-0.76337
   6   5   1 1115.50  245.06   1 0.61432 0.19919-0.11694 0.49471-0.78033 0.84591
  -6  -6   9 1217.08  201.04   1 0.31074-0.95355-0.40373 0.13377 0.86048-0.26988
   6   6  -9 1320.29  248.10   1 0.08395 0.55953-0.51609 0.78613-0.85240 0.26251
  -6  -6   8 1930.02  251.07   1 0.26997-0.93095-0.43219 0.14424 0.86041-0.33544
   6   6  -8 2043.76  292.53   1 0.13191 0.52961-0.49036 0.77836-0.86147 0.33712
  -6  -6   7  948.59  266.74   1 0.22460-0.90375-0.46209 0.15615 0.85791-0.39855
   6   6  -7 1357.46  253.91   1 0.18440 0.49515-0.46022 0.76617-0.86844 0.40963
  -6  -6   6 2553.88  336.89   1 0.17540-0.87272-0.49318 0.16835 0.85205-0.45826
   6   6  -6 3135.63  423.76   1 0.24075 0.45692-0.42567 0.74964-0.87226 0.47880
  -6  -6   5 2150.62  313.68   1 0.12250-0.83793-0.52368 0.18094 0.84305-0.51489
   6   6  -5 2088.25  314.99   1 0.29971 0.41603-0.38651 0.72842-0.87222 0.54434
  -6  -6   4 3170.91  389.29   1 0.06679-0.80034-0.55339 0.19273 0.83023-0.56771
   6   6  -4 3498.06  424.94   1 0.36023 0.37360-0.34314 0.70300-0.86745 0.60515
  -6  -6   3 2946.63  371.85   1 0.00888-0.76071-0.58202 0.20363 0.81312-0.61631
   6   6  -3 2577.84  351.46   1 0.42136 0.33064-0.29641 0.67417-0.85708 0.66042
  -6  -6   2  922.56  253.62   1-0.05011-0.71984-0.60817 0.21185 0.79222-0.66101
   6   6  -2  356.35  175.27   1 0.48112 0.28889-0.24620 0.64192-0.84136 0.71026
  -6  -6   1  417.94  154.50   1-0.10966-0.67842-0.63181 0.21756 0.76732-0.70172
   6   6  -1  695.29  224.40   1 0.53866 0.24884-0.19380 0.60748-0.81992 0.75434
  -6  -6   0   66.63   84.07   1-0.16949-0.63770-0.65336 0.22124 0.73782-0.73782
   6   6   0  553.82  218.73   1 0.59317 0.21235-0.13944 0.57114-0.79290 0.79290
  -6  -7   7  251.19  146.59   1 0.22406-0.91326-0.46244 0.08451 0.85786-0.39851
   6   7  -7  203.73  133.53   1 0.25032 0.43934-0.41951 0.79748-0.87254 0.41351
  -6  -7   6  202.98  115.59   1 0.17625-0.88357-0.49268 0.09580 0.85217-0.45838
   6   7  -6  222.27  171.83   1 0.30380 0.40394-0.38368 0.77959-0.87205 0.47859
  -6  -7   5 1764.68  243.44   1 0.12475-0.85019-0.52243 0.10764 0.84350-0.51534
   6   7  -5 1717.99  230.29   1 0.35915 0.36668-0.34395 0.75780-0.86758 0.53970
  -6  -7   4 2862.59  314.78   1 0.07039-0.81395-0.55154 0.11883 0.83116-0.56864
   6   7  -4 2356.59  265.86   1 0.41567 0.32838-0.30098 0.73271-0.85826 0.59605
  -6  -7   3  827.21  182.49   1 0.01372-0.77557-0.57976 0.12934 0.81467-0.61786
   6   7  -3  673.56  200.12   1 0.47145 0.29061-0.25461 0.70431-0.84433 0.64768
  -6  -7   2  149.38  116.45   1-0.04429-0.73568-0.60571 0.13736 0.79444-0.66324
   6   7  -2   63.08  121.64   1 0.52574 0.25376-0.20600 0.67361-0.82531 0.69415
  -7   5   5  248.37  112.76   1 0.15146-0.88032 0.61868-0.16886 0.77090-0.44330
  -7   5   4  673.98  271.10   1 0.07940-0.82634 0.59207-0.16025 0.80196-0.53988
  -7   5   3  392.29  114.89   1-0.00543-0.75959 0.55586-0.14204 0.83125-0.63469
  -7   4   6  401.97  146.32   1 0.18132-0.90218 0.62856-0.23270 0.75632-0.36320
  -7   4   5 1200.60  231.48   1 0.12006-0.85900 0.60756-0.22971 0.78513-0.45753
  -7   4   4 1357.72  297.60   1 0.04764-0.80465 0.57913-0.21927 0.81384-0.55176
  -7   4   3 1399.30  212.21   1-0.03602-0.73907 0.54151-0.19966 0.83991-0.64335
   7  -4  -2 1238.86  200.00   1 0.13144 0.66239-0.49063 0.16697-0.86139 0.73030
   7  -4  -1  910.84  275.64   1 0.23344 0.57810-0.43032 0.12463-0.87196 0.80638
   7  -4   1  759.57  144.25   1 0.70113 0.14630 0.66981-0.93941-0.24446 0.30999
   7  -4   2  328.16  118.13   1 0.70827 0.15717 0.66643-0.91808-0.23283 0.36389
  -7   3   7  300.79  174.89   1 0.19893-0.91177 0.63407-0.29217 0.74724-0.28860
  -7   3   6  193.34  114.70   1 0.14633-0.87726 0.61692-0.29302 0.77329-0.38018
  -7   3   5 1653.68  406.78   1 0.08390-0.83291 0.59384-0.28795 0.80018-0.47259
  -7   3   4  418.80  171.22   1 0.01135-0.77844 0.56344-0.27554 0.82607-0.56399
   7  -3  -2  164.87   87.65   1 0.16272 0.64113-0.47293 0.22121-0.86594 0.73485
   7  -3  -1  970.71  249.88   1 0.25934 0.56228-0.41364 0.17989-0.87271 0.80714
   7  -3   0  172.31  117.06   1 0.62607 0.21336 0.69536-0.91102-0.35284 0.35284
   7  -3   0  215.56   83.57   1 0.35919 0.48051-0.34391 0.12810-0.86758 0.86758
   7  -3   1  181.89   87.14   1 0.63922 0.21823 0.69201-0.88972-0.33541 0.40095
   7  -3   2  450.68  135.83   1 0.65430 0.22116 0.68764-0.86740-0.31469 0.44575
  -7   2   7  406.12  111.05   1 0.16106-0.88398 0.62193-0.35199 0.76632-0.30768
  -7   2   6  254.63   69.07   1 0.10683-0.84783 0.60266-0.35072 0.79081-0.39769
  -7   2   5  320.17  127.48   1 0.04352-0.80260 0.57739-0.34346 0.81530-0.48770
  -7   2   4  329.18  149.27   1-0.02877-0.74839 0.54498-0.32905 0.83795-0.57587
   7  -2  -3  776.32  243.32   1 0.11006 0.68577-0.50229 0.30456-0.85765 0.66102
  -7   2   2  668.76  212.04   1-0.51673-0.29738-0.70919 0.88898 0.47961-0.34823
   7  -2  -2  754.50  239.47   1 0.19732 0.61654-0.45247 0.27269-0.86967 0.73858
   7  -2  -1 4223.80  449.34   1 0.53569 0.29575 0.70866-0.87039-0.45915 0.39362
   7  -2  -1 4902.10  534.51   1 0.28871 0.54298-0.39404 0.23223-0.87256 0.80698
   7  -2   0 3783.70  423.84   1 0.55655 0.29291 0.70692-0.85070-0.43646 0.43646
   7  -2   0 3808.42  430.45   1 0.38164 0.46821-0.32761 0.18374-0.86429 0.86429
   7  -2   1  503.44  128.75   1 0.57857 0.28891 0.70428-0.83010-0.41138 0.47692
   7  -2   1  150.52   96.86   1 0.47248 0.39538-0.25372 0.12781-0.84402 0.90957
   7  -2   2  285.69  157.96   1 0.60124 0.28425 0.70060-0.80848-0.38425 0.51532
   7  -2   2  257.05  117.71   1 0.55787 0.32767-0.17520 0.06733-0.81122 0.94238
  -7   1   8  513.15  245.57   1 0.16619-0.88111 0.62364-0.40767 0.76383-0.23967
  -7   1   7  565.72  253.55   1 0.11885-0.85185 0.60712-0.40914 0.78566-0.32702
  -7   1   6  917.73  335.42   1 0.06331-0.81439 0.58561-0.40563 0.80811-0.41499
  -7   1   5  664.86  227.71   1-0.00045-0.76870 0.55812-0.39615 0.82975-0.50215
   7  -1  -4  398.06  177.26   1 0.07258 0.71523-0.52194 0.37819-0.84988 0.58770
  -7   1   3  258.46  110.39   1-0.40486-0.40151-0.70568 0.83126 0.58146-0.38441
   7  -1  -3  602.69  208.94   1 0.15095 0.65490-0.47967 0.35388-0.86436 0.66773
  -7   1   2   86.67   66.88   1-0.43314-0.39098-0.70771 0.81547 0.55814-0.42676
   7  -1  -2  378.05  165.49   1 0.23424 0.58945-0.42981 0.32199-0.87200 0.74084
  -7   1   1  313.56  127.14   1-0.46270-0.37953-0.70928 0.79917 0.53181-0.46612
   7  -1  -1  369.64  171.20   1 0.32067 0.52110-0.37187 0.28199-0.87113 0.80555
  -7   1   0 2416.23  303.11   1-0.49260-0.36773-0.70973 0.78175 0.50360-0.50360
   7  -1   0 1889.55  267.84   1 0.40722 0.45269-0.30771 0.23577-0.85992 0.85992
   7  -1   1  451.10  135.85   1 0.49105 0.38687-0.23745 0.18347-0.83814 0.90369
   7  -1   2  368.45  137.84   1 0.55124 0.34428 0.70744-0.74342-0.44233 0.57340
   7  -1   2   52.43   87.87   1 0.56952 0.32605-0.16362 0.12771-0.80551 0.93668
  -7   0   8 2293.37  644.94   1 0.12166-0.84665 0.60815-0.46413 0.78444-0.26028
  -7   0   7 2128.98  748.46   1 0.07277-0.81584 0.58943-0.46342 0.80453-0.34589
  -7   0   6 1501.80  248.05   1 0.01633-0.77748 0.56565-0.45764 0.82448-0.43136
  -7   0   5   64.33   83.98   1-0.04740-0.73182 0.53601-0.44600 0.84287-0.51527
  -7   0   4  152.27   96.83   1-0.28686-0.51145-0.68618 0.75748 0.66847-0.40574
   7   0  -4  446.09  198.99   1 0.11809 0.67974-0.49795 0.42614-0.85912 0.59694
  -7   0   3  183.64   64.67   1-0.32393-0.49246-0.69380 0.74728 0.64319-0.44614
   7   0  -3  439.01  168.58   1 0.19388 0.62199-0.45455 0.40069-0.86936 0.67273
  -7   0   2  519.87  201.84   1-0.36130-0.47317-0.70013 0.73578 0.61584-0.48448
   7   0  -2  534.73  195.98   1 0.27329 0.56049-0.40443 0.36854-0.87278 0.74162
  -7   0   1  161.42   57.25   1-0.39854-0.45401-0.70500 0.72283 0.58662-0.52094
   7   0  -1  215.72  110.87   1 0.35450 0.49736-0.34739 0.32945-0.86812 0.80254
  -7   0   0  230.01  115.67   1-0.43518-0.43518-0.70785 0.70785 0.55637-0.55637
   7   0   0  161.93  106.37   1 0.43498 0.43498-0.28533 0.28533-0.85403 0.85403
  -7   0  -1 1082.28  206.40   1-0.47130-0.41716-0.70953 0.69166 0.52386-0.58955
   7   0   1 1100.96  203.43   1 0.51220 0.37538-0.21853 0.23655-0.83059 0.89617
  -7   0  -2  300.91  124.28   1-0.50653-0.40003-0.70952 0.67378 0.48989-0.62127
   7   0   2  182.85  137.90   1 0.58446 0.32114-0.14846 0.18450-0.79771 0.92888
  -7  -1   8  300.10  144.90   1 0.07338-0.80844 0.58967-0.51762 0.80429-0.28013
  -7  -1   7 2827.80  299.19   1 0.02334-0.77648 0.56873-0.51467 0.82219-0.36355
  -7  -1   6  410.43  150.24   1-0.03349-0.73773 0.54273-0.50668 0.83923-0.44611
  -7  -1   5  257.24   83.94   1-0.17263-0.61808-0.65437 0.67194 0.73619-0.40798
   7   1  -5  205.33  128.09   1 0.09680 0.69301-0.50936 0.49154-0.85508 0.52736
  -7  -1   4  335.63  138.32   1-0.21527-0.59351-0.66735 0.66700 0.71294-0.45037
   7   1  -4  201.64  119.26   1 0.16540 0.64245-0.47137 0.47150-0.86628 0.60410
  -7  -1   3  996.30  232.53   1-0.25840-0.56845-0.67890 0.66063 0.68725-0.49032
   7   1  -3 1047.84  194.56   1 0.23812 0.58766-0.42735 0.44546-0.87216 0.67543
  -7  -1   2 3675.05  834.76   1-0.30097-0.54352-0.68924 0.65278 0.65905-0.52769
   7   1  -2 5692.04  641.51   1 0.31354 0.53032-0.37690 0.41295-0.87157 0.74041
  -7  -1   1 2504.68  735.11   1-0.34372-0.51885-0.69733 0.64304 0.62895-0.56327
   7   1  -1 3654.42  439.30   1 0.38969 0.47233-0.32142 0.37540-0.86303 0.79747
  -7  -1   0 1071.51  316.68   1-0.38567-0.49497-0.70349 0.63138 0.59695-0.59695
   7   1   0  355.76  147.35   1 0.46427 0.41575-0.26078 0.33272-0.84642 0.84642
  -7  -1  -1  370.96  181.05   1-0.42660-0.47188-0.70722 0.61732 0.56377-0.62946
   7   1   1  337.61  159.98   1 0.53545 0.36216-0.19686 0.28682-0.82130 0.88688
  -7  -2   8  348.18  122.98   1 0.02185-0.76698 0.56807-0.56798 0.82268-0.29852
  -7  -2   7 1005.20  186.02   1-0.02884-0.73436 0.54494-0.56285 0.83797-0.37933
  -7  -2   6  851.86  256.02   1-0.06644-0.71526-0.61493 0.57845 0.78577-0.39215
   7   2  -6 1112.74  247.48   1 0.08553 0.69627-0.51527 0.55143-0.85274 0.45948
  -7  -2   5 1488.05  239.20   1-0.11169-0.68814-0.63257 0.57816 0.76640-0.43839
   7   2  -5 1109.20  212.14   1 0.14751 0.65232-0.48162 0.53573-0.86387 0.53615
  -7  -2   4 1218.70  300.97   1-0.15901-0.65988-0.64991 0.57754 0.74318-0.48061
   7   2  -4 2482.40  362.68   1 0.21391 0.60396-0.44233 0.51439-0.87096 0.60878
  -7  -2   3  654.65  308.12   1-0.20582-0.63114-0.66461 0.57432 0.71827-0.52135
   7   2  -3 1498.75  271.63   1 0.28338 0.55248-0.39765 0.48770-0.87267 0.67594
  -7  -2   2 1185.07  292.03   1-0.25264-0.60239-0.67745 0.56925 0.69081-0.55952
   7   2  -2 1263.90  225.68   1 0.35447 0.49947-0.34741 0.45540-0.86812 0.73697
  -7  -2   1 1310.95  370.07   1-0.29843-0.57417-0.68870 0.56230 0.66077-0.59509
   7   2  -1 1935.24  270.00   1 0.42555 0.44653-0.29303 0.41895-0.85617 0.79062
  -7  -2   0  199.89   98.42   1-0.34409-0.54658-0.69739 0.55317 0.62868-0.62868
   7   2   0  158.55  123.27   1 0.49455 0.39553-0.23433 0.37821-0.83696 0.83696
  -7  -3   8  509.78  126.04   1 0.06674-0.82214-0.55341 0.48056 0.83022-0.30517
  -7  -3   8 1447.76  241.05   1-0.03235-0.72285 0.54327-0.61514 0.83893-0.31477
  -7  -3   7  201.49  118.35   1 0.02446-0.79806-0.57466 0.48409 0.81802-0.35880
   7   3  -7  322.14  151.28   1 0.08303 0.69075-0.51657 0.60671-0.85220 0.39339
  -7  -3   6 1252.82  195.87   1-0.02020-0.77152-0.59525 0.48675 0.80328-0.40966
   7   3  -6 1511.10  288.42   1 0.13894 0.65287-0.48645 0.59454-0.86258 0.46932
  -7  -3   5 1122.38  187.54   1-0.06701-0.74283-0.61516 0.48873 0.78554-0.45752
   7   3  -5  976.62  201.45   1 0.19929 0.61056-0.45128 0.57733-0.86984 0.54212
  -7  -3   4  670.07  150.56   1-0.11525-0.71273-0.63389 0.48952 0.76478-0.50237
   7   3  -4  820.07  214.26   1 0.26304 0.56482-0.41121 0.55526-0.87275 0.61045
  -7  -3   3  544.69  158.98   1-0.16500-0.68207-0.65189 0.48959 0.74013-0.54320
   7   3  -3  390.31  181.91   1 0.32898 0.51696-0.36595 0.52794-0.87054 0.67381
  -7  -3   2  206.43   67.53   1-0.21406-0.65108-0.66700 0.48678 0.71363-0.58234
   7   3  -2  222.89  142.91   1 0.39587 0.46825-0.31663 0.49652-0.86199 0.73088
  -7  -3   1  135.48   66.22   1-0.26285-0.62036-0.68000 0.48186 0.68447-0.61883
   7   3  -1   61.38  121.31   1 0.46172 0.42041-0.26296 0.46082-0.84714 0.78159
  -7  -4   7  387.10  130.76   1 0.05800-0.84152-0.55785 0.39504 0.82790-0.36848
   7   4  -7  281.47  190.20   1 0.13866 0.64513-0.48660 0.64868-0.86254 0.40373
  -7  -4   6  167.90  125.09   1 0.01262-0.81437-0.58027 0.39973 0.81432-0.42070
   7   4  -6  170.68  132.83   1 0.19334 0.60850-0.45487 0.63490-0.86931 0.47604
  -7  -4   5  562.00  149.96   1-0.03466-0.78520-0.60159 0.40312 0.79805-0.47003
   7   4  -5  492.36  157.51   1 0.25159 0.56827-0.41869 0.61673-0.87257 0.54469
  -7  -4   4  360.74  132.48   1-0.08362-0.75438-0.62181 0.40542 0.77868-0.51627
   7   4  -4  248.76  138.46   1 0.31237 0.52557-0.37772 0.59370-0.87163 0.60933
  -7  -4   3  697.01  161.83   1-0.13437-0.72281-0.64145 0.40713 0.75530-0.55837
   7   4  -3  758.03  197.65   1 0.37478 0.48139-0.33284 0.56671-0.86530 0.66864
  -7  -4   2   76.36   68.32   1-0.18466-0.69059-0.65819 0.40595 0.72984-0.59856
   7   4  -2  -12.07  128.18   1 0.43692 0.43726-0.28373 0.53557-0.85357 0.72247
;
_shelx_hkl_checksum              28402
_shelx_res_file
;
    PLATON.res created by SHELXL-2014/7
TITL p1 in P1                    New: P-1
CELL  0.71073    5.9328   10.2450   10.8530   105.330   103.200    94.000
ZERR  1           0.0012    0.0020    0.0020     0.030     0.030     0.030
LATT   1
SFAC  C  H Mn  N  O
UNIT    22   24  1  10   4
L.S. 10
FMAP 2
PLAN 20
ACTA
BOND $H
CONF
SHEL 0.83 999
htab
eqiv $1 -x+2, -y, -z+1
htab N5 N3_$1
EQIV $2 x-1, y, z
HTAB O2 N1_$2
DFIX 0.84 0.01 O2 H2A
WGHT    0.028300    0.714100
FVAR       6.39690
MN1   3    1.000000    0.500000    0.500000    10.50000    0.03680    0.02118 =
         0.04952    0.01508    0.02103    0.00461
O1    5    0.845264    0.403744    0.621444    11.00000    0.05062    0.02432 =
         0.05346    0.01649    0.02868    0.00649
O2    5    0.689557    0.398634    0.331527    11.00000    0.03835    0.04146 =
         0.05475    0.01167    0.02351    0.00118
H2A   2    0.572118    0.368662    0.351490    11.00000   -1.50000
N1    4    1.309929    0.270482    0.387085    11.00000    0.04007    0.03057 =
         0.06039    0.01692    0.02887    0.00840
N3    4    1.174186    0.090389    0.430192    11.00000    0.04461    0.02577 =
         0.06343    0.01479    0.03086    0.00656
N4    4    1.153452    0.310398    0.458516    11.00000    0.03447    0.02281 =
         0.05216    0.01613    0.02282    0.00653
N5    4    0.913834    0.182782    0.552825    11.00000    0.04047    0.02382 =
         0.05529    0.01605    0.02580    0.00492
AFIX   3
H12   2    0.872334    0.101312    0.554095    11.00000   -1.20000
AFIX   0
N2    4    1.322318    0.140695    0.370344    11.00000    0.04727    0.03094 =
         0.06718    0.01860    0.03404    0.00945
C11   1    0.708866    0.300020    0.217140    11.00000    0.06700    0.07052 =
         0.05257    0.00951    0.02421    0.01106
AFIX  33
H11A  2    0.557018    0.269021    0.156848    11.00000   -1.20000
H11B  2    0.810243    0.339978    0.175471    11.00000   -1.20000
H11C  2    0.772468    0.224001    0.241314    11.00000   -1.20000
AFIX   0
C1    1    1.076649    0.196533    0.481838    11.00000    0.03038    0.02374 =
         0.04338    0.01136    0.01360    0.00416
C4    1    0.534988    0.311202    0.757820    11.00000    0.04287    0.03114 =
         0.04280    0.01394    0.01562    0.00341
AFIX  43
H4    2    0.543441    0.401860    0.756728    11.00000   -1.20000
AFIX   0
C5    1    0.385249    0.267936    0.834078    11.00000    0.03945    0.03900 =
         0.03949    0.01087    0.01742    0.00198
C2    1    0.811536    0.281491    0.618980    11.00000    0.03571    0.02870 =
         0.04256    0.01439    0.01472    0.00505
C9    1    0.133349    0.324391    0.979899    11.00000    0.06121    0.06837 =
         0.07905    0.02335    0.04452    0.01729
AFIX  43
H9    2    0.058407    0.389144    1.027018    11.00000   -1.20000
AFIX   0
C3    1    0.658640    0.232604    0.690684    11.00000    0.04500    0.02670 =
         0.04852    0.01447    0.02324    0.00235
AFIX  43
H3    2    0.648308    0.141038    0.688695    11.00000   -1.20000
AFIX   0
C10   1    0.271289    0.360990    0.904135    11.00000    0.05208    0.04800 =
         0.06350    0.02236    0.02979    0.01318
AFIX  43
H10   2    0.287215    0.450774    0.900568    11.00000   -1.20000
AFIX   0
C6    1    0.354797    0.134646    0.840160    11.00000    0.10119    0.03924 =
         0.08768    0.01764    0.06695    0.00672
AFIX  43
H6    2    0.429158    0.069120    0.793545    11.00000   -1.20000
AFIX   0
C7    1    0.216268    0.098594    0.914154    11.00000    0.14651    0.04191 =
         0.12206    0.02243    0.10165   -0.00103
AFIX  43
H7    2    0.195584    0.008433    0.916178    11.00000   -1.20000
AFIX   0
C8    1    0.108076    0.193320    0.985026    11.00000    0.08778    0.07534 =
         0.08956    0.02465    0.06310    0.00173
AFIX  43
H8    2    0.017342    0.168175    1.036659    11.00000   -1.20000
AFIX   0
HKLF 4
REM  p1 in P1                    New: P-1
REM R1 =  0.0550 for    1985 Fo > 4sig(Fo)  and  0.0625 for all    2204 data
REM    172 parameters refined using      1 restraints
END
WGHT      0.0315      0.6254
REM Instructions for potential hydrogen bonds
HTAB O2 N1_$2
HTAB N5 N3_$1
REM Highest difference peak  0.250,  deepest hole -0.347,  1-sigma level  0.055
Q1    1   0.8052  0.4016  0.4224  11.00000  0.05    0.25
Q2    1   0.6137  0.3209  0.1261  11.00000  0.05    0.22
Q3    1   1.0371  0.3792  0.4681  11.00000  0.05    0.22
Q4    1   0.8787  0.2988  0.2041  11.00000  0.05    0.21
Q5    1   1.1188  0.4956  0.5973  11.00000  0.05    0.21
Q6    1   0.6502  0.1949  0.2483  11.00000  0.05    0.20
Q7    1   0.6033  0.1808  0.2059  11.00000  0.05    0.19
Q8    1   0.4520  0.2634  0.7880  11.00000  0.05    0.18
Q9    1   0.3060  0.0449  0.9763  11.00000  0.05    0.18
Q10   1   1.1140  0.2615  0.4891  11.00000  0.05    0.18
Q11   1   1.0430  0.6112  0.5922  11.00000  0.05    0.18
Q12   1   0.2026  0.2788  1.0157  11.00000  0.05    0.17
Q13   1   0.6120  0.1461  0.0129  11.00000  0.05    0.17
Q14   1   0.3096  0.2173  0.8158  11.00000  0.05    0.17
Q15   1   1.0138  0.5525  0.6014  11.00000  0.05    0.17
Q16   1   0.1071  0.0044  0.8757  11.00000  0.05    0.16
Q17   1   0.8003  0.2813  0.7131  11.00000  0.05    0.16
Q18   1   0.2467  0.1542  0.9854  11.00000  0.05    0.16
Q19   1   1.0344  0.0442  0.3961  11.00000  0.05    0.16
Q20   1   0.9593  0.1330  0.5994  11.00000  0.05    0.16
;
_shelx_res_checksum              7522
loop_
_space_group_symop_operation_xyz
'x, y, z'
'-x, -y, -z'
loop_
_atom_site_type_symbol
_atom_site_label
_atom_site_fract_x
_atom_site_fract_y
_atom_site_fract_z
_atom_site_U_iso_or_equiv
_atom_site_adp_type
_atom_site_calc_flag
_atom_site_occupancy
Mn Mn1 1.0000 0.5000 0.5000 0.0332(2) Uani d 1
O O1 0.8453(4) 0.4037(2) 0.6214(2) 0.0391(6) Uani d 1
O O2 0.6896(4) 0.3986(2) 0.3315(2) 0.0436(6) Uani d 1
H H2A 0.572(4) 0.369(4) 0.351(4) 0.065 Uiso d 1
N N1 1.3099(5) 0.2705(3) 0.3871(3) 0.0400(7) Uani d 1
N N3 1.1742(5) 0.0904(3) 0.4302(3) 0.0413(7) Uani d 1
N N4 1.1535(4) 0.3104(2) 0.4585(3) 0.0333(6) Uani d 1
N N5 0.9138(5) 0.1828(2) 0.5528(3) 0.0366(6) Uani d 1
H H12 0.8723 0.1013 0.5541 0.044 Uiso d 1
N N2 1.3223(5) 0.1407(3) 0.3703(3) 0.0441(7) Uani d 1
C C11 0.7089(8) 0.3000(4) 0.2171(4) 0.0634(11) Uani d 1
H H11A 0.5570 0.2690 0.1568 0.076 Uiso calc 1
H H11B 0.8102 0.3400 0.1755 0.076 Uiso calc 1
H H11C 0.7725 0.2240 0.2413 0.076 Uiso calc 1
C C1 1.0766(5) 0.1965(3) 0.4818(3) 0.0315(7) Uani d 1
C C4 0.5350(6) 0.3112(3) 0.7578(3) 0.0376(8) Uani d 1
H H4 0.5434 0.4019 0.7567 0.045 Uiso calc 1
C C5 0.3852(6) 0.2679(3) 0.8341(3) 0.0383(8) Uani d 1
C C2 0.8115(5) 0.2815(3) 0.6190(3) 0.0340(7) Uani d 1
C C9 0.1333(7) 0.3244(5) 0.9799(4) 0.0642(12) Uani d 1
H H9 0.0584 0.3891 1.0270 0.077 Uiso calc 1
C C3 0.6586(6) 0.2326(3) 0.6907(3) 0.0376(8) Uani d 1
H H3 0.6483 0.1410 0.6887 0.045 Uiso calc 1
C C10 0.2713(6) 0.3610(4) 0.9041(4) 0.0504(9) Uani d 1
H H10 0.2872 0.4508 0.9006 0.061 Uiso calc 1
C C6 0.3548(8) 0.1346(4) 0.8402(5) 0.0691(13) Uani d 1
H H6 0.4292 0.0691 0.7935 0.083 Uiso calc 1
C C7 0.2163(10) 0.0986(4) 0.9142(5) 0.0931(19) Uani d 1
H H7 0.1956 0.0084 0.9162 0.112 Uiso calc 1
C C8 0.1081(9) 0.1933(5) 0.9850(5) 0.0777(14) Uani d 1
H H8 0.0173 0.1682 1.0367 0.093 Uiso calc 1
loop_
_atom_site_aniso_label
_atom_site_aniso_U_11
_atom_site_aniso_U_22
_atom_site_aniso_U_33
_atom_site_aniso_U_12
_atom_site_aniso_U_13
_atom_site_aniso_U_23
Mn1 0.0368(4) 0.0212(3) 0.0495(5) 0.0046(3) 0.0210(3) 0.0151(3)
O1 0.0506(14) 0.0243(11) 0.0535(14) 0.0065(10) 0.0287(12) 0.0165(10)
O2 0.0384(13) 0.0415(13) 0.0548(15) 0.0012(11) 0.0235(12) 0.0117(12)
N1 0.0401(16) 0.0306(14) 0.0604(19) 0.0084(12) 0.0289(14) 0.0169(13)
N3 0.0446(16) 0.0258(13) 0.0634(19) 0.0066(12) 0.0309(15) 0.0148(13)
N4 0.0345(14) 0.0228(13) 0.0522(17) 0.0065(11) 0.0228(13) 0.0161(12)
N5 0.0405(15) 0.0238(13) 0.0553(17) 0.0049(11) 0.0258(14) 0.0160(12)
N2 0.0473(17) 0.0309(15) 0.067(2) 0.0095(13) 0.0340(16) 0.0186(14)
C11 0.067(3) 0.071(3) 0.053(2) 0.011(2) 0.024(2) 0.010(2)
C1 0.0304(16) 0.0237(15) 0.0434(18) 0.0042(12) 0.0136(14) 0.0114(14)
C4 0.0429(19) 0.0311(16) 0.0428(19) 0.0034(14) 0.0156(16) 0.0139(15)
C5 0.0394(18) 0.0390(18) 0.0395(18) 0.0020(15) 0.0174(15) 0.0109(15)
C2 0.0357(17) 0.0287(16) 0.0426(18) 0.0051(13) 0.0147(15) 0.0144(14)
C9 0.061(3) 0.068(3) 0.079(3) 0.017(2) 0.045(2) 0.023(2)
C3 0.0450(19) 0.0267(16) 0.049(2) 0.0023(14) 0.0232(16) 0.0145(15)
C10 0.052(2) 0.048(2) 0.064(2) 0.0132(18) 0.030(2) 0.0224(19)
C6 0.101(3) 0.039(2) 0.088(3) 0.007(2) 0.067(3) 0.018(2)
C7 0.147(5) 0.042(2) 0.122(4) -0.001(3) 0.102(4) 0.022(3)
C8 0.088(3) 0.075(3) 0.090(3) 0.002(3) 0.063(3) 0.025(3)
loop_
_atom_type_symbol
_atom_type_description
_atom_type_scat_dispersion_real
_atom_type_scat_dispersion_imag
_atom_type_scat_source
C C 0.0033 0.0016 'International Tables Vol C Tables 4.2.6.8 and 6.1.1.4'
H H 0.0000 0.0000 'International Tables Vol C Tables 4.2.6.8 and 6.1.1.4'
Mn Mn 0.3368 0.7283 'International Tables Vol C Tables 4.2.6.8 and 6.1.1.4'
N N 0.0061 0.0033 'International Tables Vol C Tables 4.2.6.8 and 6.1.1.4'
O O 0.0106 0.0060 'International Tables Vol C Tables 4.2.6.8 and 6.1.1.4'
loop_
_geom_angle_atom_site_label_1
_geom_angle_atom_site_label_2
_geom_angle_atom_site_label_3
_geom_angle_site_symmetry_1
_geom_angle_site_symmetry_3
_geom_angle
O1 Mn1 O1 2_766 . 180.00(7)
O1 Mn1 N4 2_766 . 97.49(8)
O1 Mn1 N4 . . 82.51(8)
O1 Mn1 N4 2_766 2_766 82.51(8)
O1 Mn1 N4 . 2_766 97.50(8)
N4 Mn1 N4 . 2_766 180.0
O1 Mn1 O2 2_766 2_766 88.01(9)
O1 Mn1 O2 . 2_766 91.99(9)
N4 Mn1 O2 . 2_766 91.27(10)
N4 Mn1 O2 2_766 2_766 88.73(10)
O1 Mn1 O2 2_766 . 91.99(9)
O1 Mn1 O2 . . 88.01(9)
N4 Mn1 O2 . . 88.73(10)
N4 Mn1 O2 2_766 . 91.27(10)
O2 Mn1 O2 2_766 . 180.0
C2 O1 Mn1 . . 131.2(2)
C11 O2 Mn1 . . 122.2(2)
C11 O2 H2A . . 106(3)
Mn1 O2 H2A . . 116(3)
N2 N1 N4 . . 109.8(2)
C1 N3 N2 . . 104.4(2)
C1 N4 N1 . . 103.6(2)
C1 N4 Mn1 . . 124.40(19)
N1 N4 Mn1 . . 131.08(18)
C2 N5 C1 . . 127.9(3)
C2 N5 H12 . . 116.0
C1 N5 H12 . . 116.1
N1 N2 N3 . . 109.2(2)
O2 C11 H11A . . 109.5
O2 C11 H11B . . 109.5
H11A C11 H11B . . 109.5
O2 C11 H11C . . 109.5
H11A C11 H11C . . 109.5
H11B C11 H11C . . 109.5
N3 C1 N4 . . 112.9(3)
N3 C1 N5 . . 120.5(3)
N4 C1 N5 . . 126.6(3)
C3 C4 C5 . . 125.5(3)
C3 C4 H4 . . 117.2
C5 C4 H4 . . 117.2
C10 C5 C6 . . 117.6(3)
C10 C5 C4 . . 120.1(3)
C6 C5 C4 . . 122.3(3)
O1 C2 N5 . . 123.7(3)
O1 C2 C3 . . 122.7(3)
N5 C2 C3 . . 113.6(3)
C8 C9 C10 . . 119.6(4)
C8 C9 H9 . . 120.2
C10 C9 H9 . . 120.2
C4 C3 C2 . . 123.6(3)
C4 C3 H3 . . 118.2
C2 C3 H3 . . 118.2
C5 C10 C9 . . 121.6(4)
C5 C10 H10 . . 119.2
C9 C10 H10 . . 119.2
C7 C6 C5 . . 120.6(4)
C7 C6 H6 . . 119.7
C5 C6 H6 . . 119.7
C8 C7 C6 . . 120.8(4)
C8 C7 H7 . . 119.6
C6 C7 H7 . . 119.6
C9 C8 C7 . . 119.8(4)
C9 C8 H8 . . 120.1
C7 C8 H8 . . 120.1
loop_
_geom_bond_atom_site_label_1
_geom_bond_atom_site_label_2
_geom_bond_site_symmetry_2
_geom_bond_distance
Mn1 O1 2_766 2.160(2)
Mn1 O1 . 2.160(2)
Mn1 N4 . 2.185(2)
Mn1 N4 2_766 2.185(2)
Mn1 O2 2_766 2.237(3)
Mn1 O2 . 2.237(3)
O1 C2 . 1.247(3)
O2 C11 . 1.412(4)
O2 H2A . 0.837(10)
N1 N2 . 1.303(4)
N1 N4 . 1.358(3)
N3 C1 . 1.321(4)
N3 N2 . 1.354(4)
N4 C1 . 1.329(4)
N5 C2 . 1.344(4)
N5 C1 . 1.387(4)
N5 H12 . 0.8582
C11 H11A . 0.9600
C11 H11B . 0.9600
C11 H11C . 0.9600
C4 C3 . 1.317(4)
C4 C5 . 1.465(4)
C4 H4 . 0.9300
C5 C10 . 1.373(5)
C5 C6 . 1.386(5)
C2 C3 . 1.464(4)
C9 C8 . 1.358(6)
C9 C10 . 1.383(5)
C9 H9 . 0.9300
C3 H3 . 0.9300
C10 H10 . 0.9300
C6 C7 . 1.368(5)
C6 H6 . 0.9300
C7 C8 . 1.365(6)
C7 H7 . 0.9300
C8 H8 . 0.9300
loop_
_geom_hbond_atom_site_label_D
_geom_hbond_atom_site_label_H
_geom_hbond_atom_site_label_A
_geom_hbond_site_symmetry_A
_geom_hbond_distance_DH
_geom_hbond_distance_HA
_geom_hbond_distance_DA
_geom_hbond_angle_DHA
N5 H12 N3 2_756 0.86 2.02 2.873(4) 171.4
O2 H2A N1 1_455 0.837(10) 1.960(12) 2.790(3) 171(4)
loop_
_geom_torsion_atom_site_label_1
_geom_torsion_atom_site_label_2
_geom_torsion_atom_site_label_3
_geom_torsion_atom_site_label_4
_geom_torsion
N2 N1 N4 C1 0.0(4)
N2 N1 N4 Mn1 -169.3(2)
N4 N1 N2 N3 0.0(4)
C1 N3 N2 N1 0.0(4)
N2 N3 C1 N4 0.0(4)
N2 N3 C1 N5 -179.5(3)
N1 N4 C1 N3 0.0(4)
Mn1 N4 C1 N3 170.3(2)
N1 N4 C1 N5 179.4(3)
Mn1 N4 C1 N5 -10.3(5)
C2 N5 C1 N3 174.9(3)
C2 N5 C1 N4 -4.5(6)
C3 C4 C5 C10 177.6(4)
C3 C4 C5 C6 -1.6(6)
Mn1 O1 C2 N5 14.9(5)
Mn1 O1 C2 C3 -166.3(2)
C1 N5 C2 O1 2.7(6)
C1 N5 C2 C3 -176.2(3)
C5 C4 C3 C2 -178.1(3)
O1 C2 C3 C4 3.6(6)
N5 C2 C3 C4 -177.4(3)
C6 C5 C10 C9 0.9(6)
C4 C5 C10 C9 -178.3(4)
C8 C9 C10 C5 -0.4(7)
C10 C5 C6 C7 -0.2(7)
C4 C5 C6 C7 179.0(5)
C5 C6 C7 C8 -1.0(9)
C10 C9 C8 C7 -0.9(8)
C6 C7 C8 C9 1.5(9)

_cod_database_fobs_code 2020880
